MODEL 1
REMARK VINA RESULT:    -9.020      0.000      0.000
REMARK INTER + INTRA:         -10.512
REMARK INTER:                 -10.338
REMARK INTRA:                  -0.174
REMARK UNBOUND:                -0.174
REMARK SMILES O=c1c(-c2ccc(O)cc2)coc2c(O)c(O)ccc12
REMARK SMILES IDX 3 1 11 2 12 3 13 4 20 5 2 6 1 7 19 8 18 9 16 10 14 11 4 12
REMARK SMILES IDX 5 13 6 14 7 15 10 16 9 17 8 18 15 20 17 22
REMARK H PARENT 8 19 15 21 17 23
REMARK Flexibility Score: inf
ROOT
ATOM      1  C   UNL     1      -0.300  44.728   1.044  1.00  0.00     0.065 A 
ATOM      2  C   UNL     1       1.075  44.450   1.093  1.00  0.00     0.208 A 
ATOM      3  O   UNL     1       1.794  44.359  -0.020  1.00  0.00    -0.459 OA
ATOM      4  C   UNL     1       1.274  44.523  -1.231  1.00  0.00     0.183 A 
ATOM      5  C   UNL     1      -0.103  44.812  -1.378  1.00  0.00     0.069 A 
ATOM      6  C   UNL     1      -0.893  44.920  -0.219  1.00  0.00     0.200 A 
ATOM      7  O   UNL     1      -2.118  45.207  -0.308  1.00  0.00    -0.288 OA
ATOM      8  C   UNL     1      -0.640  44.988  -2.665  1.00  0.00     0.020 A 
ATOM      9  C   UNL     1       0.180  44.875  -3.789  1.00  0.00     0.051 A 
ATOM     10  C   UNL     1       1.543  44.586  -3.646  1.00  0.00     0.161 A 
ATOM     11  C   UNL     1       2.093  44.411  -2.369  1.00  0.00     0.201 A 
ENDROOT
BRANCH   1  12
ATOM     12  C   UNL     1      -1.082  44.817   2.302  1.00  0.00    -0.011 A 
ATOM     13  C   UNL     1      -2.038  43.836   2.622  1.00  0.00     0.013 A 
ATOM     14  C   UNL     1      -2.766  43.920   3.813  1.00  0.00     0.047 A 
ATOM     15  C   UNL     1      -2.545  44.982   4.700  1.00  0.00     0.115 A 
ATOM     16  C   UNL     1      -0.862  45.875   3.201  1.00  0.00     0.013 A 
ATOM     17  C   UNL     1      -1.592  45.956   4.391  1.00  0.00     0.047 A 
BRANCH  15  18
ATOM     18  O   UNL     1      -3.266  45.076   5.888  1.00  0.00    -0.508 OA
ATOM     19  H   UNL     1      -4.202  44.697   5.971  1.00  0.00     0.293 HD
ENDBRANCH  15  18
ENDBRANCH   1  12
BRANCH  11  20
ATOM     20  O   UNL     1       3.453  44.126  -2.248  1.00  0.00    -0.502 OA
ATOM     21  H   UNL     1       3.889  43.944  -1.351  1.00  0.00     0.293 HD
ENDBRANCH  11  20
BRANCH  10  22
ATOM     22  O   UNL     1       2.360  44.474  -4.770  1.00  0.00    -0.504 OA
ATOM     23  H   UNL     1       2.617  45.284  -5.321  1.00  0.00     0.293 HD
ENDBRANCH  10  22
TORSDOF 4
ENDMDL
MODEL 2
REMARK VINA RESULT:    -8.913      0.999      2.372
REMARK INTER + INTRA:         -10.389
REMARK INTER:                 -10.194
REMARK INTRA:                  -0.195
REMARK UNBOUND:                -0.174
REMARK SMILES O=c1c(-c2ccc(O)cc2)coc2c(O)c(O)ccc12
REMARK SMILES IDX 3 1 11 2 12 3 13 4 20 5 2 6 1 7 19 8 18 9 16 10 14 11 4 12
REMARK SMILES IDX 5 13 6 14 7 15 10 16 9 17 8 18 15 20 17 22
REMARK H PARENT 8 19 15 21 17 23
REMARK Flexibility Score: inf
ROOT
ATOM      1  C   UNL     1      -0.514  44.832   0.681  1.00  0.00     0.065 A 
ATOM      2  C   UNL     1      -1.293  45.070  -0.462  1.00  0.00     0.208 A 
ATOM      3  O   UNL     1      -0.754  45.037  -1.675  1.00  0.00    -0.459 OA
ATOM      4  C   UNL     1       0.532  44.781  -1.888  1.00  0.00     0.183 A 
ATOM      5  C   UNL     1       1.393  44.524  -0.795  1.00  0.00     0.069 A 
ATOM      6  C   UNL     1       0.853  44.546   0.504  1.00  0.00     0.200 A 
ATOM      7  O   UNL     1       1.583  44.290   1.501  1.00  0.00    -0.288 OA
ATOM      8  C   UNL     1       2.751  44.249  -1.033  1.00  0.00     0.020 A 
ATOM      9  C   UNL     1       3.246  44.235  -2.339  1.00  0.00     0.051 A 
ATOM     10  C   UNL     1       2.395  44.492  -3.422  1.00  0.00     0.161 A 
ATOM     11  C   UNL     1       1.039  44.764  -3.200  1.00  0.00     0.201 A 
ENDROOT
BRANCH   1  12
ATOM     12  C   UNL     1      -1.139  44.881   2.026  1.00  0.00    -0.011 A 
ATOM     13  C   UNL     1      -0.865  45.945   2.904  1.00  0.00     0.013 A 
ATOM     14  C   UNL     1      -1.464  45.992   4.167  1.00  0.00     0.047 A 
ATOM     15  C   UNL     1      -2.347  44.979   4.566  1.00  0.00     0.115 A 
ATOM     16  C   UNL     1      -2.032  43.874   2.431  1.00  0.00     0.013 A 
ATOM     17  C   UNL     1      -2.628  43.923   3.694  1.00  0.00     0.047 A 
BRANCH  15  18
ATOM     18  O   UNL     1      -2.948  45.015   5.822  1.00  0.00    -0.508 OA
ATOM     19  H   UNL     1      -3.367  44.189   6.232  1.00  0.00     0.293 HD
ENDBRANCH  15  18
ENDBRANCH   1  12
BRANCH  11  20
ATOM     20  O   UNL     1       0.208  45.015  -4.292  1.00  0.00    -0.502 OA
ATOM     21  H   UNL     1       0.411  45.741  -4.970  1.00  0.00     0.293 HD
ENDBRANCH  11  20
BRANCH  10  22
ATOM     22  O   UNL     1       2.891  44.477  -4.724  1.00  0.00    -0.504 OA
ATOM     23  H   UNL     1       3.151  45.332  -5.202  1.00  0.00     0.293 HD
ENDBRANCH  10  22
TORSDOF 4
ENDMDL
MODEL 3
REMARK VINA RESULT:    -8.709      1.553      7.399
REMARK INTER + INTRA:         -10.156
REMARK INTER:                 -10.172
REMARK INTRA:                   0.016
REMARK UNBOUND:                -0.174
REMARK SMILES O=c1c(-c2ccc(O)cc2)coc2c(O)c(O)ccc12
REMARK SMILES IDX 3 1 11 2 12 3 13 4 20 5 2 6 1 7 19 8 18 9 16 10 14 11 4 12
REMARK SMILES IDX 5 13 6 14 7 15 10 16 9 17 8 18 15 20 17 22
REMARK H PARENT 8 19 15 21 17 23
REMARK Flexibility Score: inf
ROOT
ATOM      1  C   UNL     1      -1.240  44.894   1.297  1.00  0.00     0.065 A 
ATOM      2  C   UNL     1      -2.454  44.203   1.438  1.00  0.00     0.208 A 
ATOM      3  O   UNL     1      -3.085  44.164   2.605  1.00  0.00    -0.459 OA
ATOM      4  C   UNL     1      -2.623  44.763   3.698  1.00  0.00     0.183 A 
ATOM      5  C   UNL     1      -1.409  45.486   3.648  1.00  0.00     0.069 A 
ATOM      6  C   UNL     1      -0.717  45.553   2.426  1.00  0.00     0.200 A 
ATOM      7  O   UNL     1       0.354  46.215   2.336  1.00  0.00    -0.288 OA
ATOM      8  C   UNL     1      -0.933  46.120   4.810  1.00  0.00     0.020 A 
ATOM      9  C   UNL     1      -1.653  46.031   6.003  1.00  0.00     0.051 A 
ATOM     10  C   UNL     1      -2.854  45.313   6.054  1.00  0.00     0.161 A 
ATOM     11  C   UNL     1      -3.342  44.678   4.904  1.00  0.00     0.201 A 
ENDROOT
BRANCH   1  12
ATOM     12  C   UNL     1      -0.550  44.917  -0.017  1.00  0.00    -0.011 A 
ATOM     13  C   UNL     1       0.798  44.531  -0.125  1.00  0.00     0.013 A 
ATOM     14  C   UNL     1       1.441  44.545  -1.367  1.00  0.00     0.047 A 
ATOM     15  C   UNL     1       0.744  44.942  -2.516  1.00  0.00     0.115 A 
ATOM     16  C   UNL     1      -1.244  45.306  -1.175  1.00  0.00     0.013 A 
ATOM     17  C   UNL     1      -0.598  45.320  -2.416  1.00  0.00     0.047 A 
BRANCH  15  18
ATOM     18  O   UNL     1       1.374  44.962  -3.757  1.00  0.00    -0.508 OA
ATOM     19  H   UNL     1       2.339  45.255  -3.857  1.00  0.00     0.293 HD
ENDBRANCH  15  18
ENDBRANCH   1  12
BRANCH  11  20
ATOM     20  O   UNL     1      -4.542  43.970   4.975  1.00  0.00    -0.502 OA
ATOM     21  H   UNL     1      -5.280  44.221   5.622  1.00  0.00     0.293 HD
ENDBRANCH  11  20
BRANCH  10  22
ATOM     22  O   UNL     1      -3.572  45.225   7.246  1.00  0.00    -0.504 OA
ATOM     23  H   UNL     1      -4.438  45.734   7.382  1.00  0.00     0.293 HD
ENDBRANCH  10  22
TORSDOF 4
ENDMDL
MODEL 4
REMARK VINA RESULT:    -8.673      1.541      7.379
REMARK INTER + INTRA:         -10.114
REMARK INTER:                 -10.139
REMARK INTRA:                   0.025
REMARK UNBOUND:                -0.174
REMARK SMILES O=c1c(-c2ccc(O)cc2)coc2c(O)c(O)ccc12
REMARK SMILES IDX 3 1 11 2 12 3 13 4 20 5 2 6 1 7 19 8 18 9 16 10 14 11 4 12
REMARK SMILES IDX 5 13 6 14 7 15 10 16 9 17 8 18 15 20 17 22
REMARK H PARENT 8 19 15 21 17 23
REMARK Flexibility Score: inf
ROOT
ATOM      1  C   UNL     1      -1.223  44.919   1.288  1.00  0.00     0.065 A 
ATOM      2  C   UNL     1      -2.458  44.267   1.432  1.00  0.00     0.208 A 
ATOM      3  O   UNL     1      -3.085  44.243   2.602  1.00  0.00    -0.459 OA
ATOM      4  C   UNL     1      -2.598  44.823   3.694  1.00  0.00     0.183 A 
ATOM      5  C   UNL     1      -1.361  45.508   3.642  1.00  0.00     0.069 A 
ATOM      6  C   UNL     1      -0.674  45.557   2.416  1.00  0.00     0.200 A 
ATOM      7  O   UNL     1       0.417  46.185   2.323  1.00  0.00    -0.288 OA
ATOM      8  C   UNL     1      -0.861  46.121   4.803  1.00  0.00     0.020 A 
ATOM      9  C   UNL     1      -1.577  46.051   6.000  1.00  0.00     0.051 A 
ATOM     10  C   UNL     1      -2.800  45.371   6.054  1.00  0.00     0.161 A 
ATOM     11  C   UNL     1      -3.314  44.757   4.904  1.00  0.00     0.201 A 
ENDROOT
BRANCH   1  12
ATOM     12  C   UNL     1      -0.539  44.925  -0.030  1.00  0.00    -0.011 A 
ATOM     13  C   UNL     1      -1.212  45.366  -1.184  1.00  0.00     0.013 A 
ATOM     14  C   UNL     1      -0.560  45.378  -2.421  1.00  0.00     0.047 A 
ATOM     15  C   UNL     1       0.772  44.954  -2.520  1.00  0.00     0.115 A 
ATOM     16  C   UNL     1       0.799  44.509  -0.137  1.00  0.00     0.013 A 
ATOM     17  C   UNL     1       1.447  44.522  -1.375  1.00  0.00     0.047 A 
BRANCH  15  18
ATOM     18  O   UNL     1       1.430  44.961  -3.747  1.00  0.00    -0.508 OA
ATOM     19  H   UNL     1       2.440  45.012  -3.806  1.00  0.00     0.293 HD
ENDBRANCH  15  18
ENDBRANCH   1  12
BRANCH  11  20
ATOM     20  O   UNL     1      -4.535  44.086   4.978  1.00  0.00    -0.502 OA
ATOM     21  H   UNL     1      -5.143  44.159   5.786  1.00  0.00     0.293 HD
ENDBRANCH  11  20
BRANCH  10  22
ATOM     22  O   UNL     1      -3.514  45.302   7.249  1.00  0.00    -0.504 OA
ATOM     23  H   UNL     1      -3.096  45.570   8.132  1.00  0.00     0.293 HD
ENDBRANCH  10  22
TORSDOF 4
ENDMDL
MODEL 5
REMARK VINA RESULT:    -8.668      1.854      7.445
REMARK INTER + INTRA:         -10.108
REMARK INTER:                 -10.051
REMARK INTRA:                  -0.057
REMARK UNBOUND:                -0.174
REMARK SMILES O=c1c(-c2ccc(O)cc2)coc2c(O)c(O)ccc12
REMARK SMILES IDX 3 1 11 2 12 3 13 4 20 5 2 6 1 7 19 8 18 9 16 10 14 11 4 12
REMARK SMILES IDX 5 13 6 14 7 15 10 16 9 17 8 18 15 20 17 22
REMARK H PARENT 8 19 15 21 17 23
REMARK Flexibility Score: inf
ROOT
ATOM      1  C   UNL     1      -0.854  45.458   2.364  1.00  0.00     0.065 A 
ATOM      2  C   UNL     1       0.003  46.231   3.161  1.00  0.00     0.208 A 
ATOM      3  O   UNL     1      -0.267  46.448   4.443  1.00  0.00    -0.459 OA
ATOM      4  C   UNL     1      -1.344  45.957   5.048  1.00  0.00     0.183 A 
ATOM      5  C   UNL     1      -2.262  45.161   4.323  1.00  0.00     0.069 A 
ATOM      6  C   UNL     1      -2.003  44.908   2.964  1.00  0.00     0.200 A 
ATOM      7  O   UNL     1      -2.782  44.176   2.293  1.00  0.00    -0.288 OA
ATOM      8  C   UNL     1      -3.394  44.644   4.976  1.00  0.00     0.020 A 
ATOM      9  C   UNL     1      -3.612  44.917   6.327  1.00  0.00     0.051 A 
ATOM     10  C   UNL     1      -2.705  45.707   7.045  1.00  0.00     0.161 A 
ATOM     11  C   UNL     1      -1.571  46.228   6.409  1.00  0.00     0.201 A 
ENDROOT
BRANCH   1  12
ATOM     12  C   UNL     1      -0.533  45.236   0.932  1.00  0.00    -0.011 A 
ATOM     13  C   UNL     1      -1.434  45.633  -0.074  1.00  0.00     0.013 A 
ATOM     14  C   UNL     1      -1.122  45.431  -1.422  1.00  0.00     0.047 A 
ATOM     15  C   UNL     1       0.093  44.834  -1.783  1.00  0.00     0.115 A 
ATOM     16  C   UNL     1       0.686  44.645   0.561  1.00  0.00     0.013 A 
ATOM     17  C   UNL     1       0.994  44.443  -0.788  1.00  0.00     0.047 A 
BRANCH  15  18
ATOM     18  O   UNL     1       0.413  44.626  -3.122  1.00  0.00    -0.508 OA
ATOM     19  H   UNL     1      -0.019  45.170  -3.860  1.00  0.00     0.293 HD
ENDBRANCH  15  18
ENDBRANCH   1  12
BRANCH  11  20
ATOM     20  O   UNL     1      -0.679  47.011   7.143  1.00  0.00    -0.502 OA
ATOM     21  H   UNL     1       0.290  47.126   6.869  1.00  0.00     0.293 HD
ENDBRANCH  11  20
BRANCH  10  22
ATOM     22  O   UNL     1      -2.924  45.979   8.395  1.00  0.00    -0.504 OA
ATOM     23  H   UNL     1      -2.283  45.658   9.111  1.00  0.00     0.293 HD
ENDBRANCH  10  22
TORSDOF 4
ENDMDL
MODEL 6
REMARK VINA RESULT:    -8.174      1.825      3.228
REMARK INTER + INTRA:          -9.542
REMARK INTER:                  -9.554
REMARK INTRA:                   0.012
REMARK UNBOUND:                -0.174
REMARK SMILES O=c1c(-c2ccc(O)cc2)coc2c(O)c(O)ccc12
REMARK SMILES IDX 3 1 11 2 12 3 13 4 20 5 2 6 1 7 19 8 18 9 16 10 14 11 4 12
REMARK SMILES IDX 5 13 6 14 7 15 10 16 9 17 8 18 15 20 17 22
REMARK H PARENT 8 19 15 21 17 23
REMARK Flexibility Score: inf
ROOT
ATOM      1  C   UNL     1       0.340  44.614  -0.942  1.00  0.00     0.065 A 
ATOM      2  C   UNL     1      -0.022  44.724  -2.293  1.00  0.00     0.208 A 
ATOM      3  O   UNL     1       0.894  44.655  -3.253  1.00  0.00    -0.459 OA
ATOM      4  C   UNL     1       2.188  44.480  -3.006  1.00  0.00     0.183 A 
ATOM      5  C   UNL     1       2.643  44.354  -1.672  1.00  0.00     0.069 A 
ATOM      6  C   UNL     1       1.699  44.417  -0.632  1.00  0.00     0.200 A 
ATOM      7  O   UNL     1       2.064  44.278   0.568  1.00  0.00    -0.288 OA
ATOM      8  C   UNL     1       4.014  44.164  -1.425  1.00  0.00     0.020 A 
ATOM      9  C   UNL     1       4.918  44.104  -2.488  1.00  0.00     0.051 A 
ATOM     10  C   UNL     1       4.468  44.231  -3.808  1.00  0.00     0.161 A 
ATOM     11  C   UNL     1       3.105  44.418  -4.071  1.00  0.00     0.201 A 
ENDROOT
BRANCH   1  12
ATOM     12  C   UNL     1      -0.702  44.702   0.112  1.00  0.00    -0.011 A 
ATOM     13  C   UNL     1      -1.563  45.812   0.177  1.00  0.00     0.013 A 
ATOM     14  C   UNL     1      -2.549  45.886   1.167  1.00  0.00     0.047 A 
ATOM     15  C   UNL     1      -2.689  44.850   2.100  1.00  0.00     0.115 A 
ATOM     16  C   UNL     1      -0.855  43.664   1.047  1.00  0.00     0.013 A 
ATOM     17  C   UNL     1      -1.841  43.741   2.036  1.00  0.00     0.047 A 
BRANCH  15  18
ATOM     18  O   UNL     1      -3.666  44.913   3.090  1.00  0.00    -0.508 OA
ATOM     19  H   UNL     1      -4.033  44.076   3.526  1.00  0.00     0.293 HD
ENDBRANCH  15  18
ENDBRANCH   1  12
BRANCH  11  20
ATOM     20  O   UNL     1       2.677  44.540  -5.393  1.00  0.00    -0.502 OA
ATOM     21  H   UNL     1       1.699  44.479  -5.652  1.00  0.00     0.293 HD
ENDBRANCH  11  20
BRANCH  10  22
ATOM     22  O   UNL     1       5.372  44.171  -4.868  1.00  0.00    -0.504 OA
ATOM     23  H   UNL     1       6.144  44.823  -4.943  1.00  0.00     0.293 HD
ENDBRANCH  10  22
TORSDOF 4
ENDMDL
MODEL 7
REMARK VINA RESULT:    -8.022      3.239      8.223
REMARK INTER + INTRA:          -9.369
REMARK INTER:                  -9.402
REMARK INTRA:                   0.033
REMARK UNBOUND:                -0.174
REMARK SMILES O=c1c(-c2ccc(O)cc2)coc2c(O)c(O)ccc12
REMARK SMILES IDX 3 1 11 2 12 3 13 4 20 5 2 6 1 7 19 8 18 9 16 10 14 11 4 12
REMARK SMILES IDX 5 13 6 14 7 15 10 16 9 17 8 18 15 20 17 22
REMARK H PARENT 8 19 15 21 17 23
REMARK Flexibility Score: inf
ROOT
ATOM      1  C   UNL     1      -1.623  45.652   4.265  1.00  0.00     0.065 A 
ATOM      2  C   UNL     1      -2.646  45.302   5.160  1.00  0.00     0.208 A 
ATOM      3  O   UNL     1      -2.524  45.538   6.461  1.00  0.00    -0.459 OA
ATOM      4  C   UNL     1      -1.450  46.110   6.995  1.00  0.00     0.183 A 
ATOM      5  C   UNL     1      -0.371  46.501   6.167  1.00  0.00     0.069 A 
ATOM      6  C   UNL     1      -0.470  46.270   4.783  1.00  0.00     0.200 A 
ATOM      7  O   UNL     1       0.459  46.634   4.010  1.00  0.00    -0.288 OA
ATOM      8  C   UNL     1       0.757  47.110   6.744  1.00  0.00     0.020 A 
ATOM      9  C   UNL     1       0.813  47.323   8.122  1.00  0.00     0.051 A 
ATOM     10  C   UNL     1      -0.253  46.934   8.943  1.00  0.00     0.161 A 
ATOM     11  C   UNL     1      -1.386  46.328   8.383  1.00  0.00     0.201 A 
ENDROOT
BRANCH   1  12
ATOM     12  C   UNL     1      -1.780  45.371   2.816  1.00  0.00    -0.011 A 
ATOM     13  C   UNL     1      -2.103  44.076   2.368  1.00  0.00     0.013 A 
ATOM     14  C   UNL     1      -2.259  43.819   1.002  1.00  0.00     0.047 A 
ATOM     15  C   UNL     1      -2.099  44.851   0.068  1.00  0.00     0.115 A 
ATOM     16  C   UNL     1      -1.630  46.401   1.873  1.00  0.00     0.013 A 
ATOM     17  C   UNL     1      -1.785  46.141   0.508  1.00  0.00     0.047 A 
BRANCH  15  18
ATOM     18  O   UNL     1      -2.251  44.606  -1.294  1.00  0.00    -0.508 OA
ATOM     19  H   UNL     1      -1.642  45.034  -1.980  1.00  0.00     0.293 HD
ENDBRANCH  15  18
ENDBRANCH   1  12
BRANCH  11  20
ATOM     20  O   UNL     1      -2.438  45.951   9.217  1.00  0.00    -0.502 OA
ATOM     21  H   UNL     1      -2.400  46.072  10.223  1.00  0.00     0.293 HD
ENDBRANCH  11  20
BRANCH  10  22
ATOM     22  O   UNL     1      -0.196  47.148  10.319  1.00  0.00    -0.504 OA
ATOM     23  H   UNL     1      -0.923  46.808  10.939  1.00  0.00     0.293 HD
ENDBRANCH  10  22
TORSDOF 4
ENDMDL
MODEL 8
REMARK VINA RESULT:    -7.896      4.766      7.869
REMARK INTER + INTRA:          -9.224
REMARK INTER:                  -9.372
REMARK INTRA:                   0.148
REMARK UNBOUND:                -0.174
REMARK SMILES O=c1c(-c2ccc(O)cc2)coc2c(O)c(O)ccc12
REMARK SMILES IDX 3 1 11 2 12 3 13 4 20 5 2 6 1 7 19 8 18 9 16 10 14 11 4 12
REMARK SMILES IDX 5 13 6 14 7 15 10 16 9 17 8 18 15 20 17 22
REMARK H PARENT 8 19 15 21 17 23
REMARK Flexibility Score: inf
ROOT
ATOM      1  C   UNL     1      -0.822  46.615   7.657  1.00  0.00     0.065 A 
ATOM      2  C   UNL     1      -2.098  46.074   7.877  1.00  0.00     0.208 A 
ATOM      3  O   UNL     1      -2.803  45.559   6.877  1.00  0.00    -0.459 OA
ATOM      4  C   UNL     1      -2.359  45.519   5.625  1.00  0.00     0.183 A 
ATOM      5  C   UNL     1      -1.081  46.037   5.310  1.00  0.00     0.069 A 
ATOM      6  C   UNL     1      -0.306  46.586   6.348  1.00  0.00     0.200 A 
ATOM      7  O   UNL     1       0.852  47.029   6.111  1.00  0.00    -0.288 OA
ATOM      8  C   UNL     1      -0.621  45.985   3.983  1.00  0.00     0.020 A 
ATOM      9  C   UNL     1      -1.422  45.429   2.984  1.00  0.00     0.051 A 
ATOM     10  C   UNL     1      -2.689  44.918   3.293  1.00  0.00     0.161 A 
ATOM     11  C   UNL     1      -3.160  44.961   4.612  1.00  0.00     0.201 A 
ENDROOT
BRANCH   1  12
ATOM     12  C   UNL     1      -0.058  47.192   8.791  1.00  0.00    -0.011 A 
ATOM     13  C   UNL     1       0.013  46.517  10.023  1.00  0.00     0.013 A 
ATOM     14  C   UNL     1       0.743  47.061  11.086  1.00  0.00     0.047 A 
ATOM     15  C   UNL     1       1.413  48.281  10.929  1.00  0.00     0.115 A 
ATOM     16  C   UNL     1       0.624  48.412   8.640  1.00  0.00     0.013 A 
ATOM     17  C   UNL     1       1.351  48.953   9.705  1.00  0.00     0.047 A 
BRANCH  15  18
ATOM     18  O   UNL     1       2.141  48.832  11.981  1.00  0.00    -0.508 OA
ATOM     19  H   UNL     1       3.071  49.209  11.841  1.00  0.00     0.293 HD
ENDBRANCH  15  18
ENDBRANCH   1  12
BRANCH  11  20
ATOM     20  O   UNL     1      -4.423  44.444   4.900  1.00  0.00    -0.502 OA
ATOM     21  H   UNL     1      -5.261  45.014   4.862  1.00  0.00     0.293 HD
ENDBRANCH  11  20
BRANCH  10  22
ATOM     22  O   UNL     1      -3.487  44.363   2.294  1.00  0.00    -0.504 OA
ATOM     23  H   UNL     1      -3.083  43.934   1.470  1.00  0.00     0.293 HD
ENDBRANCH  10  22
TORSDOF 4
ENDMDL
MODEL 9
REMARK VINA RESULT:    -7.769      5.357      8.351
REMARK INTER + INTRA:          -9.078
REMARK INTER:                  -9.059
REMARK INTRA:                  -0.019
REMARK UNBOUND:                -0.174
REMARK SMILES O=c1c(-c2ccc(O)cc2)coc2c(O)c(O)ccc12
REMARK SMILES IDX 3 1 11 2 12 3 13 4 20 5 2 6 1 7 19 8 18 9 16 10 14 11 4 12
REMARK SMILES IDX 5 13 6 14 7 15 10 16 9 17 8 18 15 20 17 22
REMARK H PARENT 8 19 15 21 17 23
REMARK Flexibility Score: inf
ROOT
ATOM      1  C   UNL     1      -0.106  46.914   7.968  1.00  0.00     0.065 A 
ATOM      2  C   UNL     1       0.561  47.045   6.740  1.00  0.00     0.208 A 
ATOM      3  O   UNL     1       0.003  46.622   5.611  1.00  0.00    -0.459 OA
ATOM      4  C   UNL     1      -1.200  46.060   5.566  1.00  0.00     0.183 A 
ATOM      5  C   UNL     1      -1.948  45.893   6.755  1.00  0.00     0.069 A 
ATOM      6  C   UNL     1      -1.389  46.334   7.967  1.00  0.00     0.200 A 
ATOM      7  O   UNL     1      -2.040  46.229   9.044  1.00  0.00    -0.288 OA
ATOM      8  C   UNL     1      -3.222  45.301   6.692  1.00  0.00     0.020 A 
ATOM      9  C   UNL     1      -3.741  44.879   5.467  1.00  0.00     0.051 A 
ATOM     10  C   UNL     1      -3.001  45.042   4.290  1.00  0.00     0.161 A 
ATOM     11  C   UNL     1      -1.731  45.633   4.335  1.00  0.00     0.201 A 
ENDROOT
BRANCH   1  12
ATOM     12  C   UNL     1       0.542  47.388   9.216  1.00  0.00    -0.011 A 
ATOM     13  C   UNL     1       0.719  46.517  10.306  1.00  0.00     0.013 A 
ATOM     14  C   UNL     1       1.339  46.966  11.477  1.00  0.00     0.047 A 
ATOM     15  C   UNL     1       1.793  48.288  11.571  1.00  0.00     0.115 A 
ATOM     16  C   UNL     1       1.007  48.710   9.316  1.00  0.00     0.013 A 
ATOM     17  C   UNL     1       1.626  49.156  10.488  1.00  0.00     0.047 A 
BRANCH  15  18
ATOM     18  O   UNL     1       2.410  48.745  12.732  1.00  0.00    -0.508 OA
ATOM     19  H   UNL     1       3.348  49.129  12.718  1.00  0.00     0.293 HD
ENDBRANCH  15  18
ENDBRANCH   1  12
BRANCH  11  20
ATOM     20  O   UNL     1      -1.010  45.788   3.151  1.00  0.00    -0.502 OA
ATOM     21  H   UNL     1      -0.440  45.044   2.764  1.00  0.00     0.293 HD
ENDBRANCH  11  20
BRANCH  10  22
ATOM     22  O   UNL     1      -3.521  44.621   3.067  1.00  0.00    -0.504 OA
ATOM     23  H   UNL     1      -3.837  43.668   2.926  1.00  0.00     0.293 HD
ENDBRANCH  10  22
TORSDOF 4
ENDMDL
