MODEL 1
REMARK VINA RESULT:    -3.740      0.000      0.000
REMARK INTER + INTRA:          -4.048
REMARK INTER:                  -3.959
REMARK INTRA:                  -0.090
REMARK UNBOUND:                -0.090
REMARK SMILES C=C(C)[C@H]1CC=C(C)C(=O)C1
REMARK SMILES IDX 8 1 7 2 6 3 5 4 4 5 11 6 9 7 10 8 2 9 1 10 3 11
REMARK H PARENT
REMARK Flexibility Score: inf
ROOT
ATOM      1  C   UNL     1      28.581  37.720  19.729  1.00  0.00     0.048 C 
ATOM      2  C   UNL     1      28.176  39.152  19.946  1.00  0.00    -0.012 C 
ATOM      3  C   UNL     1      29.100  40.126  19.878  1.00  0.00    -0.019 C 
ATOM      4  C   UNL     1      28.752  41.573  20.104  1.00  0.00     0.036 C 
ATOM      5  C   UNL     1      27.323  41.883  19.620  1.00  0.00     0.025 C 
ATOM      6  C   UNL     1      26.314  40.930  20.288  1.00  0.00     0.089 C 
ATOM      7  C   UNL     1      26.742  39.499  20.110  1.00  0.00     0.158 C 
ATOM      8  O   UNL     1      25.870  38.589  20.137  1.00  0.00    -0.295 OA
ENDROOT
BRANCH   5   9
ATOM      9  C   UNL     1      26.955  43.342  19.852  1.00  0.00    -0.077 C 
ATOM     10  C   UNL     1      26.425  44.094  18.872  1.00  0.00     0.008 C 
ATOM     11  C   UNL     1      27.180  43.973  21.202  1.00  0.00     0.039 C 
ENDBRANCH   5   9
TORSDOF 1
ENDMDL
MODEL 2
REMARK VINA RESULT:    -3.495     13.142     15.641
REMARK INTER + INTRA:          -3.789
REMARK INTER:                  -3.700
REMARK INTRA:                  -0.090
REMARK UNBOUND:                -0.090
REMARK SMILES C=C(C)[C@H]1CC=C(C)C(=O)C1
REMARK SMILES IDX 8 1 7 2 6 3 5 4 4 5 11 6 9 7 10 8 2 9 1 10 3 11
REMARK H PARENT
REMARK Flexibility Score: inf
ROOT
ATOM      1  C   UNL     1      26.075  24.245  28.451  1.00  0.00     0.048 C 
ATOM      2  C   UNL     1      26.724  25.465  27.858  1.00  0.00    -0.012 C 
ATOM      3  C   UNL     1      27.250  25.409  26.622  1.00  0.00    -0.019 C 
ATOM      4  C   UNL     1      27.925  26.594  25.986  1.00  0.00     0.036 C 
ATOM      5  C   UNL     1      27.281  27.914  26.450  1.00  0.00     0.025 C 
ATOM      6  C   UNL     1      27.281  27.998  27.988  1.00  0.00     0.089 C 
ATOM      7  C   UNL     1      26.672  26.758  28.584  1.00  0.00     0.158 C 
ATOM      8  O   UNL     1      26.147  26.821  29.728  1.00  0.00    -0.295 OA
ENDROOT
BRANCH   5   9
ATOM      9  C   UNL     1      27.962  29.124  25.823  1.00  0.00    -0.077 C 
ATOM     10  C   UNL     1      27.612  29.570  24.605  1.00  0.00     0.008 C 
ATOM     11  C   UNL     1      29.053  29.848  26.570  1.00  0.00     0.039 C 
ENDBRANCH   5   9
TORSDOF 1
ENDMDL
MODEL 3
REMARK VINA RESULT:    -3.454      1.619      2.174
REMARK INTER + INTRA:          -3.745
REMARK INTER:                  -3.652
REMARK INTRA:                  -0.094
REMARK UNBOUND:                -0.090
REMARK SMILES C=C(C)[C@H]1CC=C(C)C(=O)C1
REMARK SMILES IDX 8 1 7 2 6 3 5 4 4 5 11 6 9 7 10 8 2 9 1 10 3 11
REMARK H PARENT
REMARK Flexibility Score: inf
ROOT
ATOM      1  C   UNL     1      25.570  38.003  20.131  1.00  0.00     0.048 C 
ATOM      2  C   UNL     1      26.050  39.419  19.967  1.00  0.00    -0.012 C 
ATOM      3  C   UNL     1      25.642  40.368  20.828  1.00  0.00    -0.019 C 
ATOM      4  C   UNL     1      26.078  41.803  20.701  1.00  0.00     0.036 C 
ATOM      5  C   UNL     1      27.502  41.901  20.124  1.00  0.00     0.025 C 
ATOM      6  C   UNL     1      27.590  41.144  18.785  1.00  0.00     0.089 C 
ATOM      7  C   UNL     1      27.069  39.741  18.936  1.00  0.00     0.158 C 
ATOM      8  O   UNL     1      27.481  38.844  18.152  1.00  0.00    -0.295 OA
ENDROOT
BRANCH   5   9
ATOM      9  C   UNL     1      27.953  43.349  19.979  1.00  0.00    -0.077 C 
ATOM     10  C   UNL     1      27.505  44.124  18.977  1.00  0.00     0.008 C 
ATOM     11  C   UNL     1      28.920  43.942  20.972  1.00  0.00     0.039 C 
ENDBRANCH   5   9
TORSDOF 1
ENDMDL
MODEL 4
REMARK VINA RESULT:    -3.432     12.092     14.940
REMARK INTER + INTRA:          -3.722
REMARK INTER:                  -3.628
REMARK INTRA:                  -0.094
REMARK UNBOUND:                -0.090
REMARK SMILES C=C(C)[C@H]1CC=C(C)C(=O)C1
REMARK SMILES IDX 8 1 7 2 6 3 5 4 4 5 11 6 9 7 10 8 2 9 1 10 3 11
REMARK H PARENT
REMARK Flexibility Score: inf
ROOT
ATOM      1  C   UNL     1      29.124  31.363  25.498  1.00  0.00     0.048 C 
ATOM      2  C   UNL     1      28.753  30.088  26.205  1.00  0.00    -0.012 C 
ATOM      3  C   UNL     1      29.085  29.918  27.496  1.00  0.00    -0.019 C 
ATOM      4  C   UNL     1      28.753  28.656  28.247  1.00  0.00     0.036 C 
ATOM      5  C   UNL     1      27.434  28.041  27.741  1.00  0.00     0.025 C 
ATOM      6  C   UNL     1      27.499  27.814  26.219  1.00  0.00     0.089 C 
ATOM      7  C   UNL     1      27.914  29.077  25.514  1.00  0.00     0.158 C 
ATOM      8  O   UNL     1      27.571  29.251  24.314  1.00  0.00    -0.295 OA
ENDROOT
BRANCH   5   9
ATOM      9  C   UNL     1      27.091  26.757  28.485  1.00  0.00    -0.077 C 
ATOM     10  C   UNL     1      28.042  25.872  28.830  1.00  0.00     0.008 C 
ATOM     11  C   UNL     1      25.660  26.455  28.851  1.00  0.00     0.039 C 
ENDBRANCH   5   9
TORSDOF 1
ENDMDL
MODEL 5
REMARK VINA RESULT:    -3.430      2.096      4.321
REMARK INTER + INTRA:          -3.720
REMARK INTER:                  -3.626
REMARK INTRA:                  -0.094
REMARK UNBOUND:                -0.090
REMARK SMILES C=C(C)[C@H]1CC=C(C)C(=O)C1
REMARK SMILES IDX 8 1 7 2 6 3 5 4 4 5 11 6 9 7 10 8 2 9 1 10 3 11
REMARK H PARENT
REMARK Flexibility Score: inf
ROOT
ATOM      1  C   UNL     1      27.660  44.125  22.753  1.00  0.00     0.048 C 
ATOM      2  C   UNL     1      27.535  42.923  21.859  1.00  0.00    -0.012 C 
ATOM      3  C   UNL     1      27.073  43.068  20.604  1.00  0.00    -0.019 C 
ATOM      4  C   UNL     1      26.912  41.897  19.672  1.00  0.00     0.036 C 
ATOM      5  C   UNL     1      27.983  40.823  19.939  1.00  0.00     0.025 C 
ATOM      6  C   UNL     1      27.956  40.398  21.420  1.00  0.00     0.089 C 
ATOM      7  C   UNL     1      28.037  41.603  22.317  1.00  0.00     0.158 C 
ATOM      8  O   UNL     1      28.504  41.473  23.480  1.00  0.00    -0.295 OA
ENDROOT
BRANCH   5   9
ATOM      9  C   UNL     1      27.825  39.627  19.010  1.00  0.00    -0.077 C 
ATOM     10  C   UNL     1      26.614  39.216  18.599  1.00  0.00     0.008 C 
ATOM     11  C   UNL     1      29.042  38.877  18.530  1.00  0.00     0.039 C 
ENDBRANCH   5   9
TORSDOF 1
ENDMDL
MODEL 6
REMARK VINA RESULT:    -3.385      2.246      4.461
REMARK INTER + INTRA:          -3.672
REMARK INTER:                  -3.582
REMARK INTRA:                  -0.091
REMARK UNBOUND:                -0.090
REMARK SMILES C=C(C)[C@H]1CC=C(C)C(=O)C1
REMARK SMILES IDX 8 1 7 2 6 3 5 4 4 5 11 6 9 7 10 8 2 9 1 10 3 11
REMARK H PARENT
REMARK Flexibility Score: inf
ROOT
ATOM      1  C   UNL     1      27.433  44.125  22.734  1.00  0.00     0.048 C 
ATOM      2  C   UNL     1      27.402  42.893  21.872  1.00  0.00    -0.012 C 
ATOM      3  C   UNL     1      27.682  41.693  22.409  1.00  0.00    -0.019 C 
ATOM      4  C   UNL     1      27.683  40.431  21.589  1.00  0.00     0.036 C 
ATOM      5  C   UNL     1      26.639  40.503  20.459  1.00  0.00     0.025 C 
ATOM      6  C   UNL     1      26.869  41.759  19.597  1.00  0.00     0.089 C 
ATOM      7  C   UNL     1      26.944  42.987  20.463  1.00  0.00     0.158 C 
ATOM      8  O   UNL     1      26.647  44.107  19.967  1.00  0.00    -0.295 OA
ENDROOT
BRANCH   5   9
ATOM      9  C   UNL     1      26.636  39.236  19.614  1.00  0.00    -0.077 C 
ATOM     10  C   UNL     1      26.090  38.095  20.066  1.00  0.00     0.008 C 
ATOM     11  C   UNL     1      27.254  39.244  18.239  1.00  0.00     0.039 C 
ENDBRANCH   5   9
TORSDOF 1
ENDMDL
MODEL 7
REMARK VINA RESULT:    -3.272     13.551     15.974
REMARK INTER + INTRA:          -3.553
REMARK INTER:                  -3.458
REMARK INTRA:                  -0.095
REMARK UNBOUND:                -0.090
REMARK SMILES C=C(C)[C@H]1CC=C(C)C(=O)C1
REMARK SMILES IDX 8 1 7 2 6 3 5 4 4 5 11 6 9 7 10 8 2 9 1 10 3 11
REMARK H PARENT
REMARK Flexibility Score: inf
ROOT
ATOM      1  C   UNL     1      26.512  24.328  29.396  1.00  0.00     0.048 C 
ATOM      2  C   UNL     1      26.776  25.523  28.522  1.00  0.00    -0.012 C 
ATOM      3  C   UNL     1      26.648  26.762  29.027  1.00  0.00    -0.019 C 
ATOM      4  C   UNL     1      26.884  27.993  28.193  1.00  0.00     0.036 C 
ATOM      5  C   UNL     1      27.970  27.743  27.130  1.00  0.00     0.025 C 
ATOM      6  C   UNL     1      27.605  26.517  26.271  1.00  0.00     0.089 C 
ATOM      7  C   UNL     1      27.297  25.332  27.145  1.00  0.00     0.158 C 
ATOM      8  O   UNL     1      27.452  24.170  26.682  1.00  0.00    -0.295 OA
ENDROOT
BRANCH   5   9
ATOM      9  C   UNL     1      28.212  28.977  26.271  1.00  0.00    -0.077 C 
ATOM     10  C   UNL     1      27.668  29.096  25.048  1.00  0.00     0.008 C 
ATOM     11  C   UNL     1      29.076  30.099  26.787  1.00  0.00     0.039 C 
ENDBRANCH   5   9
TORSDOF 1
ENDMDL
MODEL 8
REMARK VINA RESULT:    -3.203     13.378     16.311
REMARK INTER + INTRA:          -3.479
REMARK INTER:                  -3.391
REMARK INTRA:                  -0.089
REMARK UNBOUND:                -0.090
REMARK SMILES C=C(C)[C@H]1CC=C(C)C(=O)C1
REMARK SMILES IDX 8 1 7 2 6 3 5 4 4 5 11 6 9 7 10 8 2 9 1 10 3 11
REMARK H PARENT
REMARK Flexibility Score: inf
ROOT
ATOM      1  C   UNL     1      28.109  29.486  24.931  1.00  0.00     0.048 C 
ATOM      2  C   UNL     1      27.943  28.490  26.045  1.00  0.00    -0.012 C 
ATOM      3  C   UNL     1      27.572  27.229  25.766  1.00  0.00    -0.019 C 
ATOM      4  C   UNL     1      27.375  26.196  26.843  1.00  0.00     0.036 C 
ATOM      5  C   UNL     1      28.338  26.433  28.022  1.00  0.00     0.025 C 
ATOM      6  C   UNL     1      28.186  27.870  28.556  1.00  0.00     0.089 C 
ATOM      7  C   UNL     1      28.307  28.866  27.434  1.00  0.00     0.158 C 
ATOM      8  O   UNL     1      28.690  30.039  27.693  1.00  0.00    -0.295 OA
ENDROOT
BRANCH   5   9
ATOM      9  C   UNL     1      28.142  25.402  29.125  1.00  0.00    -0.077 C 
ATOM     10  C   UNL     1      29.110  24.528  29.446  1.00  0.00     0.008 C 
ATOM     11  C   UNL     1      26.840  25.346  29.884  1.00  0.00     0.039 C 
ENDBRANCH   5   9
TORSDOF 1
ENDMDL
MODEL 9
REMARK VINA RESULT:    -3.161     13.486     16.417
REMARK INTER + INTRA:          -3.436
REMARK INTER:                  -3.340
REMARK INTRA:                  -0.095
REMARK UNBOUND:                -0.090
REMARK SMILES C=C(C)[C@H]1CC=C(C)C(=O)C1
REMARK SMILES IDX 8 1 7 2 6 3 5 4 4 5 11 6 9 7 10 8 2 9 1 10 3 11
REMARK H PARENT
REMARK Flexibility Score: inf
ROOT
ATOM      1  C   UNL     1      29.120  30.242  27.042  1.00  0.00     0.048 C 
ATOM      2  C   UNL     1      28.756  28.795  27.230  1.00  0.00    -0.012 C 
ATOM      3  C   UNL     1      29.107  28.158  28.361  1.00  0.00    -0.019 C 
ATOM      4  C   UNL     1      28.783  26.707  28.594  1.00  0.00     0.036 C 
ATOM      5  C   UNL     1      27.456  26.319  27.916  1.00  0.00     0.025 C 
ATOM      6  C   UNL     1      27.496  26.674  26.418  1.00  0.00     0.089 C 
ATOM      7  C   UNL     1      27.904  28.110  26.226  1.00  0.00     0.158 C 
ATOM      8  O   UNL     1      27.542  28.717  25.183  1.00  0.00    -0.295 OA
ENDROOT
BRANCH   5   9
ATOM      9  C   UNL     1      27.121  24.849  28.134  1.00  0.00    -0.077 C 
ATOM     10  C   UNL     1      27.330  23.934  27.174  1.00  0.00     0.008 C 
ATOM     11  C   UNL     1      26.542  24.394  29.450  1.00  0.00     0.039 C 
ENDBRANCH   5   9
TORSDOF 1
ENDMDL
