MODEL 1
REMARK VINA RESULT:    -4.112      0.000      0.000
REMARK INTER + INTRA:          -6.219
REMARK INTER:                  -6.275
REMARK INTRA:                   0.055
REMARK UNBOUND:                 0.055
REMARK SMILES CC1=CCC[C@@H](C)C(=O)C[C@@H](C(C)C)C(=O)C1
REMARK SMILES IDX 8 1 9 2 6 3 7 4 5 5 4 6 3 7 2 8 1 9 10 11 11 12 15 13 16 14
REMARK SMILES IDX 17 15 12 17 13 18 14 19
REMARK H PARENT
REMARK Flexibility Score: 70.00
ROOT
ATOM      1  C   UNL     1      -5.559  -8.570  11.519  1.00  0.00     0.136 C 
ATOM      2  O   UNL     1      -4.500  -8.544  12.128  1.00  0.00    -0.299 OA
ENDROOT
BRANCH   1   3
ATOM      3  C   UNL     1      -6.172  -9.903  11.121  1.00  0.00     0.053 C 
ATOM      4  C   UNL     1      -6.326  -9.997   9.596  1.00  0.00     0.016 C 
BRANCH   3   5
ATOM      5  C   UNL     1      -7.533 -10.115  11.826  1.00  0.00     0.015 C 
BRANCH   5   6
ATOM      6  C   UNL     1      -7.446  -9.896  13.352  1.00  0.00     0.028 C 
BRANCH   6   7
ATOM      7  C   UNL     1      -8.726  -9.317  13.899  1.00  0.00    -0.028 C 
ATOM      8  C   UNL     1      -8.877  -8.036  14.314  1.00  0.00    -0.070 CG0
ATOM      9  C   UNL     1     -10.240  -7.600  14.785  1.00  0.00     0.039 C 
ATOM     10  G   UNL     1      -7.734  -7.029  14.321  1.00  0.00     0.000 G0
ENDBRANCH   6   7
ENDBRANCH   5   6
ENDBRANCH   3   5
ENDBRANCH   1   3
BRANCH   1  11
ATOM     11  C   UNL     1      -6.233  -7.267  11.155  1.00  0.00     0.087 C 
BRANCH  11  12
ATOM     12  C   UNL     1      -6.265  -6.223  12.308  1.00  0.00     0.066 C 
BRANCH  12  13
ATOM     13  C   UNL     1      -7.597  -6.283  13.044  1.00  0.00     0.140 C 
ATOM     14  O   UNL     1      -8.559  -5.662  12.611  1.00  0.00    -0.299 OA
BRANCH  13  15
ATOM     15  C   UNL     1      -7.730  -7.046  14.338  1.00  0.00     0.106 CG0
ATOM     16  G   UNL     1      -8.887  -8.035  14.307  1.00  0.00     0.000 G0
ENDBRANCH  13  15
ENDBRANCH  12  13
BRANCH  12  17
ATOM     17  C   UNL     1      -5.918  -4.759  11.873  1.00  0.00    -0.006 C 
ATOM     18  C   UNL     1      -5.609  -3.882  13.101  1.00  0.00     0.008 C 
ATOM     19  C   UNL     1      -4.722  -4.693  10.906  1.00  0.00     0.008 C 
ENDBRANCH  12  17
ENDBRANCH  11  12
ENDBRANCH   1  11
TORSDOF 1
ENDMDL
MODEL 2
REMARK VINA RESULT:    -4.003     11.808     14.231
REMARK INTER + INTRA:          -6.053
REMARK INTER:                  -6.462
REMARK INTRA:                   0.409
REMARK UNBOUND:                 0.055
REMARK SMILES CC1=CCC[C@@H](C)C(=O)C[C@@H](C(C)C)C(=O)C1
REMARK SMILES IDX 8 1 9 2 6 3 7 4 5 5 4 6 3 7 2 8 1 9 10 11 11 12 15 13 16 14
REMARK SMILES IDX 17 15 12 17 13 18 14 19
REMARK H PARENT
REMARK Flexibility Score: 70.00
ROOT
ATOM      1  C   UNL     1       3.446   3.057  14.731  1.00  0.00     0.136 C 
ATOM      2  O   UNL     1       3.311   4.099  15.353  1.00  0.00    -0.299 OA
ENDROOT
BRANCH   1   3
ATOM      3  C   UNL     1       3.111   1.729  15.393  1.00  0.00     0.053 C 
ATOM      4  C   UNL     1       4.194   0.683  15.091  1.00  0.00     0.016 C 
BRANCH   3   5
ATOM      5  C   UNL     1       1.719   1.227  14.942  1.00  0.00     0.015 C 
BRANCH   5   6
ATOM      6  C   UNL     1       1.810   0.119  13.871  1.00  0.00     0.028 C 
BRANCH   6   7
ATOM      7  C   UNL     1       0.768   0.304  12.797  1.00  0.00    -0.028 C 
ATOM      8  C   UNL     1       0.944   1.033  11.669  1.00  0.00    -0.070 CG0
ATOM      9  C   UNL     1      -0.182   1.072  10.668  1.00  0.00     0.039 C 
ATOM     10  G   UNL     1       2.222   1.806  11.374  1.00  0.00     0.000 G0
ENDBRANCH   6   7
ENDBRANCH   5   6
ENDBRANCH   3   5
ENDBRANCH   1   3
BRANCH   1  11
ATOM     11  C   UNL     1       3.966   3.107  13.313  1.00  0.00     0.087 C 
BRANCH  11  12
ATOM     12  C   UNL     1       3.172   4.063  12.377  1.00  0.00     0.066 C 
BRANCH  12  13
ATOM     13  C   UNL     1       2.074   3.302  11.645  1.00  0.00     0.140 C 
ATOM     14  O   UNL     1       1.042   3.880  11.329  1.00  0.00    -0.299 OA
BRANCH  13  15
ATOM     15  C   UNL     1       2.216   1.828  11.360  1.00  0.00     0.106 CG0
ATOM     16  G   UNL     1       0.937   1.057  11.662  1.00  0.00     0.000 G0
ENDBRANCH  13  15
ENDBRANCH  12  13
BRANCH  12  17
ATOM     17  C   UNL     1       4.057   4.887  11.381  1.00  0.00    -0.006 C 
ATOM     18  C   UNL     1       3.251   6.046  10.764  1.00  0.00     0.008 C 
ATOM     19  C   UNL     1       5.320   5.464  12.046  1.00  0.00     0.008 C 
ENDBRANCH  12  17
ENDBRANCH  11  12
ENDBRANCH   1  11
TORSDOF 1
ENDMDL
MODEL 3
REMARK VINA RESULT:    -3.750      6.553      8.467
REMARK INTER + INTRA:          -5.668
REMARK INTER:                  -5.816
REMARK INTRA:                   0.147
REMARK UNBOUND:                 0.055
REMARK SMILES CC1=CCC[C@@H](C)C(=O)C[C@@H](C(C)C)C(=O)C1
REMARK SMILES IDX 8 1 9 2 6 3 7 4 5 5 4 6 3 7 2 8 1 9 10 11 11 12 15 13 16 14
REMARK SMILES IDX 17 15 12 17 13 18 14 19
REMARK H PARENT
REMARK Flexibility Score: 70.00
ROOT
ATOM      1  C   UNL     1       2.395  -7.048   8.863  1.00  0.00     0.136 C 
ATOM      2  O   UNL     1       3.355  -6.300   8.750  1.00  0.00    -0.299 OA
ENDROOT
BRANCH   1   3
ATOM      3  C   UNL     1       2.380  -8.103   9.957  1.00  0.00     0.053 C 
ATOM      4  C   UNL     1       1.842  -9.436   9.420  1.00  0.00     0.016 C 
BRANCH   3   5
ATOM      5  C   UNL     1       1.549  -7.623  11.172  1.00  0.00     0.015 C 
BRANCH   5   6
ATOM      6  C   UNL     1       0.094  -8.134  11.129  1.00  0.00     0.028 C 
BRANCH   6   7
ATOM      7  C   UNL     1      -0.864  -7.118  11.698  1.00  0.00    -0.028 C 
ATOM      8  C   UNL     1      -1.523  -6.187  10.967  1.00  0.00    -0.070 CG0
ATOM      9  C   UNL     1      -2.489  -5.278  11.684  1.00  0.00     0.039 C 
ATOM     10  G   UNL     1      -1.330  -6.025   9.465  1.00  0.00     0.000 G0
ENDBRANCH   6   7
ENDBRANCH   5   6
ENDBRANCH   3   5
ENDBRANCH   1   3
BRANCH   1  11
ATOM     11  C   UNL     1       1.243  -6.920   7.893  1.00  0.00     0.087 C 
BRANCH  11  12
ATOM     12  C   UNL     1       0.634  -5.490   7.812  1.00  0.00     0.066 C 
BRANCH  12  13
ATOM     13  C   UNL     1      -0.169  -5.181   9.069  1.00  0.00     0.140 C 
ATOM     14  O   UNL     1       0.178  -4.263   9.800  1.00  0.00    -0.299 OA
BRANCH  13  15
ATOM     15  C   UNL     1      -1.350  -6.034   9.459  1.00  0.00     0.106 CG0
ATOM     16  G   UNL     1      -1.495  -6.162  10.969  1.00  0.00     0.000 G0
ENDBRANCH  13  15
ENDBRANCH  12  13
BRANCH  12  17
ATOM     17  C   UNL     1      -0.200  -5.207   6.517  1.00  0.00    -0.006 C 
ATOM     18  C   UNL     1       0.501  -4.159   5.633  1.00  0.00     0.008 C 
ATOM     19  C   UNL     1      -0.446  -6.476   5.680  1.00  0.00     0.008 C 
ENDBRANCH  12  17
ENDBRANCH  11  12
ENDBRANCH   1  11
TORSDOF 1
ENDMDL
MODEL 4
REMARK VINA RESULT:    -3.713     10.078     12.985
REMARK INTER + INTRA:          -5.612
REMARK INTER:                  -5.526
REMARK INTRA:                  -0.086
REMARK UNBOUND:                 0.055
REMARK SMILES CC1=CCC[C@@H](C)C(=O)C[C@@H](C(C)C)C(=O)C1
REMARK SMILES IDX 8 1 9 2 6 3 7 4 5 5 4 6 3 7 2 8 1 9 10 11 11 12 15 13 16 14
REMARK SMILES IDX 17 15 12 17 13 18 14 19
REMARK H PARENT
REMARK Flexibility Score: 70.00
ROOT
ATOM      1  C   UNL     1       3.601   1.872  13.449  1.00  0.00     0.136 C 
ATOM      2  O   UNL     1       4.601   1.234  13.745  1.00  0.00    -0.299 OA
ENDROOT
BRANCH   1   3
ATOM      3  C   UNL     1       2.737   2.478  14.543  1.00  0.00     0.053 C 
ATOM      4  C   UNL     1       3.453   3.661  15.210  1.00  0.00     0.016 C 
BRANCH   3   5
ATOM      5  C   UNL     1       2.349   1.408  15.592  1.00  0.00     0.015 C 
BRANCH   5   6
ATOM      6  C   UNL     1       2.045   0.037  14.951  1.00  0.00     0.028 C 
BRANCH   6   7
ATOM      7  C   UNL     1       0.592  -0.082  14.566  1.00  0.00    -0.028 C 
ATOM      8  C   UNL     1       0.132  -0.118  13.293  1.00  0.00    -0.070 CG0
ATOM      9  C   UNL     1      -1.349  -0.295  13.079  1.00  0.00     0.039 C 
ATOM     10  G   UNL     1       1.044   0.010  12.080  1.00  0.00     0.000 G0
ENDBRANCH   6   7
ENDBRANCH   5   6
ENDBRANCH   3   5
ENDBRANCH   1   3
BRANCH   1  11
ATOM     11  C   UNL     1       3.233   2.031  11.992  1.00  0.00     0.087 C 
BRANCH  11  12
ATOM     12  C   UNL     1       1.770   2.507  11.754  1.00  0.00     0.066 C 
BRANCH  12  13
ATOM     13  C   UNL     1       0.883   1.330  11.370  1.00  0.00     0.140 C 
ATOM     14  O   UNL     1       0.003   1.481  10.532  1.00  0.00    -0.299 OA
BRANCH  13  15
ATOM     15  C   UNL     1       1.033  -0.005  12.054  1.00  0.00     0.106 CG0
ATOM     16  G   UNL     1       0.147  -0.123  13.287  1.00  0.00     0.000 G0
ENDBRANCH  13  15
ENDBRANCH  12  13
BRANCH  12  17
ATOM     17  C   UNL     1       1.625   3.688  10.735  1.00  0.00    -0.006 C 
ATOM     18  C   UNL     1       1.155   4.970  11.448  1.00  0.00     0.008 C 
ATOM     19  C   UNL     1       2.936   3.992   9.987  1.00  0.00     0.008 C 
ENDBRANCH  12  17
ENDBRANCH  11  12
ENDBRANCH   1  11
TORSDOF 1
ENDMDL
MODEL 5
REMARK VINA RESULT:    -3.670     12.789     14.844
REMARK INTER + INTRA:          -5.546
REMARK INTER:                  -5.623
REMARK INTRA:                   0.077
REMARK UNBOUND:                 0.055
REMARK SMILES CC1=CCC[C@@H](C)C(=O)C[C@@H](C(C)C)C(=O)C1
REMARK SMILES IDX 8 1 9 2 6 3 7 4 5 5 4 6 3 7 2 8 1 9 10 11 11 12 15 13 16 14
REMARK SMILES IDX 17 15 12 17 13 18 14 19
REMARK H PARENT
REMARK Flexibility Score: 70.00
ROOT
ATOM      1  C   UNL     1       1.533   5.383  18.634  1.00  0.00     0.136 C 
ATOM      2  O   UNL     1       2.247   6.211  19.180  1.00  0.00    -0.299 OA
ENDROOT
BRANCH   1   3
ATOM      3  C   UNL     1       0.170   5.791  18.099  1.00  0.00     0.053 C 
ATOM      4  C   UNL     1       0.245   7.160  17.407  1.00  0.00     0.016 C 
BRANCH   3   5
ATOM      5  C   UNL     1      -0.883   5.804  19.233  1.00  0.00     0.015 C 
BRANCH   5   6
ATOM      6  C   UNL     1      -2.130   4.963  18.888  1.00  0.00     0.028 C 
BRANCH   6   7
ATOM      7  C   UNL     1      -2.163   3.678  19.676  1.00  0.00    -0.028 C 
ATOM      8  C   UNL     1      -1.690   2.488  19.231  1.00  0.00    -0.070 CG0
ATOM      9  C   UNL     1      -1.750   1.308  20.166  1.00  0.00     0.039 C 
ATOM     10  G   UNL     1      -1.107   2.299  17.837  1.00  0.00     0.000 G0
ENDBRANCH   6   7
ENDBRANCH   5   6
ENDBRANCH   3   5
ENDBRANCH   1   3
BRANCH   1  11
ATOM     11  C   UNL     1       2.016   3.955  18.520  1.00  0.00     0.087 C 
BRANCH  11  12
ATOM     12  C   UNL     1       1.364   3.154  17.355  1.00  0.00     0.066 C 
BRANCH  12  13
ATOM     13  C   UNL     1       0.419   2.092  17.902  1.00  0.00     0.140 C 
ATOM     14  O   UNL     1       0.875   1.048  18.352  1.00  0.00    -0.299 OA
BRANCH  13  15
ATOM     15  C   UNL     1      -1.075   2.282  17.838  1.00  0.00     0.106 CG0
ATOM     16  G   UNL     1      -1.689   2.494  19.216  1.00  0.00     0.000 G0
ENDBRANCH  13  15
ENDBRANCH  12  13
BRANCH  12  17
ATOM     17  C   UNL     1       2.381   2.543  16.333  1.00  0.00    -0.006 C 
ATOM     18  C   UNL     1       1.673   1.566  15.375  1.00  0.00     0.008 C 
ATOM     19  C   UNL     1       3.104   3.616  15.499  1.00  0.00     0.008 C 
ENDBRANCH  12  17
ENDBRANCH  11  12
ENDBRANCH   1  11
TORSDOF 1
ENDMDL
MODEL 6
REMARK VINA RESULT:    -3.598      6.503      8.786
REMARK INTER + INTRA:          -5.435
REMARK INTER:                  -5.482
REMARK INTRA:                   0.047
REMARK UNBOUND:                 0.055
REMARK SMILES CC1=CCC[C@@H](C)C(=O)C[C@@H](C(C)C)C(=O)C1
REMARK SMILES IDX 8 1 9 2 6 3 7 4 5 5 4 6 3 7 2 8 1 9 10 11 11 12 15 13 16 14
REMARK SMILES IDX 17 15 12 17 13 18 14 19
REMARK H PARENT
REMARK Flexibility Score: 70.00
ROOT
ATOM      1  C   UNL     1      -0.954  -7.555  11.772  1.00  0.00     0.136 C 
ATOM      2  O   UNL     1      -1.991  -7.333  12.378  1.00  0.00    -0.299 OA
ENDROOT
BRANCH   1   3
ATOM      3  C   UNL     1      -0.380  -8.963  11.741  1.00  0.00     0.053 C 
ATOM      4  C   UNL     1      -0.761  -9.733  13.013  1.00  0.00     0.016 C 
BRANCH   3   5
ATOM      5  C   UNL     1       1.157  -8.926  11.560  1.00  0.00     0.015 C 
BRANCH   5   6
ATOM      6  C   UNL     1       1.585  -9.193  10.101  1.00  0.00     0.028 C 
BRANCH   6   7
ATOM      7  C   UNL     1       2.510  -8.116   9.592  1.00  0.00    -0.028 C 
ATOM      8  C   UNL     1       2.144  -7.121   8.749  1.00  0.00    -0.070 CG0
ATOM      9  C   UNL     1       3.180  -6.091   8.378  1.00  0.00     0.039 C 
ATOM     10  G   UNL     1       0.742  -7.002   8.168  1.00  0.00     0.000 G0
ENDBRANCH   6   7
ENDBRANCH   5   6
ENDBRANCH   3   5
ENDBRANCH   1   3
BRANCH   1  11
ATOM     11  C   UNL     1      -0.247  -6.415  11.075  1.00  0.00     0.087 C 
BRANCH  11  12
ATOM     12  C   UNL     1      -0.980  -5.892   9.805  1.00  0.00     0.066 C 
BRANCH  12  13
ATOM     13  C   UNL     1      -0.010  -5.789   8.636  1.00  0.00     0.140 C 
ATOM     14  O   UNL     1       0.121  -4.723   8.048  1.00  0.00    -0.299 OA
BRANCH  13  15
ATOM     15  C   UNL     1       0.745  -7.000   8.150  1.00  0.00     0.106 CG0
ATOM     16  G   UNL     1       2.134  -7.099   8.767  1.00  0.00     0.000 G0
ENDBRANCH  13  15
ENDBRANCH  12  13
BRANCH  12  17
ATOM     17  C   UNL     1      -1.771  -4.557  10.011  1.00  0.00    -0.006 C 
ATOM     18  C   UNL     1      -3.266  -4.839  10.255  1.00  0.00     0.008 C 
ATOM     19  C   UNL     1      -1.229  -3.719  11.183  1.00  0.00     0.008 C 
ENDBRANCH  12  17
ENDBRANCH  11  12
ENDBRANCH   1  11
TORSDOF 1
ENDMDL
MODEL 7
REMARK VINA RESULT:    -3.563     12.205     14.261
REMARK INTER + INTRA:          -5.383
REMARK INTER:                  -4.940
REMARK INTRA:                  -0.442
REMARK UNBOUND:                 0.055
REMARK SMILES CC1=CCC[C@@H](C)C(=O)C[C@@H](C(C)C)C(=O)C1
REMARK SMILES IDX 8 1 9 2 6 3 7 4 5 5 4 6 3 7 2 8 1 9 10 11 11 12 15 13 16 14
REMARK SMILES IDX 17 15 12 17 13 18 14 19
REMARK H PARENT
REMARK Flexibility Score: 70.00
ROOT
ATOM      1  C   UNL     1       0.615   2.098  19.726  1.00  0.00     0.136 C 
ATOM      2  O   UNL     1       0.637   1.732  20.892  1.00  0.00    -0.299 OA
ENDROOT
BRANCH   1   3
ATOM      3  C   UNL     1      -0.589   1.782  18.854  1.00  0.00     0.053 C 
ATOM      4  C   UNL     1      -1.882   2.292  19.508  1.00  0.00     0.016 C 
BRANCH   3   5
ATOM      5  C   UNL     1      -0.679   0.264  18.569  1.00  0.00     0.015 C 
BRANCH   5   6
ATOM      6  C   UNL     1       0.607  -0.291  17.920  1.00  0.00     0.028 C 
BRANCH   6   7
ATOM      7  C   UNL     1       0.649   0.002  16.442  1.00  0.00    -0.028 C 
ATOM      8  C   UNL     1       1.560   0.806  15.841  1.00  0.00    -0.070 CG0
ATOM      9  C   UNL     1       1.495   0.952  14.342  1.00  0.00     0.039 C 
ATOM     10  G   UNL     1       2.635   1.559  16.612  1.00  0.00     0.000 G0
ENDBRANCH   6   7
ENDBRANCH   5   6
ENDBRANCH   3   5
ENDBRANCH   1   3
BRANCH   1  11
ATOM     11  C   UNL     1       1.804   2.844  19.166  1.00  0.00     0.087 C 
BRANCH  11  12
ATOM     12  C   UNL     1       1.514   3.597  17.835  1.00  0.00     0.066 C 
BRANCH  12  13
ATOM     13  C   UNL     1       2.376   3.040  16.709  1.00  0.00     0.140 C 
ATOM     14  O   UNL     1       2.817   3.795  15.852  1.00  0.00    -0.299 OA
BRANCH  13  15
ATOM     15  C   UNL     1       2.641   1.560  16.600  1.00  0.00     0.106 CG0
ATOM     16  G   UNL     1       1.540   0.831  15.843  1.00  0.00     0.000 G0
ENDBRANCH  13  15
ENDBRANCH  12  13
BRANCH  12  17
ATOM     17  C   UNL     1       1.631   5.156  17.927  1.00  0.00    -0.006 C 
ATOM     18  C   UNL     1       0.236   5.808  17.949  1.00  0.00     0.008 C 
ATOM     19  C   UNL     1       2.414   5.621  19.169  1.00  0.00     0.008 C 
ENDBRANCH  12  17
ENDBRANCH  11  12
ENDBRANCH   1  11
TORSDOF 1
ENDMDL
MODEL 8
REMARK VINA RESULT:    -3.552      7.374      9.837
REMARK INTER + INTRA:          -5.366
REMARK INTER:                  -5.108
REMARK INTRA:                  -0.258
REMARK UNBOUND:                 0.055
REMARK SMILES CC1=CCC[C@@H](C)C(=O)C[C@@H](C(C)C)C(=O)C1
REMARK SMILES IDX 8 1 9 2 6 3 7 4 5 5 4 6 3 7 2 8 1 9 10 11 11 12 15 13 16 14
REMARK SMILES IDX 17 15 12 17 13 18 14 19
REMARK H PARENT
REMARK Flexibility Score: 70.00
ROOT
ATOM      1  C   UNL     1       0.286  -5.531  11.164  1.00  0.00     0.136 C 
ATOM      2  O   UNL     1       1.301  -5.665  11.831  1.00  0.00    -0.299 OA
ENDROOT
BRANCH   1   3
ATOM      3  C   UNL     1      -0.583  -4.296  11.344  1.00  0.00     0.053 C 
ATOM      4  C   UNL     1      -2.012  -4.559  10.849  1.00  0.00     0.016 C 
BRANCH   3   5
ATOM      5  C   UNL     1       0.037  -3.078  10.617  1.00  0.00     0.015 C 
BRANCH   5   6
ATOM      6  C   UNL     1      -0.733  -2.704   9.333  1.00  0.00     0.028 C 
BRANCH   6   7
ATOM      7  C   UNL     1       0.139  -2.837   8.110  1.00  0.00    -0.028 C 
ATOM      8  C   UNL     1       0.163  -3.919   7.295  1.00  0.00    -0.070 CG0
ATOM      9  C   UNL     1       1.055  -3.871   6.081  1.00  0.00     0.039 C 
ATOM     10  G   UNL     1      -0.666  -5.170   7.555  1.00  0.00     0.000 G0
ENDBRANCH   6   7
ENDBRANCH   5   6
ENDBRANCH   3   5
ENDBRANCH   1   3
BRANCH   1  11
ATOM     11  C   UNL     1      -0.098  -6.612  10.180  1.00  0.00     0.087 C 
BRANCH  11  12
ATOM     12  C   UNL     1       0.879  -6.754   8.977  1.00  0.00     0.066 C 
BRANCH  12  13
ATOM     13  C   UNL     1       0.168  -6.421   7.672  1.00  0.00     0.140 C 
ATOM     14  O   UNL     1       0.321  -7.144   6.695  1.00  0.00    -0.299 OA
BRANCH  13  15
ATOM     15  C   UNL     1      -0.674  -5.176   7.547  1.00  0.00     0.106 CG0
ATOM     16  G   UNL     1       0.169  -3.933   7.296  1.00  0.00     0.000 G0
ENDBRANCH  13  15
ENDBRANCH  12  13
BRANCH  12  17
ATOM     17  C   UNL     1       1.613  -8.134   8.892  1.00  0.00    -0.006 C 
ATOM     18  C   UNL     1       3.113  -7.938   8.602  1.00  0.00     0.008 C 
ATOM     19  C   UNL     1       1.464  -8.968  10.177  1.00  0.00     0.008 C 
ENDBRANCH  12  17
ENDBRANCH  11  12
ENDBRANCH   1  11
TORSDOF 1
ENDMDL
MODEL 9
REMARK VINA RESULT:    -3.428     10.387     13.667
REMARK INTER + INTRA:          -5.176
REMARK INTER:                  -5.344
REMARK INTRA:                   0.167
REMARK UNBOUND:                 0.055
REMARK SMILES CC1=CCC[C@@H](C)C(=O)C[C@@H](C(C)C)C(=O)C1
REMARK SMILES IDX 8 1 9 2 6 3 7 4 5 5 4 6 3 7 2 8 1 9 10 11 11 12 15 13 16 14
REMARK SMILES IDX 17 15 12 17 13 18 14 19
REMARK H PARENT
REMARK Flexibility Score: 70.00
ROOT
ATOM      1  C   UNL     1       1.278   3.251  10.985  1.00  0.00     0.136 C 
ATOM      2  O   UNL     1       0.290   3.499  10.310  1.00  0.00    -0.299 OA
ENDROOT
BRANCH   1   3
ATOM      3  C   UNL     1       2.141   4.387  11.512  1.00  0.00     0.053 C 
ATOM      4  C   UNL     1       2.390   5.434  10.418  1.00  0.00     0.016 C 
BRANCH   3   5
ATOM      5  C   UNL     1       3.478   3.845  12.072  1.00  0.00     0.015 C 
BRANCH   5   6
ATOM      6  C   UNL     1       3.477   3.749  13.612  1.00  0.00     0.028 C 
BRANCH   6   7
ATOM      7  C   UNL     1       4.058   2.439  14.083  1.00  0.00    -0.028 C 
ATOM      8  C   UNL     1       3.327   1.354  14.434  1.00  0.00    -0.070 CG0
ATOM      9  C   UNL     1       4.065   0.102  14.833  1.00  0.00     0.039 C 
ATOM     10  G   UNL     1       1.804   1.349  14.442  1.00  0.00     0.000 G0
ENDBRANCH   6   7
ENDBRANCH   5   6
ENDBRANCH   3   5
ENDBRANCH   1   3
BRANCH   1  11
ATOM     11  C   UNL     1       1.635   1.810  11.267  1.00  0.00     0.087 C 
BRANCH  11  12
ATOM     12  C   UNL     1       0.579   1.047  12.117  1.00  0.00     0.066 C 
BRANCH  12  13
ATOM     13  C   UNL     1       1.226   0.448  13.359  1.00  0.00     0.140 C 
ATOM     14  O   UNL     1       1.237  -0.766  13.513  1.00  0.00    -0.299 OA
BRANCH  13  15
ATOM     15  C   UNL     1       1.798   1.336  14.435  1.00  0.00     0.106 CG0
ATOM     16  G   UNL     1       3.321   1.337  14.433  1.00  0.00     0.000 G0
ENDBRANCH  13  15
ENDBRANCH  12  13
BRANCH  12  17
ATOM     17  C   UNL     1      -0.243  -0.027  11.328  1.00  0.00    -0.006 C 
ATOM     18  C   UNL     1      -1.671  -0.147  11.892  1.00  0.00     0.008 C 
ATOM     19  C   UNL     1      -0.332   0.281   9.822  1.00  0.00     0.008 C 
ENDBRANCH  12  17
ENDBRANCH  11  12
ENDBRANCH   1  11
TORSDOF 1
ENDMDL
