MODEL 1
REMARK VINA RESULT:    -5.410      0.000      0.000
REMARK INTER + INTRA:          -5.410
REMARK INTER:                  -5.410
REMARK INTRA:                   0.000
REMARK UNBOUND:                 0.000
REMARK SMILES CC1=CC[C@]2(C)CCCC(C)(C)[C@]23C[C@H]13
REMARK SMILES IDX 1 1 2 2 3 3 4 4 5 5 7 6 8 7 9 8 10 9 13 10 15 11 14 12 11 13
REMARK SMILES IDX 12 14 6 15
REMARK H PARENT
REMARK Flexibility Score: inf
ROOT
ATOM      1  C   UNL     1     167.293 168.709 202.688  1.00  0.00     0.039 C 
ATOM      2  C   UNL     1     166.899 169.018 201.271  1.00  0.00    -0.074 C 
ATOM      3  C   UNL     1     167.853 169.376 200.385  1.00  0.00    -0.027 C 
ATOM      4  C   UNL     1     167.525 169.709 198.951  1.00  0.00     0.034 C 
ATOM      5  C   UNL     1     166.341 168.842 198.430  1.00  0.00    -0.022 C 
ATOM      6  C   UNL     1     165.930 169.346 197.026  1.00  0.00     0.008 C 
ATOM      7  C   UNL     1     164.669 168.654 196.476  1.00  0.00     0.001 C 
ATOM      8  C   UNL     1     163.466 168.790 197.422  1.00  0.00     0.007 C 
ATOM      9  C   UNL     1     163.721 168.302 198.877  1.00  0.00    -0.029 C 
ATOM     10  C   UNL     1     165.081 168.946 199.382  1.00  0.00    -0.012 C 
ATOM     11  C   UNL     1     165.432 168.918 200.878  1.00  0.00     0.022 C 
ATOM     12  C   UNL     1     164.914 170.216 200.261  1.00  0.00     0.017 C 
ATOM     13  C   UNL     1     162.463 168.707 199.703  1.00  0.00     0.012 C 
ATOM     14  C   UNL     1     163.787 166.755 198.935  1.00  0.00     0.012 C 
ATOM     15  C   UNL     1     166.876 167.379 198.343  1.00  0.00     0.012 C 
ENDROOT
TORSDOF 0
ENDMDL
MODEL 2
REMARK VINA RESULT:    -5.395      4.502      6.671
REMARK INTER + INTRA:          -5.395
REMARK INTER:                  -5.395
REMARK INTRA:                   0.000
REMARK UNBOUND:                 0.000
REMARK SMILES CC1=CC[C@]2(C)CCCC(C)(C)[C@]23C[C@H]13
REMARK SMILES IDX 1 1 2 2 3 3 4 4 5 5 7 6 8 7 9 8 10 9 13 10 15 11 14 12 11 13
REMARK SMILES IDX 12 14 6 15
REMARK H PARENT
REMARK Flexibility Score: inf
ROOT
ATOM      1  C   UNL     1     164.681 163.360 202.666  1.00  0.00     0.039 C 
ATOM      2  C   UNL     1     165.079 163.023 201.256  1.00  0.00    -0.074 C 
ATOM      3  C   UNL     1     164.131 162.620 200.383  1.00  0.00    -0.027 C 
ATOM      4  C   UNL     1     164.463 162.256 198.957  1.00  0.00     0.034 C 
ATOM      5  C   UNL     1     165.626 163.135 198.410  1.00  0.00    -0.022 C 
ATOM      6  C   UNL     1     166.043 162.603 197.018  1.00  0.00     0.008 C 
ATOM      7  C   UNL     1     167.287 163.308 196.447  1.00  0.00     0.001 C 
ATOM      8  C   UNL     1     168.496 163.225 197.392  1.00  0.00     0.007 C 
ATOM      9  C   UNL     1     168.234 163.745 198.834  1.00  0.00    -0.029 C 
ATOM     10  C   UNL     1     166.889 163.085 199.361  1.00  0.00    -0.012 C 
ATOM     11  C   UNL     1     166.542 163.144 200.856  1.00  0.00     0.022 C 
ATOM     12  C   UNL     1     167.087 161.842 200.272  1.00  0.00     0.017 C 
ATOM     13  C   UNL     1     169.502 163.390 199.666  1.00  0.00     0.012 C 
ATOM     14  C   UNL     1     168.134 165.292 198.852  1.00  0.00     0.012 C 
ATOM     15  C   UNL     1     165.057 164.584 198.286  1.00  0.00     0.012 C 
ENDROOT
TORSDOF 0
ENDMDL
MODEL 3
REMARK VINA RESULT:    -5.338      1.455      4.686
REMARK INTER + INTRA:          -5.338
REMARK INTER:                  -5.338
REMARK INTRA:                   0.000
REMARK UNBOUND:                 0.000
REMARK SMILES CC1=CC[C@]2(C)CCCC(C)(C)[C@]23C[C@H]13
REMARK SMILES IDX 1 1 2 2 3 3 4 4 5 5 7 6 8 7 9 8 10 9 13 10 15 11 14 12 11 13
REMARK SMILES IDX 12 14 6 15
REMARK H PARENT
REMARK Flexibility Score: inf
ROOT
ATOM      1  C   UNL     1     164.222 168.634 196.523  1.00  0.00     0.039 C 
ATOM      2  C   UNL     1     164.026 168.701 198.012  1.00  0.00    -0.074 C 
ATOM      3  C   UNL     1     162.775 168.642 198.515  1.00  0.00    -0.027 C 
ATOM      4  C   UNL     1     162.506 168.714 199.997  1.00  0.00     0.034 C 
ATOM      5  C   UNL     1     163.646 168.030 200.808  1.00  0.00    -0.022 C 
ATOM      6  C   UNL     1     163.414 168.288 202.315  1.00  0.00     0.008 C 
ATOM      7  C   UNL     1     164.564 167.780 203.203  1.00  0.00     0.001 C 
ATOM      8  C   UNL     1     165.923 168.376 202.802  1.00  0.00     0.007 C 
ATOM      9  C   UNL     1     166.307 168.177 201.308  1.00  0.00    -0.029 C 
ATOM     10  C   UNL     1     165.066 168.609 200.417  1.00  0.00    -0.012 C 
ATOM     11  C   UNL     1     165.248 168.836 198.909  1.00  0.00     0.022 C 
ATOM     12  C   UNL     1     165.149 170.046 199.835  1.00  0.00     0.017 C 
ATOM     13  C   UNL     1     167.600 169.015 201.072  1.00  0.00     0.012 C 
ATOM     14  C   UNL     1     166.700 166.704 201.033  1.00  0.00     0.012 C 
ATOM     15  C   UNL     1     163.544 166.503 200.500  1.00  0.00     0.012 C 
ENDROOT
TORSDOF 0
ENDMDL
MODEL 4
REMARK VINA RESULT:    -5.327      4.550      6.699
REMARK INTER + INTRA:          -5.327
REMARK INTER:                  -5.327
REMARK INTRA:                   0.000
REMARK UNBOUND:                 0.000
REMARK SMILES CC1=CC[C@]2(C)CCCC(C)(C)[C@]23C[C@H]13
REMARK SMILES IDX 1 1 2 2 3 3 4 4 5 5 7 6 8 7 9 8 10 9 13 10 15 11 14 12 11 13
REMARK SMILES IDX 12 14 6 15
REMARK H PARENT
REMARK Flexibility Score: inf
ROOT
ATOM      1  C   UNL     1     167.804 163.163 196.508  1.00  0.00     0.039 C 
ATOM      2  C   UNL     1     167.994 163.165 197.999  1.00  0.00    -0.074 C 
ATOM      3  C   UNL     1     169.242 163.266 198.503  1.00  0.00    -0.027 C 
ATOM      4  C   UNL     1     169.505 163.263 199.989  1.00  0.00     0.034 C 
ATOM      5  C   UNL     1     168.351 163.964 200.764  1.00  0.00    -0.022 C 
ATOM      6  C   UNL     1     168.581 163.776 202.282  1.00  0.00     0.008 C 
ATOM      7  C   UNL     1     167.418 164.304 203.143  1.00  0.00     0.001 C 
ATOM      8  C   UNL     1     166.071 163.670 202.763  1.00  0.00     0.007 C 
ATOM      9  C   UNL     1     165.690 163.797 201.260  1.00  0.00    -0.029 C 
ATOM     10  C   UNL     1     166.942 163.347 200.394  1.00  0.00    -0.012 C 
ATOM     11  C   UNL     1     166.770 163.051 198.896  1.00  0.00     0.022 C 
ATOM     12  C   UNL     1     166.884 161.883 199.875  1.00  0.00     0.017 C 
ATOM     13  C   UNL     1     164.412 162.930 201.056  1.00  0.00     0.012 C 
ATOM     14  C   UNL     1     165.276 165.251 200.918  1.00  0.00     0.012 C 
ATOM     15  C   UNL     1     168.431 165.478 200.389  1.00  0.00     0.012 C 
ENDROOT
TORSDOF 0
ENDMDL
MODEL 5
REMARK VINA RESULT:    -5.306      1.392      4.286
REMARK INTER + INTRA:          -5.306
REMARK INTER:                  -5.306
REMARK INTRA:                   0.000
REMARK UNBOUND:                 0.000
REMARK SMILES CC1=CC[C@]2(C)CCCC(C)(C)[C@]23C[C@H]13
REMARK SMILES IDX 1 1 2 2 3 3 4 4 5 5 7 6 8 7 9 8 10 9 13 10 15 11 14 12 11 13
REMARK SMILES IDX 12 14 6 15
REMARK H PARENT
REMARK Flexibility Score: inf
ROOT
ATOM      1  C   UNL     1     161.886 168.415 199.258  1.00  0.00     0.039 C 
ATOM      2  C   UNL     1     163.153 168.609 200.043  1.00  0.00    -0.074 C 
ATOM      3  C   UNL     1     163.173 168.281 201.353  1.00  0.00    -0.027 C 
ATOM      4  C   UNL     1     164.407 168.460 202.201  1.00  0.00     0.034 C 
ATOM      5  C   UNL     1     165.700 168.208 201.372  1.00  0.00    -0.022 C 
ATOM      6  C   UNL     1     166.929 168.578 202.235  1.00  0.00     0.008 C 
ATOM      7  C   UNL     1     168.259 168.508 201.461  1.00  0.00     0.001 C 
ATOM      8  C   UNL     1     168.253 169.390 200.203  1.00  0.00     0.007 C 
ATOM      9  C   UNL     1     167.078 169.120 199.221  1.00  0.00    -0.029 C 
ATOM     10  C   UNL     1     165.730 169.092 200.060  1.00  0.00    -0.012 C 
ATOM     11  C   UNL     1     164.377 169.173 199.337  1.00  0.00     0.022 C 
ATOM     12  C   UNL     1     164.920 170.418 200.036  1.00  0.00     0.017 C 
ATOM     13  C   UNL     1     167.147 170.235 198.136  1.00  0.00     0.012 C 
ATOM     14  C   UNL     1     167.287 167.781 198.467  1.00  0.00     0.012 C 
ATOM     15  C   UNL     1     165.714 166.683 201.037  1.00  0.00     0.012 C 
ENDROOT
TORSDOF 0
ENDMDL
MODEL 6
REMARK VINA RESULT:    -5.295      1.554      3.342
REMARK INTER + INTRA:          -5.295
REMARK INTER:                  -5.295
REMARK INTRA:                   0.000
REMARK UNBOUND:                 0.000
REMARK SMILES CC1=CC[C@]2(C)CCCC(C)(C)[C@]23C[C@H]13
REMARK SMILES IDX 1 1 2 2 3 3 4 4 5 5 7 6 8 7 9 8 10 9 13 10 15 11 14 12 11 13
REMARK SMILES IDX 12 14 6 15
REMARK H PARENT
REMARK Flexibility Score: inf
ROOT
ATOM      1  C   UNL     1     169.815 168.223 198.000  1.00  0.00     0.039 C 
ATOM      2  C   UNL     1     168.568 168.745 198.657  1.00  0.00    -0.074 C 
ATOM      3  C   UNL     1     167.982 169.858 198.166  1.00  0.00    -0.027 C 
ATOM      4  C   UNL     1     166.735 170.442 198.783  1.00  0.00     0.034 C 
ATOM      5  C   UNL     1     165.810 169.322 199.344  1.00  0.00    -0.022 C 
ATOM      6  C   UNL     1     164.643 169.979 200.120  1.00  0.00     0.008 C 
ATOM      7  C   UNL     1     163.745 168.959 200.844  1.00  0.00     0.001 C 
ATOM      8  C   UNL     1     164.536 168.060 201.807  1.00  0.00     0.007 C 
ATOM      9  C   UNL     1     165.738 167.312 201.163  1.00  0.00    -0.029 C 
ATOM     10  C   UNL     1     166.589 168.366 200.335  1.00  0.00    -0.012 C 
ATOM     11  C   UNL     1     168.004 168.003 199.860  1.00  0.00     0.022 C 
ATOM     12  C   UNL     1     167.840 168.918 201.073  1.00  0.00     0.017 C 
ATOM     13  C   UNL     1     166.508 166.629 202.333  1.00  0.00     0.012 C 
ATOM     14  C   UNL     1     165.245 166.161 200.250  1.00  0.00     0.012 C 
ATOM     15  C   UNL     1     165.265 168.544 198.105  1.00  0.00     0.012 C 
ENDROOT
TORSDOF 0
ENDMDL
MODEL 7
REMARK VINA RESULT:    -5.294      4.279      6.749
REMARK INTER + INTRA:          -5.294
REMARK INTER:                  -5.294
REMARK INTRA:                   0.000
REMARK UNBOUND:                 0.000
REMARK SMILES CC1=CC[C@]2(C)CCCC(C)(C)[C@]23C[C@H]13
REMARK SMILES IDX 1 1 2 2 3 3 4 4 5 5 7 6 8 7 9 8 10 9 13 10 15 11 14 12 11 13
REMARK SMILES IDX 12 14 6 15
REMARK H PARENT
REMARK Flexibility Score: inf
ROOT
ATOM      1  C   UNL     1     162.190 163.780 197.972  1.00  0.00     0.039 C 
ATOM      2  C   UNL     1     163.423 163.257 198.653  1.00  0.00    -0.074 C 
ATOM      3  C   UNL     1     164.029 162.155 198.161  1.00  0.00    -0.027 C 
ATOM      4  C   UNL     1     165.263 161.570 198.801  1.00  0.00     0.034 C 
ATOM      5  C   UNL     1     166.167 162.688 199.400  1.00  0.00    -0.022 C 
ATOM      6  C   UNL     1     167.319 162.028 200.196  1.00  0.00     0.008 C 
ATOM      7  C   UNL     1     168.192 163.044 200.956  1.00  0.00     0.001 C 
ATOM      8  C   UNL     1     167.371 163.925 201.911  1.00  0.00     0.007 C 
ATOM      9  C   UNL     1     166.180 164.674 201.247  1.00  0.00    -0.029 C 
ATOM     10  C   UNL     1     165.357 163.626 200.384  1.00  0.00    -0.012 C 
ATOM     11  C   UNL     1     163.952 163.986 199.879  1.00  0.00     0.022 C 
ATOM     12  C   UNL     1     164.092 163.057 201.083  1.00  0.00     0.017 C 
ATOM     13  C   UNL     1     165.377 165.336 202.406  1.00  0.00     0.012 C 
ATOM     14  C   UNL     1     166.689 165.841 200.362  1.00  0.00     0.012 C 
ATOM     15  C   UNL     1     166.738 163.486 198.185  1.00  0.00     0.012 C 
ENDROOT
TORSDOF 0
ENDMDL
MODEL 8
REMARK VINA RESULT:    -5.264      3.750      5.944
REMARK INTER + INTRA:          -5.264
REMARK INTER:                  -5.264
REMARK INTRA:                   0.000
REMARK UNBOUND:                 0.000
REMARK SMILES CC1=CC[C@]2(C)CCCC(C)(C)[C@]23C[C@H]13
REMARK SMILES IDX 1 1 2 2 3 3 4 4 5 5 7 6 8 7 9 8 10 9 13 10 15 11 14 12 11 13
REMARK SMILES IDX 12 14 6 15
REMARK H PARENT
REMARK Flexibility Score: inf
ROOT
ATOM      1  C   UNL     1     163.413 167.552 201.380  1.00  0.00     0.039 C 
ATOM      2  C   UNL     1     163.349 166.194 200.737  1.00  0.00    -0.074 C 
ATOM      3  C   UNL     1     162.282 165.878 199.971  1.00  0.00    -0.027 C 
ATOM      4  C   UNL     1     162.150 164.531 199.306  1.00  0.00     0.034 C 
ATOM      5  C   UNL     1     163.540 163.979 198.875  1.00  0.00    -0.022 C 
ATOM      6  C   UNL     1     163.368 162.528 198.365  1.00  0.00     0.008 C 
ATOM      7  C   UNL     1     164.704 161.832 198.050  1.00  0.00     0.001 C 
ATOM      8  C   UNL     1     165.660 161.823 199.254  1.00  0.00     0.007 C 
ATOM      9  C   UNL     1     165.948 163.223 199.869  1.00  0.00    -0.029 C 
ATOM     10  C   UNL     1     164.560 163.962 200.085  1.00  0.00    -0.012 C 
ATOM     11  C   UNL     1     164.490 165.216 200.970  1.00  0.00     0.022 C 
ATOM     12  C   UNL     1     163.997 163.883 201.531  1.00  0.00     0.017 C 
ATOM     13  C   UNL     1     166.761 162.970 201.173  1.00  0.00     0.012 C 
ATOM     14  C   UNL     1     166.876 164.050 198.943  1.00  0.00     0.012 C 
ATOM     15  C   UNL     1     164.037 164.903 197.718  1.00  0.00     0.012 C 
ENDROOT
TORSDOF 0
ENDMDL
MODEL 9
REMARK VINA RESULT:    -5.259      2.242      3.204
REMARK INTER + INTRA:          -5.259
REMARK INTER:                  -5.259
REMARK INTRA:                   0.000
REMARK UNBOUND:                 0.000
REMARK SMILES CC1=CC[C@]2(C)CCCC(C)(C)[C@]23C[C@H]13
REMARK SMILES IDX 1 1 2 2 3 3 4 4 5 5 7 6 8 7 9 8 10 9 13 10 15 11 14 12 11 13
REMARK SMILES IDX 12 14 6 15
REMARK H PARENT
REMARK Flexibility Score: inf
ROOT
ATOM      1  C   UNL     1     168.624 164.458 201.412  1.00  0.00     0.039 C 
ATOM      2  C   UNL     1     168.682 165.821 200.781  1.00  0.00    -0.074 C 
ATOM      3  C   UNL     1     169.754 166.154 200.032  1.00  0.00    -0.027 C 
ATOM      4  C   UNL     1     169.882 167.508 199.379  1.00  0.00     0.034 C 
ATOM      5  C   UNL     1     168.491 168.050 198.936  1.00  0.00    -0.022 C 
ATOM      6  C   UNL     1     168.655 169.507 198.440  1.00  0.00     0.008 C 
ATOM      7  C   UNL     1     167.316 170.193 198.115  1.00  0.00     0.001 C 
ATOM      8  C   UNL     1     166.345 170.182 199.307  1.00  0.00     0.007 C 
ATOM      9  C   UNL     1     166.064 168.774 199.906  1.00  0.00    -0.029 C 
ATOM     10  C   UNL     1     167.457 168.046 200.133  1.00  0.00    -0.012 C 
ATOM     11  C   UNL     1     167.528 166.786 201.009  1.00  0.00     0.022 C 
ATOM     12  C   UNL     1     168.000 168.119 201.587  1.00  0.00     0.017 C 
ATOM     13  C   UNL     1     165.232 169.007 201.202  1.00  0.00     0.012 C 
ATOM     14  C   UNL     1     165.155 167.946 198.962  1.00  0.00     0.012 C 
ATOM     15  C   UNL     1     168.017 167.132 197.765  1.00  0.00     0.012 C 
ENDROOT
TORSDOF 0
ENDMDL
