MODEL 1
REMARK VINA RESULT:    29.991      0.000      0.000
REMARK INTER + INTRA:          33.562
REMARK INTER:                  32.621
REMARK INTRA:                   0.941
REMARK UNBOUND:                 0.941
REMARK SMILES C[C@@H]1[C@H](C)CC[C@]2(C(=O)[O-])CC[C@@]3(C)C(=CC[C@H]4[C@]5(C)CC[C@H](O)C(C)(C)[C@@H]5CC[C@@]43C)[C@@H]12
REMARK SMILES IDX 7 1 6 2 11 3 33 4 5 5 12 6 15 7 2 8 3 9 13 10 16 11 1 12
REMARK SMILES IDX 4 13 14 14 31 15 17 16 18 17 30 18 32 19 19 20 29 21 28 22
REMARK SMILES IDX 21 23 20 24 25 25 22 26 23 27 26 28 27 29 8 30 9 31 10 32
REMARK SMILES IDX 24 33
REMARK H PARENT 24 34
REMARK Flexibility Score: inf
ROOT
ATOM      1  C   UNL     1       5.031  54.780 279.404  1.00  0.00     0.017 C 
ATOM      2  C   UNL     1       5.603  55.510 278.165  1.00  0.00     0.014 C 
ATOM      3  C   UNL     1       6.190  54.728 280.458  1.00  0.00     0.014 C 
ATOM      4  C   UNL     1       4.533  53.328 278.975  1.00  0.00     0.030 C 
ATOM      5  C   UNL     1       4.568  55.656 277.060  1.00  0.00     0.004 C 
ATOM      6  C   UNL     1       6.515  53.336 280.989  1.00  0.00     0.013 C 
ATOM      7  C   UNL     1       4.279  52.436 280.256  1.00  0.00    -0.063 C 
ATOM      8  C   UNL     1       3.458  53.448 277.791  1.00  0.00    -0.003 C 
ATOM      9  C   UNL     1       4.030  54.295 276.601  1.00  0.00    -0.011 C 
ATOM     10  C   UNL     1       5.254  52.559 281.463  1.00  0.00    -0.006 C 
ATOM     11  C   UNL     1       3.386  51.408 280.256  1.00  0.00    -0.027 C 
ATOM     12  C   UNL     1       2.876  52.146 277.174  1.00  0.00     0.008 C 
ATOM     13  C   UNL     1       5.099  53.567 275.743  1.00  0.00     0.008 C 
ATOM     14  C   UNL     1       4.575  53.440 282.576  1.00  0.00     0.017 C 
ATOM     15  C   UNL     1       5.674  51.097 282.020  1.00  0.00    -0.020 C 
ATOM     16  C   UNL     1       3.569  50.116 281.022  1.00  0.00     0.032 C 
ATOM     17  C   UNL     1       4.361  50.278 282.327  1.00  0.00     0.006 C 
ATOM     18  C   UNL     1       6.503  51.216 283.334  1.00  0.00     0.008 C 
ATOM     19  C   UNL     1       6.570  50.384 280.941  1.00  0.00     0.012 C 
ATOM     20  C   UNL     1       4.456  48.950 283.224  1.00  0.00    -0.025 C 
ATOM     21  C   UNL     1       6.752  49.882 284.030  1.00  0.00     0.005 C 
ATOM     22  C   UNL     1       5.462  49.127 284.439  1.00  0.00     0.003 C 
ATOM     23  C   UNL     1       3.014  48.622 283.769  1.00  0.00     0.010 C 
ATOM     24  C   UNL     1       4.905  47.697 282.398  1.00  0.00     0.012 C 
ATOM     25  C   UNL     1       4.813  49.504 285.840  1.00  0.00    -0.006 C 
ATOM     26  C   UNL     1       3.012  47.754 285.030  1.00  0.00     0.033 C 
ATOM     27  C   UNL     1       3.778  48.378 286.224  1.00  0.00     0.120 C 
ATOM     28  C   UNL     1       5.908  49.515 286.951  1.00  0.00     0.014 C 
ATOM     29  C   UNL     1       4.157  50.911 285.867  1.00  0.00     0.014 C 
ENDROOT
BRANCH   1  30
ATOM     30  C   UNL     1       3.910  55.655 279.974  1.00  0.00     0.048 C 
ATOM     31  O   UNL     1       2.907  56.003 279.283  1.00  0.00    -0.550 OA
ATOM     32  O   UNL     1       3.974  56.048 281.309  1.00  0.00    -0.550 OA
ENDBRANCH   1  30
BRANCH  27  33
ATOM     33  O   UNL     1       2.876  48.838 287.206  1.00  0.00    -0.393 OA
ATOM     34  H   UNL     1       2.074  49.189 286.733  1.00  0.00     0.210 HD
ENDBRANCH  27  33
TORSDOF 2
ENDMDL
