MODEL 1
REMARK VINA RESULT:    -2.899      0.000      0.000
REMARK INTER + INTRA:          -4.510
REMARK INTER:                  -4.424
REMARK INTRA:                  -0.085
REMARK UNBOUND:                -0.085
REMARK SMILES CC1=CCC[C@@H](C)C(=O)C[C@@H](C(C)C)C(=O)C1
REMARK SMILES IDX 8 1 9 2 6 3 7 4 5 5 4 6 3 7 2 8 1 9 10 11 11 12 15 13 16 14
REMARK SMILES IDX 17 15 12 17 13 18 14 19
REMARK H PARENT
REMARK Flexibility Score: 70.00
ROOT
ATOM      1  C   UNL     1      15.688  37.640  90.953  1.00  0.00     0.136 C 
ATOM      2  O   UNL     1      14.660  38.290  90.820  1.00  0.00    -0.299 OA
ENDROOT
BRANCH   1   3
ATOM      3  C   UNL     1      16.306  37.002  89.721  1.00  0.00     0.053 C 
ATOM      4  C   UNL     1      15.249  36.160  88.996  1.00  0.00     0.016 C 
BRANCH   3   5
ATOM      5  C   UNL     1      17.551  36.135  90.053  1.00  0.00     0.015 C 
BRANCH   5   6
ATOM      6  C   UNL     1      18.907  36.664  89.524  1.00  0.00     0.028 C 
BRANCH   6   7
ATOM      7  C   UNL     1      19.096  38.157  89.640  1.00  0.00    -0.028 C 
ATOM      8  C   UNL     1      19.283  38.870  90.779  1.00  0.00    -0.070 CG0
ATOM      9  C   UNL     1      19.617  40.336  90.625  1.00  0.00     0.039 C 
ATOM     10  G   UNL     1      19.077  38.325  92.183  1.00  0.00     0.000 G0
ENDBRANCH   6   7
ENDBRANCH   5   6
ENDBRANCH   3   5
ENDBRANCH   1   3
BRANCH   1  11
ATOM     11  C   UNL     1      16.316  37.578  92.333  1.00  0.00     0.087 C 
BRANCH  11  12
ATOM     12  C   UNL     1      16.644  38.933  93.022  1.00  0.00     0.066 C 
BRANCH  12  13
ATOM     13  C   UNL     1      18.146  39.177  93.065  1.00  0.00     0.140 C 
ATOM     14  O   UNL     1      18.588  40.121  93.705  1.00  0.00    -0.299 OA
BRANCH  13  15
ATOM     15  C   UNL     1      19.075  38.355  92.201  1.00  0.00     0.106 CG0
ATOM     16  G   UNL     1      19.279  38.877  90.788  1.00  0.00     0.000 G0
ENDBRANCH  13  15
ENDBRANCH  12  13
BRANCH  12  17
ATOM     17  C   UNL     1      16.045  39.008  94.465  1.00  0.00    -0.006 C 
ATOM     18  C   UNL     1      16.563  37.877  95.372  1.00  0.00     0.008 C 
ATOM     19  C   UNL     1      14.505  38.955  94.438  1.00  0.00     0.008 C 
ENDBRANCH  12  17
ENDBRANCH  11  12
ENDBRANCH   1  11
TORSDOF 1
ENDMDL
MODEL 2
REMARK VINA RESULT:    -2.895      3.170      5.735
REMARK INTER + INTRA:          -4.503
REMARK INTER:                  -4.585
REMARK INTRA:                   0.081
REMARK UNBOUND:                -0.085
REMARK SMILES CC1=CCC[C@@H](C)C(=O)C[C@@H](C(C)C)C(=O)C1
REMARK SMILES IDX 8 1 9 2 6 3 7 4 5 5 4 6 3 7 2 8 1 9 10 11 11 12 15 13 16 14
REMARK SMILES IDX 17 15 12 17 13 18 14 19
REMARK H PARENT
REMARK Flexibility Score: 70.00
ROOT
ATOM      1  C   UNL     1      19.288  39.320  90.677  1.00  0.00     0.136 C 
ATOM      2  O   UNL     1      19.465  38.624  89.687  1.00  0.00    -0.299 OA
ENDROOT
BRANCH   1   3
ATOM      3  C   UNL     1      18.643  38.690  91.900  1.00  0.00     0.053 C 
ATOM      4  C   UNL     1      17.148  39.031  91.924  1.00  0.00     0.016 C 
BRANCH   3   5
ATOM      5  C   UNL     1      19.317  39.128  93.228  1.00  0.00     0.015 C 
BRANCH   5   6
ATOM      6  C   UNL     1      18.606  40.262  94.008  1.00  0.00     0.028 C 
BRANCH   6   7
ATOM      7  C   UNL     1      19.527  41.182  94.774  1.00  0.00    -0.028 C 
ATOM      8  C   UNL     1      20.217  42.240  94.281  1.00  0.00    -0.070 CG0
ATOM      9  C   UNL     1      20.943  43.112  95.279  1.00  0.00     0.039 C 
ATOM     10  G   UNL     1      20.395  42.542  92.802  1.00  0.00     0.000 G0
ENDBRANCH   6   7
ENDBRANCH   5   6
ENDBRANCH   3   5
ENDBRANCH   1   3
BRANCH   1  11
ATOM     11  C   UNL     1      19.792  40.751  90.641  1.00  0.00     0.087 C 
BRANCH  11  12
ATOM     12  C   UNL     1      21.313  40.970  90.888  1.00  0.00     0.066 C 
BRANCH  12  13
ATOM     13  C   UNL     1      21.549  41.838  92.115  1.00  0.00     0.140 C 
ATOM     14  O   UNL     1      22.657  41.865  92.633  1.00  0.00    -0.299 OA
BRANCH  13  15
ATOM     15  C   UNL     1      20.391  42.542  92.784  1.00  0.00     0.106 CG0
ATOM     16  G   UNL     1      20.222  42.251  94.267  1.00  0.00     0.000 G0
ENDBRANCH  13  15
ENDBRANCH  12  13
BRANCH  12  17
ATOM     17  C   UNL     1      22.015  41.599  89.640  1.00  0.00    -0.006 C 
ATOM     18  C   UNL     1      21.863  43.129  89.593  1.00  0.00     0.008 C 
ATOM     19  C   UNL     1      21.469  41.005  88.327  1.00  0.00     0.008 C 
ENDBRANCH  12  17
ENDBRANCH  11  12
ENDBRANCH   1  11
TORSDOF 1
ENDMDL
MODEL 3
REMARK VINA RESULT:    -2.886      2.423      4.689
REMARK INTER + INTRA:          -4.490
REMARK INTER:                  -4.095
REMARK INTRA:                  -0.395
REMARK UNBOUND:                -0.085
REMARK SMILES CC1=CCC[C@@H](C)C(=O)C[C@@H](C(C)C)C(=O)C1
REMARK SMILES IDX 8 1 9 2 6 3 7 4 5 5 4 6 3 7 2 8 1 9 10 11 11 12 15 13 16 14
REMARK SMILES IDX 17 15 12 17 13 18 14 19
REMARK H PARENT
REMARK Flexibility Score: 70.00
ROOT
ATOM      1  C   UNL     1      20.893  41.067  90.055  1.00  0.00     0.136 C 
ATOM      2  O   UNL     1      21.321  42.016  89.413  1.00  0.00    -0.299 OA
ENDROOT
BRANCH   1   3
ATOM      3  C   UNL     1      21.290  39.664  89.625  1.00  0.00     0.053 C 
ATOM      4  C   UNL     1      22.568  39.730  88.781  1.00  0.00     0.016 C 
BRANCH   3   5
ATOM      5  C   UNL     1      20.164  38.935  88.843  1.00  0.00     0.015 C 
BRANCH   5   6
ATOM      6  C   UNL     1      19.676  37.595  89.447  1.00  0.00     0.028 C 
BRANCH   6   7
ATOM      7  C   UNL     1      18.254  37.606  89.955  1.00  0.00    -0.028 C 
ATOM      8  C   UNL     1      17.830  37.988  91.185  1.00  0.00    -0.070 CG0
ATOM      9  C   UNL     1      16.337  38.070  91.402  1.00  0.00     0.039 C 
ATOM     10  G   UNL     1      18.742  38.233  92.376  1.00  0.00     0.000 G0
ENDBRANCH   6   7
ENDBRANCH   5   6
ENDBRANCH   3   5
ENDBRANCH   1   3
BRANCH   1  11
ATOM     11  C   UNL     1      20.054  41.360  91.284  1.00  0.00     0.087 C 
BRANCH  11  12
ATOM     12  C   UNL     1      20.222  40.403  92.499  1.00  0.00     0.066 C 
BRANCH  12  13
ATOM     13  C   UNL     1      18.922  39.673  92.805  1.00  0.00     0.140 C 
ATOM     14  O   UNL     1      18.069  40.218  93.492  1.00  0.00    -0.299 OA
BRANCH  13  15
ATOM     15  C   UNL     1      18.746  38.229  92.396  1.00  0.00     0.106 CG0
ATOM     16  G   UNL     1      17.836  37.998  91.201  1.00  0.00     0.000 G0
ENDBRANCH  13  15
ENDBRANCH  12  13
BRANCH  12  17
ATOM     17  C   UNL     1      20.724  41.165  93.770  1.00  0.00    -0.006 C 
ATOM     18  C   UNL     1      20.538  42.688  93.649  1.00  0.00     0.008 C 
ATOM     19  C   UNL     1      22.209  40.868  94.054  1.00  0.00     0.008 C 
ENDBRANCH  12  17
ENDBRANCH  11  12
ENDBRANCH   1  11
TORSDOF 1
ENDMDL
MODEL 4
REMARK VINA RESULT:    -2.797      4.016      5.663
REMARK INTER + INTRA:          -4.354
REMARK INTER:                  -4.027
REMARK INTRA:                  -0.327
REMARK UNBOUND:                -0.085
REMARK SMILES CC1=CCC[C@@H](C)C(=O)C[C@@H](C(C)C)C(=O)C1
REMARK SMILES IDX 8 1 9 2 6 3 7 4 5 5 4 6 3 7 2 8 1 9 10 11 11 12 15 13 16 14
REMARK SMILES IDX 17 15 12 17 13 18 14 19
REMARK H PARENT
REMARK Flexibility Score: 70.00
ROOT
ATOM      1  C   UNL     1      20.204  40.103  91.654  1.00  0.00     0.136 C 
ATOM      2  O   UNL     1      19.203  39.404  91.580  1.00  0.00    -0.299 OA
ENDROOT
BRANCH   1   3
ATOM      3  C   UNL     1      20.722  40.764  90.387  1.00  0.00     0.053 C 
ATOM      4  C   UNL     1      22.067  40.140  89.998  1.00  0.00     0.016 C 
BRANCH   3   5
ATOM      5  C   UNL     1      20.862  42.304  90.527  1.00  0.00     0.015 C 
BRANCH   5   6
ATOM      6  C   UNL     1      22.288  42.831  90.823  1.00  0.00     0.028 C 
BRANCH   6   7
ATOM      7  C   UNL     1      22.354  43.956  91.829  1.00  0.00    -0.028 C 
ATOM      8  C   UNL     1      22.541  43.843  93.168  1.00  0.00    -0.070 CG0
ATOM      9  C   UNL     1      22.739  45.124  93.944  1.00  0.00     0.039 C 
ATOM     10  G   UNL     1      22.460  42.539  93.944  1.00  0.00     0.000 G0
ENDBRANCH   6   7
ENDBRANCH   5   6
ENDBRANCH   3   5
ENDBRANCH   1   3
BRANCH   1  11
ATOM     11  C   UNL     1      20.819  40.323  93.024  1.00  0.00     0.087 C 
BRANCH  11  12
ATOM     12  C   UNL     1      20.116  41.349  93.958  1.00  0.00     0.066 C 
BRANCH  12  13
ATOM     13  C   UNL     1      21.130  42.265  94.627  1.00  0.00     0.140 C 
ATOM     14  O   UNL     1      20.817  42.876  95.640  1.00  0.00    -0.299 OA
BRANCH  13  15
ATOM     15  C   UNL     1      22.460  42.541  93.965  1.00  0.00     0.106 CG0
ATOM     16  G   UNL     1      22.532  43.831  93.165  1.00  0.00     0.000 G0
ENDBRANCH  13  15
ENDBRANCH  12  13
BRANCH  12  17
ATOM     17  C   UNL     1      19.236  40.637  95.038  1.00  0.00    -0.006 C 
ATOM     18  C   UNL     1      19.847  39.303  95.503  1.00  0.00     0.008 C 
ATOM     19  C   UNL     1      17.810  40.375  94.519  1.00  0.00     0.008 C 
ENDBRANCH  12  17
ENDBRANCH  11  12
ENDBRANCH   1  11
TORSDOF 1
ENDMDL
MODEL 5
REMARK VINA RESULT:    -2.766      2.250      4.668
REMARK INTER + INTRA:          -4.306
REMARK INTER:                  -3.979
REMARK INTRA:                  -0.328
REMARK UNBOUND:                -0.085
REMARK SMILES CC1=CCC[C@@H](C)C(=O)C[C@@H](C(C)C)C(=O)C1
REMARK SMILES IDX 8 1 9 2 6 3 7 4 5 5 4 6 3 7 2 8 1 9 10 11 11 12 15 13 16 14
REMARK SMILES IDX 17 15 12 17 13 18 14 19
REMARK H PARENT
REMARK Flexibility Score: 70.00
ROOT
ATOM      1  C   UNL     1      17.146  38.718  92.308  1.00  0.00     0.136 C 
ATOM      2  O   UNL     1      16.074  38.247  91.954  1.00  0.00    -0.299 OA
ENDROOT
BRANCH   1   3
ATOM      3  C   UNL     1      17.559  38.569  93.762  1.00  0.00     0.053 C 
ATOM      4  C   UNL     1      16.535  37.696  94.497  1.00  0.00     0.016 C 
BRANCH   3   5
ATOM      5  C   UNL     1      17.720  39.935  94.484  1.00  0.00     0.015 C 
BRANCH   5   6
ATOM      6  C   UNL     1      19.157  40.301  94.929  1.00  0.00     0.028 C 
BRANCH   6   7
ATOM      7  C   UNL     1      19.755  41.496  94.226  1.00  0.00    -0.028 C 
ATOM      8  C   UNL     1      20.503  41.487  93.094  1.00  0.00    -0.070 CG0
ATOM      9  C   UNL     1      20.848  42.827  92.488  1.00  0.00     0.039 C 
ATOM     10  G   UNL     1      21.099  40.239  92.463  1.00  0.00     0.000 G0
ENDBRANCH   6   7
ENDBRANCH   5   6
ENDBRANCH   3   5
ENDBRANCH   1   3
BRANCH   1  11
ATOM     11  C   UNL     1      18.026  39.357  91.249  1.00  0.00     0.087 C 
BRANCH  11  12
ATOM     12  C   UNL     1      19.446  38.754  91.053  1.00  0.00     0.066 C 
BRANCH  12  13
ATOM     13  C   UNL     1      20.515  39.836  91.120  1.00  0.00     0.140 C 
ATOM     14  O   UNL     1      20.981  40.290  90.084  1.00  0.00    -0.299 OA
BRANCH  13  15
ATOM     15  C   UNL     1      21.108  40.239  92.450  1.00  0.00     0.106 CG0
ATOM     16  G   UNL     1      20.496  41.477  93.086  1.00  0.00     0.000 G0
ENDBRANCH  13  15
ENDBRANCH  12  13
BRANCH  12  17
ATOM     17  C   UNL     1      19.559  37.967  89.706  1.00  0.00    -0.006 C 
ATOM     18  C   UNL     1      18.240  37.274  89.322  1.00  0.00     0.008 C 
ATOM     19  C   UNL     1      20.677  36.909  89.764  1.00  0.00     0.008 C 
ENDBRANCH  12  17
ENDBRANCH  11  12
ENDBRANCH   1  11
TORSDOF 1
ENDMDL
MODEL 6
REMARK VINA RESULT:    -2.753      3.777      5.975
REMARK INTER + INTRA:          -4.287
REMARK INTER:                  -3.867
REMARK INTRA:                  -0.420
REMARK UNBOUND:                -0.085
REMARK SMILES CC1=CCC[C@@H](C)C(=O)C[C@@H](C(C)C)C(=O)C1
REMARK SMILES IDX 8 1 9 2 6 3 7 4 5 5 4 6 3 7 2 8 1 9 10 11 11 12 15 13 16 14
REMARK SMILES IDX 17 15 12 17 13 18 14 19
REMARK H PARENT
REMARK Flexibility Score: 70.00
ROOT
ATOM      1  C   UNL     1      20.993  40.920  90.605  1.00  0.00     0.136 C 
ATOM      2  O   UNL     1      20.703  40.192  89.665  1.00  0.00    -0.299 OA
ENDROOT
BRANCH   1   3
ATOM      3  C   UNL     1      21.219  42.398  90.334  1.00  0.00     0.053 C 
ATOM      4  C   UNL     1      21.612  42.595  88.865  1.00  0.00     0.016 C 
BRANCH   3   5
ATOM      5  C   UNL     1      22.292  43.022  91.267  1.00  0.00     0.015 C 
BRANCH   5   6
ATOM      6  C   UNL     1      21.764  43.991  92.354  1.00  0.00     0.028 C 
BRANCH   6   7
ATOM      7  C   UNL     1      22.258  43.709  93.752  1.00  0.00    -0.028 C 
ATOM      8  C   UNL     1      21.664  42.923  94.685  1.00  0.00    -0.070 CG0
ATOM      9  C   UNL     1      22.437  42.660  95.956  1.00  0.00     0.039 C 
ATOM     10  G   UNL     1      20.247  42.383  94.583  1.00  0.00     0.000 G0
ENDBRANCH   6   7
ENDBRANCH   5   6
ENDBRANCH   3   5
ENDBRANCH   1   3
BRANCH   1  11
ATOM     11  C   UNL     1      21.035  40.306  91.992  1.00  0.00     0.087 C 
BRANCH  11  12
ATOM     12  C   UNL     1      19.764  40.466  92.873  1.00  0.00     0.066 C 
BRANCH  12  13
ATOM     13  C   UNL     1      20.126  40.913  94.282  1.00  0.00     0.140 C 
ATOM     14  O   UNL     1      20.200  40.086  95.180  1.00  0.00    -0.299 OA
BRANCH  13  15
ATOM     15  C   UNL     1      20.245  42.385  94.607  1.00  0.00     0.106 CG0
ATOM     16  G   UNL     1      21.665  42.925  94.664  1.00  0.00     0.000 G0
ENDBRANCH  13  15
ENDBRANCH  12  13
BRANCH  12  17
ATOM     17  C   UNL     1      18.928  39.145  92.926  1.00  0.00    -0.006 C 
ATOM     18  C   UNL     1      19.748  37.917  92.491  1.00  0.00     0.008 C 
ATOM     19  C   UNL     1      17.669  39.239  92.043  1.00  0.00     0.008 C 
ENDBRANCH  12  17
ENDBRANCH  11  12
ENDBRANCH   1  11
TORSDOF 1
ENDMDL
MODEL 7
REMARK VINA RESULT:    -2.710      2.972      5.956
REMARK INTER + INTRA:          -4.221
REMARK INTER:                  -3.856
REMARK INTRA:                  -0.366
REMARK UNBOUND:                -0.085
REMARK SMILES CC1=CCC[C@@H](C)C(=O)C[C@@H](C(C)C)C(=O)C1
REMARK SMILES IDX 8 1 9 2 6 3 7 4 5 5 4 6 3 7 2 8 1 9 10 11 11 12 15 13 16 14
REMARK SMILES IDX 17 15 12 17 13 18 14 19
REMARK H PARENT
REMARK Flexibility Score: 70.00
ROOT
ATOM      1  C   UNL     1      21.589  41.001  89.984  1.00  0.00     0.136 C 
ATOM      2  O   UNL     1      22.054  40.835  88.864  1.00  0.00    -0.299 OA
ENDROOT
BRANCH   1   3
ATOM      3  C   UNL     1      21.111  42.391  90.371  1.00  0.00     0.053 C 
ATOM      4  C   UNL     1      21.523  43.394  89.287  1.00  0.00     0.016 C 
BRANCH   3   5
ATOM      5  C   UNL     1      21.646  42.845  91.756  1.00  0.00     0.015 C 
BRANCH   5   6
ATOM      6  C   UNL     1      20.585  43.004  92.874  1.00  0.00     0.028 C 
BRANCH   6   7
ATOM      7  C   UNL     1      20.744  42.060  94.041  1.00  0.00    -0.028 C 
ATOM      8  C   UNL     1      20.231  40.809  94.154  1.00  0.00    -0.070 CG0
ATOM      9  C   UNL     1      20.668  39.993  95.348  1.00  0.00     0.039 C 
ATOM     10  G   UNL     1      19.178  40.220  93.230  1.00  0.00     0.000 G0
ENDBRANCH   6   7
ENDBRANCH   5   6
ENDBRANCH   3   5
ENDBRANCH   1   3
BRANCH   1  11
ATOM     11  C   UNL     1      21.452  39.788  90.884  1.00  0.00     0.087 C 
BRANCH  11  12
ATOM     12  C   UNL     1      20.043  39.136  90.982  1.00  0.00     0.066 C 
BRANCH  12  13
ATOM     13  C   UNL     1      19.608  38.987  92.433  1.00  0.00     0.140 C 
ATOM     14  O   UNL     1      19.497  37.871  92.920  1.00  0.00    -0.299 OA
BRANCH  13  15
ATOM     15  C   UNL     1      19.168  40.198  93.224  1.00  0.00     0.106 CG0
ATOM     16  G   UNL     1      20.226  40.799  94.134  1.00  0.00     0.000 G0
ENDBRANCH  13  15
ENDBRANCH  12  13
BRANCH  12  17
ATOM     17  C   UNL     1      19.997  37.749  90.261  1.00  0.00    -0.006 C 
ATOM     18  C   UNL     1      21.296  37.446  89.492  1.00  0.00     0.008 C 
ATOM     19  C   UNL     1      18.810  37.662  89.282  1.00  0.00     0.008 C 
ENDBRANCH  12  17
ENDBRANCH  11  12
ENDBRANCH   1  11
TORSDOF 1
ENDMDL
MODEL 8
REMARK VINA RESULT:    -2.587      2.203      4.278
REMARK INTER + INTRA:          -4.034
REMARK INTER:                  -3.975
REMARK INTRA:                  -0.059
REMARK UNBOUND:                -0.085
REMARK SMILES CC1=CCC[C@@H](C)C(=O)C[C@@H](C(C)C)C(=O)C1
REMARK SMILES IDX 8 1 9 2 6 3 7 4 5 5 4 6 3 7 2 8 1 9 10 11 11 12 15 13 16 14
REMARK SMILES IDX 17 15 12 17 13 18 14 19
REMARK H PARENT
REMARK Flexibility Score: 70.00
ROOT
ATOM      1  C   UNL     1      17.980  39.426  94.833  1.00  0.00     0.136 C 
ATOM      2  O   UNL     1      18.007  38.532  95.667  1.00  0.00    -0.299 OA
ENDROOT
BRANCH   1   3
ATOM      3  C   UNL     1      16.817  39.471  93.856  1.00  0.00     0.053 C 
ATOM      4  C   UNL     1      15.503  39.620  94.632  1.00  0.00     0.016 C 
BRANCH   3   5
ATOM      5  C   UNL     1      16.759  38.223  92.934  1.00  0.00     0.015 C 
BRANCH   5   6
ATOM      6  C   UNL     1      16.780  38.503  91.411  1.00  0.00     0.028 C 
BRANCH   6   7
ATOM      7  C   UNL     1      17.978  37.949  90.678  1.00  0.00    -0.028 C 
ATOM      8  C   UNL     1      19.233  38.465  90.658  1.00  0.00    -0.070 CG0
ATOM      9  C   UNL     1      20.305  37.638  89.989  1.00  0.00     0.039 C 
ATOM     10  G   UNL     1      19.606  39.849  91.165  1.00  0.00     0.000 G0
ENDBRANCH   6   7
ENDBRANCH   5   6
ENDBRANCH   3   5
ENDBRANCH   1   3
BRANCH   1  11
ATOM     11  C   UNL     1      19.075  40.476  94.880  1.00  0.00     0.087 C 
BRANCH  11  12
ATOM     12  C   UNL     1      19.578  41.033  93.517  1.00  0.00     0.066 C 
BRANCH  12  13
ATOM     13  C   UNL     1      20.059  39.909  92.611  1.00  0.00     0.140 C 
ATOM     14  O   UNL     1      20.901  39.121  93.019  1.00  0.00    -0.299 OA
BRANCH  13  15
ATOM     15  C   UNL     1      19.619  39.855  91.166  1.00  0.00     0.106 CG0
ATOM     16  G   UNL     1      19.237  38.476  90.655  1.00  0.00     0.000 G0
ENDBRANCH  13  15
ENDBRANCH  12  13
BRANCH  12  17
ATOM     17  C   UNL     1      20.711  42.094  93.709  1.00  0.00    -0.006 C 
ATOM     18  C   UNL     1      20.588  42.844  95.048  1.00  0.00     0.008 C 
ATOM     19  C   UNL     1      20.720  43.123  92.563  1.00  0.00     0.008 C 
ENDBRANCH  12  17
ENDBRANCH  11  12
ENDBRANCH   1  11
TORSDOF 1
ENDMDL
MODEL 9
REMARK VINA RESULT:    -2.583      1.746      4.799
REMARK INTER + INTRA:          -4.027
REMARK INTER:                  -3.821
REMARK INTRA:                  -0.206
REMARK UNBOUND:                -0.085
REMARK SMILES CC1=CCC[C@@H](C)C(=O)C[C@@H](C(C)C)C(=O)C1
REMARK SMILES IDX 8 1 9 2 6 3 7 4 5 5 4 6 3 7 2 8 1 9 10 11 11 12 15 13 16 14
REMARK SMILES IDX 17 15 12 17 13 18 14 19
REMARK H PARENT
REMARK Flexibility Score: 70.00
ROOT
ATOM      1  C   UNL     1      18.381  39.798  93.675  1.00  0.00     0.136 C 
ATOM      2  O   UNL     1      18.800  40.944  93.765  1.00  0.00    -0.299 OA
ENDROOT
BRANCH   1   3
ATOM      3  C   UNL     1      17.122  39.425  94.439  1.00  0.00     0.053 C 
ATOM      4  C   UNL     1      17.457  38.356  95.487  1.00  0.00     0.016 C 
BRANCH   3   5
ATOM      5  C   UNL     1      15.980  38.931  93.510  1.00  0.00     0.015 C 
BRANCH   5   6
ATOM      6  C   UNL     1      16.040  37.439  93.098  1.00  0.00     0.028 C 
BRANCH   6   7
ATOM      7  C   UNL     1      15.772  37.172  91.636  1.00  0.00    -0.028 C 
ATOM      8  C   UNL     1      16.682  36.830  90.689  1.00  0.00    -0.070 CG0
ATOM      9  C   UNL     1      16.147  36.450  89.328  1.00  0.00     0.039 C 
ATOM     10  G   UNL     1      18.189  36.903  90.873  1.00  0.00     0.000 G0
ENDBRANCH   6   7
ENDBRANCH   5   6
ENDBRANCH   3   5
ENDBRANCH   1   3
BRANCH   1  11
ATOM     11  C   UNL     1      19.109  38.846  92.745  1.00  0.00     0.087 C 
BRANCH  11  12
ATOM     12  C   UNL     1      19.228  39.268  91.253  1.00  0.00     0.066 C 
BRANCH  12  13
ATOM     13  C   UNL     1      18.882  38.111  90.327  1.00  0.00     0.140 C 
ATOM     14  O   UNL     1      19.046  38.231  89.121  1.00  0.00    -0.299 OA
BRANCH  13  15
ATOM     15  C   UNL     1      18.196  36.879  90.872  1.00  0.00     0.106 CG0
ATOM     16  G   UNL     1      16.689  36.837  90.682  1.00  0.00     0.000 G0
ENDBRANCH  13  15
ENDBRANCH  12  13
BRANCH  12  17
ATOM     17  C   UNL     1      20.654  39.817  90.919  1.00  0.00    -0.006 C 
ATOM     18  C   UNL     1      21.689  39.447  91.996  1.00  0.00     0.008 C 
ATOM     19  C   UNL     1      20.643  41.348  90.749  1.00  0.00     0.008 C 
ENDBRANCH  12  17
ENDBRANCH  11  12
ENDBRANCH   1  11
TORSDOF 1
ENDMDL
