MODEL 1
REMARK VINA RESULT:    -5.389      0.000      0.000
REMARK INTER + INTRA:          -5.799
REMARK INTER:                  -5.704
REMARK INTRA:                  -0.095
REMARK UNBOUND:                -0.095
REMARK SMILES C=C(C)[C@@H]1CC=C(C)C(=O)C1
REMARK SMILES IDX 8 1 7 2 6 3 5 4 4 5 11 6 9 7 10 8 2 9 1 10 3 11
REMARK H PARENT
REMARK Flexibility Score: inf
ROOT
ATOM      1  C   UNL     1      15.572 -33.965  21.357  1.00  0.00     0.048 C 
ATOM      2  C   UNL     1      14.624 -32.893  21.822  1.00  0.00    -0.012 C 
ATOM      3  C   UNL     1      13.920 -32.180  20.927  1.00  0.00    -0.019 C 
ATOM      4  C   UNL     1      12.900 -31.154  21.346  1.00  0.00     0.036 C 
ATOM      5  C   UNL     1      13.281 -30.508  22.691  1.00  0.00     0.025 C 
ATOM      6  C   UNL     1      13.495 -31.592  23.765  1.00  0.00     0.089 C 
ATOM      7  C   UNL     1      14.452 -32.643  23.275  1.00  0.00     0.158 C 
ATOM      8  O   UNL     1      15.076 -33.345  24.116  1.00  0.00    -0.295 OA
ENDROOT
BRANCH   5   9
ATOM      9  C   UNL     1      12.244 -29.484  23.132  1.00  0.00    -0.077 C 
ATOM     10  C   UNL     1      12.456 -28.741  24.230  1.00  0.00     0.008 C 
ATOM     11  C   UNL     1      10.963 -29.281  22.362  1.00  0.00     0.039 C 
ENDBRANCH   5   9
TORSDOF 1
ENDMDL
MODEL 2
REMARK VINA RESULT:    -5.194      1.550      2.360
REMARK INTER + INTRA:          -5.592
REMARK INTER:                  -5.495
REMARK INTRA:                  -0.098
REMARK UNBOUND:                -0.095
REMARK SMILES C=C(C)[C@@H]1CC=C(C)C(=O)C1
REMARK SMILES IDX 8 1 7 2 6 3 5 4 4 5 11 6 9 7 10 8 2 9 1 10 3 11
REMARK H PARENT
REMARK Flexibility Score: inf
ROOT
ATOM      1  C   UNL     1      16.222 -34.397  21.669  1.00  0.00     0.048 C 
ATOM      2  C   UNL     1      15.310 -33.227  21.919  1.00  0.00    -0.012 C 
ATOM      3  C   UNL     1      15.412 -32.524  23.060  1.00  0.00    -0.019 C 
ATOM      4  C   UNL     1      14.577 -31.297  23.320  1.00  0.00     0.036 C 
ATOM      5  C   UNL     1      13.213 -31.392  22.612  1.00  0.00     0.025 C 
ATOM      6  C   UNL     1      13.406 -31.659  21.108  1.00  0.00     0.089 C 
ATOM      7  C   UNL     1      14.315 -32.837  20.890  1.00  0.00     0.158 C 
ATOM      8  O   UNL     1      14.253 -33.467  19.799  1.00  0.00    -0.295 OA
ENDROOT
BRANCH   5   9
ATOM      9  C   UNL     1      12.371 -30.146  22.853  1.00  0.00    -0.077 C 
ATOM     10  C   UNL     1      11.319 -29.880  22.062  1.00  0.00     0.008 C 
ATOM     11  C   UNL     1      12.693 -29.184  23.970  1.00  0.00     0.039 C 
ENDBRANCH   5   9
TORSDOF 1
ENDMDL
MODEL 3
REMARK VINA RESULT:    -5.022      1.508      2.170
REMARK INTER + INTRA:          -5.410
REMARK INTER:                  -5.317
REMARK INTRA:                  -0.093
REMARK UNBOUND:                -0.095
REMARK SMILES C=C(C)[C@@H]1CC=C(C)C(=O)C1
REMARK SMILES IDX 8 1 7 2 6 3 5 4 4 5 11 6 9 7 10 8 2 9 1 10 3 11
REMARK H PARENT
REMARK Flexibility Score: inf
ROOT
ATOM      1  C   UNL     1      16.237 -35.494  19.920  1.00  0.00     0.048 C 
ATOM      2  C   UNL     1      15.501 -34.362  20.584  1.00  0.00    -0.012 C 
ATOM      3  C   UNL     1      14.608 -33.638  19.888  1.00  0.00    -0.019 C 
ATOM      4  C   UNL     1      13.789 -32.549  20.529  1.00  0.00     0.036 C 
ATOM      5  C   UNL     1      14.554 -31.888  21.691  1.00  0.00     0.025 C 
ATOM      6  C   UNL     1      15.009 -32.951  22.707  1.00  0.00     0.089 C 
ATOM      7  C   UNL     1      15.748 -34.064  22.016  1.00  0.00     0.158 C 
ATOM      8  O   UNL     1      16.549 -34.774  22.682  1.00  0.00    -0.295 OA
ENDROOT
BRANCH   5   9
ATOM      9  C   UNL     1      13.723 -30.799  22.358  1.00  0.00    -0.077 C 
ATOM     10  C   UNL     1      14.306 -29.925  23.194  1.00  0.00     0.008 C 
ATOM     11  C   UNL     1      12.241 -30.676  22.105  1.00  0.00     0.039 C 
ENDBRANCH   5   9
TORSDOF 1
ENDMDL
MODEL 4
REMARK VINA RESULT:    -5.006      2.188      4.675
REMARK INTER + INTRA:          -5.393
REMARK INTER:                  -5.305
REMARK INTRA:                  -0.088
REMARK UNBOUND:                -0.095
REMARK SMILES C=C(C)[C@@H]1CC=C(C)C(=O)C1
REMARK SMILES IDX 8 1 7 2 6 3 5 4 4 5 11 6 9 7 10 8 2 9 1 10 3 11
REMARK H PARENT
REMARK Flexibility Score: inf
ROOT
ATOM      1  C   UNL     1      11.249 -28.479  23.617  1.00  0.00     0.048 C 
ATOM      2  C   UNL     1      12.273 -29.478  23.150  1.00  0.00    -0.012 C 
ATOM      3  C   UNL     1      13.434 -29.614  23.813  1.00  0.00    -0.019 C 
ATOM      4  C   UNL     1      14.453 -30.655  23.433  1.00  0.00     0.036 C 
ATOM      5  C   UNL     1      14.409 -30.953  21.922  1.00  0.00     0.025 C 
ATOM      6  C   UNL     1      12.983 -31.349  21.497  1.00  0.00     0.089 C 
ATOM      7  C   UNL     1      11.984 -30.329  21.970  1.00  0.00     0.158 C 
ATOM      8  O   UNL     1      10.875 -30.235  21.378  1.00  0.00    -0.295 OA
ENDROOT
BRANCH   5   9
ATOM      9  C   UNL     1      15.423 -32.020  21.534  1.00  0.00    -0.077 C 
ATOM     10  C   UNL     1      16.663 -31.667  21.161  1.00  0.00     0.008 C 
ATOM     11  C   UNL     1      15.067 -33.486  21.552  1.00  0.00     0.039 C 
ENDBRANCH   5   9
TORSDOF 1
ENDMDL
MODEL 5
REMARK VINA RESULT:    -4.942      2.132      5.442
REMARK INTER + INTRA:          -5.325
REMARK INTER:                  -5.229
REMARK INTRA:                  -0.096
REMARK UNBOUND:                -0.095
REMARK SMILES C=C(C)[C@@H]1CC=C(C)C(=O)C1
REMARK SMILES IDX 8 1 7 2 6 3 5 4 4 5 11 6 9 7 10 8 2 9 1 10 3 11
REMARK H PARENT
REMARK Flexibility Score: inf
ROOT
ATOM      1  C   UNL     1      13.514 -31.216  23.498  1.00  0.00     0.048 C 
ATOM      2  C   UNL     1      14.232 -32.169  22.581  1.00  0.00    -0.012 C 
ATOM      3  C   UNL     1      15.190 -32.978  23.064  1.00  0.00    -0.019 C 
ATOM      4  C   UNL     1      15.878 -34.003  22.202  1.00  0.00     0.036 C 
ATOM      5  C   UNL     1      15.952 -33.540  20.736  1.00  0.00     0.025 C 
ATOM      6  C   UNL     1      14.547 -33.188  20.213  1.00  0.00     0.089 C 
ATOM      7  C   UNL     1      13.859 -32.229  21.146  1.00  0.00     0.158 C 
ATOM      8  O   UNL     1      12.926 -31.505  20.703  1.00  0.00    -0.295 OA
ENDROOT
BRANCH   5   9
ATOM      9  C   UNL     1      16.629 -34.581  19.854  1.00  0.00    -0.077 C 
ATOM     10  C   UNL     1      16.154 -35.836  19.810  1.00  0.00     0.008 C 
ATOM     11  C   UNL     1      17.839 -34.239  19.021  1.00  0.00     0.039 C 
ENDBRANCH   5   9
TORSDOF 1
ENDMDL
MODEL 6
REMARK VINA RESULT:    -4.879      2.224      4.170
REMARK INTER + INTRA:          -5.259
REMARK INTER:                  -5.160
REMARK INTRA:                  -0.098
REMARK UNBOUND:                -0.095
REMARK SMILES C=C(C)[C@@H]1CC=C(C)C(=O)C1
REMARK SMILES IDX 8 1 7 2 6 3 5 4 4 5 11 6 9 7 10 8 2 9 1 10 3 11
REMARK H PARENT
REMARK Flexibility Score: inf
ROOT
ATOM      1  C   UNL     1      10.875 -30.274  21.621  1.00  0.00     0.048 C 
ATOM      2  C   UNL     1      12.312 -30.553  21.969  1.00  0.00    -0.012 C 
ATOM      3  C   UNL     1      13.046 -31.372  21.198  1.00  0.00    -0.019 C 
ATOM      4  C   UNL     1      14.509 -31.618  21.460  1.00  0.00     0.036 C 
ATOM      5  C   UNL     1      14.833 -31.505  22.961  1.00  0.00     0.025 C 
ATOM      6  C   UNL     1      14.361 -30.145  23.510  1.00  0.00     0.089 C 
ATOM      7  C   UNL     1      12.921 -29.899  23.153  1.00  0.00     0.158 C 
ATOM      8  O   UNL     1      12.246 -29.092  23.848  1.00  0.00    -0.295 OA
ENDROOT
BRANCH   5   9
ATOM      9  C   UNL     1      16.314 -31.731  23.231  1.00  0.00    -0.077 C 
ATOM     10  C   UNL     1      17.075 -30.727  23.696  1.00  0.00     0.008 C 
ATOM     11  C   UNL     1      16.963 -33.070  22.983  1.00  0.00     0.039 C 
ENDBRANCH   5   9
TORSDOF 1
ENDMDL
MODEL 7
REMARK VINA RESULT:    -4.855      1.894      5.199
REMARK INTER + INTRA:          -5.233
REMARK INTER:                  -5.138
REMARK INTRA:                  -0.095
REMARK UNBOUND:                -0.095
REMARK SMILES C=C(C)[C@@H]1CC=C(C)C(=O)C1
REMARK SMILES IDX 8 1 7 2 6 3 5 4 4 5 11 6 9 7 10 8 2 9 1 10 3 11
REMARK H PARENT
REMARK Flexibility Score: inf
ROOT
ATOM      1  C   UNL     1      13.380 -30.416  23.475  1.00  0.00     0.048 C 
ATOM      2  C   UNL     1      14.078 -31.627  22.919  1.00  0.00    -0.012 C 
ATOM      3  C   UNL     1      14.869 -32.372  23.710  1.00  0.00    -0.019 C 
ATOM      4  C   UNL     1      15.523 -33.637  23.220  1.00  0.00     0.036 C 
ATOM      5  C   UNL     1      15.822 -33.562  21.712  1.00  0.00     0.025 C 
ATOM      6  C   UNL     1      14.540 -33.227  20.927  1.00  0.00     0.089 C 
ATOM      7  C   UNL     1      13.870 -32.009  21.501  1.00  0.00     0.158 C 
ATOM      8  O   UNL     1      13.090 -31.337  20.772  1.00  0.00    -0.295 OA
ENDROOT
BRANCH   5   9
ATOM      9  C   UNL     1      16.465 -34.846  21.205  1.00  0.00    -0.077 C 
ATOM     10  C   UNL     1      17.453 -35.426  21.906  1.00  0.00     0.008 C 
ATOM     11  C   UNL     1      16.020 -35.493  19.918  1.00  0.00     0.039 C 
ENDBRANCH   5   9
TORSDOF 1
ENDMDL
MODEL 8
REMARK VINA RESULT:    -4.818     10.558     11.228
REMARK INTER + INTRA:          -5.194
REMARK INTER:                  -5.099
REMARK INTRA:                  -0.096
REMARK UNBOUND:                -0.095
REMARK SMILES C=C(C)[C@@H]1CC=C(C)C(=O)C1
REMARK SMILES IDX 8 1 7 2 6 3 5 4 4 5 11 6 9 7 10 8 2 9 1 10 3 11
REMARK H PARENT
REMARK Flexibility Score: inf
ROOT
ATOM      1  C   UNL     1      24.016 -22.723  21.393  1.00  0.00     0.048 C 
ATOM      2  C   UNL     1      23.082 -23.893  21.246  1.00  0.00    -0.012 C 
ATOM      3  C   UNL     1      22.358 -24.315  22.297  1.00  0.00    -0.019 C 
ATOM      4  C   UNL     1      21.351 -25.429  22.179  1.00  0.00     0.036 C 
ATOM      5  C   UNL     1      21.765 -26.440  21.094  1.00  0.00     0.025 C 
ATOM      6  C   UNL     1      22.001 -25.722  19.753  1.00  0.00     0.089 C 
ATOM      7  C   UNL     1      22.944 -24.564  19.930  1.00  0.00     0.158 C 
ATOM      8  O   UNL     1      23.587 -24.137  18.932  1.00  0.00    -0.295 OA
ENDROOT
BRANCH   5   9
ATOM      9  C   UNL     1      20.741 -27.558  20.954  1.00  0.00    -0.077 C 
ATOM     10  C   UNL     1      19.494 -27.281  20.539  1.00  0.00     0.008 C 
ATOM     11  C   UNL     1      21.090 -28.990  21.277  1.00  0.00     0.039 C 
ENDBRANCH   5   9
TORSDOF 1
ENDMDL
MODEL 9
REMARK VINA RESULT:    -4.817      2.047      2.408
REMARK INTER + INTRA:          -5.193
REMARK INTER:                  -5.104
REMARK INTRA:                  -0.089
REMARK UNBOUND:                -0.095
REMARK SMILES C=C(C)[C@@H]1CC=C(C)C(=O)C1
REMARK SMILES IDX 8 1 7 2 6 3 5 4 4 5 11 6 9 7 10 8 2 9 1 10 3 11
REMARK H PARENT
REMARK Flexibility Score: inf
ROOT
ATOM      1  C   UNL     1      18.059 -32.859  20.514  1.00  0.00     0.048 C 
ATOM      2  C   UNL     1      16.785 -32.209  20.981  1.00  0.00    -0.012 C 
ATOM      3  C   UNL     1      16.757 -30.892  21.245  1.00  0.00    -0.019 C 
ATOM      4  C   UNL     1      15.488 -30.182  21.637  1.00  0.00     0.036 C 
ATOM      5  C   UNL     1      14.536 -31.123  22.398  1.00  0.00     0.025 C 
ATOM      6  C   UNL     1      14.263 -32.393  21.570  1.00  0.00     0.089 C 
ATOM      7  C   UNL     1      15.554 -33.024  21.125  1.00  0.00     0.158 C 
ATOM      8  O   UNL     1      15.568 -34.250  20.830  1.00  0.00    -0.295 OA
ENDROOT
BRANCH   5   9
ATOM      9  C   UNL     1      13.241 -30.419  22.779  1.00  0.00    -0.077 C 
ATOM     10  C   UNL     1      13.194 -29.643  23.874  1.00  0.00     0.008 C 
ATOM     11  C   UNL     1      11.989 -30.572  21.951  1.00  0.00     0.039 C 
ENDBRANCH   5   9
TORSDOF 1
ENDMDL
