MODEL 1
REMARK VINA RESULT:    -5.055      0.000      0.000
REMARK INTER + INTRA:          -5.203
REMARK INTER:                  -5.203
REMARK INTRA:                   0.000
REMARK UNBOUND:                 0.000
REMARK SMILES Oc1ccc2[nH]ccc2c1
REMARK SMILES IDX 3 1 4 2 5 3 9 4 8 5 7 6 6 7 10 8 2 9 1 11
REMARK H PARENT 6 10 1 12
REMARK Flexibility Score: inf
ROOT
ATOM      1  C   UNL     1       7.421   1.574  21.554  1.00  0.00     0.048 A 
ATOM      2  C   UNL     1       7.434   1.883  20.181  1.00  0.00     0.030 A 
ATOM      3  C   UNL     1       8.659   2.204  19.598  1.00  0.00     0.046 A 
ATOM      4  C   UNL     1       9.819   2.224  20.325  1.00  0.00     0.003 A 
ATOM      5  C   UNL     1      10.838   2.574  19.466  1.00  0.00     0.028 A 
ATOM      6  C   UNL     1      10.224   2.755  18.230  1.00  0.00     0.083 A 
ATOM      7  N   UNL     1       8.894   2.527  18.316  1.00  0.00    -0.361 N 
ATOM      8  C   UNL     1       9.841   1.924  21.686  1.00  0.00     0.056 A 
ATOM      9  C   UNL     1       8.621   1.595  22.308  1.00  0.00     0.116 A 
ATOM     10  H   UNL     1       8.196   2.590  17.542  1.00  0.00     0.166 HD
ENDROOT
BRANCH   9  11
ATOM     11  O   UNL     1       8.607   1.290  23.667  1.00  0.00    -0.508 OA
ATOM     12  H   UNL     1       7.874   1.632  24.277  1.00  0.00     0.293 HD
ENDBRANCH   9  11
TORSDOF 1
ENDMDL
MODEL 2
REMARK VINA RESULT:    -4.914      1.411      2.219
REMARK INTER + INTRA:          -5.057
REMARK INTER:                  -5.057
REMARK INTRA:                   0.000
REMARK UNBOUND:                 0.000
REMARK SMILES Oc1ccc2[nH]ccc2c1
REMARK SMILES IDX 3 1 4 2 5 3 9 4 8 5 7 6 6 7 10 8 2 9 1 11
REMARK H PARENT 6 10 1 12
REMARK Flexibility Score: inf
ROOT
ATOM      1  C   UNL     1       9.871   1.353  22.751  1.00  0.00     0.048 A 
ATOM      2  C   UNL     1      10.368   0.992  21.484  1.00  0.00     0.030 A 
ATOM      3  C   UNL     1       9.533   1.174  20.382  1.00  0.00     0.046 A 
ATOM      4  C   UNL     1       8.270   1.685  20.513  1.00  0.00     0.003 A 
ATOM      5  C   UNL     1       7.714   1.737  19.253  1.00  0.00     0.028 A 
ATOM      6  C   UNL     1       8.698   1.241  18.402  1.00  0.00     0.083 A 
ATOM      7  N   UNL     1       9.806   0.899  19.096  1.00  0.00    -0.361 N 
ATOM      8  C   UNL     1       7.748   2.051  21.751  1.00  0.00     0.056 A 
ATOM      9  C   UNL     1       8.563   1.881  22.887  1.00  0.00     0.116 A 
ATOM     10  H   UNL     1      10.692   0.503  18.709  1.00  0.00     0.166 HD
ENDROOT
BRANCH   9  11
ATOM     11  O   UNL     1       8.072   2.236  24.141  1.00  0.00    -0.508 OA
ATOM     12  H   UNL     1       7.608   1.561  24.738  1.00  0.00     0.293 HD
ENDBRANCH   9  11
TORSDOF 1
ENDMDL
MODEL 3
REMARK VINA RESULT:    -4.741      1.829      1.957
REMARK INTER + INTRA:          -4.879
REMARK INTER:                  -4.879
REMARK INTRA:                   0.000
REMARK UNBOUND:                 0.000
REMARK SMILES Oc1ccc2[nH]ccc2c1
REMARK SMILES IDX 3 1 4 2 5 3 9 4 8 5 7 6 6 7 10 8 2 9 1 11
REMARK H PARENT 6 10 1 12
REMARK Flexibility Score: inf
ROOT
ATOM      1  C   UNL     1       7.021   0.949  22.606  1.00  0.00     0.048 A 
ATOM      2  C   UNL     1       7.031   0.203  21.412  1.00  0.00     0.030 A 
ATOM      3  C   UNL     1       8.171   0.270  20.613  1.00  0.00     0.046 A 
ATOM      4  C   UNL     1       9.252   1.033  20.964  1.00  0.00     0.003 A 
ATOM      5  C   UNL     1      10.200   0.885  19.975  1.00  0.00     0.028 A 
ATOM      6  C   UNL     1       9.627   0.016  19.051  1.00  0.00     0.083 A 
ATOM      7  N   UNL     1       8.388  -0.356  19.445  1.00  0.00    -0.361 N 
ATOM      8  C   UNL     1       9.274   1.784  22.137  1.00  0.00     0.056 A 
ATOM      9  C   UNL     1       8.139   1.739  22.970  1.00  0.00     0.116 A 
ATOM     10  H   UNL     1       7.737  -1.000  18.942  1.00  0.00     0.166 HD
ENDROOT
BRANCH   9  11
ATOM     11  O   UNL     1       8.128   2.477  24.151  1.00  0.00    -0.508 OA
ATOM     12  H   UNL     1       8.964   2.933  24.497  1.00  0.00     0.293 HD
ENDBRANCH   9  11
TORSDOF 1
ENDMDL
MODEL 4
REMARK VINA RESULT:    -4.696     15.172     16.193
REMARK INTER + INTRA:          -4.833
REMARK INTER:                  -4.833
REMARK INTRA:                   0.000
REMARK UNBOUND:                 0.000
REMARK SMILES Oc1ccc2[nH]ccc2c1
REMARK SMILES IDX 3 1 4 2 5 3 9 4 8 5 7 6 6 7 10 8 2 9 1 11
REMARK H PARENT 6 10 1 12
REMARK Flexibility Score: inf
ROOT
ATOM      1  C   UNL     1      19.695  -7.288  31.118  1.00  0.00     0.048 A 
ATOM      2  C   UNL     1      19.812  -8.028  29.926  1.00  0.00     0.030 A 
ATOM      3  C   UNL     1      18.809  -7.880  28.969  1.00  0.00     0.046 A 
ATOM      4  C   UNL     1      17.740  -7.049  29.169  1.00  0.00     0.003 A 
ATOM      5  C   UNL     1      16.941  -7.129  28.049  1.00  0.00     0.028 A 
ATOM      6  C   UNL     1      17.586  -8.030  27.207  1.00  0.00     0.083 A 
ATOM      7  N   UNL     1      18.726  -8.486  27.773  1.00  0.00    -0.361 N 
ATOM      8  C   UNL     1      17.594  -6.304  30.337  1.00  0.00     0.056 A 
ATOM      9  C   UNL     1      18.589  -6.428  31.326  1.00  0.00     0.116 A 
ATOM     10  H   UNL     1      19.401  -9.169  27.362  1.00  0.00     0.166 HD
ENDROOT
BRANCH   9  11
ATOM     11  O   UNL     1      18.474  -5.698  32.506  1.00  0.00    -0.508 OA
ATOM     12  H   UNL     1      17.642  -5.158  32.715  1.00  0.00     0.293 HD
ENDBRANCH   9  11
TORSDOF 1
ENDMDL
MODEL 5
REMARK VINA RESULT:    -4.679      9.202     10.023
REMARK INTER + INTRA:          -4.816
REMARK INTER:                  -4.816
REMARK INTRA:                   0.000
REMARK UNBOUND:                 0.000
REMARK SMILES Oc1ccc2[nH]ccc2c1
REMARK SMILES IDX 3 1 4 2 5 3 9 4 8 5 7 6 6 7 10 8 2 9 1 11
REMARK H PARENT 6 10 1 12
REMARK Flexibility Score: inf
ROOT
ATOM      1  C   UNL     1      11.717  -4.370  25.414  1.00  0.00     0.048 A 
ATOM      2  C   UNL     1      13.114  -4.539  25.364  1.00  0.00     0.030 A 
ATOM      3  C   UNL     1      13.607  -5.698  24.768  1.00  0.00     0.046 A 
ATOM      4  C   UNL     1      12.774  -6.650  24.246  1.00  0.00     0.003 A 
ATOM      5  C   UNL     1      13.565  -7.658  23.738  1.00  0.00     0.028 A 
ATOM      6  C   UNL     1      14.873  -7.252  23.987  1.00  0.00     0.083 A 
ATOM      7  N   UNL     1      14.893  -6.055  24.616  1.00  0.00    -0.361 N 
ATOM      8  C   UNL     1      11.387  -6.514  24.280  1.00  0.00     0.056 A 
ATOM      9  C   UNL     1      10.853  -5.355  24.874  1.00  0.00     0.116 A 
ATOM     10  H   UNL     1      15.738  -5.520  24.919  1.00  0.00     0.166 HD
ENDROOT
BRANCH   9  11
ATOM     11  O   UNL     1       9.472  -5.187  24.925  1.00  0.00    -0.508 OA
ATOM     12  H   UNL     1       9.035  -4.314  24.652  1.00  0.00     0.293 HD
ENDBRANCH   9  11
TORSDOF 1
ENDMDL
MODEL 6
REMARK VINA RESULT:    -4.672     16.517     17.519
REMARK INTER + INTRA:          -4.808
REMARK INTER:                  -4.808
REMARK INTRA:                   0.000
REMARK UNBOUND:                 0.000
REMARK SMILES Oc1ccc2[nH]ccc2c1
REMARK SMILES IDX 3 1 4 2 5 3 9 4 8 5 7 6 6 7 10 8 2 9 1 11
REMARK H PARENT 6 10 1 12
REMARK Flexibility Score: inf
ROOT
ATOM      1  C   UNL     1      23.737  -1.125  28.492  1.00  0.00     0.048 A 
ATOM      2  C   UNL     1      23.873  -1.015  29.889  1.00  0.00     0.030 A 
ATOM      3  C   UNL     1      23.077  -1.837  30.686  1.00  0.00     0.046 A 
ATOM      4  C   UNL     1      22.188  -2.724  30.142  1.00  0.00     0.003 A 
ATOM      5  C   UNL     1      21.565  -3.376  31.185  1.00  0.00     0.028 A 
ATOM      6  C   UNL     1      22.125  -2.832  32.337  1.00  0.00     0.083 A 
ATOM      7  N   UNL     1      23.047  -1.893  32.027  1.00  0.00    -0.361 N 
ATOM      8  C   UNL     1      22.029  -2.857  28.764  1.00  0.00     0.056 A 
ATOM      9  C   UNL     1      22.817  -2.043  27.928  1.00  0.00     0.116 A 
ATOM     10  H   UNL     1      23.618  -1.330  32.697  1.00  0.00     0.166 HD
ENDROOT
BRANCH   9  11
ATOM     11  O   UNL     1      22.684  -2.149  26.546  1.00  0.00    -0.508 OA
ATOM     12  H   UNL     1      21.796  -1.979  26.086  1.00  0.00     0.293 HD
ENDBRANCH   9  11
TORSDOF 1
ENDMDL
MODEL 7
REMARK VINA RESULT:    -4.617     12.402     13.248
REMARK INTER + INTRA:          -4.752
REMARK INTER:                  -4.752
REMARK INTRA:                   0.000
REMARK UNBOUND:                 0.000
REMARK SMILES Oc1ccc2[nH]ccc2c1
REMARK SMILES IDX 3 1 4 2 5 3 9 4 8 5 7 6 6 7 10 8 2 9 1 11
REMARK H PARENT 6 10 1 12
REMARK Flexibility Score: inf
ROOT
ATOM      1  C   UNL     1      16.861  -7.798  22.086  1.00  0.00     0.048 A 
ATOM      2  C   UNL     1      15.724  -7.473  22.850  1.00  0.00     0.030 A 
ATOM      3  C   UNL     1      15.902  -7.237  24.212  1.00  0.00     0.046 A 
ATOM      4  C   UNL     1      17.135  -7.316  24.801  1.00  0.00     0.003 A 
ATOM      5  C   UNL     1      16.971  -7.031  26.140  1.00  0.00     0.028 A 
ATOM      6  C   UNL     1      15.609  -6.789  26.295  1.00  0.00     0.083 A 
ATOM      7  N   UNL     1      14.961  -6.916  25.115  1.00  0.00    -0.361 N 
ATOM      8  C   UNL     1      18.280  -7.635  24.075  1.00  0.00     0.056 A 
ATOM      9  C   UNL     1      18.138  -7.880  22.695  1.00  0.00     0.116 A 
ATOM     10  H   UNL     1      13.938  -6.789  24.945  1.00  0.00     0.166 HD
ENDROOT
BRANCH   9  11
ATOM     11  O   UNL     1      19.262  -8.202  21.938  1.00  0.00    -0.508 OA
ATOM     12  H   UNL     1      19.489  -7.698  21.089  1.00  0.00     0.293 HD
ENDBRANCH   9  11
TORSDOF 1
ENDMDL
MODEL 8
REMARK VINA RESULT:    -4.596     12.566     13.327
REMARK INTER + INTRA:          -4.730
REMARK INTER:                  -4.730
REMARK INTRA:                   0.000
REMARK UNBOUND:                 0.000
REMARK SMILES Oc1ccc2[nH]ccc2c1
REMARK SMILES IDX 3 1 4 2 5 3 9 4 8 5 7 6 6 7 10 8 2 9 1 11
REMARK H PARENT 6 10 1 12
REMARK Flexibility Score: inf
ROOT
ATOM      1  C   UNL     1      13.706  -8.705  23.964  1.00  0.00     0.048 A 
ATOM      2  C   UNL     1      14.620  -9.712  24.330  1.00  0.00     0.030 A 
ATOM      3  C   UNL     1      15.754  -9.331  25.046  1.00  0.00     0.046 A 
ATOM      4  C   UNL     1      15.984  -8.026  25.388  1.00  0.00     0.003 A 
ATOM      5  C   UNL     1      17.175  -7.985  26.082  1.00  0.00     0.028 A 
ATOM      6  C   UNL     1      17.615  -9.305  26.123  1.00  0.00     0.083 A 
ATOM      7  N   UNL     1      16.744 -10.122  25.489  1.00  0.00    -0.361 N 
ATOM      8  C   UNL     1      15.101  -7.006  25.041  1.00  0.00     0.056 A 
ATOM      9  C   UNL     1      13.944  -7.354  24.318  1.00  0.00     0.116 A 
ATOM     10  H   UNL     1      16.827 -11.157  25.372  1.00  0.00     0.166 HD
ENDROOT
BRANCH   9  11
ATOM     11  O   UNL     1      13.039  -6.360  23.955  1.00  0.00    -0.508 OA
ATOM     12  H   UNL     1      13.315  -5.385  23.908  1.00  0.00     0.293 HD
ENDBRANCH   9  11
TORSDOF 1
ENDMDL
