MODEL 1
REMARK VINA RESULT:    -3.836      0.000      0.000
REMARK INTER + INTRA:          -6.013
REMARK INTER:                  -5.182
REMARK INTRA:                  -0.831
REMARK UNBOUND:                -0.831
REMARK SMILES CCCCCCC=CC(=O)[O-]
REMARK SMILES IDX 5 1 6 2 7 3 8 4 9 5 10 6 11 7 4 8 3 9 2 10 1 11
REMARK H PARENT
REMARK Flexibility Score: inf
ROOT
ATOM      1  C   UNL     1      22.711  23.888  22.902  1.00  0.00     0.004 C 
ENDROOT
BRANCH   1   2
ATOM      2  C   UNL     1      22.116  24.259  24.270  1.00  0.00     0.027 C 
BRANCH   2   3
ATOM      3  C   UNL     1      20.638  23.975  24.346  1.00  0.00    -0.025 C 
ATOM      4  C   UNL     1      19.654  24.888  24.291  1.00  0.00     0.020 C 
BRANCH   4   5
ATOM      5  C   UNL     1      19.816  26.354  24.203  1.00  0.00     0.064 C 
ATOM      6  O   UNL     1      20.077  26.934  23.116  1.00  0.00    -0.545 OA
ATOM      7  O   UNL     1      19.707  27.112  25.361  1.00  0.00    -0.545 OA
ENDBRANCH   4   5
ENDBRANCH   2   3
ENDBRANCH   1   2
BRANCH   1   8
ATOM      8  C   UNL     1      22.709  25.079  21.928  1.00  0.00     0.000 C 
BRANCH   8   9
ATOM      9  C   UNL     1      22.137  24.721  20.545  1.00  0.00    -0.000 C 
BRANCH   9  10
ATOM     10  C   UNL     1      20.607  24.841  20.426  1.00  0.00    -0.003 C 
ATOM     11  C   UNL     1      19.892  23.494  20.523  1.00  0.00     0.004 C 
ENDBRANCH   9  10
ENDBRANCH   8   9
ENDBRANCH   1   8
TORSDOF 6
ENDMDL
MODEL 2
REMARK VINA RESULT:    -3.773      1.536      2.842
REMARK INTER + INTRA:          -5.927
REMARK INTER:                  -5.057
REMARK INTRA:                  -0.870
REMARK UNBOUND:                -0.831
REMARK SMILES CCCCCCC=CC(=O)[O-]
REMARK SMILES IDX 5 1 6 2 7 3 8 4 9 5 10 6 11 7 4 8 3 9 2 10 1 11
REMARK H PARENT
REMARK Flexibility Score: inf
ROOT
ATOM      1  C   UNL     1      21.093  26.805  22.082  1.00  0.00     0.004 C 
ENDROOT
BRANCH   1   2
ATOM      2  C   UNL     1      19.556  26.794  22.060  1.00  0.00     0.027 C 
BRANCH   2   3
ATOM      3  C   UNL     1      18.983  25.587  22.757  1.00  0.00    -0.025 C 
ATOM      4  C   UNL     1      18.696  25.493  24.067  1.00  0.00     0.020 C 
BRANCH   4   5
ATOM      5  C   UNL     1      18.934  26.524  25.097  1.00  0.00     0.064 C 
ATOM      6  O   UNL     1      20.058  26.678  25.643  1.00  0.00    -0.545 OA
ATOM      7  O   UNL     1      17.875  27.328  25.499  1.00  0.00    -0.545 OA
ENDBRANCH   4   5
ENDBRANCH   2   3
ENDBRANCH   1   2
BRANCH   1   8
ATOM      8  C   UNL     1      21.690  25.655  21.254  1.00  0.00     0.000 C 
BRANCH   8   9
ATOM      9  C   UNL     1      22.685  24.794  22.054  1.00  0.00    -0.000 C 
BRANCH   9  10
ATOM     10  C   UNL     1      22.710  25.072  23.568  1.00  0.00    -0.003 C 
ATOM     11  C   UNL     1      22.021  23.982  24.388  1.00  0.00     0.004 C 
ENDBRANCH   9  10
ENDBRANCH   8   9
ENDBRANCH   1   8
TORSDOF 6
ENDMDL
MODEL 3
REMARK VINA RESULT:    -3.743      1.498      2.070
REMARK INTER + INTRA:          -5.887
REMARK INTER:                  -5.132
REMARK INTRA:                  -0.755
REMARK UNBOUND:                -0.831
REMARK SMILES CCCCCCC=CC(=O)[O-]
REMARK SMILES IDX 5 1 6 2 7 3 8 4 9 5 10 6 11 7 4 8 3 9 2 10 1 11
REMARK H PARENT
REMARK Flexibility Score: inf
ROOT
ATOM      1  C   UNL     1      22.720  24.437  21.143  1.00  0.00     0.004 C 
ENDROOT
BRANCH   1   2
ATOM      2  C   UNL     1      22.295  25.399  22.263  1.00  0.00     0.027 C 
BRANCH   2   3
ATOM      3  C   UNL     1      22.370  24.759  23.625  1.00  0.00    -0.025 C 
ATOM      4  C   UNL     1      21.442  24.847  24.593  1.00  0.00     0.020 C 
BRANCH   4   5
ATOM      5  C   UNL     1      20.191  25.631  24.545  1.00  0.00     0.064 C 
ATOM      6  O   UNL     1      20.184  26.887  24.641  1.00  0.00    -0.545 OA
ATOM      7  O   UNL     1      18.982  24.959  24.421  1.00  0.00    -0.545 OA
ENDBRANCH   4   5
ENDBRANCH   2   3
ENDBRANCH   1   2
BRANCH   1   8
ATOM      8  C   UNL     1      22.835  22.986  21.640  1.00  0.00     0.000 C 
BRANCH   8   9
ATOM      9  C   UNL     1      21.930  22.013  20.863  1.00  0.00    -0.000 C 
BRANCH   9  10
ATOM     10  C   UNL     1      20.449  22.428  20.784  1.00  0.00    -0.003 C 
ATOM     11  C   UNL     1      19.740  22.377  22.137  1.00  0.00     0.004 C 
ENDBRANCH   9  10
ENDBRANCH   8   9
ENDBRANCH   1   8
TORSDOF 6
ENDMDL
MODEL 4
REMARK VINA RESULT:    -3.611      1.627      2.489
REMARK INTER + INTRA:          -5.708
REMARK INTER:                  -4.926
REMARK INTRA:                  -0.782
REMARK UNBOUND:                -0.831
REMARK SMILES CCCCCCC=CC(=O)[O-]
REMARK SMILES IDX 5 1 6 2 7 3 8 4 9 5 10 6 11 7 4 8 3 9 2 10 1 11
REMARK H PARENT
REMARK Flexibility Score: inf
ROOT
ATOM      1  C   UNL     1      19.823  24.729  20.866  1.00  0.00     0.004 C 
ENDROOT
BRANCH   1   2
ATOM      2  C   UNL     1      18.985  24.867  22.148  1.00  0.00     0.027 C 
BRANCH   2   3
ATOM      3  C   UNL     1      19.328  23.814  23.170  1.00  0.00    -0.025 C 
ATOM      4  C   UNL     1      20.085  23.994  24.266  1.00  0.00     0.020 C 
BRANCH   4   5
ATOM      5  C   UNL     1      20.779  25.235  24.664  1.00  0.00     0.064 C 
ATOM      6  O   UNL     1      20.155  26.246  25.082  1.00  0.00    -0.545 OA
ATOM      7  O   UNL     1      22.161  25.300  24.542  1.00  0.00    -0.545 OA
ENDBRANCH   4   5
ENDBRANCH   2   3
ENDBRANCH   1   2
BRANCH   1   8
ATOM      8  C   UNL     1      21.112  25.566  20.927  1.00  0.00     0.000 C 
BRANCH   8   9
ATOM      9  C   UNL     1      22.375  24.744  20.614  1.00  0.00    -0.000 C 
BRANCH   9  10
ATOM     10  C   UNL     1      22.697  23.637  21.634  1.00  0.00    -0.003 C 
ATOM     11  C   UNL     1      22.422  22.232  21.100  1.00  0.00     0.004 C 
ENDBRANCH   9  10
ENDBRANCH   8   9
ENDBRANCH   1   8
TORSDOF 6
ENDMDL
MODEL 5
REMARK VINA RESULT:    -3.549      1.974      3.302
REMARK INTER + INTRA:          -5.625
REMARK INTER:                  -4.957
REMARK INTRA:                  -0.668
REMARK UNBOUND:                -0.831
REMARK SMILES CCCCCCC=CC(=O)[O-]
REMARK SMILES IDX 5 1 6 2 7 3 8 4 9 5 10 6 11 7 4 8 3 9 2 10 1 11
REMARK H PARENT
REMARK Flexibility Score: inf
ROOT
ATOM      1  C   UNL     1      20.587  24.929  20.398  1.00  0.00     0.004 C 
ENDROOT
BRANCH   1   2
ATOM      2  C   UNL     1      21.854  25.487  21.066  1.00  0.00     0.027 C 
BRANCH   2   3
ATOM      3  C   UNL     1      22.695  24.403  21.691  1.00  0.00    -0.025 C 
ATOM      4  C   UNL     1      22.561  23.919  22.937  1.00  0.00     0.020 C 
BRANCH   4   5
ATOM      5  C   UNL     1      21.608  24.383  23.965  1.00  0.00     0.064 C 
ATOM      6  O   UNL     1      21.858  25.363  24.716  1.00  0.00    -0.545 OA
ATOM      7  O   UNL     1      20.411  23.697  24.130  1.00  0.00    -0.545 OA
ENDBRANCH   4   5
ENDBRANCH   2   3
ENDBRANCH   1   2
BRANCH   1   8
ATOM      8  C   UNL     1      20.918  23.970  19.242  1.00  0.00     0.000 C 
BRANCH   8   9
ATOM      9  C   UNL     1      20.137  22.646  19.318  1.00  0.00    -0.000 C 
BRANCH   9  10
ATOM     10  C   UNL     1      21.002  21.377  19.215  1.00  0.00    -0.003 C 
ATOM     11  C   UNL     1      21.644  20.980  20.543  1.00  0.00     0.004 C 
ENDBRANCH   9  10
ENDBRANCH   8   9
ENDBRANCH   1   8
TORSDOF 6
ENDMDL
MODEL 6
REMARK VINA RESULT:    -3.548     11.866     13.212
REMARK INTER + INTRA:          -5.623
REMARK INTER:                  -4.926
REMARK INTRA:                  -0.697
REMARK UNBOUND:                -0.831
REMARK SMILES CCCCCCC=CC(=O)[O-]
REMARK SMILES IDX 5 1 6 2 7 3 8 4 9 5 10 6 11 7 4 8 3 9 2 10 1 11
REMARK H PARENT
REMARK Flexibility Score: inf
ROOT
ATOM      1  C   UNL     1      31.755  34.782  20.907  1.00  0.00     0.004 C 
ENDROOT
BRANCH   1   2
ATOM      2  C   UNL     1      30.537  35.719  20.932  1.00  0.00     0.027 C 
BRANCH   2   3
ATOM      3  C   UNL     1      29.905  35.798  22.298  1.00  0.00    -0.025 C 
ATOM      4  C   UNL     1      28.775  35.182  22.683  1.00  0.00     0.020 C 
BRANCH   4   5
ATOM      5  C   UNL     1      27.892  34.352  21.839  1.00  0.00     0.064 C 
ATOM      6  O   UNL     1      26.869  34.822  21.276  1.00  0.00    -0.545 OA
ATOM      7  O   UNL     1      28.183  33.002  21.688  1.00  0.00    -0.545 OA
ENDBRANCH   4   5
ENDBRANCH   2   3
ENDBRANCH   1   2
BRANCH   1   8
ATOM      8  C   UNL     1      31.587  33.642  19.887  1.00  0.00     0.000 C 
BRANCH   8   9
ATOM      9  C   UNL     1      31.408  32.265  20.552  1.00  0.00    -0.000 C 
BRANCH   9  10
ATOM     10  C   UNL     1      31.637  32.246  22.074  1.00  0.00    -0.003 C 
ATOM     11  C   UNL     1      32.880  31.455  22.482  1.00  0.00     0.004 C 
ENDBRANCH   9  10
ENDBRANCH   8   9
ENDBRANCH   1   8
TORSDOF 6
ENDMDL
MODEL 7
REMARK VINA RESULT:    -3.517     11.912     13.096
REMARK INTER + INTRA:          -5.582
REMARK INTER:                  -5.171
REMARK INTRA:                  -0.410
REMARK UNBOUND:                -0.831
REMARK SMILES CCCCCCC=CC(=O)[O-]
REMARK SMILES IDX 5 1 6 2 7 3 8 4 9 5 10 6 11 7 4 8 3 9 2 10 1 11
REMARK H PARENT
REMARK Flexibility Score: inf
ROOT
ATOM      1  C   UNL     1      30.921  33.143  19.974  1.00  0.00     0.004 C 
ENDROOT
BRANCH   1   2
ATOM      2  C   UNL     1      29.704  32.927  20.888  1.00  0.00     0.027 C 
BRANCH   2   3
ATOM      3  C   UNL     1      28.521  33.761  20.468  1.00  0.00    -0.025 C 
ATOM      4  C   UNL     1      27.937  34.727  21.197  1.00  0.00     0.020 C 
BRANCH   4   5
ATOM      5  C   UNL     1      28.294  35.132  22.571  1.00  0.00     0.064 C 
ATOM      6  O   UNL     1      29.296  35.854  22.818  1.00  0.00    -0.545 OA
ATOM      7  O   UNL     1      27.518  34.675  23.629  1.00  0.00    -0.545 OA
ENDBRANCH   4   5
ENDBRANCH   2   3
ENDBRANCH   1   2
BRANCH   1   8
ATOM      8  C   UNL     1      32.219  33.338  20.777  1.00  0.00     0.000 C 
BRANCH   8   9
ATOM      9  C   UNL     1      32.040  33.065  22.281  1.00  0.00    -0.000 C 
BRANCH   9  10
ATOM     10  C   UNL     1      32.726  31.786  22.794  1.00  0.00    -0.003 C 
ATOM     11  C   UNL     1      33.280  31.931  24.211  1.00  0.00     0.004 C 
ENDBRANCH   9  10
ENDBRANCH   8   9
ENDBRANCH   1   8
TORSDOF 6
ENDMDL
MODEL 8
REMARK VINA RESULT:    -3.489     11.908     13.201
REMARK INTER + INTRA:          -5.544
REMARK INTER:                  -5.083
REMARK INTRA:                  -0.461
REMARK UNBOUND:                -0.831
REMARK SMILES CCCCCCC=CC(=O)[O-]
REMARK SMILES IDX 5 1 6 2 7 3 8 4 9 5 10 6 11 7 4 8 3 9 2 10 1 11
REMARK H PARENT
REMARK Flexibility Score: inf
ROOT
ATOM      1  C   UNL     1      31.705  34.047  22.095  1.00  0.00     0.004 C 
ENDROOT
BRANCH   1   2
ATOM      2  C   UNL     1      30.681  35.068  21.574  1.00  0.00     0.027 C 
BRANCH   2   3
ATOM      3  C   UNL     1      29.732  35.526  22.651  1.00  0.00    -0.025 C 
ATOM      4  C   UNL     1      28.441  35.172  22.769  1.00  0.00     0.020 C 
BRANCH   4   5
ATOM      5  C   UNL     1      27.674  34.314  21.844  1.00  0.00     0.064 C 
ATOM      6  O   UNL     1      26.838  34.787  21.029  1.00  0.00    -0.545 OA
ATOM      7  O   UNL     1      27.857  32.938  21.896  1.00  0.00    -0.545 OA
ENDBRANCH   4   5
ENDBRANCH   2   3
ENDBRANCH   1   2
BRANCH   1   8
ATOM      8  C   UNL     1      31.353  32.610  21.677  1.00  0.00     0.000 C 
BRANCH   8   9
ATOM      9  C   UNL     1      32.578  31.805  21.206  1.00  0.00    -0.000 C 
BRANCH   9  10
ATOM     10  C   UNL     1      32.830  31.839  19.687  1.00  0.00    -0.003 C 
ATOM     11  C   UNL     1      33.948  32.800  19.287  1.00  0.00     0.004 C 
ENDBRANCH   9  10
ENDBRANCH   8   9
ENDBRANCH   1   8
TORSDOF 6
ENDMDL
MODEL 9
REMARK VINA RESULT:    -3.444     10.540     11.725
REMARK INTER + INTRA:          -5.483
REMARK INTER:                  -5.062
REMARK INTRA:                  -0.421
REMARK UNBOUND:                -0.831
REMARK SMILES CCCCCCC=CC(=O)[O-]
REMARK SMILES IDX 5 1 6 2 7 3 8 4 9 5 10 6 11 7 4 8 3 9 2 10 1 11
REMARK H PARENT
REMARK Flexibility Score: inf
ROOT
ATOM      1  C   UNL     1      26.887  34.385  20.827  1.00  0.00     0.004 C 
ENDROOT
BRANCH   1   2
ATOM      2  C   UNL     1      27.625  34.375  22.176  1.00  0.00     0.027 C 
BRANCH   2   3
ATOM      3  C   UNL     1      28.931  35.124  22.118  1.00  0.00    -0.025 C 
ATOM      4  C   UNL     1      30.107  34.632  21.692  1.00  0.00     0.020 C 
BRANCH   4   5
ATOM      5  C   UNL     1      30.374  33.249  21.249  1.00  0.00     0.064 C 
ATOM      6  O   UNL     1      30.923  32.399  22.000  1.00  0.00    -0.545 OA
ATOM      7  O   UNL     1      30.039  32.882  19.952  1.00  0.00    -0.545 OA
ENDBRANCH   4   5
ENDBRANCH   2   3
ENDBRANCH   1   2
BRANCH   1   8
ATOM      8  C   UNL     1      26.499  32.969  20.370  1.00  0.00     0.000 C 
BRANCH   8   9
ATOM      9  C   UNL     1      25.358  32.964  19.337  1.00  0.00    -0.000 C 
BRANCH   9  10
ATOM     10  C   UNL     1      24.108  33.764  19.749  1.00  0.00    -0.003 C 
ATOM     11  C   UNL     1      22.925  32.874  20.125  1.00  0.00     0.004 C 
ENDBRANCH   9  10
ENDBRANCH   8   9
ENDBRANCH   1   8
TORSDOF 6
ENDMDL
