MODEL 1
REMARK VINA RESULT:    -3.397      0.000      0.000
REMARK INTER + INTRA:         -10.215
REMARK INTER:                  -8.560
REMARK INTRA:                  -1.655
REMARK UNBOUND:                -1.655
REMARK SMILES CCCCCCCCCCCCCCCCCCCCCCCCCCCC(=O)[O-]
REMARK SMILES IDX 15 1 16 2 17 3 18 4 19 5 20 6 21 7 22 8 23 9 24 10 25 11
REMARK SMILES IDX 26 12 27 13 28 14 29 15 30 16 14 17 13 18 12 19 11 20 10 21
REMARK SMILES IDX 9 22 8 23 7 24 6 25 5 26 4 27 3 28 2 29 1 30
REMARK H PARENT
REMARK Flexibility Score: inf
ROOT
ATOM      1  C   UNL     1      33.546 159.707 120.419  1.00  0.00     0.000 C 
ENDROOT
BRANCH   1   2
ATOM      2  C   UNL     1      32.289 158.862 120.680  1.00  0.00     0.000 C 
BRANCH   2   3
ATOM      3  C   UNL     1      31.018 159.715 120.819  1.00  0.00     0.000 C 
BRANCH   3   4
ATOM      4  C   UNL     1      30.279 159.381 122.124  1.00  0.00     0.000 C 
BRANCH   4   5
ATOM      5  C   UNL     1      28.784 159.085 121.911  1.00  0.00     0.000 C 
BRANCH   5   6
ATOM      6  C   UNL     1      27.863 160.324 121.877  1.00  0.00     0.000 C 
BRANCH   6   7
ATOM      7  C   UNL     1      26.370 160.029 121.644  1.00  0.00     0.000 C 
BRANCH   7   8
ATOM      8  C   UNL     1      26.029 158.537 121.480  1.00  0.00     0.000 C 
BRANCH   8   9
ATOM      9  C   UNL     1      25.004 158.257 120.360  1.00  0.00     0.000 C 
BRANCH   9  10
ATOM     10  C   UNL     1      25.340 156.985 119.564  1.00  0.00     0.000 C 
BRANCH  10  11
ATOM     11  C   UNL     1      25.904 157.297 118.160  1.00  0.00     0.000 C 
BRANCH  11  12
ATOM     12  C   UNL     1      25.604 158.729 117.675  1.00  0.00     0.006 C 
BRANCH  12  13
ATOM     13  C   UNL     1      26.854 159.588 117.436  1.00  0.00     0.053 C 
BRANCH  13  14
ATOM     14  C   UNL     1      26.765 160.369 116.160  1.00  0.00     0.041 C 
ATOM     15  O   UNL     1      27.570 160.142 115.218  1.00  0.00    -0.550 OA
ATOM     16  O   UNL     1      25.797 161.354 116.012  1.00  0.00    -0.550 OA
ENDBRANCH  13  14
ENDBRANCH  12  13
ENDBRANCH  11  12
ENDBRANCH  10  11
ENDBRANCH   9  10
ENDBRANCH   8   9
ENDBRANCH   7   8
ENDBRANCH   6   7
ENDBRANCH   5   6
ENDBRANCH   4   5
ENDBRANCH   3   4
ENDBRANCH   2   3
ENDBRANCH   1   2
BRANCH   1  17
ATOM     17  C   UNL     1      34.090 160.375 121.693  1.00  0.00     0.000 C 
BRANCH  17  18
ATOM     18  C   UNL     1      35.615 160.219 121.832  1.00  0.00     0.000 C 
BRANCH  18  19
ATOM     19  C   UNL     1      36.377 161.476 121.375  1.00  0.00     0.000 C 
BRANCH  19  20
ATOM     20  C   UNL     1      37.877 161.429 121.720  1.00  0.00     0.000 C 
BRANCH  20  21
ATOM     21  C   UNL     1      38.812 162.077 120.681  1.00  0.00     0.000 C 
BRANCH  21  22
ATOM     22  C   UNL     1      39.162 161.142 119.513  1.00  0.00    -0.000 C 
BRANCH  22  23
ATOM     23  C   UNL     1      39.966 161.848 118.407  1.00  0.00    -0.000 C 
BRANCH  23  24
ATOM     24  C   UNL     1      41.457 162.046 118.751  1.00  0.00    -0.000 C 
BRANCH  24  25
ATOM     25  C   UNL     1      42.379 161.146 117.906  1.00  0.00    -0.000 C 
BRANCH  25  26
ATOM     26  C   UNL     1      41.647 160.507 116.715  1.00  0.00    -0.000 C 
BRANCH  26  27
ATOM     27  C   UNL     1      42.541 159.545 115.912  1.00  0.00    -0.000 C 
BRANCH  27  28
ATOM     28  C   UNL     1      43.923 160.145 115.603  1.00  0.00    -0.000 C 
BRANCH  28  29
ATOM     29  C   UNL     1      45.061 159.134 115.809  1.00  0.00    -0.003 C 
ATOM     30  C   UNL     1      45.059 158.583 117.233  1.00  0.00     0.004 C 
ENDBRANCH  28  29
ENDBRANCH  27  28
ENDBRANCH  26  27
ENDBRANCH  25  26
ENDBRANCH  24  25
ENDBRANCH  23  24
ENDBRANCH  22  23
ENDBRANCH  21  22
ENDBRANCH  20  21
ENDBRANCH  19  20
ENDBRANCH  18  19
ENDBRANCH  17  18
ENDBRANCH   1  17
TORSDOF 26
ENDMDL
MODEL 2
REMARK VINA RESULT:    -2.769      1.477      2.860
REMARK INTER + INTRA:          -8.633
REMARK INTER:                  -6.517
REMARK INTRA:                  -2.116
REMARK UNBOUND:                -1.655
REMARK SMILES CCCCCCCCCCCCCCCCCCCCCCCCCCCC(=O)[O-]
REMARK SMILES IDX 15 1 16 2 17 3 18 4 19 5 20 6 21 7 22 8 23 9 24 10 25 11
REMARK SMILES IDX 26 12 27 13 28 14 29 15 30 16 14 17 13 18 12 19 11 20 10 21
REMARK SMILES IDX 9 22 8 23 7 24 6 25 5 26 4 27 3 28 2 29 1 30
REMARK H PARENT
REMARK Flexibility Score: inf
ROOT
ATOM      1  C   UNL     1      31.036 160.873 117.993  1.00  0.00     0.000 C 
ENDROOT
BRANCH   1   2
ATOM      2  C   UNL     1      29.951 160.570 119.040  1.00  0.00     0.000 C 
BRANCH   2   3
ATOM      3  C   UNL     1      29.504 161.822 119.811  1.00  0.00     0.000 C 
BRANCH   3   4
ATOM      4  C   UNL     1      29.079 161.456 121.241  1.00  0.00     0.000 C 
BRANCH   4   5
ATOM      5  C   UNL     1      29.539 160.050 121.666  1.00  0.00     0.000 C 
BRANCH   5   6
ATOM      6  C   UNL     1      28.412 159.087 122.095  1.00  0.00     0.000 C 
BRANCH   6   7
ATOM      7  C   UNL     1      28.398 157.726 121.375  1.00  0.00     0.000 C 
BRANCH   7   8
ATOM      8  C   UNL     1      27.214 156.816 121.748  1.00  0.00     0.000 C 
BRANCH   8   9
ATOM      9  C   UNL     1      25.908 157.588 122.032  1.00  0.00     0.000 C 
BRANCH   9  10
ATOM     10  C   UNL     1      25.074 157.816 120.760  1.00  0.00     0.000 C 
BRANCH  10  11
ATOM     11  C   UNL     1      25.829 158.647 119.699  1.00  0.00     0.000 C 
BRANCH  11  12
ATOM     12  C   UNL     1      25.357 160.112 119.606  1.00  0.00     0.006 C 
BRANCH  12  13
ATOM     13  C   UNL     1      26.136 160.963 118.592  1.00  0.00     0.053 C 
BRANCH  13  14
ATOM     14  C   UNL     1      25.943 160.480 117.186  1.00  0.00     0.041 C 
ATOM     15  O   UNL     1      24.948 160.860 116.515  1.00  0.00    -0.550 OA
ATOM     16  O   UNL     1      26.860 159.604 116.619  1.00  0.00    -0.550 OA
ENDBRANCH  13  14
ENDBRANCH  12  13
ENDBRANCH  11  12
ENDBRANCH  10  11
ENDBRANCH   9  10
ENDBRANCH   8   9
ENDBRANCH   7   8
ENDBRANCH   6   7
ENDBRANCH   5   6
ENDBRANCH   4   5
ENDBRANCH   3   4
ENDBRANCH   2   3
ENDBRANCH   1   2
BRANCH   1  17
ATOM     17  C   UNL     1      32.401 160.264 118.358  1.00  0.00     0.000 C 
BRANCH  17  18
ATOM     18  C   UNL     1      32.908 160.741 119.730  1.00  0.00     0.000 C 
BRANCH  18  19
ATOM     19  C   UNL     1      33.485 159.590 120.575  1.00  0.00     0.000 C 
BRANCH  19  20
ATOM     20  C   UNL     1      34.236 160.080 121.827  1.00  0.00     0.000 C 
BRANCH  20  21
ATOM     21  C   UNL     1      35.767 160.180 121.679  1.00  0.00     0.000 C 
BRANCH  21  22
ATOM     22  C   UNL     1      36.300 161.611 121.840  1.00  0.00    -0.000 C 
BRANCH  22  23
ATOM     23  C   UNL     1      37.014 162.125 120.578  1.00  0.00    -0.000 C 
BRANCH  23  24
ATOM     24  C   UNL     1      38.343 161.400 120.275  1.00  0.00    -0.000 C 
BRANCH  24  25
ATOM     25  C   UNL     1      39.092 162.023 119.081  1.00  0.00    -0.000 C 
BRANCH  25  26
ATOM     26  C   UNL     1      40.552 161.550 118.993  1.00  0.00    -0.000 C 
BRANCH  26  27
ATOM     27  C   UNL     1      40.807 160.625 117.788  1.00  0.00    -0.000 C 
BRANCH  27  28
ATOM     28  C   UNL     1      42.037 161.051 116.969  1.00  0.00    -0.000 C 
BRANCH  28  29
ATOM     29  C   UNL     1      42.358 160.064 115.837  1.00  0.00    -0.003 C 
ATOM     30  C   UNL     1      43.746 159.452 116.015  1.00  0.00     0.004 C 
ENDBRANCH  28  29
ENDBRANCH  27  28
ENDBRANCH  26  27
ENDBRANCH  25  26
ENDBRANCH  24  25
ENDBRANCH  23  24
ENDBRANCH  22  23
ENDBRANCH  21  22
ENDBRANCH  20  21
ENDBRANCH  19  20
ENDBRANCH  18  19
ENDBRANCH  17  18
ENDBRANCH   1  17
TORSDOF 26
ENDMDL
MODEL 3
REMARK VINA RESULT:    -2.591      2.314      3.527
REMARK INTER + INTRA:          -8.185
REMARK INTER:                  -6.928
REMARK INTRA:                  -1.258
REMARK UNBOUND:                -1.655
REMARK SMILES CCCCCCCCCCCCCCCCCCCCCCCCCCCC(=O)[O-]
REMARK SMILES IDX 15 1 16 2 17 3 18 4 19 5 20 6 21 7 22 8 23 9 24 10 25 11
REMARK SMILES IDX 26 12 27 13 28 14 29 15 30 16 14 17 13 18 12 19 11 20 10 21
REMARK SMILES IDX 9 22 8 23 7 24 6 25 5 26 4 27 3 28 2 29 1 30
REMARK H PARENT
REMARK Flexibility Score: inf
ROOT
ATOM      1  C   UNL     1      31.638 161.034 118.559  1.00  0.00     0.000 C 
ENDROOT
BRANCH   1   2
ATOM      2  C   UNL     1      30.508 161.127 119.596  1.00  0.00     0.000 C 
BRANCH   2   3
ATOM      3  C   UNL     1      29.861 159.766 119.894  1.00  0.00     0.000 C 
BRANCH   3   4
ATOM      4  C   UNL     1      29.196 159.772 121.279  1.00  0.00     0.000 C 
BRANCH   4   5
ATOM      5  C   UNL     1      27.662 159.877 121.210  1.00  0.00     0.000 C 
BRANCH   5   6
ATOM      6  C   UNL     1      27.085 161.289 121.451  1.00  0.00     0.000 C 
BRANCH   6   7
ATOM      7  C   UNL     1      26.720 162.077 120.180  1.00  0.00     0.000 C 
BRANCH   7   8
ATOM      8  C   UNL     1      27.385 161.560 118.892  1.00  0.00     0.000 C 
BRANCH   8   9
ATOM      9  C   UNL     1      26.381 161.250 117.760  1.00  0.00     0.000 C 
BRANCH   9  10
ATOM     10  C   UNL     1      26.494 159.800 117.260  1.00  0.00     0.000 C 
BRANCH  10  11
ATOM     11  C   UNL     1      25.275 158.939 117.661  1.00  0.00     0.000 C 
BRANCH  11  12
ATOM     12  C   UNL     1      25.550 157.989 118.844  1.00  0.00     0.006 C 
BRANCH  12  13
ATOM     13  C   UNL     1      25.717 156.515 118.442  1.00  0.00     0.053 C 
BRANCH  13  14
ATOM     14  C   UNL     1      26.128 155.659 119.602  1.00  0.00     0.041 C 
ATOM     15  O   UNL     1      26.142 156.133 120.769  1.00  0.00    -0.550 OA
ATOM     16  O   UNL     1      26.505 154.338 119.394  1.00  0.00    -0.550 OA
ENDBRANCH  13  14
ENDBRANCH  12  13
ENDBRANCH  11  12
ENDBRANCH  10  11
ENDBRANCH   9  10
ENDBRANCH   8   9
ENDBRANCH   7   8
ENDBRANCH   6   7
ENDBRANCH   5   6
ENDBRANCH   4   5
ENDBRANCH   3   4
ENDBRANCH   2   3
ENDBRANCH   1   2
BRANCH   1  17
ATOM     17  C   UNL     1      32.708 162.125 118.744  1.00  0.00     0.000 C 
BRANCH  17  18
ATOM     18  C   UNL     1      33.826 161.691 119.707  1.00  0.00     0.000 C 
BRANCH  18  19
ATOM     19  C   UNL     1      33.373 160.579 120.670  1.00  0.00     0.000 C 
BRANCH  19  20
ATOM     20  C   UNL     1      34.458 160.187 121.690  1.00  0.00     0.000 C 
BRANCH  20  21
ATOM     21  C   UNL     1      35.585 161.221 121.883  1.00  0.00     0.000 C 
BRANCH  21  22
ATOM     22  C   UNL     1      36.972 160.685 121.499  1.00  0.00    -0.000 C 
BRANCH  22  23
ATOM     23  C   UNL     1      38.027 161.799 121.379  1.00  0.00    -0.000 C 
BRANCH  23  24
ATOM     24  C   UNL     1      38.435 162.116 119.925  1.00  0.00    -0.000 C 
BRANCH  24  25
ATOM     25  C   UNL     1      39.672 161.315 119.475  1.00  0.00    -0.000 C 
BRANCH  25  26
ATOM     26  C   UNL     1      40.069 161.614 118.020  1.00  0.00    -0.000 C 
BRANCH  26  27
ATOM     27  C   UNL     1      41.516 161.198 117.700  1.00  0.00    -0.000 C 
BRANCH  27  28
ATOM     28  C   UNL     1      41.779 161.098 116.188  1.00  0.00    -0.000 C 
BRANCH  28  29
ATOM     29  C   UNL     1      42.854 160.055 115.847  1.00  0.00    -0.003 C 
ATOM     30  C   UNL     1      43.740 159.761 117.056  1.00  0.00     0.004 C 
ENDBRANCH  28  29
ENDBRANCH  27  28
ENDBRANCH  26  27
ENDBRANCH  25  26
ENDBRANCH  24  25
ENDBRANCH  23  24
ENDBRANCH  22  23
ENDBRANCH  21  22
ENDBRANCH  20  21
ENDBRANCH  19  20
ENDBRANCH  18  19
ENDBRANCH  17  18
ENDBRANCH   1  17
TORSDOF 26
ENDMDL
MODEL 4
REMARK VINA RESULT:    -2.407      2.662      4.774
REMARK INTER + INTRA:          -7.721
REMARK INTER:                  -6.358
REMARK INTRA:                  -1.362
REMARK UNBOUND:                -1.655
REMARK SMILES CCCCCCCCCCCCCCCCCCCCCCCCCCCC(=O)[O-]
REMARK SMILES IDX 15 1 16 2 17 3 18 4 19 5 20 6 21 7 22 8 23 9 24 10 25 11
REMARK SMILES IDX 26 12 27 13 28 14 29 15 30 16 14 17 13 18 12 19 11 20 10 21
REMARK SMILES IDX 9 22 8 23 7 24 6 25 5 26 4 27 3 28 2 29 1 30
REMARK H PARENT
REMARK Flexibility Score: inf
ROOT
ATOM      1  C   UNL     1      30.698 160.199 117.470  1.00  0.00     0.000 C 
ENDROOT
BRANCH   1   2
ATOM      2  C   UNL     1      30.112 159.512 118.715  1.00  0.00     0.000 C 
BRANCH   2   3
ATOM      3  C   UNL     1      28.884 160.245 119.274  1.00  0.00     0.000 C 
BRANCH   3   4
ATOM      4  C   UNL     1      28.359 161.278 118.264  1.00  0.00     0.000 C 
BRANCH   4   5
ATOM      5  C   UNL     1      26.830 161.444 118.311  1.00  0.00     0.000 C 
BRANCH   5   6
ATOM      6  C   UNL     1      26.060 160.816 117.131  1.00  0.00     0.000 C 
BRANCH   6   7
ATOM      7  C   UNL     1      25.880 159.288 117.200  1.00  0.00     0.000 C 
BRANCH   7   8
ATOM      8  C   UNL     1      25.730 158.724 118.624  1.00  0.00     0.000 C 
BRANCH   8   9
ATOM      9  C   UNL     1      25.550 157.191 118.665  1.00  0.00     0.000 C 
BRANCH   9  10
ATOM     10  C   UNL     1      25.796 156.611 120.068  1.00  0.00     0.000 C 
BRANCH  10  11
ATOM     11  C   UNL     1      26.476 157.623 121.017  1.00  0.00     0.000 C 
BRANCH  11  12
ATOM     12  C   UNL     1      28.006 157.700 120.848  1.00  0.00     0.006 C 
BRANCH  12  13
ATOM     13  C   UNL     1      28.754 158.199 122.094  1.00  0.00     0.053 C 
BRANCH  13  14
ATOM     14  C   UNL     1      30.241 158.123 121.926  1.00  0.00     0.041 C 
ATOM     15  O   UNL     1      30.956 159.141 122.119  1.00  0.00    -0.550 OA
ATOM     16  O   UNL     1      30.839 156.927 121.548  1.00  0.00    -0.550 OA
ENDBRANCH  13  14
ENDBRANCH  12  13
ENDBRANCH  11  12
ENDBRANCH  10  11
ENDBRANCH   9  10
ENDBRANCH   8   9
ENDBRANCH   7   8
ENDBRANCH   6   7
ENDBRANCH   5   6
ENDBRANCH   4   5
ENDBRANCH   3   4
ENDBRANCH   2   3
ENDBRANCH   1   2
BRANCH   1  17
ATOM     17  C   UNL     1      32.226 160.364 117.544  1.00  0.00     0.000 C 
BRANCH  17  18
ATOM     18  C   UNL     1      32.646 161.815 117.835  1.00  0.00     0.000 C 
BRANCH  18  19
ATOM     19  C   UNL     1      32.678 162.125 119.343  1.00  0.00     0.000 C 
BRANCH  19  20
ATOM     20  C   UNL     1      34.096 162.063 119.940  1.00  0.00     0.000 C 
BRANCH  20  21
ATOM     21  C   UNL     1      34.424 160.777 120.724  1.00  0.00     0.000 C 
BRANCH  21  22
ATOM     22  C   UNL     1      34.993 161.049 122.125  1.00  0.00    -0.000 C 
BRANCH  22  23
ATOM     23  C   UNL     1      36.154 162.058 122.108  1.00  0.00    -0.000 C 
BRANCH  23  24
ATOM     24  C   UNL     1      37.051 161.955 120.857  1.00  0.00    -0.000 C 
BRANCH  24  25
ATOM     25  C   UNL     1      38.397 161.267 121.154  1.00  0.00    -0.000 C 
BRANCH  25  26
ATOM     26  C   UNL     1      39.580 161.964 120.463  1.00  0.00    -0.000 C 
BRANCH  26  27
ATOM     27  C   UNL     1      39.638 161.678 118.951  1.00  0.00    -0.000 C 
BRANCH  27  28
ATOM     28  C   UNL     1      41.074 161.715 118.400  1.00  0.00    -0.000 C 
BRANCH  28  29
ATOM     29  C   UNL     1      41.118 161.582 116.870  1.00  0.00    -0.003 C 
ATOM     30  C   UNL     1      42.558 161.538 116.362  1.00  0.00     0.004 C 
ENDBRANCH  28  29
ENDBRANCH  27  28
ENDBRANCH  26  27
ENDBRANCH  25  26
ENDBRANCH  24  25
ENDBRANCH  23  24
ENDBRANCH  22  23
ENDBRANCH  21  22
ENDBRANCH  20  21
ENDBRANCH  19  20
ENDBRANCH  18  19
ENDBRANCH  17  18
ENDBRANCH   1  17
TORSDOF 26
ENDMDL
MODEL 5
REMARK VINA RESULT:    -2.185      4.903     13.667
REMARK INTER + INTRA:          -7.160
REMARK INTER:                  -6.917
REMARK INTRA:                  -0.244
REMARK UNBOUND:                -1.655
REMARK SMILES CCCCCCCCCCCCCCCCCCCCCCCCCCCC(=O)[O-]
REMARK SMILES IDX 15 1 16 2 17 3 18 4 19 5 20 6 21 7 22 8 23 9 24 10 25 11
REMARK SMILES IDX 26 12 27 13 28 14 29 15 30 16 14 17 13 18 12 19 11 20 10 21
REMARK SMILES IDX 9 22 8 23 7 24 6 25 5 26 4 27 3 28 2 29 1 30
REMARK H PARENT
REMARK Flexibility Score: inf
ROOT
ATOM      1  C   UNL     1      32.390 159.005 119.935  1.00  0.00     0.000 C 
ENDROOT
BRANCH   1   2
ATOM      2  C   UNL     1      33.031 160.383 120.165  1.00  0.00     0.000 C 
BRANCH   2   3
ATOM      3  C   UNL     1      33.144 160.745 121.653  1.00  0.00     0.000 C 
BRANCH   3   4
ATOM      4  C   UNL     1      34.605 160.657 122.125  1.00  0.00     0.000 C 
BRANCH   4   5
ATOM      5  C   UNL     1      35.474 161.819 121.614  1.00  0.00     0.000 C 
BRANCH   5   6
ATOM      6  C   UNL     1      36.768 161.404 120.882  1.00  0.00     0.000 C 
BRANCH   6   7
ATOM      7  C   UNL     1      38.068 161.585 121.688  1.00  0.00     0.000 C 
BRANCH   7   8
ATOM      8  C   UNL     1      39.331 161.785 120.832  1.00  0.00     0.000 C 
BRANCH   8   9
ATOM      9  C   UNL     1      39.042 161.877 119.318  1.00  0.00     0.000 C 
BRANCH   9  10
ATOM     10  C   UNL     1      39.789 160.799 118.514  1.00  0.00     0.000 C 
BRANCH  10  11
ATOM     11  C   UNL     1      40.852 161.398 117.566  1.00  0.00     0.000 C 
BRANCH  11  12
ATOM     12  C   UNL     1      42.143 160.561 117.474  1.00  0.00     0.006 C 
BRANCH  12  13
ATOM     13  C   UNL     1      43.287 161.068 118.365  1.00  0.00     0.053 C 
BRANCH  13  14
ATOM     14  C   UNL     1      44.428 160.096 118.424  1.00  0.00     0.041 C 
ATOM     15  O   UNL     1      45.044 159.905 119.505  1.00  0.00    -0.550 OA
ATOM     16  O   UNL     1      44.815 159.407 117.282  1.00  0.00    -0.550 OA
ENDBRANCH  13  14
ENDBRANCH  12  13
ENDBRANCH  11  12
ENDBRANCH  10  11
ENDBRANCH   9  10
ENDBRANCH   8   9
ENDBRANCH   7   8
ENDBRANCH   6   7
ENDBRANCH   5   6
ENDBRANCH   4   5
ENDBRANCH   3   4
ENDBRANCH   2   3
ENDBRANCH   1   2
BRANCH   1  17
ATOM     17  C   UNL     1      31.025 158.860 120.631  1.00  0.00     0.000 C 
BRANCH  17  18
ATOM     18  C   UNL     1      30.705 160.052 121.549  1.00  0.00     0.000 C 
BRANCH  18  19
ATOM     19  C   UNL     1      29.218 160.448 121.499  1.00  0.00     0.000 C 
BRANCH  19  20
ATOM     20  C   UNL     1      28.873 161.339 120.291  1.00  0.00     0.000 C 
BRANCH  20  21
ATOM     21  C   UNL     1      27.540 161.011 119.590  1.00  0.00     0.000 C 
BRANCH  21  22
ATOM     22  C   UNL     1      27.155 162.033 118.510  1.00  0.00    -0.000 C 
BRANCH  22  23
ATOM     23  C   UNL     1      25.634 162.125 118.295  1.00  0.00    -0.000 C 
BRANCH  23  24
ATOM     24  C   UNL     1      25.079 161.070 117.314  1.00  0.00    -0.000 C 
BRANCH  24  25
ATOM     25  C   UNL     1      26.181 160.145 116.762  1.00  0.00    -0.000 C 
BRANCH  25  26
ATOM     26  C   UNL     1      25.855 158.656 116.963  1.00  0.00    -0.000 C 
BRANCH  26  27
ATOM     27  C   UNL     1      25.917 158.227 118.441  1.00  0.00    -0.000 C 
BRANCH  27  28
ATOM     28  C   UNL     1      25.837 156.701 118.615  1.00  0.00    -0.000 C 
BRANCH  28  29
ATOM     29  C   UNL     1      25.832 156.278 120.091  1.00  0.00    -0.003 C 
ATOM     30  C   UNL     1      25.317 157.404 120.986  1.00  0.00     0.004 C 
ENDBRANCH  28  29
ENDBRANCH  27  28
ENDBRANCH  26  27
ENDBRANCH  25  26
ENDBRANCH  24  25
ENDBRANCH  23  24
ENDBRANCH  22  23
ENDBRANCH  21  22
ENDBRANCH  20  21
ENDBRANCH  19  20
ENDBRANCH  18  19
ENDBRANCH  17  18
ENDBRANCH   1  17
TORSDOF 26
ENDMDL
MODEL 6
REMARK VINA RESULT:    -2.043      3.158      6.334
REMARK INTER + INTRA:          -6.803
REMARK INTER:                  -4.589
REMARK INTRA:                  -2.214
REMARK UNBOUND:                -1.655
REMARK SMILES CCCCCCCCCCCCCCCCCCCCCCCCCCCC(=O)[O-]
REMARK SMILES IDX 15 1 16 2 17 3 18 4 19 5 20 6 21 7 22 8 23 9 24 10 25 11
REMARK SMILES IDX 26 12 27 13 28 14 29 15 30 16 14 17 13 18 12 19 11 20 10 21
REMARK SMILES IDX 9 22 8 23 7 24 6 25 5 26 4 27 3 28 2 29 1 30
REMARK H PARENT
REMARK Flexibility Score: inf
ROOT
ATOM      1  C   UNL     1      27.881 160.482 116.339  1.00  0.00     0.000 C 
ENDROOT
BRANCH   1   2
ATOM      2  C   UNL     1      26.606 159.630 116.236  1.00  0.00     0.000 C 
BRANCH   2   3
ATOM      3  C   UNL     1      25.454 160.180 117.091  1.00  0.00     0.000 C 
BRANCH   3   4
ATOM      4  C   UNL     1      25.626 161.689 117.328  1.00  0.00     0.000 C 
BRANCH   4   5
ATOM      5  C   UNL     1      26.051 162.029 118.768  1.00  0.00     0.000 C 
BRANCH   5   6
ATOM      6  C   UNL     1      24.906 162.068 119.803  1.00  0.00     0.000 C 
BRANCH   6   7
ATOM      7  C   UNL     1      25.345 161.969 121.275  1.00  0.00     0.000 C 
BRANCH   7   8
ATOM      8  C   UNL     1      25.066 160.608 121.938  1.00  0.00     0.000 C 
BRANCH   8   9
ATOM      9  C   UNL     1      25.575 159.405 121.114  1.00  0.00     0.000 C 
BRANCH   9  10
ATOM     10  C   UNL     1      27.046 159.566 120.693  1.00  0.00     0.000 C 
BRANCH  10  11
ATOM     11  C   UNL     1      27.995 159.715 121.903  1.00  0.00     0.000 C 
BRANCH  11  12
ATOM     12  C   UNL     1      29.472 159.921 121.511  1.00  0.00     0.006 C 
BRANCH  12  13
ATOM     13  C   UNL     1      30.436 158.893 122.121  1.00  0.00     0.053 C 
BRANCH  13  14
ATOM     14  C   UNL     1      30.337 157.558 121.445  1.00  0.00     0.041 C 
ATOM     15  O   UNL     1      29.339 156.817 121.643  1.00  0.00    -0.550 OA
ATOM     16  O   UNL     1      31.353 157.130 120.599  1.00  0.00    -0.550 OA
ENDBRANCH  13  14
ENDBRANCH  12  13
ENDBRANCH  11  12
ENDBRANCH  10  11
ENDBRANCH   9  10
ENDBRANCH   8   9
ENDBRANCH   7   8
ENDBRANCH   6   7
ENDBRANCH   5   6
ENDBRANCH   4   5
ENDBRANCH   3   4
ENDBRANCH   2   3
ENDBRANCH   1   2
BRANCH   1  17
ATOM     17  C   UNL     1      28.733 160.134 117.572  1.00  0.00     0.000 C 
BRANCH  17  18
ATOM     18  C   UNL     1      30.174 160.661 117.457  1.00  0.00     0.000 C 
BRANCH  18  19
ATOM     19  C   UNL     1      30.713 161.190 118.798  1.00  0.00     0.000 C 
BRANCH  19  20
ATOM     20  C   UNL     1      31.987 162.042 118.641  1.00  0.00     0.000 C 
BRANCH  20  21
ATOM     21  C   UNL     1      33.311 161.253 118.649  1.00  0.00     0.000 C 
BRANCH  21  22
ATOM     22  C   UNL     1      33.269 160.006 119.546  1.00  0.00    -0.000 C 
BRANCH  22  23
ATOM     23  C   UNL     1      33.451 160.341 121.037  1.00  0.00    -0.000 C 
BRANCH  23  24
ATOM     24  C   UNL     1      34.923 160.347 121.498  1.00  0.00    -0.000 C 
BRANCH  24  25
ATOM     25  C   UNL     1      35.432 161.766 121.817  1.00  0.00    -0.000 C 
BRANCH  25  26
ATOM     26  C   UNL     1      36.705 162.125 121.034  1.00  0.00    -0.000 C 
BRANCH  26  27
ATOM     27  C   UNL     1      37.977 162.052 121.898  1.00  0.00    -0.000 C 
BRANCH  27  28
ATOM     28  C   UNL     1      39.178 161.474 121.131  1.00  0.00    -0.000 C 
BRANCH  28  29
ATOM     29  C   UNL     1      38.779 160.903 119.761  1.00  0.00    -0.003 C 
ATOM     30  C   UNL     1      39.798 161.281 118.689  1.00  0.00     0.004 C 
ENDBRANCH  28  29
ENDBRANCH  27  28
ENDBRANCH  26  27
ENDBRANCH  25  26
ENDBRANCH  24  25
ENDBRANCH  23  24
ENDBRANCH  22  23
ENDBRANCH  21  22
ENDBRANCH  20  21
ENDBRANCH  19  20
ENDBRANCH  18  19
ENDBRANCH  17  18
ENDBRANCH   1  17
TORSDOF 26
ENDMDL
MODEL 7
REMARK VINA RESULT:    -2.019      6.082     10.948
REMARK INTER + INTRA:          -6.743
REMARK INTER:                  -3.713
REMARK INTRA:                  -3.030
REMARK UNBOUND:                -1.655
REMARK SMILES CCCCCCCCCCCCCCCCCCCCCCCCCCCC(=O)[O-]
REMARK SMILES IDX 15 1 16 2 17 3 18 4 19 5 20 6 21 7 22 8 23 9 24 10 25 11
REMARK SMILES IDX 26 12 27 13 28 14 29 15 30 16 14 17 13 18 12 19 11 20 10 21
REMARK SMILES IDX 9 22 8 23 7 24 6 25 5 26 4 27 3 28 2 29 1 30
REMARK H PARENT
REMARK Flexibility Score: inf
ROOT
ATOM      1  C   UNL     1      25.860 158.514 118.963  1.00  0.00     0.000 C 
ENDROOT
BRANCH   1   2
ATOM      2  C   UNL     1      25.644 157.788 117.626  1.00  0.00     0.000 C 
BRANCH   2   3
ATOM      3  C   UNL     1      25.619 158.747 116.426  1.00  0.00     0.000 C 
BRANCH   3   4
ATOM      4  C   UNL     1      27.010 158.847 115.781  1.00  0.00     0.000 C 
BRANCH   4   5
ATOM      5  C   UNL     1      27.439 160.298 115.496  1.00  0.00     0.000 C 
BRANCH   5   6
ATOM      6  C   UNL     1      26.526 161.387 116.098  1.00  0.00     0.000 C 
BRANCH   6   7
ATOM      7  C   UNL     1      27.064 162.067 117.371  1.00  0.00     0.000 C 
BRANCH   7   8
ATOM      8  C   UNL     1      28.064 161.219 118.178  1.00  0.00     0.000 C 
BRANCH   8   9
ATOM      9  C   UNL     1      29.531 161.406 117.734  1.00  0.00     0.000 C 
BRANCH   9  10
ATOM     10  C   UNL     1      30.452 160.302 118.281  1.00  0.00     0.000 C 
BRANCH  10  11
ATOM     11  C   UNL     1      31.815 160.255 117.556  1.00  0.00     0.000 C 
BRANCH  11  12
ATOM     12  C   UNL     1      33.026 160.307 118.509  1.00  0.00     0.006 C 
BRANCH  12  13
ATOM     13  C   UNL     1      32.665 160.599 119.973  1.00  0.00     0.053 C 
BRANCH  13  14
ATOM     14  C   UNL     1      32.648 159.354 120.808  1.00  0.00     0.041 C 
ATOM     15  O   UNL     1      32.983 159.397 122.021  1.00  0.00    -0.550 OA
ATOM     16  O   UNL     1      32.268 158.143 120.244  1.00  0.00    -0.550 OA
ENDBRANCH  13  14
ENDBRANCH  12  13
ENDBRANCH  11  12
ENDBRANCH  10  11
ENDBRANCH   9  10
ENDBRANCH   8   9
ENDBRANCH   7   8
ENDBRANCH   6   7
ENDBRANCH   5   6
ENDBRANCH   4   5
ENDBRANCH   3   4
ENDBRANCH   2   3
ENDBRANCH   1   2
BRANCH   1  17
ATOM     17  C   UNL     1      25.133 159.869 119.030  1.00  0.00     0.000 C 
BRANCH  17  18
ATOM     18  C   UNL     1      24.935 160.357 120.476  1.00  0.00     0.000 C 
BRANCH  18  19
ATOM     19  C   UNL     1      25.405 161.809 120.675  1.00  0.00     0.000 C 
BRANCH  19  20
ATOM     20  C   UNL     1      26.614 161.926 121.621  1.00  0.00     0.000 C 
BRANCH  20  21
ATOM     21  C   UNL     1      27.976 162.125 120.927  1.00  0.00     0.000 C 
BRANCH  21  22
ATOM     22  C   UNL     1      29.142 161.469 121.681  1.00  0.00    -0.000 C 
BRANCH  22  23
ATOM     23  C   UNL     1      28.828 160.029 122.125  1.00  0.00    -0.000 C 
BRANCH  23  24
ATOM     24  C   UNL     1      28.600 159.052 120.952  1.00  0.00    -0.000 C 
BRANCH  24  25
ATOM     25  C   UNL     1      29.263 157.682 121.192  1.00  0.00    -0.000 C 
BRANCH  25  26
ATOM     26  C   UNL     1      28.345 156.708 121.948  1.00  0.00    -0.000 C 
BRANCH  26  27
ATOM     27  C   UNL     1      26.887 156.759 121.455  1.00  0.00    -0.000 C 
BRANCH  27  28
ATOM     28  C   UNL     1      26.162 155.413 121.623  1.00  0.00    -0.000 C 
BRANCH  28  29
ATOM     29  C   UNL     1      26.493 154.423 120.496  1.00  0.00    -0.003 C 
ATOM     30  C   UNL     1      26.150 155.010 119.128  1.00  0.00     0.004 C 
ENDBRANCH  28  29
ENDBRANCH  27  28
ENDBRANCH  26  27
ENDBRANCH  25  26
ENDBRANCH  24  25
ENDBRANCH  23  24
ENDBRANCH  22  23
ENDBRANCH  21  22
ENDBRANCH  20  21
ENDBRANCH  19  20
ENDBRANCH  18  19
ENDBRANCH  17  18
ENDBRANCH   1  17
TORSDOF 26
ENDMDL
MODEL 8
REMARK VINA RESULT:    -1.977      4.319     12.727
REMARK INTER + INTRA:          -6.637
REMARK INTER:                  -5.362
REMARK INTRA:                  -1.275
REMARK UNBOUND:                -1.655
REMARK SMILES CCCCCCCCCCCCCCCCCCCCCCCCCCCC(=O)[O-]
REMARK SMILES IDX 15 1 16 2 17 3 18 4 19 5 20 6 21 7 22 8 23 9 24 10 25 11
REMARK SMILES IDX 26 12 27 13 28 14 29 15 30 16 14 17 13 18 12 19 11 20 10 21
REMARK SMILES IDX 9 22 8 23 7 24 6 25 5 26 4 27 3 28 2 29 1 30
REMARK H PARENT
REMARK Flexibility Score: inf
ROOT
ATOM      1  C   UNL     1      31.237 158.901 119.779  1.00  0.00     0.000 C 
ENDROOT
BRANCH   1   2
ATOM      2  C   UNL     1      32.670 159.449 119.677  1.00  0.00     0.000 C 
BRANCH   2   3
ATOM      3  C   UNL     1      33.606 158.868 120.746  1.00  0.00     0.000 C 
BRANCH   3   4
ATOM      4  C   UNL     1      33.539 159.699 122.038  1.00  0.00     0.000 C 
BRANCH   4   5
ATOM      5  C   UNL     1      33.154 161.168 121.790  1.00  0.00     0.000 C 
BRANCH   5   6
ATOM      6  C   UNL     1      34.335 162.124 121.520  1.00  0.00     0.000 C 
BRANCH   6   7
ATOM      7  C   UNL     1      35.610 161.459 120.969  1.00  0.00     0.000 C 
BRANCH   7   8
ATOM      8  C   UNL     1      36.831 161.541 121.902  1.00  0.00     0.000 C 
BRANCH   8   9
ATOM      9  C   UNL     1      38.111 162.044 121.201  1.00  0.00     0.000 C 
BRANCH   9  10
ATOM     10  C   UNL     1      38.389 161.296 119.885  1.00  0.00     0.000 C 
BRANCH  10  11
ATOM     11  C   UNL     1      39.491 161.973 119.041  1.00  0.00     0.000 C 
BRANCH  11  12
ATOM     12  C   UNL     1      40.212 161.011 118.076  1.00  0.00     0.006 C 
BRANCH  12  13
ATOM     13  C   UNL     1      41.732 161.222 117.994  1.00  0.00     0.053 C 
BRANCH  13  14
ATOM     14  C   UNL     1      42.290 160.788 116.673  1.00  0.00     0.041 C 
ATOM     15  O   UNL     1      42.129 161.502 115.649  1.00  0.00    -0.550 OA
ATOM     16  O   UNL     1      42.984 159.588 116.570  1.00  0.00    -0.550 OA
ENDBRANCH  13  14
ENDBRANCH  12  13
ENDBRANCH  11  12
ENDBRANCH  10  11
ENDBRANCH   9  10
ENDBRANCH   8   9
ENDBRANCH   7   8
ENDBRANCH   6   7
ENDBRANCH   5   6
ENDBRANCH   4   5
ENDBRANCH   3   4
ENDBRANCH   2   3
ENDBRANCH   1   2
BRANCH   1  17
ATOM     17  C   UNL     1      31.104 157.772 120.817  1.00  0.00     0.000 C 
BRANCH  17  18
ATOM     18  C   UNL     1      29.872 157.949 121.721  1.00  0.00     0.000 C 
BRANCH  18  19
ATOM     19  C   UNL     1      29.031 156.663 121.823  1.00  0.00     0.000 C 
BRANCH  19  20
ATOM     20  C   UNL     1      27.545 156.889 121.488  1.00  0.00     0.000 C 
BRANCH  20  21
ATOM     21  C   UNL     1      26.908 158.139 122.125  1.00  0.00     0.000 C 
BRANCH  21  22
ATOM     22  C   UNL     1      27.120 159.416 121.298  1.00  0.00    -0.000 C 
BRANCH  22  23
ATOM     23  C   UNL     1      26.488 160.658 121.951  1.00  0.00    -0.000 C 
BRANCH  23  24
ATOM     24  C   UNL     1      26.357 161.865 120.997  1.00  0.00    -0.000 C 
BRANCH  24  25
ATOM     25  C   UNL     1      25.037 161.844 120.202  1.00  0.00    -0.000 C 
BRANCH  25  26
ATOM     26  C   UNL     1      25.254 161.553 118.708  1.00  0.00    -0.000 C 
BRANCH  26  27
ATOM     27  C   UNL     1      25.740 160.116 118.445  1.00  0.00    -0.000 C 
BRANCH  27  28
ATOM     28  C   UNL     1      26.135 159.887 116.977  1.00  0.00    -0.000 C 
BRANCH  28  29
ATOM     29  C   UNL     1      27.518 160.468 116.644  1.00  0.00    -0.003 C 
ATOM     30  C   UNL     1      28.574 159.980 117.633  1.00  0.00     0.004 C 
ENDBRANCH  28  29
ENDBRANCH  27  28
ENDBRANCH  26  27
ENDBRANCH  25  26
ENDBRANCH  24  25
ENDBRANCH  23  24
ENDBRANCH  22  23
ENDBRANCH  21  22
ENDBRANCH  20  21
ENDBRANCH  19  20
ENDBRANCH  18  19
ENDBRANCH  17  18
ENDBRANCH   1  17
TORSDOF 26
ENDMDL
MODEL 9
REMARK VINA RESULT:    -1.950      1.810      3.677
REMARK INTER + INTRA:          -6.568
REMARK INTER:                  -6.440
REMARK INTRA:                  -0.128
REMARK UNBOUND:                -1.655
REMARK SMILES CCCCCCCCCCCCCCCCCCCCCCCCCCCC(=O)[O-]
REMARK SMILES IDX 15 1 16 2 17 3 18 4 19 5 20 6 21 7 22 8 23 9 24 10 25 11
REMARK SMILES IDX 26 12 27 13 28 14 29 15 30 16 14 17 13 18 12 19 11 20 10 21
REMARK SMILES IDX 9 22 8 23 7 24 6 25 5 26 4 27 3 28 2 29 1 30
REMARK H PARENT
REMARK Flexibility Score: inf
ROOT
ATOM      1  C   UNL     1      30.318 161.128 119.850  1.00  0.00     0.000 C 
ENDROOT
BRANCH   1   2
ATOM      2  C   UNL     1      29.971 160.043 120.882  1.00  0.00     0.000 C 
BRANCH   2   3
ATOM      3  C   UNL     1      28.982 160.534 121.949  1.00  0.00     0.000 C 
BRANCH   3   4
ATOM      4  C   UNL     1      27.829 159.532 122.124  1.00  0.00     0.000 C 
BRANCH   4   5
ATOM      5  C   UNL     1      27.866 158.386 121.098  1.00  0.00     0.000 C 
BRANCH   5   6
ATOM      6  C   UNL     1      26.623 157.471 121.085  1.00  0.00     0.000 C 
BRANCH   6   7
ATOM      7  C   UNL     1      26.898 155.992 120.755  1.00  0.00     0.000 C 
BRANCH   7   8
ATOM      8  C   UNL     1      26.227 155.488 119.465  1.00  0.00     0.000 C 
BRANCH   8   9
ATOM      9  C   UNL     1      25.169 156.459 118.899  1.00  0.00     0.000 C 
BRANCH   9  10
ATOM     10  C   UNL     1      25.682 157.231 117.671  1.00  0.00     0.000 C 
BRANCH  10  11
ATOM     11  C   UNL     1      26.240 158.624 118.038  1.00  0.00     0.000 C 
BRANCH  11  12
ATOM     12  C   UNL     1      25.711 159.761 117.142  1.00  0.00     0.006 C 
BRANCH  12  13
ATOM     13  C   UNL     1      25.094 160.937 117.914  1.00  0.00     0.053 C 
BRANCH  13  14
ATOM     14  C   UNL     1      25.735 161.127 119.256  1.00  0.00     0.041 C 
ATOM     15  O   UNL     1      26.855 161.694 119.351  1.00  0.00    -0.550 OA
ATOM     16  O   UNL     1      25.097 160.671 120.403  1.00  0.00    -0.550 OA
ENDBRANCH  13  14
ENDBRANCH  12  13
ENDBRANCH  11  12
ENDBRANCH  10  11
ENDBRANCH   9  10
ENDBRANCH   8   9
ENDBRANCH   7   8
ENDBRANCH   6   7
ENDBRANCH   5   6
ENDBRANCH   4   5
ENDBRANCH   3   4
ENDBRANCH   2   3
ENDBRANCH   1   2
BRANCH   1  17
ATOM     17  C   UNL     1      31.410 162.093 120.344  1.00  0.00     0.000 C 
BRANCH  17  18
ATOM     18  C   UNL     1      32.827 161.530 120.138  1.00  0.00     0.000 C 
BRANCH  18  19
ATOM     19  C   UNL     1      32.814 160.058 119.688  1.00  0.00     0.000 C 
BRANCH  19  20
ATOM     20  C   UNL     1      33.317 159.091 120.775  1.00  0.00     0.000 C 
BRANCH  20  21
ATOM     21  C   UNL     1      34.347 159.682 121.757  1.00  0.00     0.000 C 
BRANCH  21  22
ATOM     22  C   UNL     1      35.053 160.935 121.215  1.00  0.00    -0.000 C 
BRANCH  22  23
ATOM     23  C   UNL     1      36.298 161.317 122.034  1.00  0.00    -0.000 C 
BRANCH  23  24
ATOM     24  C   UNL     1      37.357 162.099 121.228  1.00  0.00    -0.000 C 
BRANCH  24  25
ATOM     25  C   UNL     1      38.212 161.180 120.334  1.00  0.00    -0.000 C 
BRANCH  25  26
ATOM     26  C   UNL     1      39.328 161.943 119.603  1.00  0.00    -0.000 C 
BRANCH  26  27
ATOM     27  C   UNL     1      39.830 161.207 118.347  1.00  0.00    -0.000 C 
BRANCH  27  28
ATOM     28  C   UNL     1      41.146 161.792 117.808  1.00  0.00    -0.000 C 
BRANCH  28  29
ATOM     29  C   UNL     1      42.316 160.802 117.917  1.00  0.00    -0.003 C 
ATOM     30  C   UNL     1      43.655 161.535 117.964  1.00  0.00     0.004 C 
ENDBRANCH  28  29
ENDBRANCH  27  28
ENDBRANCH  26  27
ENDBRANCH  25  26
ENDBRANCH  24  25
ENDBRANCH  23  24
ENDBRANCH  22  23
ENDBRANCH  21  22
ENDBRANCH  20  21
ENDBRANCH  19  20
ENDBRANCH  18  19
ENDBRANCH  17  18
ENDBRANCH   1  17
TORSDOF 26
ENDMDL
