MODEL 1
REMARK VINA RESULT:    -2.822      0.000      0.000
REMARK INTER + INTRA:          -4.999
REMARK INTER:                  -4.471
REMARK INTRA:                  -0.528
REMARK UNBOUND:                -0.528
REMARK SMILES CCCCCCCCCCCC(=O)[O-]
REMARK SMILES IDX 7 1 8 2 9 3 10 4 11 5 12 6 13 7 14 8 6 9 5 10 4 11 3 12 2 13
REMARK SMILES IDX 1 14
REMARK H PARENT
REMARK Flexibility Score: inf
ROOT
ATOM      1  C   UNL     1      -7.016  52.125  -7.824  1.00  0.00     0.000 C 
ENDROOT
BRANCH   1   2
ATOM      2  C   UNL     1      -8.167  52.102  -6.805  1.00  0.00     0.000 C 
BRANCH   2   3
ATOM      3  C   UNL     1      -7.669  51.982  -5.354  1.00  0.00     0.000 C 
BRANCH   3   4
ATOM      4  C   UNL     1      -8.813  51.976  -4.323  1.00  0.00     0.006 C 
BRANCH   4   5
ATOM      5  C   UNL     1      -9.013  50.621  -3.621  1.00  0.00     0.053 C 
BRANCH   5   6
ATOM      6  C   UNL     1      -8.772  50.693  -2.143  1.00  0.00     0.041 C 
ATOM      7  O   UNL     1      -9.102  51.720  -1.495  1.00  0.00    -0.550 OA
ATOM      8  O   UNL     1      -8.211  49.610  -1.477  1.00  0.00    -0.550 OA
ENDBRANCH   5   6
ENDBRANCH   4   5
ENDBRANCH   3   4
ENDBRANCH   2   3
ENDBRANCH   1   2
BRANCH   1   9
ATOM      9  C   UNL     1      -7.101  50.972  -8.836  1.00  0.00     0.000 C 
BRANCH   9  10
ATOM     10  C   UNL     1      -5.716  50.635  -9.401  1.00  0.00    -0.000 C 
BRANCH  10  11
ATOM     11  C   UNL     1      -4.996  51.900  -9.885  1.00  0.00    -0.000 C 
BRANCH  11  12
ATOM     12  C   UNL     1      -3.577  51.981  -9.304  1.00  0.00    -0.000 C 
BRANCH  12  13
ATOM     13  C   UNL     1      -3.436  51.215  -7.981  1.00  0.00    -0.003 C 
ATOM     14  C   UNL     1      -2.183  51.610  -7.198  1.00  0.00     0.004 C 
ENDBRANCH  12  13
ENDBRANCH  11  12
ENDBRANCH  10  11
ENDBRANCH   9  10
ENDBRANCH   1   9
TORSDOF 10
ENDMDL
MODEL 2
REMARK VINA RESULT:    -1.717      3.726      7.097
REMARK INTER + INTRA:          -3.249
REMARK INTER:                  -3.012
REMARK INTRA:                  -0.238
REMARK UNBOUND:                -0.528
REMARK SMILES CCCCCCCCCCCC(=O)[O-]
REMARK SMILES IDX 7 1 8 2 9 3 10 4 11 5 12 6 13 7 14 8 6 9 5 10 4 11 3 12 2 13
REMARK SMILES IDX 1 14
REMARK H PARENT
REMARK Flexibility Score: inf
ROOT
ATOM      1  C   UNL     1      -8.266  50.067  -3.878  1.00  0.00     0.000 C 
ENDROOT
BRANCH   1   2
ATOM      2  C   UNL     1      -8.448  51.460  -4.504  1.00  0.00     0.000 C 
BRANCH   2   3
ATOM      3  C   UNL     1      -7.182  51.952  -5.226  1.00  0.00     0.000 C 
BRANCH   3   4
ATOM      4  C   UNL     1      -7.351  52.029  -6.755  1.00  0.00     0.006 C 
BRANCH   4   5
ATOM      5  C   UNL     1      -6.022  52.112  -7.526  1.00  0.00     0.053 C 
BRANCH   5   6
ATOM      6  C   UNL     1      -6.084  51.434  -8.862  1.00  0.00     0.041 C 
ATOM      7  O   UNL     1      -5.220  50.575  -9.180  1.00  0.00    -0.550 OA
ATOM      8  O   UNL     1      -7.115  51.730  -9.745  1.00  0.00    -0.550 OA
ENDBRANCH   5   6
ENDBRANCH   4   5
ENDBRANCH   3   4
ENDBRANCH   2   3
ENDBRANCH   1   2
BRANCH   1   9
ATOM      9  C   UNL     1      -8.732  50.013  -2.415  1.00  0.00     0.000 C 
BRANCH   9  10
ATOM     10  C   UNL     1      -9.042  51.418  -1.886  1.00  0.00    -0.000 C 
BRANCH  10  11
ATOM     11  C   UNL     1      -7.764  52.125  -1.419  1.00  0.00    -0.000 C 
BRANCH  11  12
ATOM     12  C   UNL     1      -7.438  51.767   0.039  1.00  0.00    -0.000 C 
BRANCH  12  13
ATOM     13  C   UNL     1      -5.964  52.015   0.392  1.00  0.00    -0.003 C 
ATOM     14  C   UNL     1      -5.158  50.722   0.511  1.00  0.00     0.004 C 
ENDBRANCH  12  13
ENDBRANCH  11  12
ENDBRANCH  10  11
ENDBRANCH   9  10
ENDBRANCH   1   9
TORSDOF 10
ENDMDL
MODEL 3
REMARK VINA RESULT:    -1.507      1.741      3.276
REMARK INTER + INTRA:          -2.916
REMARK INTER:                  -2.615
REMARK INTRA:                  -0.300
REMARK UNBOUND:                -0.528
REMARK SMILES CCCCCCCCCCCC(=O)[O-]
REMARK SMILES IDX 7 1 8 2 9 3 10 4 11 5 12 6 13 7 14 8 6 9 5 10 4 11 3 12 2 13
REMARK SMILES IDX 1 14
REMARK H PARENT
REMARK Flexibility Score: inf
ROOT
ATOM      1  C   UNL     1      -7.869  51.308  -4.554  1.00  0.00     0.000 C 
ENDROOT
BRANCH   1   2
ATOM      2  C   UNL     1      -9.058  51.249  -3.581  1.00  0.00     0.000 C 
BRANCH   2   3
ATOM      3  C   UNL     1      -8.862  50.200  -2.472  1.00  0.00     0.000 C 
BRANCH   3   4
ATOM      4  C   UNL     1      -8.777  50.819  -1.065  1.00  0.00     0.006 C 
BRANCH   4   5
ATOM      5  C   UNL     1      -7.649  51.854  -0.905  1.00  0.00     0.053 C 
BRANCH   5   6
ATOM      6  C   UNL     1      -6.488  51.330  -0.115  1.00  0.00     0.041 C 
ATOM      7  O   UNL     1      -5.703  52.125   0.465  1.00  0.00    -0.550 OA
ATOM      8  O   UNL     1      -6.291  49.959   0.005  1.00  0.00    -0.550 OA
ENDBRANCH   5   6
ENDBRANCH   4   5
ENDBRANCH   3   4
ENDBRANCH   2   3
ENDBRANCH   1   2
BRANCH   1   9
ATOM      9  C   UNL     1      -8.214  52.036  -5.862  1.00  0.00     0.000 C 
BRANCH   9  10
ATOM     10  C   UNL     1      -6.988  52.125  -6.780  1.00  0.00    -0.000 C 
BRANCH  10  11
ATOM     11  C   UNL     1      -7.400  52.060  -8.255  1.00  0.00    -0.000 C 
BRANCH  11  12
ATOM     12  C   UNL     1      -6.934  50.745  -8.899  1.00  0.00    -0.000 C 
BRANCH  12  13
ATOM     13  C   UNL     1      -5.651  50.914  -9.725  1.00  0.00    -0.003 C 
ATOM     14  C   UNL     1      -4.408  51.102  -8.857  1.00  0.00     0.004 C 
ENDBRANCH  12  13
ENDBRANCH  11  12
ENDBRANCH  10  11
ENDBRANCH   9  10
ENDBRANCH   1   9
TORSDOF 10
ENDMDL
MODEL 4
REMARK VINA RESULT:    -1.087      3.692      6.874
REMARK INTER + INTRA:          -2.250
REMARK INTER:                  -2.370
REMARK INTRA:                   0.120
REMARK UNBOUND:                -0.528
REMARK SMILES CCCCCCCCCCCC(=O)[O-]
REMARK SMILES IDX 7 1 8 2 9 3 10 4 11 5 12 6 13 7 14 8 6 9 5 10 4 11 3 12 2 13
REMARK SMILES IDX 1 14
REMARK H PARENT
REMARK Flexibility Score: inf
ROOT
ATOM      1  C   UNL     1      -8.606  51.685  -2.086  1.00  0.00     0.000 C 
ENDROOT
BRANCH   1   2
ATOM      2  C   UNL     1      -8.391  50.178  -2.301  1.00  0.00     0.000 C 
BRANCH   2   3
ATOM      3  C   UNL     1      -8.631  49.749  -3.759  1.00  0.00     0.000 C 
BRANCH   3   4
ATOM      4  C   UNL     1      -8.812  50.941  -4.716  1.00  0.00     0.006 C 
BRANCH   4   5
ATOM      5  C   UNL     1      -7.547  51.802  -4.886  1.00  0.00     0.053 C 
BRANCH   5   6
ATOM      6  C   UNL     1      -7.022  51.791  -6.290  1.00  0.00     0.041 C 
ATOM      7  O   UNL     1      -5.823  52.097  -6.523  1.00  0.00    -0.550 OA
ATOM      8  O   UNL     1      -7.850  51.411  -7.339  1.00  0.00    -0.550 OA
ENDBRANCH   5   6
ENDBRANCH   4   5
ENDBRANCH   3   4
ENDBRANCH   2   3
ENDBRANCH   1   2
BRANCH   1   9
ATOM      9  C   UNL     1      -8.989  52.026  -0.638  1.00  0.00     0.000 C 
BRANCH   9  10
ATOM     10  C   UNL     1      -7.848  51.682   0.327  1.00  0.00    -0.000 C 
BRANCH  10  11
ATOM     11  C   UNL     1      -6.487  52.055  -0.275  1.00  0.00    -0.000 C 
BRANCH  11  12
ATOM     12  C   UNL     1      -5.345  51.343   0.466  1.00  0.00    -0.000 C 
BRANCH  12  13
ATOM     13  C   UNL     1      -4.024  52.123   0.403  1.00  0.00    -0.003 C 
ATOM     14  C   UNL     1      -2.817  51.223   0.142  1.00  0.00     0.004 C 
ENDBRANCH  12  13
ENDBRANCH  11  12
ENDBRANCH  10  11
ENDBRANCH   9  10
ENDBRANCH   1   9
TORSDOF 10
ENDMDL
MODEL 5
REMARK VINA RESULT:    -0.445      4.360      6.937
REMARK INTER + INTRA:          -1.234
REMARK INTER:                  -0.837
REMARK INTRA:                  -0.396
REMARK UNBOUND:                -0.528
REMARK SMILES CCCCCCCCCCCC(=O)[O-]
REMARK SMILES IDX 7 1 8 2 9 3 10 4 11 5 12 6 13 7 14 8 6 9 5 10 4 11 3 12 2 13
REMARK SMILES IDX 1 14
REMARK H PARENT
REMARK Flexibility Score: inf
ROOT
ATOM      1  C   UNL     1      -6.714  49.622  -0.634  1.00  0.00     0.000 C 
ENDROOT
BRANCH   1   2
ATOM      2  C   UNL     1      -8.024  49.827  -1.413  1.00  0.00     0.000 C 
BRANCH   2   3
ATOM      3  C   UNL     1      -8.498  51.290  -1.396  1.00  0.00     0.000 C 
BRANCH   3   4
ATOM      4  C   UNL     1      -9.108  51.742  -2.735  1.00  0.00     0.006 C 
BRANCH   4   5
ATOM      5  C   UNL     1      -8.064  52.123  -3.800  1.00  0.00     0.053 C 
BRANCH   5   6
ATOM      6  C   UNL     1      -8.015  51.150  -4.939  1.00  0.00     0.041 C 
ATOM      7  O   UNL     1      -8.048  49.911  -4.718  1.00  0.00    -0.550 OA
ATOM      8  O   UNL     1      -7.964  51.614  -6.248  1.00  0.00    -0.550 OA
ENDBRANCH   5   6
ENDBRANCH   4   5
ENDBRANCH   3   4
ENDBRANCH   2   3
ENDBRANCH   1   2
BRANCH   1   9
ATOM      9  C   UNL     1      -6.581  50.581   0.559  1.00  0.00     0.000 C 
BRANCH   9  10
ATOM     10  C   UNL     1      -5.526  51.659   0.280  1.00  0.00    -0.000 C 
BRANCH  10  11
ATOM     11  C   UNL     1      -4.117  51.053   0.243  1.00  0.00    -0.000 C 
BRANCH  11  12
ATOM     12  C   UNL     1      -3.077  52.106  -0.169  1.00  0.00    -0.000 C 
BRANCH  12  13
ATOM     13  C   UNL     1      -1.638  51.577  -0.088  1.00  0.00    -0.003 C 
ATOM     14  C   UNL     1      -0.894  52.074   1.151  1.00  0.00     0.004 C 
ENDBRANCH  12  13
ENDBRANCH  11  12
ENDBRANCH  10  11
ENDBRANCH   9  10
ENDBRANCH   1   9
TORSDOF 10
ENDMDL
MODEL 6
REMARK VINA RESULT:    -0.114      4.640      7.247
REMARK INTER + INTRA:          -0.709
REMARK INTER:                  -0.403
REMARK INTRA:                  -0.307
REMARK UNBOUND:                -0.528
REMARK SMILES CCCCCCCCCCCC(=O)[O-]
REMARK SMILES IDX 7 1 8 2 9 3 10 4 11 5 12 6 13 7 14 8 6 9 5 10 4 11 3 12 2 13
REMARK SMILES IDX 1 14
REMARK H PARENT
REMARK Flexibility Score: inf
ROOT
ATOM      1  C   UNL     1      -6.870  50.296  -0.732  1.00  0.00     0.000 C 
ENDROOT
BRANCH   1   2
ATOM      2  C   UNL     1      -6.319  51.075   0.473  1.00  0.00     0.000 C 
BRANCH   2   3
ATOM      3  C   UNL     1      -4.826  50.798   0.723  1.00  0.00     0.000 C 
BRANCH   3   4
ATOM      4  C   UNL     1      -3.901  51.828   0.048  1.00  0.00     0.006 C 
BRANCH   4   5
ATOM      5  C   UNL     1      -2.615  52.125   0.840  1.00  0.00     0.053 C 
BRANCH   5   6
ATOM      6  C   UNL     1      -1.372  51.886   0.037  1.00  0.00     0.041 C 
ATOM      7  O   UNL     1      -0.257  51.768   0.611  1.00  0.00    -0.550 OA
ATOM      8  O   UNL     1      -1.450  51.763  -1.345  1.00  0.00    -0.550 OA
ENDBRANCH   5   6
ENDBRANCH   4   5
ENDBRANCH   3   4
ENDBRANCH   2   3
ENDBRANCH   1   2
BRANCH   1   9
ATOM      9  C   UNL     1      -8.269  50.771  -1.152  1.00  0.00     0.000 C 
BRANCH   9  10
ATOM     10  C   UNL     1      -8.722  50.074  -2.440  1.00  0.00    -0.000 C 
BRANCH  10  11
ATOM     11  C   UNL     1      -9.088  51.098  -3.521  1.00  0.00    -0.000 C 
BRANCH  11  12
ATOM     12  C   UNL     1      -8.019  51.139  -4.624  1.00  0.00    -0.000 C 
BRANCH  12  13
ATOM     13  C   UNL     1      -8.369  52.122  -5.750  1.00  0.00    -0.003 C 
ATOM     14  C   UNL     1      -7.530  51.905  -7.008  1.00  0.00     0.004 C 
ENDBRANCH  12  13
ENDBRANCH  11  12
ENDBRANCH  10  11
ENDBRANCH   9  10
ENDBRANCH   1   9
TORSDOF 10
ENDMDL
