MODEL 1
REMARK VINA RESULT:    -3.719      0.000      0.000
REMARK INTER + INTRA:          -9.095
REMARK INTER:                  -6.763
REMARK INTRA:                  -2.332
REMARK UNBOUND:                -2.332
REMARK SMILES CCCCCCCCCCCCCC[C@H](C)C(=O)[O-]
REMARK SMILES IDX 9 1 10 2 11 3 12 4 13 5 14 6 15 7 16 8 17 9 18 10 19 11 8 12
REMARK SMILES IDX 7 13 6 14 5 15 4 16 3 17 2 18 1 19
REMARK H PARENT
REMARK Flexibility Score: inf
ROOT
ATOM      1  C   UNL     1      21.637   2.578  23.601  1.00  0.00     0.000 C 
ENDROOT
BRANCH   1   2
ATOM      2  C   UNL     1      21.352   3.978  24.167  1.00  0.00     0.000 C 
BRANCH   2   3
ATOM      3  C   UNL     1      19.848   4.282  24.277  1.00  0.00     0.000 C 
BRANCH   3   4
ATOM      4  C   UNL     1      19.525   5.261  25.416  1.00  0.00     0.000 C 
BRANCH   4   5
ATOM      5  C   UNL     1      20.257   6.609  25.269  1.00  0.00     0.001 C 
BRANCH   5   6
ATOM      6  C   UNL     1      20.014   7.256  23.888  1.00  0.00     0.009 C 
BRANCH   6   7
ATOM      7  C   UNL     1      19.214   8.577  23.954  1.00  0.00     0.032 C 
ATOM      8  C   UNL     1      17.721   8.347  24.220  1.00  0.00     0.014 C 
BRANCH   7   9
ATOM      9  C   UNL     1      19.384   9.341  22.670  1.00  0.00     0.044 C 
ATOM     10  O   UNL     1      20.534   9.542  22.200  1.00  0.00    -0.550 OA
ATOM     11  O   UNL     1      18.271   9.830  21.991  1.00  0.00    -0.550 OA
ENDBRANCH   7   9
ENDBRANCH   6   7
ENDBRANCH   5   6
ENDBRANCH   4   5
ENDBRANCH   3   4
ENDBRANCH   2   3
ENDBRANCH   1   2
BRANCH   1  12
ATOM     12  C   UNL     1      20.931   1.462  24.390  1.00  0.00     0.000 C 
BRANCH  12  13
ATOM     13  C   UNL     1      21.422   1.371  25.845  1.00  0.00    -0.000 C 
BRANCH  13  14
ATOM     14  C   UNL     1      20.280   1.526  26.866  1.00  0.00    -0.000 C 
BRANCH  14  15
ATOM     15  C   UNL     1      20.567   2.615  27.914  1.00  0.00    -0.000 C 
BRANCH  15  16
ATOM     16  C   UNL     1      22.054   3.013  27.956  1.00  0.00    -0.000 C 
BRANCH  16  17
ATOM     17  C   UNL     1      22.275   4.523  27.751  1.00  0.00    -0.000 C 
BRANCH  17  18
ATOM     18  C   UNL     1      23.533   4.894  26.945  1.00  0.00    -0.003 C 
ATOM     19  C   UNL     1      24.333   3.673  26.487  1.00  0.00     0.004 C 
ENDBRANCH  17  18
ENDBRANCH  16  17
ENDBRANCH  15  16
ENDBRANCH  14  15
ENDBRANCH  13  14
ENDBRANCH  12  13
ENDBRANCH   1  12
TORSDOF 14
ENDMDL
MODEL 2
REMARK VINA RESULT:    -3.650      0.982      1.394
REMARK INTER + INTRA:          -8.970
REMARK INTER:                  -6.452
REMARK INTRA:                  -2.518
REMARK UNBOUND:                -2.332
REMARK SMILES CCCCCCCCCCCCCC[C@H](C)C(=O)[O-]
REMARK SMILES IDX 9 1 10 2 11 3 12 4 13 5 14 6 15 7 16 8 17 9 18 10 19 11 8 12
REMARK SMILES IDX 7 13 6 14 5 15 4 16 3 17 2 18 1 19
REMARK H PARENT
REMARK Flexibility Score: inf
ROOT
ATOM      1  C   UNL     1      21.651   2.946  23.669  1.00  0.00     0.000 C 
ENDROOT
BRANCH   1   2
ATOM      2  C   UNL     1      21.187   4.240  24.358  1.00  0.00     0.000 C 
BRANCH   2   3
ATOM      3  C   UNL     1      19.657   4.390  24.376  1.00  0.00     0.000 C 
BRANCH   3   4
ATOM      4  C   UNL     1      19.157   5.192  25.588  1.00  0.00     0.000 C 
BRANCH   4   5
ATOM      5  C   UNL     1      20.210   6.180  26.124  1.00  0.00     0.001 C 
BRANCH   5   6
ATOM      6  C   UNL     1      19.872   7.644  25.765  1.00  0.00     0.009 C 
BRANCH   6   7
ATOM      7  C   UNL     1      20.568   8.142  24.479  1.00  0.00     0.032 C 
ATOM      8  C   UNL     1      21.451   9.371  24.726  1.00  0.00     0.014 C 
BRANCH   7   9
ATOM      9  C   UNL     1      19.535   8.468  23.434  1.00  0.00     0.044 C 
ATOM     10  O   UNL     1      18.364   8.018  23.539  1.00  0.00    -0.550 OA
ATOM     11  O   UNL     1      19.865   9.270  22.346  1.00  0.00    -0.550 OA
ENDBRANCH   7   9
ENDBRANCH   6   7
ENDBRANCH   5   6
ENDBRANCH   4   5
ENDBRANCH   3   4
ENDBRANCH   2   3
ENDBRANCH   1   2
BRANCH   1  12
ATOM     12  C   UNL     1      21.078   1.681  24.332  1.00  0.00     0.000 C 
BRANCH  12  13
ATOM     13  C   UNL     1      21.600   1.483  25.766  1.00  0.00    -0.000 C 
BRANCH  13  14
ATOM     14  C   UNL     1      20.499   1.658  26.827  1.00  0.00    -0.000 C 
BRANCH  14  15
ATOM     15  C   UNL     1      20.943   2.547  28.000  1.00  0.00    -0.000 C 
BRANCH  15  16
ATOM     16  C   UNL     1      22.451   2.856  27.966  1.00  0.00    -0.000 C 
BRANCH  16  17
ATOM     17  C   UNL     1      22.751   4.364  27.876  1.00  0.00    -0.000 C 
BRANCH  17  18
ATOM     18  C   UNL     1      23.927   4.740  26.955  1.00  0.00    -0.003 C 
ATOM     19  C   UNL     1      24.714   3.524  26.460  1.00  0.00     0.004 C 
ENDBRANCH  17  18
ENDBRANCH  16  17
ENDBRANCH  15  16
ENDBRANCH  14  15
ENDBRANCH  13  14
ENDBRANCH  12  13
ENDBRANCH   1  12
TORSDOF 14
ENDMDL
MODEL 3
REMARK VINA RESULT:    -3.540      1.222      2.419
REMARK INTER + INTRA:          -8.770
REMARK INTER:                  -6.580
REMARK INTRA:                  -2.190
REMARK UNBOUND:                -2.332
REMARK SMILES CCCCCCCCCCCCCC[C@H](C)C(=O)[O-]
REMARK SMILES IDX 9 1 10 2 11 3 12 4 13 5 14 6 15 7 16 8 17 9 18 10 19 11 8 12
REMARK SMILES IDX 7 13 6 14 5 15 4 16 3 17 2 18 1 19
REMARK H PARENT
REMARK Flexibility Score: inf
ROOT
ATOM      1  C   UNL     1      19.016   1.547  25.860  1.00  0.00     0.000 C 
ENDROOT
BRANCH   1   2
ATOM      2  C   UNL     1      18.457   2.834  26.488  1.00  0.00     0.000 C 
BRANCH   2   3
ATOM      3  C   UNL     1      19.560   3.775  27.001  1.00  0.00     0.000 C 
BRANCH   3   4
ATOM      4  C   UNL     1      19.478   5.176  26.374  1.00  0.00     0.000 C 
BRANCH   4   5
ATOM      5  C   UNL     1      19.120   5.140  24.876  1.00  0.00     0.001 C 
BRANCH   5   6
ATOM      6  C   UNL     1      19.850   6.240  24.075  1.00  0.00     0.009 C 
BRANCH   6   7
ATOM      7  C   UNL     1      19.301   7.661  24.332  1.00  0.00     0.032 C 
ATOM      8  C   UNL     1      17.842   7.817  23.886  1.00  0.00     0.014 C 
BRANCH   7   9
ATOM      9  C   UNL     1      20.155   8.675  23.620  1.00  0.00     0.044 C 
ATOM     10  O   UNL     1      21.157   9.174  24.196  1.00  0.00    -0.550 OA
ATOM     11  O   UNL     1      19.846   9.066  22.321  1.00  0.00    -0.550 OA
ENDBRANCH   7   9
ENDBRANCH   6   7
ENDBRANCH   5   6
ENDBRANCH   4   5
ENDBRANCH   3   4
ENDBRANCH   2   3
ENDBRANCH   1   2
BRANCH   1  12
ATOM     12  C   UNL     1      20.554   1.535  25.798  1.00  0.00     0.000 C 
BRANCH  12  13
ATOM     13  C   UNL     1      21.082   1.160  24.403  1.00  0.00    -0.000 C 
BRANCH  13  14
ATOM     14  C   UNL     1      21.614   2.376  23.624  1.00  0.00    -0.000 C 
BRANCH  14  15
ATOM     15  C   UNL     1      22.307   3.404  24.534  1.00  0.00    -0.000 C 
BRANCH  15  16
ATOM     16  C   UNL     1      23.775   3.038  24.824  1.00  0.00    -0.000 C 
BRANCH  16  17
ATOM     17  C   UNL     1      24.232   3.465  26.231  1.00  0.00    -0.000 C 
BRANCH  17  18
ATOM     18  C   UNL     1      23.143   4.126  27.096  1.00  0.00    -0.003 C 
ATOM     19  C   UNL     1      23.368   5.625  27.302  1.00  0.00     0.004 C 
ENDBRANCH  17  18
ENDBRANCH  16  17
ENDBRANCH  15  16
ENDBRANCH  14  15
ENDBRANCH  13  14
ENDBRANCH  12  13
ENDBRANCH   1  12
TORSDOF 14
ENDMDL
MODEL 4
REMARK VINA RESULT:    -3.396      1.382      2.874
REMARK INTER + INTRA:          -8.508
REMARK INTER:                  -6.143
REMARK INTRA:                  -2.365
REMARK UNBOUND:                -2.332
REMARK SMILES CCCCCCCCCCCCCC[C@H](C)C(=O)[O-]
REMARK SMILES IDX 9 1 10 2 11 3 12 4 13 5 14 6 15 7 16 8 17 9 18 10 19 11 8 12
REMARK SMILES IDX 7 13 6 14 5 15 4 16 3 17 2 18 1 19
REMARK H PARENT
REMARK Flexibility Score: inf
ROOT
ATOM      1  C   UNL     1      22.098   2.032  25.339  1.00  0.00     0.000 C 
ENDROOT
BRANCH   1   2
ATOM      2  C   UNL     1      21.277   2.349  24.078  1.00  0.00     0.000 C 
BRANCH   2   3
ATOM      3  C   UNL     1      21.334   3.836  23.688  1.00  0.00     0.000 C 
BRANCH   3   4
ATOM      4  C   UNL     1      20.064   4.601  24.092  1.00  0.00     0.000 C 
BRANCH   4   5
ATOM      5  C   UNL     1      20.282   6.124  24.163  1.00  0.00     0.001 C 
BRANCH   5   6
ATOM      6  C   UNL     1      18.962   6.911  24.013  1.00  0.00     0.009 C 
BRANCH   6   7
ATOM      7  C   UNL     1      19.088   8.408  24.372  1.00  0.00     0.032 C 
ATOM      8  C   UNL     1      17.783   9.180  24.143  1.00  0.00     0.014 C 
BRANCH   7   9
ATOM      9  C   UNL     1      20.191   9.036  23.563  1.00  0.00     0.044 C 
ATOM     10  O   UNL     1      20.045   9.216  22.326  1.00  0.00    -0.550 OA
ATOM     11  O   UNL     1      21.379   9.423  24.176  1.00  0.00    -0.550 OA
ENDBRANCH   7   9
ENDBRANCH   6   7
ENDBRANCH   5   6
ENDBRANCH   4   5
ENDBRANCH   3   4
ENDBRANCH   2   3
ENDBRANCH   1   2
BRANCH   1  12
ATOM     12  C   UNL     1      23.241   3.037  25.572  1.00  0.00     0.000 C 
BRANCH  12  13
ATOM     13  C   UNL     1      23.234   3.612  26.999  1.00  0.00    -0.000 C 
BRANCH  13  14
ATOM     14  C   UNL     1      22.257   4.791  27.157  1.00  0.00    -0.000 C 
BRANCH  14  15
ATOM     15  C   UNL     1      21.050   4.445  28.044  1.00  0.00    -0.000 C 
BRANCH  15  16
ATOM     16  C   UNL     1      19.822   5.321  27.735  1.00  0.00    -0.000 C 
BRANCH  16  17
ATOM     17  C   UNL     1      18.568   4.495  27.394  1.00  0.00    -0.000 C 
BRANCH  17  18
ATOM     18  C   UNL     1      18.704   2.979  27.626  1.00  0.00    -0.003 C 
ATOM     19  C   UNL     1      18.479   2.155  26.357  1.00  0.00     0.004 C 
ENDBRANCH  17  18
ENDBRANCH  16  17
ENDBRANCH  15  16
ENDBRANCH  14  15
ENDBRANCH  13  14
ENDBRANCH  12  13
ENDBRANCH   1  12
TORSDOF 14
ENDMDL
MODEL 5
REMARK VINA RESULT:    -3.359      1.406      3.431
REMARK INTER + INTRA:          -8.440
REMARK INTER:                  -5.950
REMARK INTRA:                  -2.490
REMARK UNBOUND:                -2.332
REMARK SMILES CCCCCCCCCCCCCC[C@H](C)C(=O)[O-]
REMARK SMILES IDX 9 1 10 2 11 3 12 4 13 5 14 6 15 7 16 8 17 9 18 10 19 11 8 12
REMARK SMILES IDX 7 13 6 14 5 15 4 16 3 17 2 18 1 19
REMARK H PARENT
REMARK Flexibility Score: inf
ROOT
ATOM      1  C   UNL     1      23.551   3.210  26.714  1.00  0.00     0.000 C 
ENDROOT
BRANCH   1   2
ATOM      2  C   UNL     1      23.897   4.702  26.850  1.00  0.00     0.000 C 
BRANCH   2   3
ATOM      3  C   UNL     1      22.655   5.587  27.047  1.00  0.00     0.000 C 
BRANCH   3   4
ATOM      4  C   UNL     1      23.013   7.022  27.465  1.00  0.00     0.000 C 
BRANCH   4   5
ATOM      5  C   UNL     1      22.131   8.081  26.776  1.00  0.00     0.001 C 
BRANCH   5   6
ATOM      6  C   UNL     1      20.786   7.495  26.293  1.00  0.00     0.009 C 
BRANCH   6   7
ATOM      7  C   UNL     1      19.912   8.508  25.520  1.00  0.00     0.032 C 
ATOM      8  C   UNL     1      18.418   8.171  25.595  1.00  0.00     0.014 C 
BRANCH   7   9
ATOM      9  C   UNL     1      20.343   8.560  24.079  1.00  0.00     0.044 C 
ATOM     10  O   UNL     1      19.865   7.748  23.245  1.00  0.00    -0.550 OA
ATOM     11  O   UNL     1      21.272   9.507  23.658  1.00  0.00    -0.550 OA
ENDBRANCH   7   9
ENDBRANCH   6   7
ENDBRANCH   5   6
ENDBRANCH   4   5
ENDBRANCH   3   4
ENDBRANCH   2   3
ENDBRANCH   1   2
BRANCH   1  12
ATOM     12  C   UNL     1      22.220   2.844  27.394  1.00  0.00     0.000 C 
BRANCH  12  13
ATOM     13  C   UNL     1      21.532   1.641  26.728  1.00  0.00    -0.000 C 
BRANCH  13  14
ATOM     14  C   UNL     1      21.993   1.424  25.276  1.00  0.00    -0.000 C 
BRANCH  14  15
ATOM     15  C   UNL     1      20.990   1.972  24.247  1.00  0.00    -0.000 C 
BRANCH  15  16
ATOM     16  C   UNL     1      21.379   3.369  23.732  1.00  0.00    -0.000 C 
BRANCH  16  17
ATOM     17  C   UNL     1      20.465   4.483  24.275  1.00  0.00    -0.000 C 
BRANCH  17  18
ATOM     18  C   UNL     1      19.170   3.992  24.949  1.00  0.00    -0.003 C 
ATOM     19  C   UNL     1      19.045   4.440  26.407  1.00  0.00     0.004 C 
ENDBRANCH  17  18
ENDBRANCH  16  17
ENDBRANCH  15  16
ENDBRANCH  14  15
ENDBRANCH  13  14
ENDBRANCH  12  13
ENDBRANCH   1  12
TORSDOF 14
ENDMDL
MODEL 6
REMARK VINA RESULT:    -3.358      1.784      3.710
REMARK INTER + INTRA:          -8.439
REMARK INTER:                  -5.859
REMARK INTRA:                  -2.580
REMARK UNBOUND:                -2.332
REMARK SMILES CCCCCCCCCCCCCC[C@H](C)C(=O)[O-]
REMARK SMILES IDX 9 1 10 2 11 3 12 4 13 5 14 6 15 7 16 8 17 9 18 10 19 11 8 12
REMARK SMILES IDX 7 13 6 14 5 15 4 16 3 17 2 18 1 19
REMARK H PARENT
REMARK Flexibility Score: inf
ROOT
ATOM      1  C   UNL     1      22.074   1.691  27.589  1.00  0.00     0.000 C 
ENDROOT
BRANCH   1   2
ATOM      2  C   UNL     1      23.106   2.831  27.615  1.00  0.00     0.000 C 
BRANCH   2   3
ATOM      3  C   UNL     1      22.466   4.209  27.856  1.00  0.00     0.000 C 
BRANCH   3   4
ATOM      4  C   UNL     1      23.471   5.361  27.701  1.00  0.00     0.000 C 
BRANCH   4   5
ATOM      5  C   UNL     1      22.787   6.719  27.452  1.00  0.00     0.001 C 
BRANCH   5   6
ATOM      6  C   UNL     1      21.394   6.560  26.803  1.00  0.00     0.009 C 
BRANCH   6   7
ATOM      7  C   UNL     1      20.999   7.741  25.888  1.00  0.00     0.032 C 
ATOM      8  C   UNL     1      20.703   9.022  26.676  1.00  0.00     0.014 C 
BRANCH   7   9
ATOM      9  C   UNL     1      19.796   7.368  25.065  1.00  0.00     0.044 C 
ATOM     10  O   UNL     1      18.694   7.131  25.626  1.00  0.00    -0.550 OA
ATOM     11  O   UNL     1      19.891   7.284  23.679  1.00  0.00    -0.550 OA
ENDBRANCH   7   9
ENDBRANCH   6   7
ENDBRANCH   5   6
ENDBRANCH   4   5
ENDBRANCH   3   4
ENDBRANCH   2   3
ENDBRANCH   1   2
BRANCH   1  12
ATOM     12  C   UNL     1      20.682   2.138  28.068  1.00  0.00     0.000 C 
BRANCH  12  13
ATOM     13  C   UNL     1      19.546   1.368  27.372  1.00  0.00    -0.000 C 
BRANCH  13  14
ATOM     14  C   UNL     1      18.565   2.298  26.637  1.00  0.00    -0.000 C 
BRANCH  14  15
ATOM     15  C   UNL     1      19.195   3.652  26.268  1.00  0.00    -0.000 C 
BRANCH  15  16
ATOM     16  C   UNL     1      19.556   3.745  24.774  1.00  0.00    -0.000 C 
BRANCH  16  17
ATOM     17  C   UNL     1      21.075   3.739  24.523  1.00  0.00    -0.000 C 
BRANCH  17  18
ATOM     18  C   UNL     1      21.583   2.592  23.630  1.00  0.00    -0.003 C 
ATOM     19  C   UNL     1      21.176   1.209  24.140  1.00  0.00     0.004 C 
ENDBRANCH  17  18
ENDBRANCH  16  17
ENDBRANCH  15  16
ENDBRANCH  14  15
ENDBRANCH  13  14
ENDBRANCH  12  13
ENDBRANCH   1  12
TORSDOF 14
ENDMDL
MODEL 7
REMARK VINA RESULT:    -3.346      1.569      2.855
REMARK INTER + INTRA:          -8.417
REMARK INTER:                  -6.454
REMARK INTRA:                  -1.964
REMARK UNBOUND:                -2.332
REMARK SMILES CCCCCCCCCCCCCC[C@H](C)C(=O)[O-]
REMARK SMILES IDX 9 1 10 2 11 3 12 4 13 5 14 6 15 7 16 8 17 9 18 10 19 11 8 12
REMARK SMILES IDX 7 13 6 14 5 15 4 16 3 17 2 18 1 19
REMARK H PARENT
REMARK Flexibility Score: inf
ROOT
ATOM      1  C   UNL     1      20.456   4.503  24.013  1.00  0.00     0.000 C 
ENDROOT
BRANCH   1   2
ATOM      2  C   UNL     1      20.505   5.620  25.068  1.00  0.00     0.000 C 
BRANCH   2   3
ATOM      3  C   UNL     1      19.107   6.055  25.542  1.00  0.00     0.000 C 
BRANCH   3   4
ATOM      4  C   UNL     1      19.145   7.329  26.401  1.00  0.00     0.000 C 
BRANCH   4   5
ATOM      5  C   UNL     1      18.094   8.369  25.971  1.00  0.00     0.001 C 
BRANCH   5   6
ATOM      6  C   UNL     1      18.741   9.641  25.380  1.00  0.00     0.009 C 
BRANCH   6   7
ATOM      7  C   UNL     1      18.590   9.758  23.846  1.00  0.00     0.032 C 
ATOM      8  C   UNL     1      17.497   8.837  23.292  1.00  0.00     0.014 C 
BRANCH   7   9
ATOM      9  C   UNL     1      19.901   9.440  23.179  1.00  0.00     0.044 C 
ATOM     10  O   UNL     1      20.005   9.504  21.926  1.00  0.00    -0.550 OA
ATOM     11  O   UNL     1      21.007   9.076  23.941  1.00  0.00    -0.550 OA
ENDBRANCH   7   9
ENDBRANCH   6   7
ENDBRANCH   5   6
ENDBRANCH   4   5
ENDBRANCH   3   4
ENDBRANCH   2   3
ENDBRANCH   1   2
BRANCH   1  12
ATOM     12  C   UNL     1      21.721   3.627  24.016  1.00  0.00     0.000 C 
BRANCH  12  13
ATOM     13  C   UNL     1      21.423   2.164  23.644  1.00  0.00    -0.000 C 
BRANCH  13  14
ATOM     14  C   UNL     1      21.487   1.220  24.857  1.00  0.00    -0.000 C 
BRANCH  14  15
ATOM     15  C   UNL     1      22.092   1.893  26.100  1.00  0.00    -0.000 C 
BRANCH  15  16
ATOM     16  C   UNL     1      21.200   1.738  27.346  1.00  0.00    -0.000 C 
BRANCH  16  17
ATOM     17  C   UNL     1      20.212   2.906  27.524  1.00  0.00    -0.000 C 
BRANCH  17  18
ATOM     18  C   UNL     1      18.777   2.623  27.045  1.00  0.00    -0.003 C 
ATOM     19  C   UNL     1      18.464   1.129  26.935  1.00  0.00     0.004 C 
ENDBRANCH  17  18
ENDBRANCH  16  17
ENDBRANCH  15  16
ENDBRANCH  14  15
ENDBRANCH  13  14
ENDBRANCH  12  13
ENDBRANCH   1  12
TORSDOF 14
ENDMDL
MODEL 8
REMARK VINA RESULT:    -3.333      1.661      3.695
REMARK INTER + INTRA:          -8.393
REMARK INTER:                  -5.774
REMARK INTRA:                  -2.619
REMARK UNBOUND:                -2.332
REMARK SMILES CCCCCCCCCCCCCC[C@H](C)C(=O)[O-]
REMARK SMILES IDX 9 1 10 2 11 3 12 4 13 5 14 6 15 7 16 8 17 9 18 10 19 11 8 12
REMARK SMILES IDX 7 13 6 14 5 15 4 16 3 17 2 18 1 19
REMARK H PARENT
REMARK Flexibility Score: inf
ROOT
ATOM      1  C   UNL     1      22.112   4.098  27.799  1.00  0.00     0.000 C 
ENDROOT
BRANCH   1   2
ATOM      2  C   UNL     1      22.352   5.499  27.212  1.00  0.00     0.000 C 
BRANCH   2   3
ATOM      3  C   UNL     1      21.046   6.264  26.942  1.00  0.00     0.000 C 
BRANCH   3   4
ATOM      4  C   UNL     1      19.796   5.435  27.277  1.00  0.00     0.000 C 
BRANCH   4   5
ATOM      5  C   UNL     1      18.487   6.133  26.860  1.00  0.00     0.001 C 
BRANCH   5   6
ATOM      6  C   UNL     1      18.733   7.279  25.854  1.00  0.00     0.009 C 
BRANCH   6   7
ATOM      7  C   UNL     1      18.552   6.857  24.379  1.00  0.00     0.032 C 
ATOM      8  C   UNL     1      19.804   7.121  23.534  1.00  0.00     0.014 C 
BRANCH   7   9
ATOM      9  C   UNL     1      17.379   7.586  23.780  1.00  0.00     0.044 C 
ATOM     10  O   UNL     1      17.400   8.840  23.673  1.00  0.00    -0.550 OA
ATOM     11  O   UNL     1      16.265   6.879  23.338  1.00  0.00    -0.550 OA
ENDBRANCH   7   9
ENDBRANCH   6   7
ENDBRANCH   5   6
ENDBRANCH   4   5
ENDBRANCH   3   4
ENDBRANCH   2   3
ENDBRANCH   1   2
BRANCH   1  12
ATOM     12  C   UNL     1      23.034   3.030  27.185  1.00  0.00     0.000 C 
BRANCH  12  13
ATOM     13  C   UNL     1      23.495   3.399  25.764  1.00  0.00    -0.000 C 
BRANCH  13  14
ATOM     14  C   UNL     1      22.657   2.710  24.673  1.00  0.00    -0.000 C 
BRANCH  14  15
ATOM     15  C   UNL     1      21.700   3.681  23.961  1.00  0.00    -0.000 C 
BRANCH  15  16
ATOM     16  C   UNL     1      20.236   3.493  24.400  1.00  0.00    -0.000 C 
BRANCH  16  17
ATOM     17  C   UNL     1      20.020   2.212  25.228  1.00  0.00    -0.000 C 
BRANCH  17  18
ATOM     18  C   UNL     1      18.723   2.184  26.057  1.00  0.00    -0.003 C 
ATOM     19  C   UNL     1      18.823   1.296  27.299  1.00  0.00     0.004 C 
ENDBRANCH  17  18
ENDBRANCH  16  17
ENDBRANCH  15  16
ENDBRANCH  14  15
ENDBRANCH  13  14
ENDBRANCH  12  13
ENDBRANCH   1  12
TORSDOF 14
ENDMDL
MODEL 9
REMARK VINA RESULT:    -3.307      1.130      3.041
REMARK INTER + INTRA:          -8.347
REMARK INTER:                  -6.374
REMARK INTRA:                  -1.973
REMARK UNBOUND:                -2.332
REMARK SMILES CCCCCCCCCCCCCC[C@H](C)C(=O)[O-]
REMARK SMILES IDX 9 1 10 2 11 3 12 4 13 5 14 6 15 7 16 8 17 9 18 10 19 11 8 12
REMARK SMILES IDX 7 13 6 14 5 15 4 16 3 17 2 18 1 19
REMARK H PARENT
REMARK Flexibility Score: inf
ROOT
ATOM      1  C   UNL     1      21.805   5.271  27.676  1.00  0.00     0.000 C 
ENDROOT
BRANCH   1   2
ATOM      2  C   UNL     1      20.892   6.195  26.853  1.00  0.00     0.000 C 
BRANCH   2   3
ATOM      3  C   UNL     1      19.558   5.531  26.474  1.00  0.00     0.000 C 
BRANCH   3   4
ATOM      4  C   UNL     1      18.407   6.543  26.357  1.00  0.00     0.000 C 
BRANCH   4   5
ATOM      5  C   UNL     1      18.794   7.794  25.546  1.00  0.00     0.001 C 
BRANCH   5   6
ATOM      6  C   UNL     1      19.042   7.470  24.056  1.00  0.00     0.009 C 
BRANCH   6   7
ATOM      7  C   UNL     1      20.129   8.353  23.403  1.00  0.00     0.032 C 
ATOM      8  C   UNL     1      21.015   9.057  24.438  1.00  0.00     0.014 C 
BRANCH   7   9
ATOM      9  C   UNL     1      19.485   9.380  22.512  1.00  0.00     0.044 C 
ATOM     10  O   UNL     1      19.985   9.645  21.387  1.00  0.00    -0.550 OA
ATOM     11  O   UNL     1      18.332  10.041  22.922  1.00  0.00    -0.550 OA
ENDBRANCH   7   9
ENDBRANCH   6   7
ENDBRANCH   5   6
ENDBRANCH   4   5
ENDBRANCH   3   4
ENDBRANCH   2   3
ENDBRANCH   1   2
BRANCH   1  12
ATOM     12  C   UNL     1      23.147   4.988  26.979  1.00  0.00     0.000 C 
BRANCH  12  13
ATOM     13  C   UNL     1      23.518   3.495  27.005  1.00  0.00    -0.000 C 
BRANCH  13  14
ATOM     14  C   UNL     1      22.560   2.662  27.875  1.00  0.00    -0.000 C 
BRANCH  14  15
ATOM     15  C   UNL     1      21.934   1.486  27.107  1.00  0.00    -0.000 C 
BRANCH  15  16
ATOM     16  C   UNL     1      20.900   1.948  26.065  1.00  0.00    -0.000 C 
BRANCH  16  17
ATOM     17  C   UNL     1      21.127   1.320  24.677  1.00  0.00    -0.000 C 
BRANCH  17  18
ATOM     18  C   UNL     1      21.642   2.292  23.599  1.00  0.00    -0.003 C 
ATOM     19  C   UNL     1      21.306   3.754  23.899  1.00  0.00     0.004 C 
ENDBRANCH  17  18
ENDBRANCH  16  17
ENDBRANCH  15  16
ENDBRANCH  14  15
ENDBRANCH  13  14
ENDBRANCH  12  13
ENDBRANCH   1  12
TORSDOF 14
ENDMDL
