MODEL 1
REMARK VINA RESULT:    -3.463      0.000      0.000
REMARK INTER + INTRA:          -4.185
REMARK INTER:                  -4.071
REMARK INTRA:                  -0.115
REMARK UNBOUND:                -0.115
REMARK SMILES O=C([O-])CCC(=O)[O-]
REMARK SMILES IDX 4 1 2 2 1 3 3 4 5 5 6 6 7 7 8 8
REMARK H PARENT
REMARK Flexibility Score: inf
ROOT
ATOM      1  C   UNL     1      16.294  42.952   5.942  1.00  0.00     0.059 C 
ENDROOT
BRANCH   1   2
ATOM      2  C   UNL     1      17.131  43.734   6.909  1.00  0.00     0.042 C 
ATOM      3  O   UNL     1      17.756  43.143   7.827  1.00  0.00    -0.550 OA
ATOM      4  O   UNL     1      17.187  45.120   6.818  1.00  0.00    -0.550 OA
ENDBRANCH   1   2
BRANCH   1   5
ATOM      5  C   UNL     1      16.604  43.332   4.491  1.00  0.00     0.059 C 
BRANCH   5   6
ATOM      6  C   UNL     1      15.458  44.061   3.855  1.00  0.00     0.042 C 
ATOM      7  O   UNL     1      15.459  45.318   3.800  1.00  0.00    -0.550 OA
ATOM      8  O   UNL     1      14.410  43.346   3.290  1.00  0.00    -0.550 OA
ENDBRANCH   5   6
ENDBRANCH   1   5
TORSDOF 3
ENDMDL
MODEL 2
REMARK VINA RESULT:    -3.456     12.612     13.356
REMARK INTER + INTRA:          -4.177
REMARK INTER:                  -4.069
REMARK INTRA:                  -0.107
REMARK UNBOUND:                -0.115
REMARK SMILES O=C([O-])CCC(=O)[O-]
REMARK SMILES IDX 4 1 2 2 1 3 3 4 5 5 6 6 7 7 8 8
REMARK H PARENT
REMARK Flexibility Score: inf
ROOT
ATOM      1  C   UNL     1       6.185  39.577  -1.375  1.00  0.00     0.059 C 
ENDROOT
BRANCH   1   2
ATOM      2  C   UNL     1       6.600  40.376  -2.573  1.00  0.00     0.042 C 
ATOM      3  O   UNL     1       6.317  39.973  -3.732  1.00  0.00    -0.550 OA
ATOM      4  O   UNL     1       7.333  41.545  -2.409  1.00  0.00    -0.550 OA
ENDBRANCH   1   2
BRANCH   1   5
ATOM      5  C   UNL     1       4.741  39.884  -0.964  1.00  0.00     0.059 C 
BRANCH   5   6
ATOM      6  C   UNL     1       4.683  40.595   0.354  1.00  0.00     0.042 C 
ATOM      7  O   UNL     1       4.144  40.044   1.349  1.00  0.00    -0.550 OA
ATOM      8  O   UNL     1       5.260  41.852   0.491  1.00  0.00    -0.550 OA
ENDBRANCH   5   6
ENDBRANCH   1   5
TORSDOF 3
ENDMDL
MODEL 3
REMARK VINA RESULT:    -3.455      2.331      4.165
REMARK INTER + INTRA:          -4.175
REMARK INTER:                  -4.062
REMARK INTRA:                  -0.113
REMARK UNBOUND:                -0.115
REMARK SMILES O=C([O-])CCC(=O)[O-]
REMARK SMILES IDX 4 1 2 2 1 3 3 4 5 5 6 6 7 7 8 8
REMARK H PARENT
REMARK Flexibility Score: inf
ROOT
ATOM      1  C   UNL     1      14.469  45.268   3.628  1.00  0.00     0.059 C 
ENDROOT
BRANCH   1   2
ATOM      2  C   UNL     1      13.011  45.353   3.960  1.00  0.00     0.042 C 
ATOM      3  O   UNL     1      12.436  44.394   4.539  1.00  0.00    -0.550 OA
ATOM      4  O   UNL     1      12.278  46.476   3.595  1.00  0.00    -0.550 OA
ENDBRANCH   1   2
BRANCH   1   5
ATOM      5  C   UNL     1      14.924  43.815   3.454  1.00  0.00     0.059 C 
BRANCH   5   6
ATOM      6  C   UNL     1      15.952  43.433   4.476  1.00  0.00     0.042 C 
ATOM      7  O   UNL     1      17.171  43.398   4.167  1.00  0.00    -0.550 OA
ATOM      8  O   UNL     1      15.563  43.153   5.780  1.00  0.00    -0.550 OA
ENDBRANCH   5   6
ENDBRANCH   1   5
TORSDOF 3
ENDMDL
MODEL 4
REMARK VINA RESULT:    -3.452      2.354      3.122
REMARK INTER + INTRA:          -4.172
REMARK INTER:                  -4.061
REMARK INTRA:                  -0.112
REMARK UNBOUND:                -0.115
REMARK SMILES O=C([O-])CCC(=O)[O-]
REMARK SMILES IDX 4 1 2 2 1 3 3 4 5 5 6 6 7 7 8 8
REMARK H PARENT
REMARK Flexibility Score: inf
ROOT
ATOM      1  C   UNL     1      14.904  43.788   3.541  1.00  0.00     0.059 C 
ENDROOT
BRANCH   1   2
ATOM      2  C   UNL     1      15.895  43.404   4.599  1.00  0.00     0.042 C 
ATOM      3  O   UNL     1      17.125  43.383   4.335  1.00  0.00    -0.550 OA
ATOM      4  O   UNL     1      15.454  43.033   5.863  1.00  0.00    -0.550 OA
ENDBRANCH   1   2
BRANCH   1   5
ATOM      5  C   UNL     1      14.463  45.248   3.684  1.00  0.00     0.059 C 
BRANCH   5   6
ATOM      6  C   UNL     1      12.997  45.356   3.974  1.00  0.00     0.042 C 
ATOM      7  O   UNL     1      12.415  44.461   4.640  1.00  0.00    -0.550 OA
ATOM      8  O   UNL     1      12.283  46.466   3.541  1.00  0.00    -0.550 OA
ENDBRANCH   5   6
ENDBRANCH   1   5
TORSDOF 3
ENDMDL
MODEL 5
REMARK VINA RESULT:    -3.448      0.263      1.173
REMARK INTER + INTRA:          -4.167
REMARK INTER:                  -4.058
REMARK INTRA:                  -0.110
REMARK UNBOUND:                -0.115
REMARK SMILES O=C([O-])CCC(=O)[O-]
REMARK SMILES IDX 4 1 2 2 1 3 3 4 5 5 6 6 7 7 8 8
REMARK H PARENT
REMARK Flexibility Score: inf
ROOT
ATOM      1  C   UNL     1      16.393  42.961   6.113  1.00  0.00     0.059 C 
ENDROOT
BRANCH   1   2
ATOM      2  C   UNL     1      17.252  43.685   7.104  1.00  0.00     0.042 C 
ATOM      3  O   UNL     1      17.440  44.925   6.992  1.00  0.00    -0.550 OA
ATOM      4  O   UNL     1      17.877  42.983   8.127  1.00  0.00    -0.550 OA
ENDBRANCH   1   2
BRANCH   1   5
ATOM      5  C   UNL     1      16.752  43.339   4.672  1.00  0.00     0.059 C 
BRANCH   5   6
ATOM      6  C   UNL     1      15.626  44.060   3.994  1.00  0.00     0.042 C 
ATOM      7  O   UNL     1      15.617  45.318   3.945  1.00  0.00    -0.550 OA
ATOM      8  O   UNL     1      14.608  43.339   3.383  1.00  0.00    -0.550 OA
ENDBRANCH   5   6
ENDBRANCH   1   5
TORSDOF 3
ENDMDL
MODEL 6
REMARK VINA RESULT:    -3.445     12.604     12.948
REMARK INTER + INTRA:          -4.164
REMARK INTER:                  -4.050
REMARK INTRA:                  -0.113
REMARK UNBOUND:                -0.115
REMARK SMILES O=C([O-])CCC(=O)[O-]
REMARK SMILES IDX 4 1 2 2 1 3 3 4 5 5 6 6 7 7 8 8
REMARK H PARENT
REMARK Flexibility Score: inf
ROOT
ATOM      1  C   UNL     1       4.805  39.974  -0.961  1.00  0.00     0.059 C 
ENDROOT
BRANCH   1   2
ATOM      2  C   UNL     1       4.765  40.580   0.409  1.00  0.00     0.042 C 
ATOM      3  O   UNL     1       4.247  39.947   1.366  1.00  0.00    -0.550 OA
ATOM      4  O   UNL     1       5.264  41.860   0.619  1.00  0.00    -0.550 OA
ENDBRANCH   1   2
BRANCH   1   5
ATOM      5  C   UNL     1       6.140  39.272  -1.230  1.00  0.00     0.059 C 
BRANCH   5   6
ATOM      6  C   UNL     1       6.902  39.940  -2.334  1.00  0.00     0.042 C 
ATOM      7  O   UNL     1       6.925  41.196  -2.419  1.00  0.00    -0.550 OA
ATOM      8  O   UNL     1       7.618  39.174  -3.245  1.00  0.00    -0.550 OA
ENDBRANCH   5   6
ENDBRANCH   1   5
TORSDOF 3
ENDMDL
MODEL 7
REMARK VINA RESULT:    -3.435      0.378      3.946
REMARK INTER + INTRA:          -4.153
REMARK INTER:                  -4.031
REMARK INTRA:                  -0.122
REMARK UNBOUND:                -0.115
REMARK SMILES O=C([O-])CCC(=O)[O-]
REMARK SMILES IDX 4 1 2 2 1 3 3 4 5 5 6 6 7 7 8 8
REMARK H PARENT
REMARK Flexibility Score: inf
ROOT
ATOM      1  C   UNL     1      16.679  43.346   4.726  1.00  0.00     0.059 C 
ENDROOT
BRANCH   1   2
ATOM      2  C   UNL     1      15.536  44.098   4.113  1.00  0.00     0.042 C 
ATOM      3  O   UNL     1      15.341  45.305   4.411  1.00  0.00    -0.550 OA
ATOM      4  O   UNL     1      14.665  43.454   3.243  1.00  0.00    -0.550 OA
ENDBRANCH   1   2
BRANCH   1   5
ATOM      5  C   UNL     1      16.377  42.943   6.173  1.00  0.00     0.059 C 
BRANCH   5   6
ATOM      6  C   UNL     1      17.285  43.641   7.140  1.00  0.00     0.042 C 
ATOM      7  O   UNL     1      17.510  44.873   7.022  1.00  0.00    -0.550 OA
ATOM      8  O   UNL     1      17.849  42.936   8.196  1.00  0.00    -0.550 OA
ENDBRANCH   5   6
ENDBRANCH   1   5
TORSDOF 3
ENDMDL
MODEL 8
REMARK VINA RESULT:    -3.432      0.849      3.696
REMARK INTER + INTRA:          -4.149
REMARK INTER:                  -4.003
REMARK INTRA:                  -0.146
REMARK UNBOUND:                -0.115
REMARK SMILES O=C([O-])CCC(=O)[O-]
REMARK SMILES IDX 4 1 2 2 1 3 3 4 5 5 6 6 7 7 8 8
REMARK H PARENT
REMARK Flexibility Score: inf
ROOT
ATOM      1  C   UNL     1      16.581  43.409   4.352  1.00  0.00     0.059 C 
ENDROOT
BRANCH   1   2
ATOM      2  C   UNL     1      15.321  44.010   3.808  1.00  0.00     0.042 C 
ATOM      3  O   UNL     1      14.355  43.269   3.487  1.00  0.00    -0.550 OA
ATOM      4  O   UNL     1      15.228  45.383   3.619  1.00  0.00    -0.550 OA
ENDBRANCH   1   2
BRANCH   1   5
ATOM      5  C   UNL     1      16.425  43.004   5.822  1.00  0.00     0.059 C 
BRANCH   5   6
ATOM      6  C   UNL     1      16.308  44.202   6.715  1.00  0.00     0.042 C 
ATOM      7  O   UNL     1      15.224  44.451   7.303  1.00  0.00    -0.550 OA
ATOM      8  O   UNL     1      17.411  45.020   6.927  1.00  0.00    -0.550 OA
ENDBRANCH   5   6
ENDBRANCH   1   5
TORSDOF 3
ENDMDL
MODEL 9
REMARK VINA RESULT:    -3.417      2.260      3.955
REMARK INTER + INTRA:          -4.131
REMARK INTER:                  -3.942
REMARK INTRA:                  -0.189
REMARK UNBOUND:                -0.115
REMARK SMILES O=C([O-])CCC(=O)[O-]
REMARK SMILES IDX 4 1 2 2 1 3 3 4 5 5 6 6 7 7 8 8
REMARK H PARENT
REMARK Flexibility Score: inf
ROOT
ATOM      1  C   UNL     1      14.875  45.244   3.621  1.00  0.00     0.059 C 
ENDROOT
BRANCH   1   2
ATOM      2  C   UNL     1      13.647  45.866   4.212  1.00  0.00     0.042 C 
ATOM      3  O   UNL     1      12.516  45.638   3.707  1.00  0.00    -0.550 OA
ATOM      4  O   UNL     1      13.756  46.729   5.295  1.00  0.00    -0.550 OA
ENDBRANCH   1   2
BRANCH   1   5
ATOM      5  C   UNL     1      14.890  43.724   3.819  1.00  0.00     0.059 C 
BRANCH   5   6
ATOM      6  C   UNL     1      14.854  43.358   5.272  1.00  0.00     0.042 C 
ATOM      7  O   UNL     1      15.787  43.711   6.039  1.00  0.00    -0.550 OA
ATOM      8  O   UNL     1      13.768  42.659   5.785  1.00  0.00    -0.550 OA
ENDBRANCH   5   6
ENDBRANCH   1   5
TORSDOF 3
ENDMDL
