MODEL 1
REMARK VINA RESULT:    -5.908      0.000      0.000
REMARK INTER + INTRA:          -9.173
REMARK INTER:                  -8.153
REMARK INTRA:                  -1.021
REMARK UNBOUND:                -1.021
REMARK SMILES O=C([O-])[C@H]1O[C@@H](Oc2cc3oc(-c4ccccc4)cc(=O)c3c(O)c2O)[C@H](O)[C@@H](O)[C@H]1O
REMARK SMILES IDX 7 1 6 2 4 3 31 4 5 5 29 6 27 7 2 8 1 9 3 10 32 11 30 13
REMARK SMILES IDX 28 15 8 17 25 18 9 19 23 20 10 21 22 22 11 23 20 24 12 25
REMARK SMILES IDX 19 26 21 27 26 28 24 30 13 32 14 33 18 34 15 35 17 36 16 37
REMARK H PARENT 32 12 30 14 28 16 26 29 24 31
REMARK Flexibility Score: inf
ROOT
ATOM      1  O   UNL     1      18.502  19.794   6.701  1.00  0.00    -0.458 OA
ENDROOT
BRANCH   1   2
ATOM      2  C   UNL     1      18.167  20.853   5.802  1.00  0.00     0.339 C 
ATOM      3  C   UNL     1      17.475  23.077   5.678  1.00  0.00     0.199 C 
ATOM      4  C   UNL     1      16.265  22.773   4.769  1.00  0.00     0.180 C 
ATOM      5  O   UNL     1      17.721  21.979   6.542  1.00  0.00    -0.328 OA
ATOM      6  C   UNL     1      16.547  21.496   3.952  1.00  0.00     0.181 C 
ATOM      7  C   UNL     1      17.037  20.359   4.875  1.00  0.00     0.214 C 
BRANCH   3   8
ATOM      8  C   UNL     1      17.256  24.315   6.503  1.00  0.00     0.073 C 
ATOM      9  O   UNL     1      16.174  24.485   7.125  1.00  0.00    -0.547 OA
ATOM     10  O   UNL     1      18.207  25.329   6.500  1.00  0.00    -0.547 OA
ENDBRANCH   3   8
BRANCH   4  11
ATOM     11  O   UNL     1      15.108  22.611   5.552  1.00  0.00    -0.387 OA
ATOM     12  H   UNL     1      14.917  21.641   5.589  1.00  0.00     0.211 HD
ENDBRANCH   4  11
BRANCH   6  13
ATOM     13  O   UNL     1      15.377  21.103   3.278  1.00  0.00    -0.387 OA
ATOM     14  H   UNL     1      14.858  21.928   3.086  1.00  0.00     0.211 HD
ENDBRANCH   6  13
BRANCH   7  15
ATOM     15  O   UNL     1      17.455  19.243   4.123  1.00  0.00    -0.384 OA
ATOM     16  H   UNL     1      16.639  18.776   3.798  1.00  0.00     0.211 HD
ENDBRANCH   7  15
ENDBRANCH   1   2
BRANCH   1  17
ATOM     17  C   UNL     1      19.750  19.164   6.801  1.00  0.00     0.172 A 
ATOM     18  C   UNL     1      19.905  17.768   6.899  1.00  0.00     0.201 A 
ATOM     19  C   UNL     1      20.874  19.983   6.811  1.00  0.00     0.098 A 
ATOM     20  C   UNL     1      21.195  17.194   6.962  1.00  0.00     0.176 A 
ATOM     21  C   UNL     1      22.158  19.439   6.836  1.00  0.00     0.146 A 
ATOM     22  C   UNL     1      22.348  18.036   6.887  1.00  0.00     0.111 A 
ATOM     23  O   UNL     1      23.191  20.272   6.784  1.00  0.00    -0.456 OA
ATOM     24  C   UNL     1      23.687  17.579   6.809  1.00  0.00     0.197 A 
ATOM     25  C   UNL     1      24.460  19.873   6.760  1.00  0.00     0.138 A 
ATOM     26  C   UNL     1      24.738  18.499   6.770  1.00  0.00     0.100 A 
ATOM     27  O   UNL     1      23.973  16.356   6.735  1.00  0.00    -0.289 OA
BRANCH  18  28
ATOM     28  O   UNL     1      18.771  16.952   6.969  1.00  0.00    -0.502 OA
ATOM     29  H   UNL     1      18.629  16.274   7.708  1.00  0.00     0.293 HD
ENDBRANCH  18  28
BRANCH  20  30
ATOM     30  O   UNL     1      21.266  15.806   7.125  1.00  0.00    -0.504 OA
ATOM     31  H   UNL     1      20.567  15.140   6.833  1.00  0.00     0.293 HD
ENDBRANCH  20  30
BRANCH  25  32
ATOM     32  C   UNL     1      25.530  20.910   6.739  1.00  0.00     0.017 A 
ATOM     33  C   UNL     1      25.193  22.250   7.015  1.00  0.00     0.012 A 
ATOM     34  C   UNL     1      26.874  20.605   6.442  1.00  0.00     0.012 A 
ATOM     35  C   UNL     1      26.166  23.253   7.001  1.00  0.00     0.001 A 
ATOM     36  C   UNL     1      27.844  21.614   6.418  1.00  0.00     0.001 A 
ATOM     37  C   UNL     1      27.490  22.935   6.700  1.00  0.00     0.000 A 
ENDBRANCH  25  32
ENDBRANCH   1  17
TORSDOF 9
ENDMDL
MODEL 2
REMARK VINA RESULT:    -5.643      2.625      7.903
REMARK INTER + INTRA:          -8.808
REMARK INTER:                  -7.850
REMARK INTRA:                  -0.958
REMARK UNBOUND:                -1.021
REMARK SMILES O=C([O-])[C@H]1O[C@@H](Oc2cc3oc(-c4ccccc4)cc(=O)c3c(O)c2O)[C@H](O)[C@@H](O)[C@H]1O
REMARK SMILES IDX 7 1 6 2 4 3 31 4 5 5 29 6 27 7 2 8 1 9 3 10 32 11 30 13
REMARK SMILES IDX 28 15 8 17 25 18 9 19 23 20 10 21 22 22 11 23 20 24 12 25
REMARK SMILES IDX 19 26 21 27 26 28 24 30 13 32 14 33 18 34 15 35 17 36 16 37
REMARK H PARENT 32 12 30 14 28 16 26 29 24 31
REMARK Flexibility Score: inf
ROOT
ATOM      1  O   UNL     1      23.884  19.946   7.043  1.00  0.00    -0.458 OA
ENDROOT
BRANCH   1   2
ATOM      2  C   UNL     1      24.680  20.765   6.184  1.00  0.00     0.339 C 
ATOM      3  C   UNL     1      24.724  21.857   4.124  1.00  0.00     0.199 C 
ATOM      4  C   UNL     1      26.042  21.195   3.668  1.00  0.00     0.180 C 
ATOM      5  O   UNL     1      23.997  20.968   4.957  1.00  0.00    -0.328 OA
ATOM      6  C   UNL     1      26.876  20.812   4.905  1.00  0.00     0.181 C 
ATOM      7  C   UNL     1      26.013  20.033   5.923  1.00  0.00     0.214 C 
BRANCH   3   8
ATOM      8  C   UNL     1      23.864  22.252   2.955  1.00  0.00     0.073 C 
ATOM      9  O   UNL     1      23.674  21.451   2.002  1.00  0.00    -0.547 OA
ATOM     10  O   UNL     1      23.358  23.544   2.870  1.00  0.00    -0.547 OA
ENDBRANCH   3   8
BRANCH   4  11
ATOM     11  O   UNL     1      25.761  20.057   2.891  1.00  0.00    -0.387 OA
ATOM     12  H   UNL     1      26.630  19.693   2.588  1.00  0.00     0.211 HD
ENDBRANCH   4  11
BRANCH   6  13
ATOM     13  O   UNL     1      27.976  20.032   4.507  1.00  0.00    -0.387 OA
ATOM     14  H   UNL     1      27.861  19.837   3.539  1.00  0.00     0.211 HD
ENDBRANCH   6  13
BRANCH   7  15
ATOM     15  O   UNL     1      26.716  19.823   7.125  1.00  0.00    -0.384 OA
ATOM     16  H   UNL     1      26.153  20.169   7.868  1.00  0.00     0.211 HD
ENDBRANCH   7  15
ENDBRANCH   1   2
BRANCH   1  17
ATOM     17  C   UNL     1      22.884  19.053   6.633  1.00  0.00     0.172 A 
ATOM     18  C   UNL     1      23.082  17.662   6.541  1.00  0.00     0.201 A 
ATOM     19  C   UNL     1      21.648  19.596   6.297  1.00  0.00     0.098 A 
ATOM     20  C   UNL     1      22.020  16.813   6.152  1.00  0.00     0.176 A 
ATOM     21  C   UNL     1      20.576  18.776   5.948  1.00  0.00     0.146 A 
ATOM     22  C   UNL     1      20.729  17.369   5.891  1.00  0.00     0.111 A 
ATOM     23  O   UNL     1      19.405  19.352   5.695  1.00  0.00    -0.456 OA
ATOM     24  C   UNL     1      19.558  16.618   5.622  1.00  0.00     0.197 A 
ATOM     25  C   UNL     1      18.301  18.675   5.392  1.00  0.00     0.138 A 
ATOM     26  C   UNL     1      18.354  17.274   5.351  1.00  0.00     0.100 A 
ATOM     27  O   UNL     1      19.548  15.361   5.656  1.00  0.00    -0.289 OA
BRANCH  18  28
ATOM     28  O   UNL     1      24.347  17.127   6.801  1.00  0.00    -0.502 OA
ATOM     29  H   UNL     1      25.204  17.582   6.513  1.00  0.00     0.293 HD
ENDBRANCH  18  28
BRANCH  20  30
ATOM     30  O   UNL     1      22.312  15.451   6.020  1.00  0.00    -0.504 OA
ATOM     31  H   UNL     1      22.592  14.831   6.764  1.00  0.00     0.293 HD
ENDBRANCH  20  30
BRANCH  25  32
ATOM     32  C   UNL     1      17.058  19.441   5.094  1.00  0.00     0.017 A 
ATOM     33  C   UNL     1      15.875  18.739   4.791  1.00  0.00     0.012 A 
ATOM     34  C   UNL     1      17.020  20.850   5.094  1.00  0.00     0.012 A 
ATOM     35  C   UNL     1      14.690  19.421   4.500  1.00  0.00     0.001 A 
ATOM     36  C   UNL     1      15.834  21.530   4.793  1.00  0.00     0.001 A 
ATOM     37  C   UNL     1      14.670  20.816   4.499  1.00  0.00     0.000 A 
ENDBRANCH  25  32
ENDBRANCH   1  17
TORSDOF 9
ENDMDL
MODEL 3
REMARK VINA RESULT:    -5.516      1.126      1.722
REMARK INTER + INTRA:          -8.633
REMARK INTER:                  -7.411
REMARK INTRA:                  -1.222
REMARK UNBOUND:                -1.021
REMARK SMILES O=C([O-])[C@H]1O[C@@H](Oc2cc3oc(-c4ccccc4)cc(=O)c3c(O)c2O)[C@H](O)[C@@H](O)[C@H]1O
REMARK SMILES IDX 7 1 6 2 4 3 31 4 5 5 29 6 27 7 2 8 1 9 3 10 32 11 30 13
REMARK SMILES IDX 28 15 8 17 25 18 9 19 23 20 10 21 22 22 11 23 20 24 12 25
REMARK SMILES IDX 19 26 21 27 26 28 24 30 13 32 14 33 18 34 15 35 17 36 16 37
REMARK H PARENT 32 12 30 14 28 16 26 29 24 31
REMARK Flexibility Score: inf
ROOT
ATOM      1  O   UNL     1      18.452  19.681   6.664  1.00  0.00    -0.458 OA
ENDROOT
BRANCH   1   2
ATOM      2  C   UNL     1      17.812  20.121   5.465  1.00  0.00     0.339 C 
ATOM      3  C   UNL     1      16.481  21.798   4.540  1.00  0.00     0.199 C 
ATOM      4  C   UNL     1      15.417  20.818   4.000  1.00  0.00     0.180 C 
ATOM      5  O   UNL     1      17.048  21.286   5.735  1.00  0.00    -0.328 OA
ATOM      6  C   UNL     1      16.069  19.446   3.742  1.00  0.00     0.181 C 
ATOM      7  C   UNL     1      16.882  18.991   4.975  1.00  0.00     0.214 C 
BRANCH   3   8
ATOM      8  C   UNL     1      15.900  23.158   4.813  1.00  0.00     0.073 C 
ATOM      9  O   UNL     1      16.493  23.965   5.577  1.00  0.00    -0.547 OA
ATOM     10  O   UNL     1      14.649  23.493   4.307  1.00  0.00    -0.547 OA
ENDBRANCH   3   8
BRANCH   4  11
ATOM     11  O   UNL     1      14.364  20.698   4.925  1.00  0.00    -0.387 OA
ATOM     12  H   UNL     1      14.148  21.613   5.236  1.00  0.00     0.211 HD
ENDBRANCH   4  11
BRANCH   6  13
ATOM     13  O   UNL     1      15.071  18.501   3.445  1.00  0.00    -0.387 OA
ATOM     14  H   UNL     1      15.530  17.639   3.259  1.00  0.00     0.211 HD
ENDBRANCH   6  13
BRANCH   7  15
ATOM     15  O   UNL     1      17.615  17.822   4.693  1.00  0.00    -0.384 OA
ATOM     16  H   UNL     1      17.615  17.261   5.514  1.00  0.00     0.211 HD
ENDBRANCH   7  15
ENDBRANCH   1   2
BRANCH   1  17
ATOM     17  C   UNL     1      19.780  19.245   6.775  1.00  0.00     0.172 A 
ATOM     18  C   UNL     1      20.142  17.888   6.880  1.00  0.00     0.201 A 
ATOM     19  C   UNL     1      20.769  20.223   6.788  1.00  0.00     0.098 A 
ATOM     20  C   UNL     1      21.503  17.515   6.955  1.00  0.00     0.176 A 
ATOM     21  C   UNL     1      22.119  19.878   6.823  1.00  0.00     0.146 A 
ATOM     22  C   UNL     1      22.518  18.519   6.883  1.00  0.00     0.111 A 
ATOM     23  O   UNL     1      23.017  20.857   6.774  1.00  0.00    -0.456 OA
ATOM     24  C   UNL     1      23.910  18.268   6.815  1.00  0.00     0.197 A 
ATOM     25  C   UNL     1      24.331  20.652   6.759  1.00  0.00     0.138 A 
ATOM     26  C   UNL     1      24.812  19.335   6.777  1.00  0.00     0.100 A 
ATOM     27  O   UNL     1      24.376  17.102   6.748  1.00  0.00    -0.289 OA
BRANCH  18  28
ATOM     28  O   UNL     1      19.142  16.912   6.948  1.00  0.00    -0.502 OA
ATOM     29  H   UNL     1      19.193  16.041   6.434  1.00  0.00     0.293 HD
ENDBRANCH  18  28
BRANCH  20  30
ATOM     30  O   UNL     1      21.779  16.153   7.124  1.00  0.00    -0.504 OA
ATOM     31  H   UNL     1      22.644  15.692   6.891  1.00  0.00     0.293 HD
ENDBRANCH  20  30
BRANCH  25  32
ATOM     32  C   UNL     1      25.233  21.837   6.740  1.00  0.00     0.017 A 
ATOM     33  C   UNL     1      26.608  21.658   6.988  1.00  0.00     0.012 A 
ATOM     34  C   UNL     1      24.763  23.143   6.491  1.00  0.00     0.012 A 
ATOM     35  C   UNL     1      27.487  22.745   6.984  1.00  0.00     0.001 A 
ATOM     36  C   UNL     1      25.644  24.231   6.498  1.00  0.00     0.001 A 
ATOM     37  C   UNL     1      27.004  24.031   6.741  1.00  0.00     0.000 A 
ENDBRANCH  25  32
ENDBRANCH   1  17
TORSDOF 9
ENDMDL
MODEL 4
REMARK VINA RESULT:    -5.182      3.599      7.440
REMARK INTER + INTRA:          -8.172
REMARK INTER:                  -6.834
REMARK INTRA:                  -1.338
REMARK UNBOUND:                -1.021
REMARK SMILES O=C([O-])[C@H]1O[C@@H](Oc2cc3oc(-c4ccccc4)cc(=O)c3c(O)c2O)[C@H](O)[C@@H](O)[C@H]1O
REMARK SMILES IDX 7 1 6 2 4 3 31 4 5 5 29 6 27 7 2 8 1 9 3 10 32 11 30 13
REMARK SMILES IDX 28 15 8 17 25 18 9 19 23 20 10 21 22 22 11 23 20 24 12 25
REMARK SMILES IDX 19 26 21 27 26 28 24 30 13 32 14 33 18 34 15 35 17 36 16 37
REMARK H PARENT 32 12 30 14 28 16 26 29 24 31
REMARK Flexibility Score: inf
ROOT
ATOM      1  O   UNL     1      24.638  24.142   5.301  1.00  0.00    -0.458 OA
ENDROOT
BRANCH   1   2
ATOM      2  C   UNL     1      24.319  25.154   6.257  1.00  0.00     0.339 C 
ATOM      3  C   UNL     1      22.659  26.635   6.958  1.00  0.00     0.199 C 
ATOM      4  C   UNL     1      23.573  27.877   6.887  1.00  0.00     0.180 C 
ATOM      5  O   UNL     1      23.041  25.696   5.965  1.00  0.00    -0.328 OA
ATOM      6  C   UNL     1      25.039  27.446   7.087  1.00  0.00     0.181 C 
ATOM      7  C   UNL     1      25.389  26.262   6.159  1.00  0.00     0.214 C 
BRANCH   3   8
ATOM      8  C   UNL     1      21.212  26.995   6.766  1.00  0.00     0.073 C 
ATOM      9  O   UNL     1      20.393  26.143   6.332  1.00  0.00    -0.547 OA
ATOM     10  O   UNL     1      20.790  28.305   6.967  1.00  0.00    -0.547 OA
ENDBRANCH   3   8
BRANCH   4  11
ATOM     11  O   UNL     1      23.413  28.518   5.645  1.00  0.00    -0.387 OA
ATOM     12  H   UNL     1      22.504  28.910   5.638  1.00  0.00     0.211 HD
ENDBRANCH   4  11
BRANCH   6  13
ATOM     13  O   UNL     1      25.889  28.535   6.824  1.00  0.00    -0.387 OA
ATOM     14  H   UNL     1      26.773  28.319   7.223  1.00  0.00     0.211 HD
ENDBRANCH   6  13
BRANCH   7  15
ATOM     15  O   UNL     1      26.669  25.753   6.449  1.00  0.00    -0.384 OA
ATOM     16  H   UNL     1      26.568  25.073   7.167  1.00  0.00     0.211 HD
ENDBRANCH   7  15
ENDBRANCH   1   2
BRANCH   1  17
ATOM     17  C   UNL     1      24.859  22.786   5.581  1.00  0.00     0.172 A 
ATOM     18  C   UNL     1      26.115  22.268   5.952  1.00  0.00     0.201 A 
ATOM     19  C   UNL     1      23.767  21.930   5.471  1.00  0.00     0.098 A 
ATOM     20  C   UNL     1      26.261  20.895   6.254  1.00  0.00     0.176 A 
ATOM     21  C   UNL     1      23.878  20.580   5.800  1.00  0.00     0.146 A 
ATOM     22  C   UNL     1      25.118  20.037   6.221  1.00  0.00     0.111 A 
ATOM     23  O   UNL     1      22.786  19.827   5.731  1.00  0.00    -0.456 OA
ATOM     24  C   UNL     1      25.106  18.680   6.627  1.00  0.00     0.197 A 
ATOM     25  C   UNL     1      22.756  18.538   6.058  1.00  0.00     0.138 A 
ATOM     26  C   UNL     1      23.931  17.929   6.522  1.00  0.00     0.100 A 
ATOM     27  O   UNL     1      26.118  18.121   7.123  1.00  0.00    -0.289 OA
BRANCH  18  28
ATOM     28  O   UNL     1      27.227  23.115   5.984  1.00  0.00    -0.502 OA
ATOM     29  H   UNL     1      27.226  24.036   5.563  1.00  0.00     0.293 HD
ENDBRANCH  18  28
BRANCH  20  30
ATOM     30  O   UNL     1      27.553  20.444   6.550  1.00  0.00    -0.504 OA
ATOM     31  H   UNL     1      28.021  20.533   7.437  1.00  0.00     0.293 HD
ENDBRANCH  20  30
BRANCH  25  32
ATOM     32  C   UNL     1      21.474  17.796   5.901  1.00  0.00     0.017 A 
ATOM     33  C   UNL     1      21.509  16.411   5.643  1.00  0.00     0.012 A 
ATOM     34  C   UNL     1      20.217  18.428   5.991  1.00  0.00     0.012 A 
ATOM     35  C   UNL     1      20.329  15.679   5.484  1.00  0.00     0.001 A 
ATOM     36  C   UNL     1      19.037  17.694   5.821  1.00  0.00     0.001 A 
ATOM     37  C   UNL     1      19.094  16.322   5.571  1.00  0.00     0.000 A 
ENDBRANCH  25  32
ENDBRANCH   1  17
TORSDOF 9
ENDMDL
MODEL 5
REMARK VINA RESULT:    -4.760      2.656      7.442
REMARK INTER + INTRA:          -7.589
REMARK INTER:                  -7.895
REMARK INTRA:                   0.306
REMARK UNBOUND:                -1.021
REMARK SMILES O=C([O-])[C@H]1O[C@@H](Oc2cc3oc(-c4ccccc4)cc(=O)c3c(O)c2O)[C@H](O)[C@@H](O)[C@H]1O
REMARK SMILES IDX 7 1 6 2 4 3 31 4 5 5 29 6 27 7 2 8 1 9 3 10 32 11 30 13
REMARK SMILES IDX 28 15 8 17 25 18 9 19 23 20 10 21 22 22 11 23 20 24 12 25
REMARK SMILES IDX 19 26 21 27 26 28 24 30 13 32 14 33 18 34 15 35 17 36 16 37
REMARK H PARENT 32 12 30 14 28 16 26 29 24 31
REMARK Flexibility Score: inf
ROOT
ATOM      1  O   UNL     1      24.169  19.300   7.125  1.00  0.00    -0.458 OA
ENDROOT
BRANCH   1   2
ATOM      2  C   UNL     1      24.967  20.147   6.295  1.00  0.00     0.339 C 
ATOM      3  C   UNL     1      25.829  22.303   6.071  1.00  0.00     0.199 C 
ATOM      4  C   UNL     1      25.259  22.510   4.651  1.00  0.00     0.180 C 
ATOM      5  O   UNL     1      24.965  21.465   6.822  1.00  0.00    -0.328 OA
ATOM      6  C   UNL     1      25.098  21.142   3.959  1.00  0.00     0.181 C 
ATOM      7  C   UNL     1      24.350  20.152   4.880  1.00  0.00     0.214 C 
BRANCH   3   8
ATOM      8  C   UNL     1      26.005  23.607   6.797  1.00  0.00     0.073 C 
ATOM      9  O   UNL     1      25.004  24.302   7.116  1.00  0.00    -0.547 OA
ATOM     10  O   UNL     1      27.282  24.106   7.028  1.00  0.00    -0.547 OA
ENDBRANCH   3   8
BRANCH   4  11
ATOM     11  O   UNL     1      24.020  23.173   4.725  1.00  0.00    -0.387 OA
ATOM     12  H   UNL     1      23.368  22.623   4.224  1.00  0.00     0.211 HD
ENDBRANCH   4  11
BRANCH   6  13
ATOM     13  O   UNL     1      24.395  21.306   2.752  1.00  0.00    -0.387 OA
ATOM     14  H   UNL     1      24.218  20.397   2.392  1.00  0.00     0.211 HD
ENDBRANCH   6  13
BRANCH   7  15
ATOM     15  O   UNL     1      24.343  18.856   4.329  1.00  0.00    -0.384 OA
ATOM     16  H   UNL     1      23.593  18.809   3.678  1.00  0.00     0.211 HD
ENDBRANCH   7  15
ENDBRANCH   1   2
BRANCH   1  17
ATOM     17  C   UNL     1      23.100  18.501   6.697  1.00  0.00     0.172 A 
ATOM     18  C   UNL     1      23.174  17.097   6.605  1.00  0.00     0.201 A 
ATOM     19  C   UNL     1      21.923  19.152   6.343  1.00  0.00     0.098 A 
ATOM     20  C   UNL     1      22.047  16.348   6.198  1.00  0.00     0.176 A 
ATOM     21  C   UNL     1      20.788  18.433   5.975  1.00  0.00     0.146 A 
ATOM     22  C   UNL     1      20.815  17.017   5.917  1.00  0.00     0.111 A 
ATOM     23  O   UNL     1      19.677  19.111   5.705  1.00  0.00    -0.456 OA
ATOM     24  C   UNL     1      19.586  16.374   5.628  1.00  0.00     0.197 A 
ATOM     25  C   UNL     1      18.522  18.536   5.383  1.00  0.00     0.138 A 
ATOM     26  C   UNL     1      18.450  17.136   5.340  1.00  0.00     0.100 A 
ATOM     27  O   UNL     1      19.462  15.123   5.659  1.00  0.00    -0.289 OA
BRANCH  18  28
ATOM     28  O   UNL     1      24.382  16.451   6.884  1.00  0.00    -0.502 OA
ATOM     29  H   UNL     1      25.281  16.828   6.611  1.00  0.00     0.293 HD
ENDBRANCH  18  28
BRANCH  20  30
ATOM     30  O   UNL     1      22.217  14.965   6.068  1.00  0.00    -0.504 OA
ATOM     31  H   UNL     1      21.509  14.265   6.221  1.00  0.00     0.293 HD
ENDBRANCH  20  30
BRANCH  25  32
ATOM     32  C   UNL     1      17.358  19.410   5.067  1.00  0.00     0.017 A 
ATOM     33  C   UNL     1      16.098  18.822   4.839  1.00  0.00     0.012 A 
ATOM     34  C   UNL     1      17.468  20.813   4.976  1.00  0.00     0.012 A 
ATOM     35  C   UNL     1      14.983  19.608   4.534  1.00  0.00     0.001 A 
ATOM     36  C   UNL     1      16.351  21.596   4.661  1.00  0.00     0.001 A 
ATOM     37  C   UNL     1      15.110  20.994   4.444  1.00  0.00     0.000 A 
ENDBRANCH  25  32
ENDBRANCH   1  17
TORSDOF 9
ENDMDL
MODEL 6
REMARK VINA RESULT:    -4.110      3.362      9.095
REMARK INTER + INTRA:          -6.692
REMARK INTER:                  -6.010
REMARK INTRA:                  -0.682
REMARK UNBOUND:                -1.021
REMARK SMILES O=C([O-])[C@H]1O[C@@H](Oc2cc3oc(-c4ccccc4)cc(=O)c3c(O)c2O)[C@H](O)[C@@H](O)[C@H]1O
REMARK SMILES IDX 7 1 6 2 4 3 31 4 5 5 29 6 27 7 2 8 1 9 3 10 32 11 30 13
REMARK SMILES IDX 28 15 8 17 25 18 9 19 23 20 10 21 22 22 11 23 20 24 12 25
REMARK SMILES IDX 19 26 21 27 26 28 24 30 13 32 14 33 18 34 15 35 17 36 16 37
REMARK H PARENT 32 12 30 14 28 16 26 29 24 31
REMARK Flexibility Score: inf
ROOT
ATOM      1  O   UNL     1      19.398  17.018   5.368  1.00  0.00    -0.458 OA
ENDROOT
BRANCH   1   2
ATOM      2  C   UNL     1      20.124  16.101   6.190  1.00  0.00     0.339 C 
ATOM      3  C   UNL     1      22.260  15.468   6.881  1.00  0.00     0.199 C 
ATOM      4  C   UNL     1      22.077  13.987   6.485  1.00  0.00     0.180 C 
ATOM      5  O   UNL     1      21.517  16.299   6.004  1.00  0.00    -0.328 OA
ATOM      6  C   UNL     1      20.580  13.625   6.536  1.00  0.00     0.181 C 
ATOM      7  C   UNL     1      19.741  14.668   5.765  1.00  0.00     0.214 C 
BRANCH   3   8
ATOM      8  C   UNL     1      23.705  15.880   6.846  1.00  0.00     0.073 C 
ATOM      9  O   UNL     1      24.615  15.042   7.084  1.00  0.00    -0.547 OA
ATOM     10  O   UNL     1      24.042  17.215   6.653  1.00  0.00    -0.547 OA
ENDBRANCH   3   8
BRANCH   4  11
ATOM     11  O   UNL     1      22.592  13.771   5.194  1.00  0.00    -0.387 OA
ATOM     12  H   UNL     1      22.193  14.459   4.605  1.00  0.00     0.211 HD
ENDBRANCH   4  11
BRANCH   6  13
ATOM     13  O   UNL     1      20.387  12.345   5.985  1.00  0.00    -0.387 OA
ATOM     14  H   UNL     1      21.252  12.067   5.582  1.00  0.00     0.211 HD
ENDBRANCH   6  13
BRANCH   7  15
ATOM     15  O   UNL     1      18.363  14.441   5.943  1.00  0.00    -0.384 OA
ATOM     16  H   UNL     1      18.251  13.909   6.776  1.00  0.00     0.211 HD
ENDBRANCH   7  15
ENDBRANCH   1   2
BRANCH   1  17
ATOM     17  C   UNL     1      19.124  18.358   5.676  1.00  0.00     0.172 A 
ATOM     18  C   UNL     1      20.073  19.229   6.244  1.00  0.00     0.201 A 
ATOM     19  C   UNL     1      17.841  18.821   5.405  1.00  0.00     0.098 A 
ATOM     20  C   UNL     1      19.742  20.580   6.498  1.00  0.00     0.176 A 
ATOM     21  C   UNL     1      17.502  20.157   5.612  1.00  0.00     0.146 A 
ATOM     22  C   UNL     1      18.448  21.071   6.139  1.00  0.00     0.111 A 
ATOM     23  O   UNL     1      16.277  20.550   5.278  1.00  0.00    -0.456 OA
ATOM     24  C   UNL     1      18.038  22.425   6.220  1.00  0.00     0.197 A 
ATOM     25  C   UNL     1      15.850  21.805   5.390  1.00  0.00     0.138 A 
ATOM     26  C   UNL     1      16.734  22.783   5.868  1.00  0.00     0.100 A 
ATOM     27  O   UNL     1      18.827  23.341   6.567  1.00  0.00    -0.289 OA
BRANCH  18  28
ATOM     28  O   UNL     1      21.338  18.741   6.590  1.00  0.00    -0.502 OA
ATOM     29  H   UNL     1      22.162  19.328   6.617  1.00  0.00     0.293 HD
ENDBRANCH  18  28
BRANCH  20  30
ATOM     30  O   UNL     1      20.716  21.366   7.124  1.00  0.00    -0.504 OA
ATOM     31  H   UNL     1      20.542  22.109   7.782  1.00  0.00     0.293 HD
ENDBRANCH  20  30
BRANCH  25  32
ATOM     32  C   UNL     1      14.440  22.110   5.016  1.00  0.00     0.017 A 
ATOM     33  C   UNL     1      14.174  23.220   4.190  1.00  0.00     0.012 A 
ATOM     34  C   UNL     1      13.353  21.334   5.465  1.00  0.00     0.012 A 
ATOM     35  C   UNL     1      12.865  23.543   3.820  1.00  0.00     0.001 A 
ATOM     36  C   UNL     1      12.042  21.666   5.101  1.00  0.00     0.001 A 
ATOM     37  C   UNL     1      11.800  22.768   4.278  1.00  0.00     0.000 A 
ENDBRANCH  25  32
ENDBRANCH   1  17
TORSDOF 9
ENDMDL
MODEL 7
REMARK VINA RESULT:    -4.105      1.144      2.750
REMARK INTER + INTRA:          -6.686
REMARK INTER:                  -6.843
REMARK INTRA:                   0.156
REMARK UNBOUND:                -1.021
REMARK SMILES O=C([O-])[C@H]1O[C@@H](Oc2cc3oc(-c4ccccc4)cc(=O)c3c(O)c2O)[C@H](O)[C@@H](O)[C@H]1O
REMARK SMILES IDX 7 1 6 2 4 3 31 4 5 5 29 6 27 7 2 8 1 9 3 10 32 11 30 13
REMARK SMILES IDX 28 15 8 17 25 18 9 19 23 20 10 21 22 22 11 23 20 24 12 25
REMARK SMILES IDX 19 26 21 27 26 28 24 30 13 32 14 33 18 34 15 35 17 36 16 37
REMARK H PARENT 32 12 30 14 28 16 26 29 24 31
REMARK Flexibility Score: inf
ROOT
ATOM      1  O   UNL     1      18.677  21.573   7.125  1.00  0.00    -0.458 OA
ENDROOT
BRANCH   1   2
ATOM      2  C   UNL     1      17.394  21.474   6.504  1.00  0.00     0.339 C 
ATOM      3  C   UNL     1      16.107  20.221   5.016  1.00  0.00     0.199 C 
ATOM      4  C   UNL     1      15.743  21.431   4.129  1.00  0.00     0.180 C 
ATOM      5  O   UNL     1      17.399  20.402   5.575  1.00  0.00    -0.328 OA
ATOM      6  C   UNL     1      15.789  22.718   4.975  1.00  0.00     0.181 C 
ATOM      7  C   UNL     1      17.113  22.800   5.767  1.00  0.00     0.214 C 
BRANCH   3   8
ATOM      8  C   UNL     1      16.081  18.933   4.241  1.00  0.00     0.073 C 
ATOM      9  O   UNL     1      15.001  18.497   3.761  1.00  0.00    -0.547 OA
ATOM     10  O   UNL     1      17.232  18.161   4.139  1.00  0.00    -0.547 OA
ENDBRANCH   3   8
BRANCH   4  11
ATOM     11  O   UNL     1      16.639  21.519   3.048  1.00  0.00    -0.387 OA
ATOM     12  H   UNL     1      16.827  22.480   2.907  1.00  0.00     0.211 HD
ENDBRANCH   4  11
BRANCH   6  13
ATOM     13  O   UNL     1      15.658  23.838   4.134  1.00  0.00    -0.387 OA
ATOM     14  H   UNL     1      16.096  23.609   3.272  1.00  0.00     0.211 HD
ENDBRANCH   6  13
BRANCH   7  15
ATOM     15  O   UNL     1      17.097  23.883   6.667  1.00  0.00    -0.384 OA
ATOM     16  H   UNL     1      17.394  24.692   6.170  1.00  0.00     0.211 HD
ENDBRANCH   7  15
ENDBRANCH   1   2
BRANCH   1  17
ATOM     17  C   UNL     1      19.730  20.659   6.986  1.00  0.00     0.172 A 
ATOM     18  C   UNL     1      19.538  19.267   6.893  1.00  0.00     0.201 A 
ATOM     19  C   UNL     1      21.020  21.178   6.949  1.00  0.00     0.098 A 
ATOM     20  C   UNL     1      20.643  18.402   6.719  1.00  0.00     0.176 A 
ATOM     21  C   UNL     1      22.122  20.350   6.742  1.00  0.00     0.146 A 
ATOM     22  C   UNL     1      21.958  18.950   6.598  1.00  0.00     0.111 A 
ATOM     23  O   UNL     1      23.322  20.914   6.658  1.00  0.00    -0.456 OA
ATOM     24  C   UNL     1      23.125  18.207   6.293  1.00  0.00     0.197 A 
ATOM     25  C   UNL     1      24.441  20.235   6.422  1.00  0.00     0.138 A 
ATOM     26  C   UNL     1      24.365  18.848   6.229  1.00  0.00     0.100 A 
ATOM     27  O   UNL     1      23.085  16.977   6.035  1.00  0.00    -0.289 OA
BRANCH  18  28
ATOM     28  O   UNL     1      18.247  18.740   7.010  1.00  0.00    -0.502 OA
ATOM     29  H   UNL     1      17.549  19.135   7.627  1.00  0.00     0.293 HD
ENDBRANCH  18  28
BRANCH  20  30
ATOM     30  O   UNL     1      20.377  17.028   6.702  1.00  0.00    -0.504 OA
ATOM     31  H   UNL     1      20.341  16.423   7.507  1.00  0.00     0.293 HD
ENDBRANCH  20  30
BRANCH  25  32
ATOM     32  C   UNL     1      25.730  20.982   6.388  1.00  0.00     0.017 A 
ATOM     33  C   UNL     1      25.784  22.282   6.927  1.00  0.00     0.012 A 
ATOM     34  C   UNL     1      26.905  20.440   5.827  1.00  0.00     0.012 A 
ATOM     35  C   UNL     1      26.973  23.018   6.910  1.00  0.00     0.001 A 
ATOM     36  C   UNL     1      28.091  21.184   5.803  1.00  0.00     0.001 A 
ATOM     37  C   UNL     1      28.125  22.469   6.346  1.00  0.00     0.000 A 
ENDBRANCH  25  32
ENDBRANCH   1  17
TORSDOF 9
ENDMDL
MODEL 8
REMARK VINA RESULT:    -3.965      3.414      6.848
REMARK INTER + INTRA:          -6.492
REMARK INTER:                  -5.209
REMARK INTRA:                  -1.283
REMARK UNBOUND:                -1.021
REMARK SMILES O=C([O-])[C@H]1O[C@@H](Oc2cc3oc(-c4ccccc4)cc(=O)c3c(O)c2O)[C@H](O)[C@@H](O)[C@H]1O
REMARK SMILES IDX 7 1 6 2 4 3 31 4 5 5 29 6 27 7 2 8 1 9 3 10 32 11 30 13
REMARK SMILES IDX 28 15 8 17 25 18 9 19 23 20 10 21 22 22 11 23 20 24 12 25
REMARK SMILES IDX 19 26 21 27 26 28 24 30 13 32 14 33 18 34 15 35 17 36 16 37
REMARK H PARENT 32 12 30 14 28 16 26 29 24 31
REMARK Flexibility Score: inf
ROOT
ATOM      1  O   UNL     1      23.795  24.949   5.428  1.00  0.00    -0.458 OA
ENDROOT
BRANCH   1   2
ATOM      2  C   UNL     1      23.054  25.724   6.373  1.00  0.00     0.339 C 
ATOM      3  C   UNL     1      20.907  26.237   7.125  1.00  0.00     0.199 C 
ATOM      4  C   UNL     1      21.090  27.762   6.970  1.00  0.00     0.180 C 
ATOM      5  O   UNL     1      21.665  25.555   6.138  1.00  0.00    -0.328 OA
ATOM      6  C   UNL     1      22.585  28.114   7.100  1.00  0.00     0.181 C 
ATOM      7  C   UNL     1      23.438  27.206   6.185  1.00  0.00     0.214 C 
BRANCH   3   8
ATOM      8  C   UNL     1      19.463  25.833   7.004  1.00  0.00     0.073 C 
ATOM      9  O   UNL     1      18.558  26.707   6.947  1.00  0.00    -0.547 OA
ATOM     10  O   UNL     1      19.111  24.490   7.060  1.00  0.00    -0.547 OA
ENDBRANCH   3   8
BRANCH   4  11
ATOM     11  O   UNL     1      20.592  28.179   5.722  1.00  0.00    -0.387 OA
ATOM     12  H   UNL     1      19.764  28.691   5.898  1.00  0.00     0.211 HD
ENDBRANCH   4  11
BRANCH   6  13
ATOM     13  O   UNL     1      22.781  29.464   6.760  1.00  0.00    -0.387 OA
ATOM     14  H   UNL     1      22.723  29.989   7.602  1.00  0.00     0.211 HD
ENDBRANCH   6  13
BRANCH   7  15
ATOM     15  O   UNL     1      24.812  27.404   6.418  1.00  0.00    -0.384 OA
ATOM     16  H   UNL     1      25.308  26.998   5.657  1.00  0.00     0.211 HD
ENDBRANCH   7  15
ENDBRANCH   1   2
BRANCH   1  17
ATOM     17  C   UNL     1      24.431  23.727   5.685  1.00  0.00     0.172 A 
ATOM     18  C   UNL     1      25.804  23.618   5.982  1.00  0.00     0.201 A 
ATOM     19  C   UNL     1      23.647  22.579   5.629  1.00  0.00     0.098 A 
ATOM     20  C   UNL     1      26.376  22.358   6.265  1.00  0.00     0.176 A 
ATOM     21  C   UNL     1      24.181  21.330   5.942  1.00  0.00     0.146 A 
ATOM     22  C   UNL     1      25.548  21.193   6.289  1.00  0.00     0.111 A 
ATOM     23  O   UNL     1      23.366  20.281   5.927  1.00  0.00    -0.456 OA
ATOM     24  C   UNL     1      25.970  19.900   6.685  1.00  0.00     0.197 A 
ATOM     25  C   UNL     1      23.747  19.046   6.246  1.00  0.00     0.138 A 
ATOM     26  C   UNL     1      25.075  18.827   6.639  1.00  0.00     0.100 A 
ATOM     27  O   UNL     1      27.130  19.679   7.119  1.00  0.00    -0.289 OA
BRANCH  18  28
ATOM     28  O   UNL     1      26.607  24.763   5.959  1.00  0.00    -0.502 OA
ATOM     29  H   UNL     1      26.637  25.395   5.168  1.00  0.00     0.293 HD
ENDBRANCH  18  28
BRANCH  20  30
ATOM     30  O   UNL     1      27.758  22.323   6.485  1.00  0.00    -0.504 OA
ATOM     31  H   UNL     1      28.212  22.189   7.375  1.00  0.00     0.293 HD
ENDBRANCH  20  30
BRANCH  25  32
ATOM     32  C   UNL     1      22.744  17.949   6.154  1.00  0.00     0.017 A 
ATOM     33  C   UNL     1      21.375  18.273   6.081  1.00  0.00     0.012 A 
ATOM     34  C   UNL     1      23.110  16.587   6.147  1.00  0.00     0.012 A 
ATOM     35  C   UNL     1      20.402  17.272   5.999  1.00  0.00     0.001 A 
ATOM     36  C   UNL     1      22.133  15.587   6.076  1.00  0.00     0.001 A 
ATOM     37  C   UNL     1      20.782  15.930   5.999  1.00  0.00     0.000 A 
ENDBRANCH  25  32
ENDBRANCH   1  17
TORSDOF 9
ENDMDL
MODEL 9
REMARK VINA RESULT:    -3.910      5.564     11.833
REMARK INTER + INTRA:          -6.417
REMARK INTER:                  -5.791
REMARK INTRA:                  -0.626
REMARK UNBOUND:                -1.021
REMARK SMILES O=C([O-])[C@H]1O[C@@H](Oc2cc3oc(-c4ccccc4)cc(=O)c3c(O)c2O)[C@H](O)[C@@H](O)[C@H]1O
REMARK SMILES IDX 7 1 6 2 4 3 31 4 5 5 29 6 27 7 2 8 1 9 3 10 32 11 30 13
REMARK SMILES IDX 28 15 8 17 25 18 9 19 23 20 10 21 22 22 11 23 20 24 12 25
REMARK SMILES IDX 19 26 21 27 26 28 24 30 13 32 14 33 18 34 15 35 17 36 16 37
REMARK H PARENT 32 12 30 14 28 16 26 29 24 31
REMARK Flexibility Score: inf
ROOT
ATOM      1  O   UNL     1      14.218  22.251   4.429  1.00  0.00    -0.458 OA
ENDROOT
BRANCH   1   2
ATOM      2  C   UNL     1      15.090  21.342   5.104  1.00  0.00     0.339 C 
ATOM      3  C   UNL     1      17.197  21.115   6.076  1.00  0.00     0.199 C 
ATOM      4  C   UNL     1      17.577  19.872   5.242  1.00  0.00     0.180 C 
ATOM      5  O   UNL     1      16.347  21.963   5.321  1.00  0.00    -0.328 OA
ATOM      6  C   UNL     1      16.296  19.122   4.829  1.00  0.00     0.181 C 
ATOM      7  C   UNL     1      15.271  20.097   4.210  1.00  0.00     0.214 C 
BRANCH   3   8
ATOM      8  C   UNL     1      18.411  21.891   6.507  1.00  0.00     0.073 C 
ATOM      9  O   UNL     1      19.506  21.303   6.714  1.00  0.00    -0.547 OA
ATOM     10  O   UNL     1      18.306  23.250   6.780  1.00  0.00    -0.547 OA
ENDBRANCH   3   8
BRANCH   4  11
ATOM     11  O   UNL     1      18.307  20.264   4.106  1.00  0.00    -0.387 OA
ATOM     12  H   UNL     1      17.656  20.376   3.369  1.00  0.00     0.211 HD
ENDBRANCH   4  11
BRANCH   6  13
ATOM     13  O   UNL     1      16.621  18.111   3.907  1.00  0.00    -0.387 OA
ATOM     14  H   UNL     1      17.037  17.369   4.420  1.00  0.00     0.211 HD
ENDBRANCH   6  13
BRANCH   7  15
ATOM     15  O   UNL     1      14.038  19.457   3.982  1.00  0.00    -0.384 OA
ATOM     16  H   UNL     1      13.584  19.355   4.860  1.00  0.00     0.211 HD
ENDBRANCH   7  15
ENDBRANCH   1   2
BRANCH   1  17
ATOM     17  C   UNL     1      12.946  22.647   4.865  1.00  0.00     0.172 A 
ATOM     18  C   UNL     1      12.123  21.844   5.679  1.00  0.00     0.201 A 
ATOM     19  C   UNL     1      12.493  23.896   4.450  1.00  0.00     0.098 A 
ATOM     20  C   UNL     1      10.864  22.318   6.111  1.00  0.00     0.176 A 
ATOM     21  C   UNL     1      11.272  24.400   4.893  1.00  0.00     0.146 A 
ATOM     22  C   UNL     1      10.441  23.635   5.751  1.00  0.00     0.111 A 
ATOM     23  O   UNL     1      10.923  25.623   4.509  1.00  0.00    -0.456 OA
ATOM     24  C   UNL     1       9.268  24.273   6.224  1.00  0.00     0.197 A 
ATOM     25  C   UNL     1       9.803  26.227   4.898  1.00  0.00     0.138 A 
ATOM     26  C   UNL     1       8.942  25.557   5.778  1.00  0.00     0.100 A 
ATOM     27  O   UNL     1       8.513  23.737   7.074  1.00  0.00    -0.289 OA
BRANCH  18  28
ATOM     28  O   UNL     1      12.546  20.557   6.029  1.00  0.00    -0.502 OA
ATOM     29  H   UNL     1      11.974  19.735   5.881  1.00  0.00     0.293 HD
ENDBRANCH  18  28
BRANCH  20  30
ATOM     30  O   UNL     1      10.077  21.437   6.862  1.00  0.00    -0.504 OA
ATOM     31  H   UNL     1      10.412  20.801   7.568  1.00  0.00     0.293 HD
ENDBRANCH  20  30
BRANCH  25  32
ATOM     32  C   UNL     1       9.510  27.587   4.365  1.00  0.00     0.017 A 
ATOM     33  C   UNL     1       8.611  27.724   3.289  1.00  0.00     0.012 A 
ATOM     34  C   UNL     1      10.107  28.751   4.891  1.00  0.00     0.012 A 
ATOM     35  C   UNL     1       8.313  28.982   2.757  1.00  0.00     0.001 A 
ATOM     36  C   UNL     1       9.814  30.009   4.350  1.00  0.00     0.001 A 
ATOM     37  C   UNL     1       8.916  30.123   3.286  1.00  0.00     0.000 A 
ENDBRANCH  25  32
ENDBRANCH   1  17
TORSDOF 9
ENDMDL
