MODEL 1
REMARK VINA RESULT:    -6.087      0.000      0.000
REMARK INTER + INTRA:         -11.869
REMARK INTER:                 -11.425
REMARK INTRA:                  -0.444
REMARK UNBOUND:                -0.444
REMARK SMILES O=C([O-])CCCCCCCCCCCCCCC(=O)[O-]
REMARK SMILES IDX 10 1 9 2 8 3 7 4 6 5 5 6 4 7 2 8 1 9 3 10 11 11 12 12 13 13
REMARK SMILES IDX 14 14 15 15 16 16 17 17 18 18 19 19 20 20
REMARK H PARENT
REMARK Flexibility Score: inf
ROOT
ATOM      1  C   UNL     1     104.506 312.233 195.788  1.00  0.00     0.000 C 
ENDROOT
BRANCH   1   2
ATOM      2  C   UNL     1     103.923 311.458 196.992  1.00  0.00     0.000 C 
BRANCH   2   3
ATOM      3  C   UNL     1     103.845 312.296 198.279  1.00  0.00     0.000 C 
BRANCH   3   4
ATOM      4  C   UNL     1     103.373 311.479 199.491  1.00  0.00     0.000 C 
BRANCH   4   5
ATOM      5  C   UNL     1     104.199 311.753 200.758  1.00  0.00     0.000 C 
BRANCH   5   6
ATOM      6  C   UNL     1     103.431 311.475 202.068  1.00  0.00     0.006 C 
BRANCH   6   7
ATOM      7  C   UNL     1     104.197 310.527 203.000  1.00  0.00     0.053 C 
BRANCH   7   8
ATOM      8  C   UNL     1     104.139 311.021 204.411  1.00  0.00     0.041 C 
ATOM      9  O   UNL     1     105.017 311.815 204.842  1.00  0.00    -0.550 OA
ATOM     10  O   UNL     1     103.143 310.567 205.266  1.00  0.00    -0.550 OA
ENDBRANCH   7   8
ENDBRANCH   6   7
ENDBRANCH   5   6
ENDBRANCH   4   5
ENDBRANCH   3   4
ENDBRANCH   2   3
ENDBRANCH   1   2
BRANCH   1  11
ATOM     11  C   UNL     1     105.682 311.508 195.111  1.00  0.00     0.000 C 
BRANCH  11  12
ATOM     12  C   UNL     1     105.314 310.983 193.714  1.00  0.00     0.000 C 
BRANCH  12  13
ATOM     13  C   UNL     1     104.298 311.913 193.030  1.00  0.00     0.000 C 
BRANCH  13  14
ATOM     14  C   UNL     1     104.958 313.145 192.391  1.00  0.00     0.000 C 
BRANCH  14  15
ATOM     15  C   UNL     1     103.934 314.084 191.729  1.00  0.00     0.000 C 
BRANCH  15  16
ATOM     16  C   UNL     1     103.821 313.857 190.212  1.00  0.00     0.006 C 
BRANCH  16  17
ATOM     17  C   UNL     1     104.170 315.111 189.398  1.00  0.00     0.053 C 
BRANCH  17  18
ATOM     18  C   UNL     1     103.162 315.325 188.313  1.00  0.00     0.041 C 
ATOM     19  O   UNL     1     103.200 316.370 187.611  1.00  0.00    -0.550 OA
ATOM     20  O   UNL     1     102.151 314.394 188.110  1.00  0.00    -0.550 OA
ENDBRANCH  17  18
ENDBRANCH  16  17
ENDBRANCH  15  16
ENDBRANCH  14  15
ENDBRANCH  13  14
ENDBRANCH  12  13
ENDBRANCH  11  12
ENDBRANCH   1  11
TORSDOF 15
ENDMDL
MODEL 2
REMARK VINA RESULT:    -6.086      0.775     11.919
REMARK INTER + INTRA:         -11.867
REMARK INTER:                 -11.248
REMARK INTRA:                  -0.619
REMARK UNBOUND:                -0.444
REMARK SMILES O=C([O-])CCCCCCCCCCCCCCC(=O)[O-]
REMARK SMILES IDX 10 1 9 2 8 3 7 4 6 5 5 6 4 7 2 8 1 9 3 10 11 11 12 12 13 13
REMARK SMILES IDX 14 14 15 15 16 16 17 17 18 18 19 19 20 20
REMARK H PARENT
REMARK Flexibility Score: inf
ROOT
ATOM      1  C   UNL     1     105.706 311.542 195.122  1.00  0.00     0.000 C 
ENDROOT
BRANCH   1   2
ATOM      2  C   UNL     1     105.771 311.766 193.594  1.00  0.00     0.000 C 
BRANCH   2   3
ATOM      3  C   UNL     1     104.399 311.680 192.904  1.00  0.00     0.000 C 
BRANCH   3   4
ATOM      4  C   UNL     1     104.073 312.931 192.075  1.00  0.00     0.000 C 
BRANCH   4   5
ATOM      5  C   UNL     1     105.329 313.677 191.596  1.00  0.00     0.000 C 
BRANCH   5   6
ATOM      6  C   UNL     1     105.086 314.563 190.356  1.00  0.00     0.006 C 
BRANCH   6   7
ATOM      7  C   UNL     1     103.595 314.849 190.130  1.00  0.00     0.053 C 
BRANCH   7   8
ATOM      8  C   UNL     1     103.261 314.759 188.675  1.00  0.00     0.041 C 
ATOM      9  O   UNL     1     103.935 315.402 187.828  1.00  0.00    -0.550 OA
ATOM     10  O   UNL     1     102.172 314.004 188.257  1.00  0.00    -0.550 OA
ENDBRANCH   7   8
ENDBRANCH   6   7
ENDBRANCH   5   6
ENDBRANCH   4   5
ENDBRANCH   3   4
ENDBRANCH   2   3
ENDBRANCH   1   2
BRANCH   1  11
ATOM     11  C   UNL     1     104.503 312.233 195.787  1.00  0.00     0.000 C 
BRANCH  11  12
ATOM     12  C   UNL     1     103.950 311.424 196.971  1.00  0.00     0.000 C 
BRANCH  12  13
ATOM     13  C   UNL     1     103.870 312.291 198.238  1.00  0.00     0.000 C 
BRANCH  13  14
ATOM     14  C   UNL     1     103.404 311.499 199.470  1.00  0.00     0.000 C 
BRANCH  14  15
ATOM     15  C   UNL     1     104.297 311.744 200.699  1.00  0.00     0.000 C 
BRANCH  15  16
ATOM     16  C   UNL     1     103.608 311.351 202.016  1.00  0.00     0.006 C 
BRANCH  16  17
ATOM     17  C   UNL     1     104.392 311.808 203.255  1.00  0.00     0.053 C 
BRANCH  17  18
ATOM     18  C   UNL     1     103.892 311.104 204.477  1.00  0.00     0.041 C 
ATOM     19  O   UNL     1     104.554 311.147 205.547  1.00  0.00    -0.550 OA
ATOM     20  O   UNL     1     102.720 310.361 204.420  1.00  0.00    -0.550 OA
ENDBRANCH  17  18
ENDBRANCH  16  17
ENDBRANCH  15  16
ENDBRANCH  14  15
ENDBRANCH  13  14
ENDBRANCH  12  13
ENDBRANCH  11  12
ENDBRANCH   1  11
TORSDOF 15
ENDMDL
MODEL 3
REMARK VINA RESULT:    -6.015     18.776     22.445
REMARK INTER + INTRA:         -11.733
REMARK INTER:                 -10.859
REMARK INTRA:                  -0.875
REMARK UNBOUND:                -0.444
REMARK SMILES O=C([O-])CCCCCCCCCCCCCCC(=O)[O-]
REMARK SMILES IDX 10 1 9 2 8 3 7 4 6 5 5 6 4 7 2 8 1 9 3 10 11 11 12 12 13 13
REMARK SMILES IDX 14 14 15 15 16 16 17 17 18 18 19 19 20 20
REMARK H PARENT
REMARK Flexibility Score: inf
ROOT
ATOM      1  C   UNL     1      88.105 326.550 194.097  1.00  0.00     0.000 C 
ENDROOT
BRANCH   1   2
ATOM      2  C   UNL     1      88.085 325.398 193.067  1.00  0.00     0.000 C 
BRANCH   2   3
ATOM      3  C   UNL     1      86.735 324.665 192.994  1.00  0.00     0.000 C 
BRANCH   3   4
ATOM      4  C   UNL     1      86.653 323.687 191.813  1.00  0.00     0.000 C 
BRANCH   4   5
ATOM      5  C   UNL     1      88.035 323.300 191.260  1.00  0.00     0.000 C 
BRANCH   5   6
ATOM      6  C   UNL     1      88.047 323.075 189.732  1.00  0.00     0.006 C 
BRANCH   6   7
ATOM      7  C   UNL     1      89.271 323.712 189.062  1.00  0.00     0.053 C 
BRANCH   7   8
ATOM      8  C   UNL     1      90.294 322.669 188.741  1.00  0.00     0.041 C 
ATOM      9  O   UNL     1      89.990 321.447 188.782  1.00  0.00    -0.550 OA
ATOM     10  O   UNL     1      91.598 323.043 188.444  1.00  0.00    -0.550 OA
ENDBRANCH   7   8
ENDBRANCH   6   7
ENDBRANCH   5   6
ENDBRANCH   4   5
ENDBRANCH   3   4
ENDBRANCH   2   3
ENDBRANCH   1   2
BRANCH   1  11
ATOM     11  C   UNL     1      86.843 326.601 194.976  1.00  0.00     0.000 C 
BRANCH  11  12
ATOM     12  C   UNL     1      87.144 326.262 196.444  1.00  0.00     0.000 C 
BRANCH  12  13
ATOM     13  C   UNL     1      88.544 325.644 196.588  1.00  0.00     0.000 C 
BRANCH  13  14
ATOM     14  C   UNL     1      88.916 325.350 198.051  1.00  0.00     0.000 C 
BRANCH  14  15
ATOM     15  C   UNL     1      89.016 326.628 198.901  1.00  0.00     0.000 C 
BRANCH  15  16
ATOM     16  C   UNL     1      89.729 326.390 200.242  1.00  0.00     0.006 C 
BRANCH  16  17
ATOM     17  C   UNL     1      88.749 326.160 201.402  1.00  0.00     0.053 C 
BRANCH  17  18
ATOM     18  C   UNL     1      88.667 324.703 201.733  1.00  0.00     0.041 C 
ATOM     19  O   UNL     1      89.581 323.918 201.367  1.00  0.00    -0.550 OA
ATOM     20  O   UNL     1      87.558 324.204 202.404  1.00  0.00    -0.550 OA
ENDBRANCH  17  18
ENDBRANCH  16  17
ENDBRANCH  15  16
ENDBRANCH  14  15
ENDBRANCH  13  14
ENDBRANCH  12  13
ENDBRANCH  11  12
ENDBRANCH   1  11
TORSDOF 15
ENDMDL
MODEL 4
REMARK VINA RESULT:    -5.985      1.349     11.660
REMARK INTER + INTRA:         -11.678
REMARK INTER:                 -10.851
REMARK INTRA:                  -0.827
REMARK UNBOUND:                -0.444
REMARK SMILES O=C([O-])CCCCCCCCCCCCCCC(=O)[O-]
REMARK SMILES IDX 10 1 9 2 8 3 7 4 6 5 5 6 4 7 2 8 1 9 3 10 11 11 12 12 13 13
REMARK SMILES IDX 14 14 15 15 16 16 17 17 18 18 19 19 20 20
REMARK H PARENT
REMARK Flexibility Score: inf
ROOT
ATOM      1  C   UNL     1     103.793 313.379 196.573  1.00  0.00     0.000 C 
ENDROOT
BRANCH   1   2
ATOM      2  C   UNL     1     104.505 312.241 195.807  1.00  0.00     0.000 C 
BRANCH   2   3
ATOM      3  C   UNL     1     103.586 311.502 194.819  1.00  0.00     0.000 C 
BRANCH   3   4
ATOM      4  C   UNL     1     104.266 311.230 193.468  1.00  0.00     0.000 C 
BRANCH   4   5
ATOM      5  C   UNL     1     105.627 311.932 193.330  1.00  0.00     0.000 C 
BRANCH   5   6
ATOM      6  C   UNL     1     105.629 313.076 192.294  1.00  0.00     0.006 C 
BRANCH   6   7
ATOM      7  C   UNL     1     104.226 313.362 191.742  1.00  0.00     0.053 C 
BRANCH   7   8
ATOM      8  C   UNL     1     104.312 314.159 190.480  1.00  0.00     0.041 C 
ATOM      9  O   UNL     1     103.402 314.077 189.613  1.00  0.00    -0.550 OA
ATOM     10  O   UNL     1     105.423 314.957 190.236  1.00  0.00    -0.550 OA
ENDBRANCH   7   8
ENDBRANCH   6   7
ENDBRANCH   5   6
ENDBRANCH   4   5
ENDBRANCH   3   4
ENDBRANCH   2   3
ENDBRANCH   1   2
BRANCH   1  11
ATOM     11  C   UNL     1     103.823 313.194 198.101  1.00  0.00     0.000 C 
BRANCH  11  12
ATOM     12  C   UNL     1     103.603 311.730 198.513  1.00  0.00     0.000 C 
BRANCH  12  13
ATOM     13  C   UNL     1     103.647 311.579 200.042  1.00  0.00     0.000 C 
BRANCH  13  14
ATOM     14  C   UNL     1     102.248 311.448 200.667  1.00  0.00     0.000 C 
BRANCH  14  15
ATOM     15  C   UNL     1     102.298 310.959 202.124  1.00  0.00     0.000 C 
BRANCH  15  16
ATOM     16  C   UNL     1     103.699 311.090 202.744  1.00  0.00     0.006 C 
BRANCH  16  17
ATOM     17  C   UNL     1     103.727 312.038 203.951  1.00  0.00     0.053 C 
BRANCH  17  18
ATOM     18  C   UNL     1     103.804 311.257 205.225  1.00  0.00     0.041 C 
ATOM     19  O   UNL     1     102.845 310.517 205.572  1.00  0.00    -0.550 OA
ATOM     20  O   UNL     1     104.912 311.383 206.053  1.00  0.00    -0.550 OA
ENDBRANCH  17  18
ENDBRANCH  16  17
ENDBRANCH  15  16
ENDBRANCH  14  15
ENDBRANCH  13  14
ENDBRANCH  12  13
ENDBRANCH  11  12
ENDBRANCH   1  11
TORSDOF 15
ENDMDL
MODEL 5
REMARK VINA RESULT:    -5.981     19.489     22.851
REMARK INTER + INTRA:         -11.671
REMARK INTER:                 -10.803
REMARK INTRA:                  -0.868
REMARK UNBOUND:                -0.444
REMARK SMILES O=C([O-])CCCCCCCCCCCCCCC(=O)[O-]
REMARK SMILES IDX 10 1 9 2 8 3 7 4 6 5 5 6 4 7 2 8 1 9 3 10 11 11 12 12 13 13
REMARK SMILES IDX 14 14 15 15 16 16 17 17 18 18 19 19 20 20
REMARK H PARENT
REMARK Flexibility Score: inf
ROOT
ATOM      1  C   UNL     1      88.777 326.573 195.440  1.00  0.00     0.000 C 
ENDROOT
BRANCH   1   2
ATOM      2  C   UNL     1      87.847 326.761 194.220  1.00  0.00     0.000 C 
BRANCH   2   3
ATOM      3  C   UNL     1      86.536 325.962 194.321  1.00  0.00     0.000 C 
BRANCH   3   4
ATOM      4  C   UNL     1      86.575 324.654 193.517  1.00  0.00     0.000 C 
BRANCH   4   5
ATOM      5  C   UNL     1      87.975 324.329 192.970  1.00  0.00     0.000 C 
BRANCH   5   6
ATOM      6  C   UNL     1      88.017 324.177 191.434  1.00  0.00     0.006 C 
BRANCH   6   7
ATOM      7  C   UNL     1      86.980 323.170 190.921  1.00  0.00     0.053 C 
BRANCH   7   8
ATOM      8  C   UNL     1      87.615 322.201 189.976  1.00  0.00     0.041 C 
ATOM      9  O   UNL     1      87.450 322.324 188.734  1.00  0.00    -0.550 OA
ATOM     10  O   UNL     1      88.350 321.130 190.469  1.00  0.00    -0.550 OA
ENDBRANCH   7   8
ENDBRANCH   6   7
ENDBRANCH   5   6
ENDBRANCH   4   5
ENDBRANCH   3   4
ENDBRANCH   2   3
ENDBRANCH   1   2
BRANCH   1  11
ATOM     11  C   UNL     1      88.040 326.070 196.694  1.00  0.00     0.000 C 
BRANCH  11  12
ATOM     12  C   UNL     1      88.567 324.707 197.170  1.00  0.00     0.000 C 
BRANCH  12  13
ATOM     13  C   UNL     1      89.073 324.791 198.619  1.00  0.00     0.000 C 
BRANCH  13  14
ATOM     14  C   UNL     1      89.061 326.227 199.170  1.00  0.00     0.000 C 
BRANCH  14  15
ATOM     15  C   UNL     1      89.835 326.356 200.493  1.00  0.00     0.000 C 
BRANCH  15  16
ATOM     16  C   UNL     1      88.913 326.317 201.722  1.00  0.00     0.006 C 
BRANCH  16  17
ATOM     17  C   UNL     1      89.634 325.837 202.990  1.00  0.00     0.053 C 
BRANCH  17  18
ATOM     18  C   UNL     1      89.908 326.991 203.902  1.00  0.00     0.041 C 
ATOM     19  O   UNL     1      89.008 327.415 204.674  1.00  0.00    -0.550 OA
ATOM     20  O   UNL     1      91.141 327.630 203.864  1.00  0.00    -0.550 OA
ENDBRANCH  17  18
ENDBRANCH  16  17
ENDBRANCH  15  16
ENDBRANCH  14  15
ENDBRANCH  13  14
ENDBRANCH  12  13
ENDBRANCH  11  12
ENDBRANCH   1  11
TORSDOF 15
ENDMDL
MODEL 6
REMARK VINA RESULT:    -5.978      4.730      6.001
REMARK INTER + INTRA:         -11.665
REMARK INTER:                  -9.816
REMARK INTRA:                  -1.848
REMARK UNBOUND:                -0.444
REMARK SMILES O=C([O-])CCCCCCCCCCCCCCC(=O)[O-]
REMARK SMILES IDX 10 1 9 2 8 3 7 4 6 5 5 6 4 7 2 8 1 9 3 10 11 11 12 12 13 13
REMARK SMILES IDX 14 14 15 15 16 16 17 17 18 18 19 19 20 20
REMARK H PARENT
REMARK Flexibility Score: inf
ROOT
ATOM      1  C   UNL     1     105.625 311.480 193.704  1.00  0.00     0.000 C 
ENDROOT
BRANCH   1   2
ATOM      2  C   UNL     1     105.504 311.678 195.232  1.00  0.00     0.000 C 
BRANCH   2   3
ATOM      3  C   UNL     1     104.051 311.689 195.735  1.00  0.00     0.000 C 
BRANCH   3   4
ATOM      4  C   UNL     1     103.860 312.571 196.978  1.00  0.00     0.000 C 
BRANCH   4   5
ATOM      5  C   UNL     1     104.024 314.070 196.679  1.00  0.00     0.000 C 
BRANCH   5   6
ATOM      6  C   UNL     1     103.369 314.511 195.353  1.00  0.00     0.006 C 
BRANCH   6   7
ATOM      7  C   UNL     1     104.238 315.511 194.580  1.00  0.00     0.053 C 
BRANCH   7   8
ATOM      8  C   UNL     1     103.427 316.696 194.162  1.00  0.00     0.041 C 
ATOM      9  O   UNL     1     102.540 317.160 194.927  1.00  0.00    -0.550 OA
ATOM     10  O   UNL     1     103.615 317.260 192.906  1.00  0.00    -0.550 OA
ENDBRANCH   7   8
ENDBRANCH   6   7
ENDBRANCH   5   6
ENDBRANCH   4   5
ENDBRANCH   3   4
ENDBRANCH   2   3
ENDBRANCH   1   2
BRANCH   1  11
ATOM     11  C   UNL     1     104.267 311.496 192.980  1.00  0.00     0.000 C 
BRANCH  11  12
ATOM     12  C   UNL     1     104.080 312.759 192.126  1.00  0.00     0.000 C 
BRANCH  12  13
ATOM     13  C   UNL     1     105.438 313.387 191.771  1.00  0.00     0.000 C 
BRANCH  13  14
ATOM     14  C   UNL     1     105.304 314.603 190.839  1.00  0.00     0.000 C 
BRANCH  14  15
ATOM     15  C   UNL     1     103.852 314.844 190.391  1.00  0.00     0.000 C 
BRANCH  15  16
ATOM     16  C   UNL     1     103.702 314.866 188.862  1.00  0.00     0.006 C 
BRANCH  16  17
ATOM     17  C   UNL     1     102.400 314.208 188.384  1.00  0.00     0.053 C 
BRANCH  17  18
ATOM     18  C   UNL     1     101.393 315.252 188.017  1.00  0.00     0.041 C 
ATOM     19  O   UNL     1     100.165 314.973 188.011  1.00  0.00    -0.550 OA
ATOM     20  O   UNL     1     101.813 316.520 187.634  1.00  0.00    -0.550 OA
ENDBRANCH  17  18
ENDBRANCH  16  17
ENDBRANCH  15  16
ENDBRANCH  14  15
ENDBRANCH  13  14
ENDBRANCH  12  13
ENDBRANCH  11  12
ENDBRANCH   1  11
TORSDOF 15
ENDMDL
MODEL 7
REMARK VINA RESULT:    -5.955     18.692     19.930
REMARK INTER + INTRA:         -11.622
REMARK INTER:                 -10.409
REMARK INTRA:                  -1.213
REMARK UNBOUND:                -0.444
REMARK SMILES O=C([O-])CCCCCCCCCCCCCCC(=O)[O-]
REMARK SMILES IDX 10 1 9 2 8 3 7 4 6 5 5 6 4 7 2 8 1 9 3 10 11 11 12 12 13 13
REMARK SMILES IDX 14 14 15 15 16 16 17 17 18 18 19 19 20 20
REMARK H PARENT
REMARK Flexibility Score: inf
ROOT
ATOM      1  C   UNL     1      88.121 326.506 194.212  1.00  0.00     0.000 C 
ENDROOT
BRANCH   1   2
ATOM      2  C   UNL     1      88.774 326.600 195.610  1.00  0.00     0.000 C 
BRANCH   2   3
ATOM      3  C   UNL     1      87.967 325.892 196.711  1.00  0.00     0.000 C 
BRANCH   3   4
ATOM      4  C   UNL     1      88.698 324.672 197.291  1.00  0.00     0.000 C 
BRANCH   4   5
ATOM      5  C   UNL     1      88.911 324.767 198.811  1.00  0.00     0.000 C 
BRANCH   5   6
ATOM      6  C   UNL     1      89.246 326.193 199.298  1.00  0.00     0.006 C 
BRANCH   6   7
ATOM      7  C   UNL     1      90.318 326.195 200.396  1.00  0.00     0.053 C 
BRANCH   7   8
ATOM      8  C   UNL     1      89.681 326.208 201.749  1.00  0.00     0.041 C 
ATOM      9  O   UNL     1      88.482 326.568 201.883  1.00  0.00    -0.550 OA
ATOM     10  O   UNL     1      90.427 325.869 202.871  1.00  0.00    -0.550 OA
ENDBRANCH   7   8
ENDBRANCH   6   7
ENDBRANCH   5   6
ENDBRANCH   4   5
ENDBRANCH   3   4
ENDBRANCH   2   3
ENDBRANCH   1   2
BRANCH   1  11
ATOM     11  C   UNL     1      86.639 326.096 194.260  1.00  0.00     0.000 C 
BRANCH  11  12
ATOM     12  C   UNL     1      86.354 324.849 193.408  1.00  0.00     0.000 C 
BRANCH  12  13
ATOM     13  C   UNL     1      87.281 323.690 193.806  1.00  0.00     0.000 C 
BRANCH  13  14
ATOM     14  C   UNL     1      88.082 323.135 192.616  1.00  0.00     0.000 C 
BRANCH  14  15
ATOM     15  C   UNL     1      88.068 324.082 191.404  1.00  0.00     0.000 C 
BRANCH  15  16
ATOM     16  C   UNL     1      87.985 323.329 190.067  1.00  0.00     0.006 C 
BRANCH  16  17
ATOM     17  C   UNL     1      89.137 323.680 189.115  1.00  0.00     0.053 C 
BRANCH  17  18
ATOM     18  C   UNL     1      90.144 322.574 189.086  1.00  0.00     0.041 C 
ATOM     19  O   UNL     1      89.983 321.553 189.805  1.00  0.00    -0.550 OA
ATOM     20  O   UNL     1      91.285 322.693 188.303  1.00  0.00    -0.550 OA
ENDBRANCH  17  18
ENDBRANCH  16  17
ENDBRANCH  15  16
ENDBRANCH  14  15
ENDBRANCH  13  14
ENDBRANCH  12  13
ENDBRANCH  11  12
ENDBRANCH   1  11
TORSDOF 15
ENDMDL
MODEL 8
REMARK VINA RESULT:    -5.930      2.505      3.009
REMARK INTER + INTRA:         -11.574
REMARK INTER:                 -10.614
REMARK INTRA:                  -0.960
REMARK UNBOUND:                -0.444
REMARK SMILES O=C([O-])CCCCCCCCCCCCCCC(=O)[O-]
REMARK SMILES IDX 10 1 9 2 8 3 7 4 6 5 5 6 4 7 2 8 1 9 3 10 11 11 12 12 13 13
REMARK SMILES IDX 14 14 15 15 16 16 17 17 18 18 19 19 20 20
REMARK H PARENT
REMARK Flexibility Score: inf
ROOT
ATOM      1  C   UNL     1     104.360 311.879 195.854  1.00  0.00     0.000 C 
ENDROOT
BRANCH   1   2
ATOM      2  C   UNL     1     103.881 311.196 197.155  1.00  0.00     0.000 C 
BRANCH   2   3
ATOM      3  C   UNL     1     103.845 312.145 198.366  1.00  0.00     0.000 C 
BRANCH   3   4
ATOM      4  C   UNL     1     103.179 311.511 199.596  1.00  0.00     0.000 C 
BRANCH   4   5
ATOM      5  C   UNL     1     103.990 311.712 200.887  1.00  0.00     0.000 C 
BRANCH   5   6
ATOM      6  C   UNL     1     103.265 311.211 202.155  1.00  0.00     0.006 C 
BRANCH   6   7
ATOM      7  C   UNL     1     104.217 310.500 203.125  1.00  0.00     0.053 C 
BRANCH   7   8
ATOM      8  C   UNL     1     103.797 310.740 204.541  1.00  0.00     0.041 C 
ATOM      9  O   UNL     1     102.658 310.374 204.935  1.00  0.00    -0.550 OA
ATOM     10  O   UNL     1     104.643 311.412 205.413  1.00  0.00    -0.550 OA
ENDBRANCH   7   8
ENDBRANCH   6   7
ENDBRANCH   5   6
ENDBRANCH   4   5
ENDBRANCH   3   4
ENDBRANCH   2   3
ENDBRANCH   1   2
BRANCH   1  11
ATOM     11  C   UNL     1     103.512 311.506 194.625  1.00  0.00     0.000 C 
BRANCH  11  12
ATOM     12  C   UNL     1     104.379 311.176 193.400  1.00  0.00     0.000 C 
BRANCH  12  13
ATOM     13  C   UNL     1     105.731 311.903 193.473  1.00  0.00     0.000 C 
BRANCH  13  14
ATOM     14  C   UNL     1     105.876 312.995 192.401  1.00  0.00     0.000 C 
BRANCH  14  15
ATOM     15  C   UNL     1     104.531 313.367 191.753  1.00  0.00     0.000 C 
BRANCH  15  16
ATOM     16  C   UNL     1     104.120 314.821 192.038  1.00  0.00     0.006 C 
BRANCH  16  17
ATOM     17  C   UNL     1     103.873 315.086 193.530  1.00  0.00     0.053 C 
BRANCH  17  18
ATOM     18  C   UNL     1     104.759 316.189 194.017  1.00  0.00     0.041 C 
ATOM     19  O   UNL     1     105.967 316.233 193.663  1.00  0.00    -0.550 OA
ATOM     20  O   UNL     1     104.264 317.140 194.900  1.00  0.00    -0.550 OA
ENDBRANCH  17  18
ENDBRANCH  16  17
ENDBRANCH  15  16
ENDBRANCH  14  15
ENDBRANCH  13  14
ENDBRANCH  12  13
ENDBRANCH  11  12
ENDBRANCH   1  11
TORSDOF 15
ENDMDL
MODEL 9
REMARK VINA RESULT:    -5.912     19.840     20.613
REMARK INTER + INTRA:         -11.540
REMARK INTER:                 -10.772
REMARK INTRA:                  -0.768
REMARK UNBOUND:                -0.444
REMARK SMILES O=C([O-])CCCCCCCCCCCCCCC(=O)[O-]
REMARK SMILES IDX 10 1 9 2 8 3 7 4 6 5 5 6 4 7 2 8 1 9 3 10 11 11 12 12 13 13
REMARK SMILES IDX 14 14 15 15 16 16 17 17 18 18 19 19 20 20
REMARK H PARENT
REMARK Flexibility Score: inf
ROOT
ATOM      1  C   UNL     1      88.883 325.091 198.466  1.00  0.00     0.000 C 
ENDROOT
BRANCH   1   2
ATOM      2  C   UNL     1      89.242 326.477 199.048  1.00  0.00     0.000 C 
BRANCH   2   3
ATOM      3  C   UNL     1      89.778 326.415 200.488  1.00  0.00     0.000 C 
BRANCH   3   4
ATOM      4  C   UNL     1      88.675 326.133 201.519  1.00  0.00     0.000 C 
BRANCH   4   5
ATOM      5  C   UNL     1      89.220 325.956 202.946  1.00  0.00     0.000 C 
BRANCH   5   6
ATOM      6  C   UNL     1      89.272 327.270 203.754  1.00  0.00     0.006 C 
BRANCH   6   7
ATOM      7  C   UNL     1      90.696 327.621 204.203  1.00  0.00     0.053 C 
BRANCH   7   8
ATOM      8  C   UNL     1      90.817 327.514 205.690  1.00  0.00     0.041 C 
ATOM      9  O   UNL     1      89.882 327.015 206.369  1.00  0.00    -0.550 OA
ATOM     10  O   UNL     1      91.944 328.012 206.333  1.00  0.00    -0.550 OA
ENDBRANCH   7   8
ENDBRANCH   6   7
ENDBRANCH   5   6
ENDBRANCH   4   5
ENDBRANCH   3   4
ENDBRANCH   2   3
ENDBRANCH   1   2
BRANCH   1  11
ATOM     11  C   UNL     1      89.087 324.999 196.943  1.00  0.00     0.000 C 
BRANCH  11  12
ATOM     12  C   UNL     1      88.794 326.332 196.237  1.00  0.00     0.000 C 
BRANCH  12  13
ATOM     13  C   UNL     1      87.302 326.449 195.886  1.00  0.00     0.000 C 
BRANCH  13  14
ATOM     14  C   UNL     1      87.060 326.655 194.382  1.00  0.00     0.000 C 
BRANCH  14  15
ATOM     15  C   UNL     1      86.548 325.381 193.688  1.00  0.00     0.000 C 
BRANCH  15  16
ATOM     16  C   UNL     1      87.688 324.439 193.267  1.00  0.00     0.006 C 
BRANCH  16  17
ATOM     17  C   UNL     1      88.023 324.543 191.773  1.00  0.00     0.053 C 
BRANCH  17  18
ATOM     18  C   UNL     1      87.452 323.377 191.029  1.00  0.00     0.041 C 
ATOM     19  O   UNL     1      88.199 322.652 190.320  1.00  0.00    -0.550 OA
ATOM     20  O   UNL     1      86.088 323.120 191.080  1.00  0.00    -0.550 OA
ENDBRANCH  17  18
ENDBRANCH  16  17
ENDBRANCH  15  16
ENDBRANCH  14  15
ENDBRANCH  13  14
ENDBRANCH  12  13
ENDBRANCH  11  12
ENDBRANCH   1  11
TORSDOF 15
ENDMDL
