MODEL 1
REMARK VINA RESULT:    -5.761      0.000      0.000
REMARK INTER + INTRA:         -10.583
REMARK INTER:                  -8.793
REMARK INTRA:                  -1.790
REMARK UNBOUND:                -1.790
REMARK SMILES CC(=O)CCC=C(C)CCC=C(C)CCC=C(C)C
REMARK SMILES IDX 10 1 11 2 12 3 13 4 14 5 15 6 16 7 18 8 17 9 19 10 9 11 7 12
REMARK SMILES IDX 6 13 8 14 5 15 4 16 2 17 3 18 1 19
REMARK H PARENT
REMARK Flexibility Score: inf
ROOT
ATOM      1  C   UNL     1      37.554  17.355  26.418  1.00  0.00     0.032 C 
ENDROOT
BRANCH   1   2
ATOM      2  C   UNL     1      37.552  18.800  25.981  1.00  0.00    -0.028 C 
ATOM      3  C   UNL     1      36.688  19.330  25.085  1.00  0.00    -0.077 C 
ATOM      4  C   UNL     1      35.579  18.513  24.467  1.00  0.00     0.039 C 
BRANCH   3   5
ATOM      5  C   UNL     1      36.847  20.781  24.688  1.00  0.00     0.034 C 
BRANCH   5   6
ATOM      6  C   UNL     1      38.048  21.415  25.398  1.00  0.00     0.032 C 
BRANCH   6   7
ATOM      7  C   UNL     1      37.653  22.704  26.072  1.00  0.00    -0.028 C 
ATOM      8  C   UNL     1      37.100  24.204  27.939  1.00  0.00     0.039 C 
ATOM      9  C   UNL     1      37.460  22.842  27.403  1.00  0.00    -0.080 C 
ATOM     10  C   UNL     1      37.573  21.673  28.353  1.00  0.00     0.039 C 
ENDBRANCH   6   7
ENDBRANCH   5   6
ENDBRANCH   3   5
ENDBRANCH   1   2
BRANCH   1  11
ATOM     11  C   UNL     1      38.945  16.717  26.279  1.00  0.00     0.034 C 
BRANCH  11  12
ATOM     12  C   UNL     1      39.355  16.571  24.824  1.00  0.00    -0.077 C 
ATOM     13  C   UNL     1      40.335  17.305  24.249  1.00  0.00    -0.028 C 
ATOM     14  C   UNL     1      38.679  15.514  23.991  1.00  0.00     0.039 C 
BRANCH  13  15
ATOM     15  C   UNL     1      41.093  18.427  24.918  1.00  0.00     0.035 C 
BRANCH  15  16
ATOM     16  C   UNL     1      41.315  19.614  23.968  1.00  0.00     0.079 C 
BRANCH  16  17
ATOM     17  C   UNL     1      42.679  19.570  23.333  1.00  0.00     0.130 C 
ATOM     18  O   UNL     1      42.922  18.736  22.473  1.00  0.00    -0.300 OA
ATOM     19  C   UNL     1      43.747  20.527  23.765  1.00  0.00     0.087 C 
ENDBRANCH  16  17
ENDBRANCH  15  16
ENDBRANCH  13  15
ENDBRANCH  11  12
ENDBRANCH   1  11
TORSDOF 9
ENDMDL
MODEL 2
REMARK VINA RESULT:    -5.727      6.875      8.966
REMARK INTER + INTRA:         -10.530
REMARK INTER:                  -9.252
REMARK INTRA:                  -1.278
REMARK UNBOUND:                -1.790
REMARK SMILES CC(=O)CCC=C(C)CCC=C(C)CCC=C(C)C
REMARK SMILES IDX 10 1 11 2 12 3 13 4 14 5 15 6 16 7 18 8 17 9 19 10 9 11 7 12
REMARK SMILES IDX 6 13 8 14 5 15 4 16 2 17 3 18 1 19
REMARK H PARENT
REMARK Flexibility Score: inf
ROOT
ATOM      1  C   UNL     1      30.866  19.274  18.491  1.00  0.00     0.032 C 
ENDROOT
BRANCH   1   2
ATOM      2  C   UNL     1      31.787  19.138  19.680  1.00  0.00    -0.028 C 
ATOM      3  C   UNL     1      31.374  19.005  20.961  1.00  0.00    -0.077 C 
ATOM      4  C   UNL     1      29.909  18.922  21.322  1.00  0.00     0.039 C 
BRANCH   3   5
ATOM      5  C   UNL     1      32.410  18.949  22.061  1.00  0.00     0.034 C 
BRANCH   5   6
ATOM      6  C   UNL     1      32.521  20.299  22.779  1.00  0.00     0.032 C 
BRANCH   6   7
ATOM      7  C   UNL     1      33.950  20.583  23.166  1.00  0.00    -0.028 C 
ATOM      8  C   UNL     1      35.991  20.462  24.530  1.00  0.00     0.039 C 
ATOM      9  C   UNL     1      34.542  20.125  24.292  1.00  0.00    -0.080 C 
ATOM     10  C   UNL     1      33.788  19.311  25.317  1.00  0.00     0.039 C 
ENDBRANCH   6   7
ENDBRANCH   5   6
ENDBRANCH   3   5
ENDBRANCH   1   2
BRANCH   1  11
ATOM     11  C   UNL     1      31.560  19.960  17.305  1.00  0.00     0.034 C 
BRANCH  11  12
ATOM     12  C   UNL     1      31.916  18.970  16.210  1.00  0.00    -0.077 C 
ATOM     13  C   UNL     1      33.140  18.407  16.083  1.00  0.00    -0.028 C 
ATOM     14  C   UNL     1      30.837  18.546  15.248  1.00  0.00     0.039 C 
BRANCH  13  15
ATOM     15  C   UNL     1      34.346  18.739  16.930  1.00  0.00     0.035 C 
BRANCH  15  16
ATOM     16  C   UNL     1      35.193  19.858  16.307  1.00  0.00     0.079 C 
BRANCH  16  17
ATOM     17  C   UNL     1      34.962  21.178  16.993  1.00  0.00     0.130 C 
ATOM     18  O   UNL     1      35.045  22.217  16.355  1.00  0.00    -0.300 OA
ATOM     19  C   UNL     1      34.654  21.226  18.459  1.00  0.00     0.087 C 
ENDBRANCH  16  17
ENDBRANCH  15  16
ENDBRANCH  13  15
ENDBRANCH  11  12
ENDBRANCH   1  11
TORSDOF 9
ENDMDL
MODEL 3
REMARK VINA RESULT:    -5.723      8.298     10.086
REMARK INTER + INTRA:         -10.525
REMARK INTER:                  -9.577
REMARK INTRA:                  -0.948
REMARK UNBOUND:                -1.790
REMARK SMILES CC(=O)CCC=C(C)CCC=C(C)CCC=C(C)C
REMARK SMILES IDX 10 1 11 2 12 3 13 4 14 5 15 6 16 7 18 8 17 9 19 10 9 11 7 12
REMARK SMILES IDX 6 13 8 14 5 15 4 16 2 17 3 18 1 19
REMARK H PARENT
REMARK Flexibility Score: inf
ROOT
ATOM      1  C   UNL     1      31.668  19.307  19.711  1.00  0.00     0.032 C 
ENDROOT
BRANCH   1   2
ATOM      2  C   UNL     1      32.049  19.045  21.148  1.00  0.00    -0.028 C 
ATOM      3  C   UNL     1      31.185  19.068  22.188  1.00  0.00    -0.077 C 
ATOM      4  C   UNL     1      29.708  19.309  21.992  1.00  0.00     0.039 C 
BRANCH   3   5
ATOM      5  C   UNL     1      31.721  18.854  23.587  1.00  0.00     0.034 C 
BRANCH   5   6
ATOM      6  C   UNL     1      30.767  19.441  24.634  1.00  0.00     0.032 C 
BRANCH   6   7
ATOM      7  C   UNL     1      30.703  18.558  25.854  1.00  0.00    -0.028 C 
ATOM      8  C   UNL     1      29.735  17.582  27.891  1.00  0.00     0.039 C 
ATOM      9  C   UNL     1      29.678  18.545  26.734  1.00  0.00    -0.080 C 
ATOM     10  C   UNL     1      28.497  19.479  26.600  1.00  0.00     0.039 C 
ENDBRANCH   6   7
ENDBRANCH   5   6
ENDBRANCH   3   5
ENDBRANCH   1   2
BRANCH   1  11
ATOM     11  C   UNL     1      32.897  19.343  18.790  1.00  0.00     0.034 C 
BRANCH  11  12
ATOM     12  C   UNL     1      33.055  20.692  18.111  1.00  0.00    -0.077 C 
ATOM     13  C   UNL     1      32.283  21.102  17.078  1.00  0.00    -0.028 C 
ATOM     14  C   UNL     1      34.084  21.651  18.651  1.00  0.00     0.039 C 
BRANCH  13  15
ATOM     15  C   UNL     1      31.232  20.265  16.388  1.00  0.00     0.035 C 
BRANCH  15  16
ATOM     16  C   UNL     1      31.796  19.537  15.159  1.00  0.00     0.079 C 
BRANCH  16  17
ATOM     17  C   UNL     1      32.194  18.121  15.486  1.00  0.00     0.130 C 
ATOM     18  O   UNL     1      31.331  17.278  15.681  1.00  0.00    -0.300 OA
ATOM     19  C   UNL     1      33.640  17.747  15.595  1.00  0.00     0.087 C 
ENDBRANCH  16  17
ENDBRANCH  15  16
ENDBRANCH  13  15
ENDBRANCH  11  12
ENDBRANCH   1  11
TORSDOF 9
ENDMDL
MODEL 4
REMARK VINA RESULT:    -5.692      7.847     11.013
REMARK INTER + INTRA:         -10.478
REMARK INTER:                  -9.254
REMARK INTRA:                  -1.224
REMARK UNBOUND:                -1.790
REMARK SMILES CC(=O)CCC=C(C)CCC=C(C)CCC=C(C)C
REMARK SMILES IDX 10 1 11 2 12 3 13 4 14 5 15 6 16 7 18 8 17 9 19 10 9 11 7 12
REMARK SMILES IDX 6 13 8 14 5 15 4 16 2 17 3 18 1 19
REMARK H PARENT
REMARK Flexibility Score: inf
ROOT
ATOM      1  C   UNL     1      29.870  18.400  26.463  1.00  0.00     0.032 C 
ENDROOT
BRANCH   1   2
ATOM      2  C   UNL     1      30.573  19.296  25.473  1.00  0.00    -0.028 C 
ATOM      3  C   UNL     1      31.554  18.893  24.633  1.00  0.00    -0.077 C 
ATOM      4  C   UNL     1      32.008  17.454  24.570  1.00  0.00     0.039 C 
BRANCH   3   5
ATOM      5  C   UNL     1      32.218  19.918  23.741  1.00  0.00     0.034 C 
BRANCH   5   6
ATOM      6  C   UNL     1      33.629  19.468  23.346  1.00  0.00     0.032 C 
BRANCH   6   7
ATOM      7  C   UNL     1      34.666  20.406  23.910  1.00  0.00    -0.028 C 
ATOM      8  C   UNL     1      36.531  21.118  25.344  1.00  0.00     0.039 C 
ATOM      9  C   UNL     1      35.522  20.088  24.906  1.00  0.00    -0.080 C 
ATOM     10  C   UNL     1      35.479  18.746  25.600  1.00  0.00     0.039 C 
ENDBRANCH   6   7
ENDBRANCH   5   6
ENDBRANCH   3   5
ENDBRANCH   1   2
BRANCH   1  11
ATOM     11  C   UNL     1      28.964  19.197  27.414  1.00  0.00     0.034 C 
BRANCH  11  12
ATOM     12  C   UNL     1      28.169  18.285  28.332  1.00  0.00    -0.077 C 
ATOM     13  C   UNL     1      26.836  18.083  28.211  1.00  0.00    -0.028 C 
ATOM     14  C   UNL     1      28.908  17.519  29.398  1.00  0.00     0.039 C 
BRANCH  13  15
ATOM     15  C   UNL     1      25.932  18.788  27.229  1.00  0.00     0.035 C 
BRANCH  15  16
ATOM     16  C   UNL     1      25.142  19.926  27.893  1.00  0.00     0.079 C 
BRANCH  16  17
ATOM     17  C   UNL     1      25.912  21.220  27.876  1.00  0.00     0.130 C 
ATOM     18  O   UNL     1      25.896  21.924  26.878  1.00  0.00    -0.300 OA
ATOM     19  C   UNL     1      26.716  21.637  29.070  1.00  0.00     0.087 C 
ENDBRANCH  16  17
ENDBRANCH  15  16
ENDBRANCH  13  15
ENDBRANCH  11  12
ENDBRANCH   1  11
TORSDOF 9
ENDMDL
MODEL 5
REMARK VINA RESULT:    -5.599      5.632      8.443
REMARK INTER + INTRA:         -10.335
REMARK INTER:                  -8.916
REMARK INTRA:                  -1.419
REMARK UNBOUND:                -1.790
REMARK SMILES CC(=O)CCC=C(C)CCC=C(C)CCC=C(C)C
REMARK SMILES IDX 10 1 11 2 12 3 13 4 14 5 15 6 16 7 18 8 17 9 19 10 9 11 7 12
REMARK SMILES IDX 6 13 8 14 5 15 4 16 2 17 3 18 1 19
REMARK H PARENT
REMARK Flexibility Score: inf
ROOT
ATOM      1  C   UNL     1      31.524  18.832  22.156  1.00  0.00     0.032 C 
ENDROOT
BRANCH   1   2
ATOM      2  C   UNL     1      32.339  19.303  20.976  1.00  0.00    -0.028 C 
ATOM      3  C   UNL     1      33.070  20.441  20.952  1.00  0.00    -0.077 C 
ATOM      4  C   UNL     1      33.185  21.340  22.160  1.00  0.00     0.039 C 
BRANCH   3   5
ATOM      5  C   UNL     1      33.783  20.825  19.674  1.00  0.00     0.034 C 
BRANCH   5   6
ATOM      6  C   UNL     1      33.277  19.989  18.493  1.00  0.00     0.032 C 
BRANCH   6   7
ATOM      7  C   UNL     1      32.432  20.827  17.567  1.00  0.00    -0.028 C 
ATOM      8  C   UNL     1      30.762  21.287  15.824  1.00  0.00     0.039 C 
ATOM      9  C   UNL     1      31.567  20.324  16.659  1.00  0.00    -0.080 C 
ATOM     10  C   UNL     1      31.404  18.837  16.447  1.00  0.00     0.039 C 
ENDBRANCH   6   7
ENDBRANCH   5   6
ENDBRANCH   3   5
ENDBRANCH   1   2
BRANCH   1  11
ATOM     11  C   UNL     1      32.314  17.861  23.046  1.00  0.00     0.034 C 
BRANCH  11  12
ATOM     12  C   UNL     1      32.533  18.424  24.440  1.00  0.00    -0.077 C 
ATOM     13  C   UNL     1      33.719  18.913  24.869  1.00  0.00    -0.028 C 
ATOM     14  C   UNL     1      31.355  18.497  25.376  1.00  0.00     0.039 C 
BRANCH  13  15
ATOM     15  C   UNL     1      35.008  18.890  24.084  1.00  0.00     0.035 C 
BRANCH  15  16
ATOM     16  C   UNL     1      36.209  18.519  24.966  1.00  0.00     0.079 C 
BRANCH  16  17
ATOM     17  C   UNL     1      36.497  19.584  25.990  1.00  0.00     0.130 C 
ATOM     18  O   UNL     1      36.554  19.289  27.175  1.00  0.00    -0.300 OA
ATOM     19  C   UNL     1      36.693  21.008  25.567  1.00  0.00     0.087 C 
ENDBRANCH  16  17
ENDBRANCH  15  16
ENDBRANCH  13  15
ENDBRANCH  11  12
ENDBRANCH   1  11
TORSDOF 9
ENDMDL
MODEL 6
REMARK VINA RESULT:    -5.598      6.811      9.192
REMARK INTER + INTRA:         -10.333
REMARK INTER:                  -9.190
REMARK INTRA:                  -1.143
REMARK UNBOUND:                -1.790
REMARK SMILES CC(=O)CCC=C(C)CCC=C(C)CCC=C(C)C
REMARK SMILES IDX 10 1 11 2 12 3 13 4 14 5 15 6 16 7 18 8 17 9 19 10 9 11 7 12
REMARK SMILES IDX 6 13 8 14 5 15 4 16 2 17 3 18 1 19
REMARK H PARENT
REMARK Flexibility Score: inf
ROOT
ATOM      1  C   UNL     1      31.727  19.368  19.954  1.00  0.00     0.032 C 
ENDROOT
BRANCH   1   2
ATOM      2  C   UNL     1      32.226  19.299  21.377  1.00  0.00    -0.028 C 
ATOM      3  C   UNL     1      31.450  19.462  22.472  1.00  0.00    -0.077 C 
ATOM      4  C   UNL     1      29.959  19.678  22.368  1.00  0.00     0.039 C 
BRANCH   3   5
ATOM      5  C   UNL     1      32.099  19.436  23.838  1.00  0.00     0.034 C 
BRANCH   5   6
ATOM      6  C   UNL     1      33.574  19.031  23.735  1.00  0.00     0.032 C 
BRANCH   6   7
ATOM      7  C   UNL     1      34.467  20.123  24.271  1.00  0.00    -0.028 C 
ATOM      8  C   UNL     1      36.448  21.099  25.350  1.00  0.00     0.039 C 
ATOM      9  C   UNL     1      35.644  19.906  24.899  1.00  0.00    -0.080 C 
ATOM     10  C   UNL     1      36.159  18.513  25.176  1.00  0.00     0.039 C 
ENDBRANCH   6   7
ENDBRANCH   5   6
ENDBRANCH   3   5
ENDBRANCH   1   2
BRANCH   1  11
ATOM     11  C   UNL     1      32.878  19.302  18.939  1.00  0.00     0.034 C 
BRANCH  11  12
ATOM     12  C   UNL     1      33.121  20.645  18.273  1.00  0.00    -0.077 C 
ATOM     13  C   UNL     1      32.385  21.107  17.236  1.00  0.00    -0.028 C 
ATOM     14  C   UNL     1      34.199  21.538  18.831  1.00  0.00     0.039 C 
BRANCH  13  15
ATOM     15  C   UNL     1      31.293  20.339  16.530  1.00  0.00     0.035 C 
BRANCH  15  16
ATOM     16  C   UNL     1      31.813  19.636  15.267  1.00  0.00     0.079 C 
BRANCH  16  17
ATOM     17  C   UNL     1      32.179  18.201  15.540  1.00  0.00     0.130 C 
ATOM     18  O   UNL     1      31.298  17.373  15.714  1.00  0.00    -0.300 OA
ATOM     19  C   UNL     1      33.617  17.789  15.623  1.00  0.00     0.087 C 
ENDBRANCH  16  17
ENDBRANCH  15  16
ENDBRANCH  13  15
ENDBRANCH  11  12
ENDBRANCH   1  11
TORSDOF 9
ENDMDL
MODEL 7
REMARK VINA RESULT:    -5.568      2.717      4.944
REMARK INTER + INTRA:         -10.289
REMARK INTER:                  -7.646
REMARK INTRA:                  -2.642
REMARK UNBOUND:                -1.790
REMARK SMILES CC(=O)CCC=C(C)CCC=C(C)CCC=C(C)C
REMARK SMILES IDX 10 1 11 2 12 3 13 4 14 5 15 6 16 7 18 8 17 9 19 10 9 11 7 12
REMARK SMILES IDX 6 13 8 14 5 15 4 16 2 17 3 18 1 19
REMARK H PARENT
REMARK Flexibility Score: inf
ROOT
ATOM      1  C   UNL     1      37.646  17.747  25.679  1.00  0.00     0.032 C 
ENDROOT
BRANCH   1   2
ATOM      2  C   UNL     1      38.776  18.292  26.518  1.00  0.00    -0.028 C 
ATOM      3  C   UNL     1      39.746  19.116  26.060  1.00  0.00    -0.077 C 
ATOM      4  C   UNL     1      39.752  19.626  24.638  1.00  0.00     0.039 C 
BRANCH   3   5
ATOM      5  C   UNL     1      40.858  19.529  26.998  1.00  0.00     0.034 C 
BRANCH   5   6
ATOM      6  C   UNL     1      40.336  19.682  28.432  1.00  0.00     0.032 C 
BRANCH   6   7
ATOM      7  C   UNL     1      40.348  21.130  28.853  1.00  0.00    -0.028 C 
ATOM      8  C   UNL     1      39.543  23.170  29.964  1.00  0.00     0.039 C 
ATOM      9  C   UNL     1      39.378  21.720  29.586  1.00  0.00    -0.080 C 
ATOM     10  C   UNL     1      38.135  20.976  30.015  1.00  0.00     0.039 C 
ENDBRANCH   6   7
ENDBRANCH   5   6
ENDBRANCH   3   5
ENDBRANCH   1   2
BRANCH   1  11
ATOM     11  C   UNL     1      36.280  18.274  26.146  1.00  0.00     0.034 C 
BRANCH  11  12
ATOM     12  C   UNL     1      35.760  19.375  25.238  1.00  0.00    -0.077 C 
ATOM     13  C   UNL     1      36.020  20.688  25.434  1.00  0.00    -0.028 C 
ATOM     14  C   UNL     1      34.959  18.984  24.023  1.00  0.00     0.039 C 
BRANCH  13  15
ATOM     15  C   UNL     1      36.771  21.263  26.611  1.00  0.00     0.035 C 
BRANCH  15  16
ATOM     16  C   UNL     1      37.786  22.331  26.176  1.00  0.00     0.079 C 
BRANCH  16  17
ATOM     17  C   UNL     1      37.619  23.608  26.956  1.00  0.00     0.130 C 
ATOM     18  O   UNL     1      38.462  24.488  26.867  1.00  0.00    -0.300 OA
ATOM     19  C   UNL     1      36.438  23.795  27.859  1.00  0.00     0.087 C 
ENDBRANCH  16  17
ENDBRANCH  15  16
ENDBRANCH  13  15
ENDBRANCH  11  12
ENDBRANCH   1  11
TORSDOF 9
ENDMDL
MODEL 8
REMARK VINA RESULT:    -5.543      5.737      8.473
REMARK INTER + INTRA:         -10.249
REMARK INTER:                  -9.172
REMARK INTRA:                  -1.077
REMARK UNBOUND:                -1.790
REMARK SMILES CC(=O)CCC=C(C)CCC=C(C)CCC=C(C)C
REMARK SMILES IDX 10 1 11 2 12 3 13 4 14 5 15 6 16 7 18 8 17 9 19 10 9 11 7 12
REMARK SMILES IDX 6 13 8 14 5 15 4 16 2 17 3 18 1 19
REMARK H PARENT
REMARK Flexibility Score: inf
ROOT
ATOM      1  C   UNL     1      31.746  18.607  21.461  1.00  0.00     0.032 C 
ENDROOT
BRANCH   1   2
ATOM      2  C   UNL     1      32.721  19.620  20.911  1.00  0.00    -0.028 C 
ATOM      3  C   UNL     1      32.730  20.064  19.633  1.00  0.00    -0.077 C 
ATOM      4  C   UNL     1      31.698  19.614  18.626  1.00  0.00     0.039 C 
BRANCH   3   5
ATOM      5  C   UNL     1      33.811  21.031  19.203  1.00  0.00     0.034 C 
BRANCH   5   6
ATOM      6  C   UNL     1      33.665  21.391  17.720  1.00  0.00     0.032 C 
BRANCH   6   7
ATOM      7  C   UNL     1      34.869  20.932  16.938  1.00  0.00    -0.028 C 
ATOM      8  C   UNL     1      36.119  19.647  15.257  1.00  0.00     0.039 C 
ATOM      9  C   UNL     1      34.840  19.977  15.982  1.00  0.00    -0.080 C 
ATOM     10  C   UNL     1      33.575  19.224  15.641  1.00  0.00     0.039 C 
ENDBRANCH   6   7
ENDBRANCH   5   6
ENDBRANCH   3   5
ENDBRANCH   1   2
BRANCH   1  11
ATOM     11  C   UNL     1      32.246  17.985  22.773  1.00  0.00     0.034 C 
BRANCH  11  12
ATOM     12  C   UNL     1      32.185  18.972  23.925  1.00  0.00    -0.077 C 
ATOM     13  C   UNL     1      33.281  19.528  24.490  1.00  0.00    -0.028 C 
ATOM     14  C   UNL     1      30.832  19.402  24.430  1.00  0.00     0.039 C 
BRANCH  13  15
ATOM     15  C   UNL     1      34.711  19.191  24.139  1.00  0.00     0.035 C 
BRANCH  15  16
ATOM     16  C   UNL     1      35.544  18.859  25.385  1.00  0.00     0.079 C 
BRANCH  16  17
ATOM     17  C   UNL     1      37.021  18.935  25.104  1.00  0.00     0.130 C 
ATOM     18  O   UNL     1      37.675  17.908  25.005  1.00  0.00    -0.300 OA
ATOM     19  C   UNL     1      37.698  20.265  24.966  1.00  0.00     0.087 C 
ENDBRANCH  16  17
ENDBRANCH  15  16
ENDBRANCH  13  15
ENDBRANCH  11  12
ENDBRANCH   1  11
TORSDOF 9
ENDMDL
MODEL 9
REMARK VINA RESULT:    -5.509      2.203      4.616
REMARK INTER + INTRA:         -10.198
REMARK INTER:                  -8.424
REMARK INTRA:                  -1.774
REMARK UNBOUND:                -1.790
REMARK SMILES CC(=O)CCC=C(C)CCC=C(C)CCC=C(C)C
REMARK SMILES IDX 10 1 11 2 12 3 13 4 14 5 15 6 16 7 18 8 17 9 19 10 9 11 7 12
REMARK SMILES IDX 6 13 8 14 5 15 4 16 2 17 3 18 1 19
REMARK H PARENT
REMARK Flexibility Score: inf
ROOT
ATOM      1  C   UNL     1      37.222  21.829  25.431  1.00  0.00     0.032 C 
ENDROOT
BRANCH   1   2
ATOM      2  C   UNL     1      38.160  22.358  26.489  1.00  0.00    -0.028 C 
ATOM      3  C   UNL     1      37.800  23.204  27.482  1.00  0.00    -0.077 C 
ATOM      4  C   UNL     1      36.372  23.663  27.659  1.00  0.00     0.039 C 
BRANCH   3   5
ATOM      5  C   UNL     1      38.862  23.707  28.433  1.00  0.00     0.034 C 
BRANCH   5   6
ATOM      6  C   UNL     1      39.701  22.547  28.981  1.00  0.00     0.032 C 
BRANCH   6   7
ATOM      7  C   UNL     1      39.208  22.127  30.342  1.00  0.00    -0.028 C 
ATOM      8  C   UNL     1      38.048  20.725  31.995  1.00  0.00     0.039 C 
ATOM      9  C   UNL     1      38.437  21.042  30.574  1.00  0.00    -0.080 C 
ATOM     10  C   UNL     1      37.940  20.160  29.451  1.00  0.00     0.039 C 
ENDBRANCH   6   7
ENDBRANCH   5   6
ENDBRANCH   3   5
ENDBRANCH   1   2
BRANCH   1  11
ATOM     11  C   UNL     1      37.577  20.393  25.017  1.00  0.00     0.034 C 
BRANCH  11  12
ATOM     12  C   UNL     1      36.537  19.394  25.495  1.00  0.00    -0.077 C 
ATOM     13  C   UNL     1      36.844  18.271  26.184  1.00  0.00    -0.028 C 
ATOM     14  C   UNL     1      35.083  19.696  25.242  1.00  0.00     0.039 C 
BRANCH  13  15
ATOM     15  C   UNL     1      38.241  17.792  26.496  1.00  0.00     0.035 C 
BRANCH  15  16
ATOM     16  C   UNL     1      38.450  16.328  26.083  1.00  0.00     0.079 C 
BRANCH  16  17
ATOM     17  C   UNL     1      39.054  16.218  24.708  1.00  0.00     0.130 C 
ATOM     18  O   UNL     1      38.743  15.286  23.981  1.00  0.00    -0.300 OA
ATOM     19  C   UNL     1      40.049  17.233  24.234  1.00  0.00     0.087 C 
ENDBRANCH  16  17
ENDBRANCH  15  16
ENDBRANCH  13  15
ENDBRANCH  11  12
ENDBRANCH   1  11
TORSDOF 9
ENDMDL
