MODEL 1
REMARK VINA RESULT:    -4.596      0.000      0.000
REMARK INTER + INTRA:          -5.049
REMARK INTER:                  -4.999
REMARK INTRA:                  -0.051
REMARK UNBOUND:                -0.051
REMARK SMILES CCc1cccc(O)c1
REMARK SMILES IDX 3 1 9 2 7 3 6 4 5 5 4 6 2 7 1 8 8 9
REMARK H PARENT 8 10
REMARK Flexibility Score: inf
ROOT
ATOM      1  C   UNL     1      -2.148  -0.205  27.539  1.00  0.00    -0.045 A 
ATOM      2  C   UNL     1      -3.224  -0.635  28.335  1.00  0.00     0.049 A 
ATOM      3  C   UNL     1      -3.128  -0.605  29.730  1.00  0.00     0.115 A 
ATOM      4  C   UNL     1      -1.955  -0.137  30.339  1.00  0.00     0.046 A 
ATOM      5  C   UNL     1      -0.887   0.304  29.553  1.00  0.00     0.004 A 
ATOM      6  C   UNL     1      -0.982   0.275  28.159  1.00  0.00     0.004 A 
ENDROOT
BRANCH   1   7
ATOM      7  C   UNL     1      -2.265  -0.206  26.038  1.00  0.00     0.032 C 
ATOM      8  C   UNL     1      -3.595   0.400  25.601  1.00  0.00     0.009 C 
ENDBRANCH   1   7
BRANCH   3   9
ATOM      9  O   UNL     1      -4.202  -1.040  30.502  1.00  0.00    -0.508 OA
ATOM     10  H   UNL     1      -4.182  -1.932  30.983  1.00  0.00     0.293 HD
ENDBRANCH   3   9
TORSDOF 2
ENDMDL
MODEL 2
REMARK VINA RESULT:    -4.517      2.191      3.516
REMARK INTER + INTRA:          -4.963
REMARK INTER:                  -4.899
REMARK INTRA:                  -0.064
REMARK UNBOUND:                -0.051
REMARK SMILES CCc1cccc(O)c1
REMARK SMILES IDX 3 1 9 2 7 3 6 4 5 5 4 6 2 7 1 8 8 9
REMARK H PARENT 8 10
REMARK Flexibility Score: inf
ROOT
ATOM      1  C   UNL     1      -3.235   0.272  28.613  1.00  0.00    -0.045 A 
ATOM      2  C   UNL     1      -3.519   0.028  27.258  1.00  0.00     0.049 A 
ATOM      3  C   UNL     1      -2.480  -0.131  26.334  1.00  0.00     0.115 A 
ATOM      4  C   UNL     1      -1.148  -0.054  26.763  1.00  0.00     0.046 A 
ATOM      5  C   UNL     1      -0.859   0.175  28.111  1.00  0.00     0.004 A 
ATOM      6  C   UNL     1      -1.896   0.333  29.035  1.00  0.00     0.004 A 
ENDROOT
BRANCH   1   7
ATOM      7  C   UNL     1      -4.353   0.409  29.611  1.00  0.00     0.032 C 
ATOM      8  C   UNL     1      -4.260  -0.677  30.678  1.00  0.00     0.009 C 
ENDBRANCH   1   7
BRANCH   3   9
ATOM      9  O   UNL     1      -2.782  -0.365  24.995  1.00  0.00    -0.508 OA
ATOM     10  H   UNL     1      -2.055  -0.529  24.309  1.00  0.00     0.293 HD
ENDBRANCH   3   9
TORSDOF 2
ENDMDL
MODEL 3
REMARK VINA RESULT:    -4.243      2.485      3.961
REMARK INTER + INTRA:          -4.665
REMARK INTER:                  -4.592
REMARK INTRA:                  -0.073
REMARK UNBOUND:                -0.051
REMARK SMILES CCc1cccc(O)c1
REMARK SMILES IDX 3 1 9 2 7 3 6 4 5 5 4 6 2 7 1 8 8 9
REMARK H PARENT 8 10
REMARK Flexibility Score: inf
ROOT
ATOM      1  C   UNL     1      -1.491   0.838  28.057  1.00  0.00    -0.045 A 
ATOM      2  C   UNL     1      -1.611   0.070  26.886  1.00  0.00     0.049 A 
ATOM      3  C   UNL     1      -2.686   0.273  26.013  1.00  0.00     0.115 A 
ATOM      4  C   UNL     1      -3.644   1.254  26.304  1.00  0.00     0.046 A 
ATOM      5  C   UNL     1      -3.523   2.030  27.460  1.00  0.00     0.004 A 
ATOM      6  C   UNL     1      -2.450   1.828  28.331  1.00  0.00     0.004 A 
ENDROOT
BRANCH   1   7
ATOM      7  C   UNL     1      -0.317   0.642  28.978  1.00  0.00     0.032 C 
ATOM      8  C   UNL     1       0.069   1.956  29.649  1.00  0.00     0.009 C 
ENDBRANCH   1   7
BRANCH   3   9
ATOM      9  O   UNL     1      -2.791  -0.502  24.861  1.00  0.00    -0.508 OA
ATOM     10  H   UNL     1      -3.687  -0.837  24.528  1.00  0.00     0.293 HD
ENDBRANCH   3   9
TORSDOF 2
ENDMDL
MODEL 4
REMARK VINA RESULT:    -4.237      1.091      3.033
REMARK INTER + INTRA:          -4.659
REMARK INTER:                  -4.613
REMARK INTRA:                  -0.046
REMARK UNBOUND:                -0.051
REMARK SMILES CCc1cccc(O)c1
REMARK SMILES IDX 3 1 9 2 7 3 6 4 5 5 4 6 2 7 1 8 8 9
REMARK H PARENT 8 10
REMARK Flexibility Score: inf
ROOT
ATOM      1  C   UNL     1      -1.197   0.594  29.087  1.00  0.00    -0.045 A 
ATOM      2  C   UNL     1      -1.870   0.034  30.186  1.00  0.00     0.049 A 
ATOM      3  C   UNL     1      -3.083  -0.640  30.005  1.00  0.00     0.115 A 
ATOM      4  C   UNL     1      -3.625  -0.766  28.719  1.00  0.00     0.046 A 
ATOM      5  C   UNL     1      -2.955  -0.222  27.620  1.00  0.00     0.004 A 
ATOM      6  C   UNL     1      -1.743   0.451  27.800  1.00  0.00     0.004 A 
ENDROOT
BRANCH   1   7
ATOM      7  C   UNL     1       0.123   1.291  29.279  1.00  0.00     0.032 C 
ATOM      8  C   UNL     1       0.002   2.400  30.319  1.00  0.00     0.009 C 
ENDBRANCH   1   7
BRANCH   3   9
ATOM      9  O   UNL     1      -3.738  -1.184  31.107  1.00  0.00    -0.508 OA
ATOM     10  H   UNL     1      -4.364  -1.976  31.015  1.00  0.00     0.293 HD
ENDBRANCH   3   9
TORSDOF 2
ENDMDL
MODEL 5
REMARK VINA RESULT:    -4.234      2.740      3.223
REMARK INTER + INTRA:          -4.656
REMARK INTER:                  -4.605
REMARK INTRA:                  -0.051
REMARK UNBOUND:                -0.051
REMARK SMILES CCc1cccc(O)c1
REMARK SMILES IDX 3 1 9 2 7 3 6 4 5 5 4 6 2 7 1 8 8 9
REMARK H PARENT 8 10
REMARK Flexibility Score: inf
ROOT
ATOM      1  C   UNL     1      -1.246   0.614  27.560  1.00  0.00    -0.045 A 
ATOM      2  C   UNL     1      -1.635   1.901  27.148  1.00  0.00     0.049 A 
ATOM      3  C   UNL     1      -1.288   3.023  27.908  1.00  0.00     0.115 A 
ATOM      4  C   UNL     1      -0.541   2.864  29.084  1.00  0.00     0.046 A 
ATOM      5  C   UNL     1      -0.140   1.590  29.492  1.00  0.00     0.004 A 
ATOM      6  C   UNL     1      -0.486   0.468  28.733  1.00  0.00     0.004 A 
ENDROOT
BRANCH   1   7
ATOM      7  C   UNL     1      -1.592  -0.588  26.724  1.00  0.00     0.032 C 
ATOM      8  C   UNL     1      -2.543  -0.205  25.595  1.00  0.00     0.009 C 
ENDBRANCH   1   7
BRANCH   3   9
ATOM      9  O   UNL     1      -1.687   4.289  27.487  1.00  0.00    -0.508 OA
ATOM     10  H   UNL     1      -2.226   4.902  28.087  1.00  0.00     0.293 HD
ENDBRANCH   3   9
TORSDOF 2
ENDMDL
MODEL 6
REMARK VINA RESULT:    -4.210      2.828      3.797
REMARK INTER + INTRA:          -4.630
REMARK INTER:                  -4.557
REMARK INTRA:                  -0.073
REMARK UNBOUND:                -0.051
REMARK SMILES CCc1cccc(O)c1
REMARK SMILES IDX 3 1 9 2 7 3 6 4 5 5 4 6 2 7 1 8 8 9
REMARK H PARENT 8 10
REMARK Flexibility Score: inf
ROOT
ATOM      1  C   UNL     1      -1.692   2.188  27.330  1.00  0.00    -0.045 A 
ATOM      2  C   UNL     1      -2.319   1.610  26.212  1.00  0.00     0.049 A 
ATOM      3  C   UNL     1      -2.255   0.229  26.001  1.00  0.00     0.115 A 
ATOM      4  C   UNL     1      -1.568  -0.585  26.912  1.00  0.00     0.046 A 
ATOM      5  C   UNL     1      -0.953  -0.018  28.032  1.00  0.00     0.004 A 
ATOM      6  C   UNL     1      -1.018   1.362  28.244  1.00  0.00     0.004 A 
ENDROOT
BRANCH   1   7
ATOM      7  C   UNL     1      -1.790   3.670  27.574  1.00  0.00     0.032 C 
ATOM      8  C   UNL     1      -0.691   4.134  28.525  1.00  0.00     0.009 C 
ENDBRANCH   1   7
BRANCH   3   9
ATOM      9  O   UNL     1      -2.878  -0.325  24.884  1.00  0.00    -0.508 OA
ATOM     10  H   UNL     1      -3.022   0.212  24.037  1.00  0.00     0.293 HD
ENDBRANCH   3   9
TORSDOF 2
ENDMDL
MODEL 7
REMARK VINA RESULT:    -4.160      2.685      3.953
REMARK INTER + INTRA:          -4.576
REMARK INTER:                  -4.500
REMARK INTRA:                  -0.076
REMARK UNBOUND:                -0.051
REMARK SMILES CCc1cccc(O)c1
REMARK SMILES IDX 3 1 9 2 7 3 6 4 5 5 4 6 2 7 1 8 8 9
REMARK H PARENT 8 10
REMARK Flexibility Score: inf
ROOT
ATOM      1  C   UNL     1      -1.510   1.526  27.675  1.00  0.00    -0.045 A 
ATOM      2  C   UNL     1      -2.612   1.857  26.868  1.00  0.00     0.049 A 
ATOM      3  C   UNL     1      -3.126   0.929  25.956  1.00  0.00     0.115 A 
ATOM      4  C   UNL     1      -2.544  -0.342  25.852  1.00  0.00     0.046 A 
ATOM      5  C   UNL     1      -1.456  -0.682  26.660  1.00  0.00     0.004 A 
ATOM      6  C   UNL     1      -0.942   0.245  27.572  1.00  0.00     0.004 A 
ENDROOT
BRANCH   1   7
ATOM      7  C   UNL     1      -0.978   2.514  28.679  1.00  0.00     0.032 C 
ATOM      8  C   UNL     1       0.113   1.879  29.534  1.00  0.00     0.009 C 
ENDBRANCH   1   7
BRANCH   3   9
ATOM      9  O   UNL     1      -4.216   1.278  25.161  1.00  0.00    -0.508 OA
ATOM     10  H   UNL     1      -4.313   2.209  24.776  1.00  0.00     0.293 HD
ENDBRANCH   3   9
TORSDOF 2
ENDMDL
MODEL 8
REMARK VINA RESULT:    -4.157     15.973     17.200
REMARK INTER + INTRA:          -4.572
REMARK INTER:                  -4.521
REMARK INTRA:                  -0.051
REMARK UNBOUND:                -0.051
REMARK SMILES CCc1cccc(O)c1
REMARK SMILES IDX 3 1 9 2 7 3 6 4 5 5 4 6 2 7 1 8 8 9
REMARK H PARENT 8 10
REMARK Flexibility Score: inf
ROOT
ATOM      1  C   UNL     1     -10.648  11.522  18.367  1.00  0.00    -0.045 A 
ATOM      2  C   UNL     1     -10.208  10.273  18.837  1.00  0.00     0.049 A 
ATOM      3  C   UNL     1     -10.953   9.117  18.581  1.00  0.00     0.115 A 
ATOM      4  C   UNL     1     -12.142   9.204  17.844  1.00  0.00     0.046 A 
ATOM      5  C   UNL     1     -12.578  10.441  17.362  1.00  0.00     0.004 A 
ATOM      6  C   UNL     1     -11.833  11.596  17.617  1.00  0.00     0.004 A 
ENDROOT
BRANCH   1   7
ATOM      7  C   UNL     1      -9.827  12.760  18.615  1.00  0.00     0.032 C 
ATOM      8  C   UNL     1      -8.646  12.449  19.528  1.00  0.00     0.009 C 
ENDBRANCH   1   7
BRANCH   3   9
ATOM      9  O   UNL     1     -10.504   7.889  19.061  1.00  0.00    -0.508 OA
ATOM     10  H   UNL     1      -9.920   7.282  18.498  1.00  0.00     0.293 HD
ENDBRANCH   3   9
TORSDOF 2
ENDMDL
MODEL 9
REMARK VINA RESULT:    -4.093     17.121     18.178
REMARK INTER + INTRA:          -4.503
REMARK INTER:                  -4.453
REMARK INTRA:                  -0.050
REMARK UNBOUND:                -0.051
REMARK SMILES CCc1cccc(O)c1
REMARK SMILES IDX 3 1 9 2 7 3 6 4 5 5 4 6 2 7 1 8 8 9
REMARK H PARENT 8 10
REMARK Flexibility Score: inf
ROOT
ATOM      1  C   UNL     1     -11.287  11.914  18.427  1.00  0.00    -0.045 A 
ATOM      2  C   UNL     1     -12.041  12.381  19.517  1.00  0.00     0.049 A 
ATOM      3  C   UNL     1     -13.302  11.840  19.789  1.00  0.00     0.115 A 
ATOM      4  C   UNL     1     -13.814  10.821  18.974  1.00  0.00     0.046 A 
ATOM      5  C   UNL     1     -13.064  10.343  17.896  1.00  0.00     0.004 A 
ATOM      6  C   UNL     1     -11.804  10.882  17.625  1.00  0.00     0.004 A 
ENDROOT
BRANCH   1   7
ATOM      7  C   UNL     1      -9.916  12.473  18.156  1.00  0.00     0.032 C 
ATOM      8  C   UNL     1      -9.066  12.455  19.422  1.00  0.00     0.009 C 
ENDBRANCH   1   7
BRANCH   3   9
ATOM      9  O   UNL     1     -14.037  12.321  20.871  1.00  0.00    -0.508 OA
ATOM     10  H   UNL     1     -14.510  11.693  21.510  1.00  0.00     0.293 HD
ENDBRANCH   3   9
TORSDOF 2
ENDMDL
