MODEL 1
REMARK VINA RESULT:    -3.928      0.000      0.000
REMARK INTER + INTRA:          -4.178
REMARK INTER:                  -4.157
REMARK INTRA:                  -0.020
REMARK UNBOUND:                -0.020
REMARK SMILES O=C([O-])c1cccnc1
REMARK SMILES IDX 4 1 5 2 9 3 6 4 8 5 7 6 2 7 1 8 3 9
REMARK H PARENT
REMARK Flexibility Score: inf
ROOT
ATOM      1  C   UNL     1      31.383  15.933   0.837  1.00  0.00     0.016 A 
ATOM      2  C   UNL     1      31.830  16.362  -0.424  1.00  0.00     0.013 A 
ATOM      3  C   UNL     1      32.175  16.225   1.961  1.00  0.00     0.120 A 
ATOM      4  C   UNL     1      33.033  17.059  -0.542  1.00  0.00     0.021 A 
ATOM      5  N   UNL     1      33.344  16.906   1.819  1.00  0.00    -0.264 NA
ATOM      6  C   UNL     1      33.785  17.324   0.604  1.00  0.00     0.111 A 
ENDROOT
BRANCH   1   7
ATOM      7  C   UNL     1      30.110  15.194   0.974  1.00  0.00     0.073 C 
ATOM      8  O   UNL     1      29.094  15.540   0.315  1.00  0.00    -0.545 OA
ATOM      9  O   UNL     1      30.017  14.105   1.834  1.00  0.00    -0.545 OA
ENDBRANCH   1   7
TORSDOF 1
ENDMDL
MODEL 2
REMARK VINA RESULT:    -3.723      2.863      3.797
REMARK INTER + INTRA:          -3.961
REMARK INTER:                  -3.942
REMARK INTRA:                  -0.019
REMARK UNBOUND:                -0.020
REMARK SMILES O=C([O-])c1cccnc1
REMARK SMILES IDX 4 1 5 2 9 3 6 4 8 5 7 6 2 7 1 8 3 9
REMARK H PARENT
REMARK Flexibility Score: inf
ROOT
ATOM      1  C   UNL     1      31.805  16.856   0.991  1.00  0.00     0.016 A 
ATOM      2  C   UNL     1      31.490  17.847   1.936  1.00  0.00     0.013 A 
ATOM      3  C   UNL     1      31.054  15.667   0.993  1.00  0.00     0.120 A 
ATOM      4  C   UNL     1      30.454  17.641   2.849  1.00  0.00     0.021 A 
ATOM      5  N   UNL     1      30.050  15.492   1.894  1.00  0.00    -0.264 NA
ATOM      6  C   UNL     1      29.738  16.444   2.812  1.00  0.00     0.111 A 
ENDROOT
BRANCH   1   7
ATOM      7  C   UNL     1      32.900  17.063   0.019  1.00  0.00     0.073 C 
ATOM      8  O   UNL     1      34.039  17.435   0.406  1.00  0.00    -0.545 OA
ATOM      9  O   UNL     1      32.686  16.849  -1.338  1.00  0.00    -0.545 OA
ENDBRANCH   1   7
TORSDOF 1
ENDMDL
MODEL 3
REMARK VINA RESULT:    -3.658      2.656      3.634
REMARK INTER + INTRA:          -3.892
REMARK INTER:                  -3.871
REMARK INTRA:                  -0.020
REMARK UNBOUND:                -0.020
REMARK SMILES O=C([O-])c1cccnc1
REMARK SMILES IDX 4 1 5 2 9 3 6 4 8 5 7 6 2 7 1 8 3 9
REMARK H PARENT
REMARK Flexibility Score: inf
ROOT
ATOM      1  C   UNL     1      31.825  16.766   1.001  1.00  0.00     0.016 A 
ATOM      2  C   UNL     1      30.998  15.637   0.878  1.00  0.00     0.013 A 
ATOM      3  C   UNL     1      31.613  17.635   2.086  1.00  0.00     0.120 A 
ATOM      4  C   UNL     1      29.994  15.398   1.818  1.00  0.00     0.021 A 
ATOM      5  N   UNL     1      30.627  17.379   2.988  1.00  0.00    -0.264 NA
ATOM      6  C   UNL     1      29.822  16.289   2.877  1.00  0.00     0.111 A 
ENDROOT
BRANCH   1   7
ATOM      7  C   UNL     1      32.892  17.030   0.012  1.00  0.00     0.073 C 
ATOM      8  O   UNL     1      34.005  17.490   0.378  1.00  0.00    -0.545 OA
ATOM      9  O   UNL     1      32.679  16.774  -1.338  1.00  0.00    -0.545 OA
ENDBRANCH   1   7
TORSDOF 1
ENDMDL
MODEL 4
REMARK VINA RESULT:    -3.600      1.070      1.668
REMARK INTER + INTRA:          -3.831
REMARK INTER:                  -3.811
REMARK INTRA:                  -0.020
REMARK UNBOUND:                -0.020
REMARK SMILES O=C([O-])c1cccnc1
REMARK SMILES IDX 4 1 5 2 9 3 6 4 8 5 7 6 2 7 1 8 3 9
REMARK H PARENT
REMARK Flexibility Score: inf
ROOT
ATOM      1  C   UNL     1      31.196  16.194   1.306  1.00  0.00     0.016 A 
ATOM      2  C   UNL     1      31.702  17.038   2.308  1.00  0.00     0.013 A 
ATOM      3  C   UNL     1      31.957  16.012   0.138  1.00  0.00     0.120 A 
ATOM      4  C   UNL     1      32.931  17.676   2.133  1.00  0.00     0.021 A 
ATOM      5  N   UNL     1      33.151  16.646  -0.008  1.00  0.00    -0.264 NA
ATOM      6  C   UNL     1      33.649  17.465   0.955  1.00  0.00     0.111 A 
ENDROOT
BRANCH   1   7
ATOM      7  C   UNL     1      29.895  15.512   1.481  1.00  0.00     0.073 C 
ATOM      8  O   UNL     1      29.088  15.416   0.519  1.00  0.00    -0.545 OA
ATOM      9  O   UNL     1      29.545  14.968   2.712  1.00  0.00    -0.545 OA
ENDBRANCH   1   7
TORSDOF 1
ENDMDL
MODEL 5
REMARK VINA RESULT:    -3.541      2.600      3.531
REMARK INTER + INTRA:          -3.768
REMARK INTER:                  -3.746
REMARK INTRA:                  -0.022
REMARK UNBOUND:                -0.020
REMARK SMILES O=C([O-])c1cccnc1
REMARK SMILES IDX 4 1 5 2 9 3 6 4 8 5 7 6 2 7 1 8 3 9
REMARK H PARENT
REMARK Flexibility Score: inf
ROOT
ATOM      1  C   UNL     1      32.111  15.792   0.862  1.00  0.00     0.016 A 
ATOM      2  C   UNL     1      30.724  15.568   0.906  1.00  0.00     0.013 A 
ATOM      3  C   UNL     1      32.952  14.911   1.565  1.00  0.00     0.120 A 
ATOM      4  C   UNL     1      30.210  14.495   1.635  1.00  0.00     0.021 A 
ATOM      5  N   UNL     1      32.425  13.873   2.268  1.00  0.00    -0.264 NA
ATOM      6  C   UNL     1      31.086  13.649   2.317  1.00  0.00     0.111 A 
ENDROOT
BRANCH   1   7
ATOM      7  C   UNL     1      32.667  16.925   0.093  1.00  0.00     0.073 C 
ATOM      8  O   UNL     1      32.052  17.387  -0.904  1.00  0.00    -0.545 OA
ATOM      9  O   UNL     1      33.881  17.496   0.460  1.00  0.00    -0.545 OA
ENDBRANCH   1   7
TORSDOF 1
ENDMDL
MODEL 6
REMARK VINA RESULT:    -3.501      2.818      3.776
REMARK INTER + INTRA:          -3.726
REMARK INTER:                  -3.704
REMARK INTRA:                  -0.022
REMARK UNBOUND:                -0.020
REMARK SMILES O=C([O-])c1cccnc1
REMARK SMILES IDX 4 1 5 2 9 3 6 4 8 5 7 6 2 7 1 8 3 9
REMARK H PARENT
REMARK Flexibility Score: inf
ROOT
ATOM      1  C   UNL     1      32.250  15.819   0.855  1.00  0.00     0.016 A 
ATOM      2  C   UNL     1      33.130  14.942   1.512  1.00  0.00     0.013 A 
ATOM      3  C   UNL     1      30.872  15.546   0.908  1.00  0.00     0.120 A 
ATOM      4  C   UNL     1      32.632  13.832   2.195  1.00  0.00     0.021 A 
ATOM      5  N   UNL     1      30.413  14.456   1.579  1.00  0.00    -0.264 NA
ATOM      6  C   UNL     1      31.256  13.602   2.218  1.00  0.00     0.111 A 
ENDROOT
BRANCH   1   7
ATOM      7  C   UNL     1      32.765  16.999   0.129  1.00  0.00     0.073 C 
ATOM      8  O   UNL     1      33.851  17.538   0.470  1.00  0.00    -0.545 OA
ATOM      9  O   UNL     1      32.055  17.532  -0.942  1.00  0.00    -0.545 OA
ENDBRANCH   1   7
TORSDOF 1
ENDMDL
MODEL 7
REMARK VINA RESULT:    -3.499      2.930      4.036
REMARK INTER + INTRA:          -3.723
REMARK INTER:                  -3.700
REMARK INTRA:                  -0.024
REMARK UNBOUND:                -0.020
REMARK SMILES O=C([O-])c1cccnc1
REMARK SMILES IDX 4 1 5 2 9 3 6 4 8 5 7 6 2 7 1 8 3 9
REMARK H PARENT
REMARK Flexibility Score: inf
ROOT
ATOM      1  C   UNL     1      31.789  16.667   1.511  1.00  0.00     0.016 A 
ATOM      2  C   UNL     1      30.951  16.411   2.609  1.00  0.00     0.013 A 
ATOM      3  C   UNL     1      31.409  16.170   0.251  1.00  0.00     0.120 A 
ATOM      4  C   UNL     1      29.775  15.680   2.439  1.00  0.00     0.021 A 
ATOM      5  N   UNL     1      30.258  15.459   0.112  1.00  0.00    -0.264 NA
ATOM      6  C   UNL     1      29.441  15.207   1.169  1.00  0.00     0.111 A 
ENDROOT
BRANCH   1   7
ATOM      7  C   UNL     1      33.037  17.441   1.679  1.00  0.00     0.073 C 
ATOM      8  O   UNL     1      33.264  18.066   2.748  1.00  0.00    -0.545 OA
ATOM      9  O   UNL     1      33.978  17.489   0.656  1.00  0.00    -0.545 OA
ENDBRANCH   1   7
TORSDOF 1
ENDMDL
MODEL 8
REMARK VINA RESULT:    -3.248      1.640      2.191
REMARK INTER + INTRA:          -3.458
REMARK INTER:                  -3.442
REMARK INTRA:                  -0.017
REMARK UNBOUND:                -0.020
REMARK SMILES O=C([O-])c1cccnc1
REMARK SMILES IDX 4 1 5 2 9 3 6 4 8 5 7 6 2 7 1 8 3 9
REMARK H PARENT
REMARK Flexibility Score: inf
ROOT
ATOM      1  C   UNL     1      31.736  15.305   1.272  1.00  0.00     0.016 A 
ATOM      2  C   UNL     1      33.002  15.805   1.618  1.00  0.00     0.013 A 
ATOM      3  C   UNL     1      31.128  15.780   0.096  1.00  0.00     0.120 A 
ATOM      4  C   UNL     1      33.629  16.751   0.805  1.00  0.00     0.021 A 
ATOM      5  N   UNL     1      31.761  16.703  -0.678  1.00  0.00    -0.264 NA
ATOM      6  C   UNL     1      32.986  17.192  -0.351  1.00  0.00     0.111 A 
ENDROOT
BRANCH   1   7
ATOM      7  C   UNL     1      31.062  14.302   2.124  1.00  0.00     0.073 C 
ATOM      8  O   UNL     1      31.433  13.099   2.114  1.00  0.00    -0.545 OA
ATOM      9  O   UNL     1      30.007  14.676   2.949  1.00  0.00    -0.545 OA
ENDBRANCH   1   7
TORSDOF 1
ENDMDL
MODEL 9
REMARK VINA RESULT:    -3.193      1.798      2.695
REMARK INTER + INTRA:          -3.400
REMARK INTER:                  -3.381
REMARK INTRA:                  -0.020
REMARK UNBOUND:                -0.020
REMARK SMILES O=C([O-])c1cccnc1
REMARK SMILES IDX 4 1 5 2 9 3 6 4 8 5 7 6 2 7 1 8 3 9
REMARK H PARENT
REMARK Flexibility Score: inf
ROOT
ATOM      1  C   UNL     1      30.526  15.477   1.904  1.00  0.00     0.016 A 
ATOM      2  C   UNL     1      29.846  16.372   2.747  1.00  0.00     0.013 A 
ATOM      3  C   UNL     1      31.517  15.988   1.047  1.00  0.00     0.120 A 
ATOM      4  C   UNL     1      30.156  17.732   2.722  1.00  0.00     0.021 A 
ATOM      5  N   UNL     1      31.800  17.319   1.042  1.00  0.00    -0.264 NA
ATOM      6  C   UNL     1      31.147  18.192   1.853  1.00  0.00     0.111 A 
ENDROOT
BRANCH   1   7
ATOM      7  C   UNL     1      30.207  14.034   1.922  1.00  0.00     0.073 C 
ATOM      8  O   UNL     1      31.126  13.173   1.928  1.00  0.00    -0.545 OA
ATOM      9  O   UNL     1      28.883  13.606   1.932  1.00  0.00    -0.545 OA
ENDBRANCH   1   7
TORSDOF 1
ENDMDL
