MODEL 1
REMARK VINA RESULT:    -4.820      0.000      0.000
REMARK INTER + INTRA:         -10.913
REMARK INTER:                  -9.046
REMARK INTRA:                  -1.867
REMARK UNBOUND:                -1.867
REMARK SMILES O=C([O-])CCCCCCCCCCCCCCC(=O)[O-]
REMARK SMILES IDX 10 1 9 2 8 3 7 4 6 5 5 6 4 7 2 8 1 9 3 10 11 11 12 12 13 13
REMARK SMILES IDX 14 14 15 15 16 16 17 17 18 18 19 19 20 20
REMARK H PARENT
REMARK Flexibility Score: inf
ROOT
ATOM      1  C   UNL     1     -10.509  38.612   5.608  1.00  0.00     0.000 C 
ENDROOT
BRANCH   1   2
ATOM      2  C   UNL     1     -11.611  39.221   6.491  1.00  0.00     0.000 C 
BRANCH   2   3
ATOM      3  C   UNL     1     -11.236  39.231   7.983  1.00  0.00     0.000 C 
BRANCH   3   4
ATOM      4  C   UNL     1     -12.236  38.445   8.846  1.00  0.00     0.000 C 
BRANCH   4   5
ATOM      5  C   UNL     1     -11.552  37.404   9.750  1.00  0.00     0.000 C 
BRANCH   5   6
ATOM      6  C   UNL     1     -10.535  36.539   8.990  1.00  0.00     0.006 C 
BRANCH   6   7
ATOM      7  C   UNL     1     -11.206  35.444   8.150  1.00  0.00     0.053 C 
BRANCH   7   8
ATOM      8  C   UNL     1     -11.033  34.108   8.801  1.00  0.00     0.041 C 
ATOM      9  O   UNL     1     -11.017  33.060   8.103  1.00  0.00    -0.550 OA
ATOM     10  O   UNL     1     -10.939  34.014  10.183  1.00  0.00    -0.550 OA
ENDBRANCH   7   8
ENDBRANCH   6   7
ENDBRANCH   5   6
ENDBRANCH   4   5
ENDBRANCH   3   4
ENDBRANCH   2   3
ENDBRANCH   1   2
BRANCH   1  11
ATOM     11  C   UNL     1      -9.095  38.941   6.112  1.00  0.00     0.000 C 
BRANCH  11  12
ATOM     12  C   UNL     1      -8.240  37.668   6.209  1.00  0.00     0.000 C 
BRANCH  12  13
ATOM     13  C   UNL     1      -8.887  36.465   5.505  1.00  0.00     0.000 C 
BRANCH  13  14
ATOM     14  C   UNL     1      -8.030  35.193   5.599  1.00  0.00     0.000 C 
BRANCH  14  15
ATOM     15  C   UNL     1      -8.896  33.935   5.429  1.00  0.00     0.000 C 
BRANCH  15  16
ATOM     16  C   UNL     1      -8.165  32.651   5.849  1.00  0.00     0.006 C 
BRANCH  16  17
ATOM     17  C   UNL     1      -6.661  32.868   6.057  1.00  0.00     0.053 C 
BRANCH  17  18
ATOM     18  C   UNL     1      -5.966  31.558   6.253  1.00  0.00     0.041 C 
ATOM     19  O   UNL     1      -4.868  31.510   6.869  1.00  0.00    -0.550 OA
ATOM     20  O   UNL     1      -6.553  30.383   5.800  1.00  0.00    -0.550 OA
ENDBRANCH  17  18
ENDBRANCH  16  17
ENDBRANCH  15  16
ENDBRANCH  14  15
ENDBRANCH  13  14
ENDBRANCH  12  13
ENDBRANCH  11  12
ENDBRANCH   1  11
TORSDOF 15
ENDMDL
MODEL 2
REMARK VINA RESULT:    -4.783      0.389      5.577
REMARK INTER + INTRA:         -10.845
REMARK INTER:                  -9.148
REMARK INTRA:                  -1.696
REMARK UNBOUND:                -1.867
REMARK SMILES O=C([O-])CCCCCCCCCCCCCCC(=O)[O-]
REMARK SMILES IDX 10 1 9 2 8 3 7 4 6 5 5 6 4 7 2 8 1 9 3 10 11 11 12 12 13 13
REMARK SMILES IDX 14 14 15 15 16 16 17 17 18 18 19 19 20 20
REMARK H PARENT
REMARK Flexibility Score: inf
ROOT
ATOM      1  C   UNL     1      -9.116  38.882   6.122  1.00  0.00     0.000 C 
ENDROOT
BRANCH   1   2
ATOM      2  C   UNL     1      -8.199  37.649   6.084  1.00  0.00     0.000 C 
BRANCH   2   3
ATOM      3  C   UNL     1      -8.892  36.415   5.480  1.00  0.00     0.000 C 
BRANCH   3   4
ATOM      4  C   UNL     1      -8.085  35.124   5.692  1.00  0.00     0.000 C 
BRANCH   4   5
ATOM      5  C   UNL     1      -8.825  33.871   5.189  1.00  0.00     0.000 C 
BRANCH   5   6
ATOM      6  C   UNL     1      -8.089  32.569   5.542  1.00  0.00     0.006 C 
BRANCH   6   7
ATOM      7  C   UNL     1      -6.701  32.823   6.143  1.00  0.00     0.053 C 
BRANCH   7   8
ATOM      8  C   UNL     1      -5.962  31.533   6.314  1.00  0.00     0.041 C 
ATOM      9  O   UNL     1      -4.826  31.520   6.856  1.00  0.00    -0.550 OA
ATOM     10  O   UNL     1      -6.506  30.350   5.830  1.00  0.00    -0.550 OA
ENDBRANCH   7   8
ENDBRANCH   6   7
ENDBRANCH   5   6
ENDBRANCH   4   5
ENDBRANCH   3   4
ENDBRANCH   2   3
ENDBRANCH   1   2
BRANCH   1  11
ATOM     11  C   UNL     1     -10.539  38.580   5.625  1.00  0.00     0.000 C 
BRANCH  11  12
ATOM     12  C   UNL     1     -11.530  39.641   6.129  1.00  0.00     0.000 C 
BRANCH  12  13
ATOM     13  C   UNL     1     -12.416  39.127   7.275  1.00  0.00     0.000 C 
BRANCH  13  14
ATOM     14  C   UNL     1     -11.657  39.015   8.606  1.00  0.00     0.000 C 
BRANCH  14  15
ATOM     15  C   UNL     1     -11.818  37.612   9.212  1.00  0.00     0.000 C 
BRANCH  15  16
ATOM     16  C   UNL     1     -10.639  36.684   8.881  1.00  0.00     0.006 C 
BRANCH  16  17
ATOM     17  C   UNL     1     -11.046  35.505   7.988  1.00  0.00     0.053 C 
BRANCH  17  18
ATOM     18  C   UNL     1     -11.026  34.229   8.767  1.00  0.00     0.041 C 
ATOM     19  O   UNL     1     -11.036  33.121   8.166  1.00  0.00    -0.550 OA
ATOM     20  O   UNL     1     -10.945  34.259  10.153  1.00  0.00    -0.550 OA
ENDBRANCH  17  18
ENDBRANCH  16  17
ENDBRANCH  15  16
ENDBRANCH  14  15
ENDBRANCH  13  14
ENDBRANCH  12  13
ENDBRANCH  11  12
ENDBRANCH   1  11
TORSDOF 15
ENDMDL
MODEL 3
REMARK VINA RESULT:    -4.723      3.002      8.496
REMARK INTER + INTRA:         -10.732
REMARK INTER:                  -9.748
REMARK INTRA:                  -0.984
REMARK UNBOUND:                -1.867
REMARK SMILES O=C([O-])CCCCCCCCCCCCCCC(=O)[O-]
REMARK SMILES IDX 10 1 9 2 8 3 7 4 6 5 5 6 4 7 2 8 1 9 3 10 11 11 12 12 13 13
REMARK SMILES IDX 14 14 15 15 16 16 17 17 18 18 19 19 20 20
REMARK H PARENT
REMARK Flexibility Score: inf
ROOT
ATOM      1  C   UNL     1      -6.527  33.466   5.987  1.00  0.00     0.000 C 
ENDROOT
BRANCH   1   2
ATOM      2  C   UNL     1      -6.688  32.111   6.695  1.00  0.00     0.000 C 
BRANCH   2   3
ATOM      3  C   UNL     1      -5.745  31.034   6.131  1.00  0.00     0.000 C 
BRANCH   3   4
ATOM      4  C   UNL     1      -6.499  29.933   5.366  1.00  0.00     0.000 C 
BRANCH   4   5
ATOM      5  C   UNL     1      -5.850  28.547   5.526  1.00  0.00     0.000 C 
BRANCH   5   6
ATOM      6  C   UNL     1      -4.335  28.628   5.769  1.00  0.00     0.006 C 
BRANCH   6   7
ATOM      7  C   UNL     1      -3.900  27.877   7.033  1.00  0.00     0.053 C 
BRANCH   7   8
ATOM      8  C   UNL     1      -2.855  28.654   7.769  1.00  0.00     0.041 C 
ATOM      9  O   UNL     1      -3.021  29.882   7.996  1.00  0.00    -0.550 OA
ATOM     10  O   UNL     1      -1.676  28.036   8.161  1.00  0.00    -0.550 OA
ENDBRANCH   7   8
ENDBRANCH   6   7
ENDBRANCH   5   6
ENDBRANCH   4   5
ENDBRANCH   3   4
ENDBRANCH   2   3
ENDBRANCH   1   2
BRANCH   1  11
ATOM     11  C   UNL     1      -7.693  33.784   5.038  1.00  0.00     0.000 C 
BRANCH  11  12
ATOM     12  C   UNL     1      -9.020  33.858   5.808  1.00  0.00     0.000 C 
BRANCH  12  13
ATOM     13  C   UNL     1      -9.695  35.235   5.693  1.00  0.00     0.000 C 
BRANCH  13  14
ATOM     14  C   UNL     1      -9.150  36.249   6.711  1.00  0.00     0.000 C 
BRANCH  14  15
ATOM     15  C   UNL     1      -8.378  37.373   6.005  1.00  0.00     0.000 C 
BRANCH  15  16
ATOM     16  C   UNL     1      -8.982  38.762   6.266  1.00  0.00     0.006 C 
BRANCH  16  17
ATOM     17  C   UNL     1     -10.415  38.892   5.735  1.00  0.00     0.053 C 
BRANCH  17  18
ATOM     18  C   UNL     1     -11.363  39.185   6.854  1.00  0.00     0.041 C 
ATOM     19  O   UNL     1     -10.968  39.129   8.049  1.00  0.00    -0.550 OA
ATOM     20  O   UNL     1     -12.670  39.568   6.578  1.00  0.00    -0.550 OA
ENDBRANCH  17  18
ENDBRANCH  16  17
ENDBRANCH  15  16
ENDBRANCH  14  15
ENDBRANCH  13  14
ENDBRANCH  12  13
ENDBRANCH  11  12
ENDBRANCH   1  11
TORSDOF 15
ENDMDL
MODEL 4
REMARK VINA RESULT:    -4.637      1.215      6.276
REMARK INTER + INTRA:         -10.570
REMARK INTER:                  -8.861
REMARK INTRA:                  -1.709
REMARK UNBOUND:                -1.867
REMARK SMILES O=C([O-])CCCCCCCCCCCCCCC(=O)[O-]
REMARK SMILES IDX 10 1 9 2 8 3 7 4 6 5 5 6 4 7 2 8 1 9 3 10 11 11 12 12 13 13
REMARK SMILES IDX 14 14 15 15 16 16 17 17 18 18 19 19 20 20
REMARK H PARENT
REMARK Flexibility Score: inf
ROOT
ATOM      1  C   UNL     1     -10.195  36.678   5.357  1.00  0.00     0.000 C 
ENDROOT
BRANCH   1   2
ATOM      2  C   UNL     1     -10.060  35.154   5.507  1.00  0.00     0.000 C 
BRANCH   2   3
ATOM      3  C   UNL     1      -8.847  34.749   6.362  1.00  0.00     0.000 C 
BRANCH   3   4
ATOM      4  C   UNL     1      -7.745  34.068   5.536  1.00  0.00     0.000 C 
BRANCH   4   5
ATOM      5  C   UNL     1      -8.269  32.878   4.711  1.00  0.00     0.000 C 
BRANCH   5   6
ATOM      6  C   UNL     1      -8.023  31.528   5.402  1.00  0.00     0.006 C 
BRANCH   6   7
ATOM      7  C   UNL     1      -6.923  31.603   6.468  1.00  0.00     0.053 C 
BRANCH   7   8
ATOM      8  C   UNL     1      -5.774  30.720   6.096  1.00  0.00     0.041 C 
ATOM      9  O   UNL     1      -5.966  29.694   5.392  1.00  0.00    -0.550 OA
ATOM     10  O   UNL     1      -4.499  31.001   6.569  1.00  0.00    -0.550 OA
ENDBRANCH   7   8
ENDBRANCH   6   7
ENDBRANCH   5   6
ENDBRANCH   4   5
ENDBRANCH   3   4
ENDBRANCH   2   3
ENDBRANCH   1   2
BRANCH   1  11
ATOM     11  C   UNL     1      -9.150  37.451   6.176  1.00  0.00     0.000 C 
BRANCH  11  12
ATOM     12  C   UNL     1      -9.540  38.932   6.302  1.00  0.00     0.000 C 
BRANCH  12  13
ATOM     13  C   UNL     1     -10.881  39.251   5.621  1.00  0.00     0.000 C 
BRANCH  13  14
ATOM     14  C   UNL     1     -11.982  39.624   6.625  1.00  0.00     0.000 C 
BRANCH  14  15
ATOM     15  C   UNL     1     -11.439  39.610   8.063  1.00  0.00     0.000 C 
BRANCH  15  16
ATOM     16  C   UNL     1     -12.183  38.614   8.967  1.00  0.00     0.006 C 
BRANCH  16  17
ATOM     17  C   UNL     1     -12.387  37.248   8.300  1.00  0.00     0.053 C 
BRANCH  17  18
ATOM     18  C   UNL     1     -11.409  36.253   8.836  1.00  0.00     0.041 C 
ATOM     19  O   UNL     1     -10.401  36.642   9.485  1.00  0.00    -0.550 OA
ATOM     20  O   UNL     1     -11.634  34.893   8.665  1.00  0.00    -0.550 OA
ENDBRANCH  17  18
ENDBRANCH  16  17
ENDBRANCH  15  16
ENDBRANCH  14  15
ENDBRANCH  13  14
ENDBRANCH  12  13
ENDBRANCH  11  12
ENDBRANCH   1  11
TORSDOF 15
ENDMDL
MODEL 5
REMARK VINA RESULT:    -4.604      3.477      6.392
REMARK INTER + INTRA:         -10.509
REMARK INTER:                  -9.736
REMARK INTRA:                  -0.773
REMARK UNBOUND:                -1.867
REMARK SMILES O=C([O-])CCCCCCCCCCCCCCC(=O)[O-]
REMARK SMILES IDX 10 1 9 2 8 3 7 4 6 5 5 6 4 7 2 8 1 9 3 10 11 11 12 12 13 13
REMARK SMILES IDX 14 14 15 15 16 16 17 17 18 18 19 19 20 20
REMARK H PARENT
REMARK Flexibility Score: inf
ROOT
ATOM      1  C   UNL     1      -5.871  32.854   6.180  1.00  0.00     0.000 C 
ENDROOT
BRANCH   1   2
ATOM      2  C   UNL     1      -7.402  32.977   6.118  1.00  0.00     0.000 C 
BRANCH   2   3
ATOM      3  C   UNL     1      -7.864  34.342   5.579  1.00  0.00     0.000 C 
BRANCH   3   4
ATOM      4  C   UNL     1      -9.363  34.590   5.810  1.00  0.00     0.000 C 
BRANCH   4   5
ATOM      5  C   UNL     1      -9.732  36.084   5.774  1.00  0.00     0.000 C 
BRANCH   5   6
ATOM      6  C   UNL     1      -8.518  36.985   5.501  1.00  0.00     0.006 C 
BRANCH   6   7
ATOM      7  C   UNL     1      -8.531  38.263   6.348  1.00  0.00     0.053 C 
BRANCH   7   8
ATOM      8  C   UNL     1      -9.923  38.799   6.463  1.00  0.00     0.041 C 
ATOM      9  O   UNL     1     -10.481  39.332   5.467  1.00  0.00    -0.550 OA
ATOM     10  O   UNL     1     -10.586  38.756   7.682  1.00  0.00    -0.550 OA
ENDBRANCH   7   8
ENDBRANCH   6   7
ENDBRANCH   5   6
ENDBRANCH   4   5
ENDBRANCH   3   4
ENDBRANCH   2   3
ENDBRANCH   1   2
BRANCH   1  11
ATOM     11  C   UNL     1      -5.395  31.396   6.283  1.00  0.00     0.000 C 
BRANCH  11  12
ATOM     12  C   UNL     1      -6.480  30.431   5.780  1.00  0.00     0.000 C 
BRANCH  12  13
ATOM     13  C   UNL     1      -5.893  29.176   5.113  1.00  0.00     0.000 C 
BRANCH  13  14
ATOM     14  C   UNL     1      -6.627  27.890   5.521  1.00  0.00     0.000 C 
BRANCH  14  15
ATOM     15  C   UNL     1      -5.715  26.980   6.358  1.00  0.00     0.000 C 
BRANCH  15  16
ATOM     16  C   UNL     1      -4.312  27.574   6.563  1.00  0.00     0.006 C 
BRANCH  16  17
ATOM     17  C   UNL     1      -3.572  26.946   7.751  1.00  0.00     0.053 C 
BRANCH  17  18
ATOM     18  C   UNL     1      -2.855  27.998   8.534  1.00  0.00     0.041 C 
ATOM     19  O   UNL     1      -2.892  29.201   8.161  1.00  0.00    -0.550 OA
ATOM     20  O   UNL     1      -2.187  27.661   9.705  1.00  0.00    -0.550 OA
ENDBRANCH  17  18
ENDBRANCH  16  17
ENDBRANCH  15  16
ENDBRANCH  14  15
ENDBRANCH  13  14
ENDBRANCH  12  13
ENDBRANCH  11  12
ENDBRANCH   1  11
TORSDOF 15
ENDMDL
MODEL 6
REMARK VINA RESULT:    -4.574      1.446      2.695
REMARK INTER + INTRA:         -10.452
REMARK INTER:                  -9.231
REMARK INTRA:                  -1.221
REMARK UNBOUND:                -1.867
REMARK SMILES O=C([O-])CCCCCCCCCCCCCCC(=O)[O-]
REMARK SMILES IDX 10 1 9 2 8 3 7 4 6 5 5 6 4 7 2 8 1 9 3 10 11 11 12 12 13 13
REMARK SMILES IDX 14 14 15 15 16 16 17 17 18 18 19 19 20 20
REMARK H PARENT
REMARK Flexibility Score: inf
ROOT
ATOM      1  C   UNL     1      -8.208  37.673   5.908  1.00  0.00     0.000 C 
ENDROOT
BRANCH   1   2
ATOM      2  C   UNL     1      -9.098  38.881   6.243  1.00  0.00     0.000 C 
BRANCH   2   3
ATOM      3  C   UNL     1     -10.487  38.792   5.587  1.00  0.00     0.000 C 
BRANCH   3   4
ATOM      4  C   UNL     1     -11.610  39.275   6.518  1.00  0.00     0.000 C 
BRANCH   4   5
ATOM      5  C   UNL     1     -11.166  39.364   7.989  1.00  0.00     0.000 C 
BRANCH   5   6
ATOM      6  C   UNL     1     -11.877  38.337   8.883  1.00  0.00     0.006 C 
BRANCH   6   7
ATOM      7  C   UNL     1     -11.163  36.979   8.902  1.00  0.00     0.053 C 
BRANCH   7   8
ATOM      8  C   UNL     1     -12.146  35.870   8.691  1.00  0.00     0.041 C 
ATOM      9  O   UNL     1     -12.819  35.428   9.659  1.00  0.00    -0.550 OA
ATOM     10  O   UNL     1     -12.282  35.291   7.436  1.00  0.00    -0.550 OA
ENDBRANCH   7   8
ENDBRANCH   6   7
ENDBRANCH   5   6
ENDBRANCH   4   5
ENDBRANCH   3   4
ENDBRANCH   2   3
ENDBRANCH   1   2
BRANCH   1  11
ATOM     11  C   UNL     1      -9.014  36.454   5.435  1.00  0.00     0.000 C 
BRANCH  11  12
ATOM     12  C   UNL     1      -8.942  35.317   6.466  1.00  0.00     0.000 C 
BRANCH  12  13
ATOM     13  C   UNL     1      -8.619  33.956   5.826  1.00  0.00     0.000 C 
BRANCH  13  14
ATOM     14  C   UNL     1      -7.111  33.662   5.789  1.00  0.00     0.000 C 
BRANCH  14  15
ATOM     15  C   UNL     1      -6.785  32.375   6.562  1.00  0.00     0.000 C 
BRANCH  15  16
ATOM     16  C   UNL     1      -5.358  31.869   6.295  1.00  0.00     0.006 C 
BRANCH  16  17
ATOM     17  C   UNL     1      -5.297  30.349   6.102  1.00  0.00     0.053 C 
BRANCH  17  18
ATOM     18  C   UNL     1      -4.000  29.809   6.615  1.00  0.00     0.041 C 
ATOM     19  O   UNL     1      -3.386  28.917   5.970  1.00  0.00    -0.550 OA
ATOM     20  O   UNL     1      -3.442  30.324   7.778  1.00  0.00    -0.550 OA
ENDBRANCH  17  18
ENDBRANCH  16  17
ENDBRANCH  15  16
ENDBRANCH  14  15
ENDBRANCH  13  14
ENDBRANCH  12  13
ENDBRANCH  11  12
ENDBRANCH   1  11
TORSDOF 15
ENDMDL
MODEL 7
REMARK VINA RESULT:    -4.472      1.274      2.282
REMARK INTER + INTRA:         -10.261
REMARK INTER:                  -8.469
REMARK INTRA:                  -1.791
REMARK UNBOUND:                -1.867
REMARK SMILES O=C([O-])CCCCCCCCCCCCCCC(=O)[O-]
REMARK SMILES IDX 10 1 9 2 8 3 7 4 6 5 5 6 4 7 2 8 1 9 3 10 11 11 12 12 13 13
REMARK SMILES IDX 14 14 15 15 16 16 17 17 18 18 19 19 20 20
REMARK H PARENT
REMARK Flexibility Score: inf
ROOT
ATOM      1  C   UNL     1     -11.157  39.389   8.018  1.00  0.00     0.000 C 
ENDROOT
BRANCH   1   2
ATOM      2  C   UNL     1     -12.200  39.999   8.968  1.00  0.00     0.000 C 
BRANCH   2   3
ATOM      3  C   UNL     1     -12.770  38.970   9.959  1.00  0.00     0.000 C 
BRANCH   3   4
ATOM      4  C   UNL     1     -11.841  37.761  10.154  1.00  0.00     0.000 C 
BRANCH   4   5
ATOM      5  C   UNL     1     -12.367  36.489   9.466  1.00  0.00     0.000 C 
BRANCH   5   6
ATOM      6  C   UNL     1     -11.314  35.827   8.564  1.00  0.00     0.006 C 
BRANCH   6   7
ATOM      7  C   UNL     1     -11.918  34.766   7.634  1.00  0.00     0.053 C 
BRANCH   7   8
ATOM      8  C   UNL     1     -11.631  33.393   8.154  1.00  0.00     0.041 C 
ATOM      9  O   UNL     1     -10.441  33.004   8.293  1.00  0.00    -0.550 OA
ATOM     10  O   UNL     1     -12.676  32.524   8.437  1.00  0.00    -0.550 OA
ENDBRANCH   7   8
ENDBRANCH   6   7
ENDBRANCH   5   6
ENDBRANCH   4   5
ENDBRANCH   3   4
ENDBRANCH   2   3
ENDBRANCH   1   2
BRANCH   1  11
ATOM     11  C   UNL     1     -11.675  39.244   6.579  1.00  0.00     0.000 C 
BRANCH  11  12
ATOM     12  C   UNL     1     -10.524  38.927   5.612  1.00  0.00     0.000 C 
BRANCH  12  13
ATOM     13  C   UNL     1      -9.149  38.955   6.299  1.00  0.00     0.000 C 
BRANCH  13  14
ATOM     14  C   UNL     1      -8.262  37.767   5.896  1.00  0.00     0.000 C 
BRANCH  14  15
ATOM     15  C   UNL     1      -9.116  36.546   5.525  1.00  0.00     0.000 C 
BRANCH  15  16
ATOM     16  C   UNL     1      -8.569  35.237   6.116  1.00  0.00     0.006 C 
BRANCH  16  17
ATOM     17  C   UNL     1      -8.939  34.008   5.276  1.00  0.00     0.053 C 
BRANCH  17  18
ATOM     18  C   UNL     1      -7.864  32.972   5.364  1.00  0.00     0.041 C 
ATOM     19  O   UNL     1      -6.763  33.247   5.910  1.00  0.00    -0.550 OA
ATOM     20  O   UNL     1      -8.096  31.687   4.890  1.00  0.00    -0.550 OA
ENDBRANCH  17  18
ENDBRANCH  16  17
ENDBRANCH  15  16
ENDBRANCH  14  15
ENDBRANCH  13  14
ENDBRANCH  12  13
ENDBRANCH  11  12
ENDBRANCH   1  11
TORSDOF 15
ENDMDL
MODEL 8
REMARK VINA RESULT:    -4.463      1.520      2.288
REMARK INTER + INTRA:         -10.244
REMARK INTER:                  -8.706
REMARK INTRA:                  -1.538
REMARK UNBOUND:                -1.867
REMARK SMILES O=C([O-])CCCCCCCCCCCCCCC(=O)[O-]
REMARK SMILES IDX 10 1 9 2 8 3 7 4 6 5 5 6 4 7 2 8 1 9 3 10 11 11 12 12 13 13
REMARK SMILES IDX 14 14 15 15 16 16 17 17 18 18 19 19 20 20
REMARK H PARENT
REMARK Flexibility Score: inf
ROOT
ATOM      1  C   UNL     1      -9.346  38.834   6.050  1.00  0.00     0.000 C 
ENDROOT
BRANCH   1   2
ATOM      2  C   UNL     1     -10.768  38.777   5.468  1.00  0.00     0.000 C 
BRANCH   2   3
ATOM      3  C   UNL     1     -11.688  39.865   6.046  1.00  0.00     0.000 C 
BRANCH   3   4
ATOM      4  C   UNL     1     -12.534  39.357   7.224  1.00  0.00     0.000 C 
BRANCH   4   5
ATOM      5  C   UNL     1     -11.823  39.518   8.580  1.00  0.00     0.000 C 
BRANCH   5   6
ATOM      6  C   UNL     1     -11.930  38.260   9.456  1.00  0.00     0.006 C 
BRANCH   6   7
ATOM      7  C   UNL     1     -10.855  37.218   9.124  1.00  0.00     0.053 C 
BRANCH   7   8
ATOM      8  C   UNL     1     -11.488  35.922   8.725  1.00  0.00     0.041 C 
ATOM      9  O   UNL     1     -12.479  35.915   7.947  1.00  0.00    -0.550 OA
ATOM     10  O   UNL     1     -11.017  34.727   9.251  1.00  0.00    -0.550 OA
ENDBRANCH   7   8
ENDBRANCH   6   7
ENDBRANCH   5   6
ENDBRANCH   4   5
ENDBRANCH   3   4
ENDBRANCH   2   3
ENDBRANCH   1   2
BRANCH   1  11
ATOM     11  C   UNL     1      -8.598  37.498   5.924  1.00  0.00     0.000 C 
BRANCH  11  12
ATOM     12  C   UNL     1      -9.581  36.340   5.690  1.00  0.00     0.000 C 
BRANCH  12  13
ATOM     13  C   UNL     1      -8.957  34.966   5.981  1.00  0.00     0.000 C 
BRANCH  13  14
ATOM     14  C   UNL     1      -7.669  34.718   5.181  1.00  0.00     0.000 C 
BRANCH  14  15
ATOM     15  C   UNL     1      -6.891  33.523   5.753  1.00  0.00     0.000 C 
BRANCH  15  16
ATOM     16  C   UNL     1      -7.792  32.541   6.518  1.00  0.00     0.006 C 
BRANCH  16  17
ATOM     17  C   UNL     1      -8.205  31.332   5.669  1.00  0.00     0.053 C 
BRANCH  17  18
ATOM     18  C   UNL     1      -8.949  30.338   6.502  1.00  0.00     0.041 C 
ATOM     19  O   UNL     1      -8.505  29.166   6.635  1.00  0.00    -0.550 OA
ATOM     20  O   UNL     1     -10.104  30.717   7.173  1.00  0.00    -0.550 OA
ENDBRANCH  17  18
ENDBRANCH  16  17
ENDBRANCH  15  16
ENDBRANCH  14  15
ENDBRANCH  13  14
ENDBRANCH  12  13
ENDBRANCH  11  12
ENDBRANCH   1  11
TORSDOF 15
ENDMDL
MODEL 9
REMARK VINA RESULT:    -4.379     13.469     15.320
REMARK INTER + INTRA:         -10.086
REMARK INTER:                  -7.971
REMARK INTRA:                  -2.115
REMARK UNBOUND:                -1.867
REMARK SMILES O=C([O-])CCCCCCCCCCCCCCC(=O)[O-]
REMARK SMILES IDX 10 1 9 2 8 3 7 4 6 5 5 6 4 7 2 8 1 9 3 10 11 11 12 12 13 13
REMARK SMILES IDX 14 14 15 15 16 16 17 17 18 18 19 19 20 20
REMARK H PARENT
REMARK Flexibility Score: inf
ROOT
ATOM      1  C   UNL     1      -0.692  43.685  -1.321  1.00  0.00     0.000 C 
ENDROOT
BRANCH   1   2
ATOM      2  C   UNL     1       0.041  42.335  -1.264  1.00  0.00     0.000 C 
BRANCH   2   3
ATOM      3  C   UNL     1       0.362  41.897   0.175  1.00  0.00     0.000 C 
BRANCH   3   4
ATOM      4  C   UNL     1      -0.373  42.743   1.226  1.00  0.00     0.000 C 
BRANCH   4   5
ATOM      5  C   UNL     1       0.408  42.860   2.548  1.00  0.00     0.000 C 
BRANCH   5   6
ATOM      6  C   UNL     1       0.460  44.302   3.077  1.00  0.00     0.006 C 
BRANCH   6   7
ATOM      7  C   UNL     1       0.659  44.364   4.597  1.00  0.00     0.053 C 
BRANCH   7   8
ATOM      8  C   UNL     1      -0.664  44.372   5.296  1.00  0.00     0.041 C 
ATOM      9  O   UNL     1      -1.143  43.303   5.757  1.00  0.00    -0.550 OA
ATOM     10  O   UNL     1      -1.391  45.551   5.396  1.00  0.00    -0.550 OA
ENDBRANCH   7   8
ENDBRANCH   6   7
ENDBRANCH   5   6
ENDBRANCH   4   5
ENDBRANCH   3   4
ENDBRANCH   2   3
ENDBRANCH   1   2
BRANCH   1  11
ATOM     11  C   UNL     1       0.224  44.840  -1.755  1.00  0.00     0.000 C 
BRANCH  11  12
ATOM     12  C   UNL     1       0.426  45.839  -0.605  1.00  0.00     0.000 C 
BRANCH  12  13
ATOM     13  C   UNL     1       1.787  45.673   0.092  1.00  0.00     0.000 C 
BRANCH  13  14
ATOM     14  C   UNL     1       2.779  44.842  -0.736  1.00  0.00     0.000 C 
BRANCH  14  15
ATOM     15  C   UNL     1       3.517  43.827   0.150  1.00  0.00     0.000 C 
BRANCH  15  16
ATOM     16  C   UNL     1       3.978  42.586  -0.628  1.00  0.00     0.006 C 
BRANCH  16  17
ATOM     17  C   UNL     1       5.502  42.407  -0.608  1.00  0.00     0.053 C 
BRANCH  17  18
ATOM     18  C   UNL     1       5.863  40.973  -0.828  1.00  0.00     0.041 C 
ATOM     19  O   UNL     1       5.919  40.507  -1.997  1.00  0.00    -0.550 OA
ATOM     20  O   UNL     1       6.189  40.163   0.252  1.00  0.00    -0.550 OA
ENDBRANCH  17  18
ENDBRANCH  16  17
ENDBRANCH  15  16
ENDBRANCH  14  15
ENDBRANCH  13  14
ENDBRANCH  12  13
ENDBRANCH  11  12
ENDBRANCH   1  11
TORSDOF 15
ENDMDL
