MODEL 1
REMARK VINA RESULT:    -3.998      0.000      0.000
REMARK INTER + INTRA:          -4.736
REMARK INTER:                  -4.465
REMARK INTRA:                  -0.270
REMARK UNBOUND:                -0.270
REMARK SMILES CC(=O)c1ccc(O)cc1O
REMARK SMILES IDX 4 1 10 2 9 3 7 4 6 5 5 6 2 7 1 8 3 9 11 10 8 12
REMARK H PARENT 11 11 8 13
REMARK Flexibility Score: inf
ROOT
ATOM      1  C   UNL     1      27.557  37.246  19.879  1.00  0.00     0.059 A 
ATOM      2  C   UNL     1      26.570  38.104  19.337  1.00  0.00     0.130 A 
ATOM      3  C   UNL     1      26.839  38.830  18.167  1.00  0.00     0.093 A 
ATOM      4  C   UNL     1      28.069  38.703  17.519  1.00  0.00     0.119 A 
ATOM      5  C   UNL     1      29.041  37.844  18.040  1.00  0.00     0.047 A 
ATOM      6  C   UNL     1      28.787  37.120  19.206  1.00  0.00     0.019 A 
ENDROOT
BRANCH   1   7
ATOM      7  C   UNL     1      27.340  36.463  21.126  1.00  0.00     0.163 C 
ATOM      8  C   UNL     1      28.077  35.191  21.416  1.00  0.00     0.093 C 
ATOM      9  O   UNL     1      26.507  36.877  21.978  1.00  0.00    -0.294 OA
ENDBRANCH   1   7
BRANCH   2  10
ATOM     10  O   UNL     1      25.317  38.223  19.939  1.00  0.00    -0.507 OA
ATOM     11  H   UNL     1      24.876  39.124  20.080  1.00  0.00     0.293 HD
ENDBRANCH   2  10
BRANCH   4  12
ATOM     12  O   UNL     1      28.313  39.433  16.358  1.00  0.00    -0.508 OA
ATOM     13  H   UNL     1      27.699  40.185  16.067  1.00  0.00     0.293 HD
ENDBRANCH   4  12
TORSDOF 3
ENDMDL
MODEL 2
REMARK VINA RESULT:    -3.969      3.360      5.036
REMARK INTER + INTRA:          -4.703
REMARK INTER:                  -4.410
REMARK INTRA:                  -0.293
REMARK UNBOUND:                -0.270
REMARK SMILES CC(=O)c1ccc(O)cc1O
REMARK SMILES IDX 4 1 10 2 9 3 7 4 6 5 5 6 2 7 1 8 3 9 11 10 8 12
REMARK H PARENT 11 11 8 13
REMARK Flexibility Score: inf
ROOT
ATOM      1  C   UNL     1      26.892  41.432  19.796  1.00  0.00     0.059 A 
ATOM      2  C   UNL     1      26.162  40.899  20.886  1.00  0.00     0.130 A 
ATOM      3  C   UNL     1      25.786  39.547  20.882  1.00  0.00     0.093 A 
ATOM      4  C   UNL     1      26.140  38.714  19.819  1.00  0.00     0.119 A 
ATOM      5  C   UNL     1      26.877  39.231  18.749  1.00  0.00     0.047 A 
ATOM      6  C   UNL     1      27.251  40.576  18.739  1.00  0.00     0.019 A 
ENDROOT
BRANCH   1   7
ATOM      7  C   UNL     1      27.304  42.860  19.732  1.00  0.00     0.163 C 
ATOM      8  C   UNL     1      26.861  43.778  18.633  1.00  0.00     0.093 C 
ATOM      9  O   UNL     1      28.055  43.328  20.632  1.00  0.00    -0.294 OA
ENDBRANCH   1   7
BRANCH   2  10
ATOM     10  O   UNL     1      25.827  41.694  21.981  1.00  0.00    -0.507 OA
ATOM     11  H   UNL     1      26.034  42.685  22.004  1.00  0.00     0.293 HD
ENDBRANCH   2  10
BRANCH   4  12
ATOM     12  O   UNL     1      25.758  37.374  19.837  1.00  0.00    -0.508 OA
ATOM     13  H   UNL     1      25.091  37.005  19.169  1.00  0.00     0.293 HD
ENDBRANCH   4  12
TORSDOF 3
ENDMDL
MODEL 3
REMARK VINA RESULT:    -3.961      2.511      4.113
REMARK INTER + INTRA:          -4.694
REMARK INTER:                  -4.389
REMARK INTRA:                  -0.306
REMARK UNBOUND:                -0.270
REMARK SMILES CC(=O)c1ccc(O)cc1O
REMARK SMILES IDX 4 1 10 2 9 3 7 4 6 5 5 6 2 7 1 8 3 9 11 10 8 12
REMARK H PARENT 11 11 8 13
REMARK Flexibility Score: inf
ROOT
ATOM      1  C   UNL     1      26.845  40.086  20.360  1.00  0.00     0.059 A 
ATOM      2  C   UNL     1      25.849  39.104  20.579  1.00  0.00     0.130 A 
ATOM      3  C   UNL     1      26.192  37.743  20.561  1.00  0.00     0.093 A 
ATOM      4  C   UNL     1      27.514  37.346  20.346  1.00  0.00     0.119 A 
ATOM      5  C   UNL     1      28.504  38.312  20.148  1.00  0.00     0.047 A 
ATOM      6  C   UNL     1      28.174  39.669  20.158  1.00  0.00     0.019 A 
ENDROOT
BRANCH   1   7
ATOM      7  C   UNL     1      26.543  41.543  20.349  1.00  0.00     0.163 C 
ATOM      8  C   UNL     1      27.040  42.460  19.273  1.00  0.00     0.093 C 
ATOM      9  O   UNL     1      25.842  42.036  21.274  1.00  0.00    -0.294 OA
ENDBRANCH   1   7
BRANCH   2  10
ATOM     10  O   UNL     1      24.528  39.469  20.835  1.00  0.00    -0.507 OA
ATOM     11  H   UNL     1      23.891  38.855  21.328  1.00  0.00     0.293 HD
ENDBRANCH   2  10
BRANCH   4  12
ATOM     12  O   UNL     1      27.831  35.990  20.335  1.00  0.00    -0.508 OA
ATOM     13  H   UNL     1      28.733  35.660  20.011  1.00  0.00     0.293 HD
ENDBRANCH   4  12
TORSDOF 3
ENDMDL
MODEL 4
REMARK VINA RESULT:    -3.946      3.292      4.173
REMARK INTER + INTRA:          -4.678
REMARK INTER:                  -4.374
REMARK INTRA:                  -0.304
REMARK UNBOUND:                -0.270
REMARK SMILES CC(=O)c1ccc(O)cc1O
REMARK SMILES IDX 4 1 10 2 9 3 7 4 6 5 5 6 2 7 1 8 3 9 11 10 8 12
REMARK H PARENT 11 11 8 13
REMARK Flexibility Score: inf
ROOT
ATOM      1  C   UNL     1      27.224  39.997  19.737  1.00  0.00     0.059 A 
ATOM      2  C   UNL     1      26.090  40.329  20.516  1.00  0.00     0.130 A 
ATOM      3  C   UNL     1      26.086  41.506  21.281  1.00  0.00     0.093 A 
ATOM      4  C   UNL     1      27.188  42.364  21.269  1.00  0.00     0.119 A 
ATOM      5  C   UNL     1      28.303  42.050  20.487  1.00  0.00     0.047 A 
ATOM      6  C   UNL     1      28.320  40.879  19.727  1.00  0.00     0.019 A 
ENDROOT
BRANCH   1   7
ATOM      7  C   UNL     1      27.297  38.755  18.920  1.00  0.00     0.163 C 
ATOM      8  C   UNL     1      28.417  37.768  19.053  1.00  0.00     0.093 C 
ATOM      9  O   UNL     1      26.387  38.514  18.080  1.00  0.00    -0.294 OA
ENDBRANCH   1   7
BRANCH   2  10
ATOM     10  O   UNL     1      24.959  39.513  20.519  1.00  0.00    -0.507 OA
ATOM     11  H   UNL     1      24.368  39.423  21.337  1.00  0.00     0.293 HD
ENDBRANCH   2  10
BRANCH   4  12
ATOM     12  O   UNL     1      27.161  43.528  22.034  1.00  0.00    -0.508 OA
ATOM     13  H   UNL     1      27.200  43.497  23.047  1.00  0.00     0.293 HD
ENDBRANCH   4  12
TORSDOF 3
ENDMDL
MODEL 5
REMARK VINA RESULT:    -3.917      6.581      9.838
REMARK INTER + INTRA:          -4.645
REMARK INTER:                  -4.377
REMARK INTRA:                  -0.268
REMARK UNBOUND:                -0.270
REMARK SMILES CC(=O)c1ccc(O)cc1O
REMARK SMILES IDX 4 1 10 2 9 3 7 4 6 5 5 6 2 7 1 8 3 9 11 10 8 12
REMARK H PARENT 11 11 8 13
REMARK Flexibility Score: inf
ROOT
ATOM      1  C   UNL     1      28.630  30.928  24.155  1.00  0.00     0.059 A 
ATOM      2  C   UNL     1      28.784  30.648  25.534  1.00  0.00     0.130 A 
ATOM      3  C   UNL     1      28.648  29.332  26.001  1.00  0.00     0.093 A 
ATOM      4  C   UNL     1      28.376  28.288  25.114  1.00  0.00     0.119 A 
ATOM      5  C   UNL     1      28.240  28.556  23.749  1.00  0.00     0.047 A 
ATOM      6  C   UNL     1      28.369  29.863  23.274  1.00  0.00     0.019 A 
ENDROOT
BRANCH   1   7
ATOM      7  C   UNL     1      28.745  32.304  23.601  1.00  0.00     0.163 C 
ATOM      8  C   UNL     1      29.125  32.569  22.175  1.00  0.00     0.093 C 
ATOM      9  O   UNL     1      28.516  33.293  24.349  1.00  0.00    -0.294 OA
ENDBRANCH   1   7
BRANCH   2  10
ATOM     10  O   UNL     1      29.095  31.662  26.440  1.00  0.00    -0.507 OA
ATOM     11  H   UNL     1      28.439  31.960  27.152  1.00  0.00     0.293 HD
ENDBRANCH   2  10
BRANCH   4  12
ATOM     12  O   UNL     1      28.246  26.989  25.600  1.00  0.00    -0.508 OA
ATOM     13  H   UNL     1      28.919  26.597  26.250  1.00  0.00     0.293 HD
ENDBRANCH   4  12
TORSDOF 3
ENDMDL
MODEL 6
REMARK VINA RESULT:    -3.903      3.245      4.185
REMARK INTER + INTRA:          -4.629
REMARK INTER:                  -4.345
REMARK INTRA:                  -0.285
REMARK UNBOUND:                -0.270
REMARK SMILES CC(=O)c1ccc(O)cc1O
REMARK SMILES IDX 4 1 10 2 9 3 7 4 6 5 5 6 2 7 1 8 3 9 11 10 8 12
REMARK H PARENT 11 11 8 13
REMARK Flexibility Score: inf
ROOT
ATOM      1  C   UNL     1      26.487  39.917  20.040  1.00  0.00     0.059 A 
ATOM      2  C   UNL     1      27.063  40.653  18.977  1.00  0.00     0.130 A 
ATOM      3  C   UNL     1      27.130  42.053  19.050  1.00  0.00     0.093 A 
ATOM      4  C   UNL     1      26.647  42.730  20.172  1.00  0.00     0.119 A 
ATOM      5  C   UNL     1      26.093  42.007  21.233  1.00  0.00     0.047 A 
ATOM      6  C   UNL     1      26.016  40.614  21.169  1.00  0.00     0.019 A 
ENDROOT
BRANCH   1   7
ATOM      7  C   UNL     1      26.370  38.434  20.015  1.00  0.00     0.163 C 
ATOM      8  C   UNL     1      25.221  37.706  20.644  1.00  0.00     0.093 C 
ATOM      9  O   UNL     1      27.266  37.753  19.445  1.00  0.00    -0.294 OA
ENDBRANCH   1   7
BRANCH   2  10
ATOM     10  O   UNL     1      27.590  40.005  17.861  1.00  0.00    -0.507 OA
ATOM     11  H   UNL     1      27.209  39.130  17.522  1.00  0.00     0.293 HD
ENDBRANCH   2  10
BRANCH   4  12
ATOM     12  O   UNL     1      26.726  44.120  20.224  1.00  0.00    -0.508 OA
ATOM     13  H   UNL     1      27.595  44.608  20.036  1.00  0.00     0.293 HD
ENDBRANCH   4  12
TORSDOF 3
ENDMDL
MODEL 7
REMARK VINA RESULT:    -3.822      5.130      7.282
REMARK INTER + INTRA:          -4.539
REMARK INTER:                  -4.236
REMARK INTRA:                  -0.303
REMARK UNBOUND:                -0.270
REMARK SMILES CC(=O)c1ccc(O)cc1O
REMARK SMILES IDX 4 1 10 2 9 3 7 4 6 5 5 6 2 7 1 8 3 9 11 10 8 12
REMARK H PARENT 11 11 8 13
REMARK Flexibility Score: inf
ROOT
ATOM      1  C   UNL     1      28.701  31.827  24.069  1.00  0.00     0.059 A 
ATOM      2  C   UNL     1      28.967  31.519  22.713  1.00  0.00     0.130 A 
ATOM      3  C   UNL     1      29.098  32.552  21.773  1.00  0.00     0.093 A 
ATOM      4  C   UNL     1      28.986  33.887  22.164  1.00  0.00     0.119 A 
ATOM      5  C   UNL     1      28.741  34.198  23.505  1.00  0.00     0.047 A 
ATOM      6  C   UNL     1      28.603  33.178  24.449  1.00  0.00     0.019 A 
ENDROOT
BRANCH   1   7
ATOM      7  C   UNL     1      28.534  30.777  25.109  1.00  0.00     0.163 C 
ATOM      8  C   UNL     1      29.125  30.900  26.481  1.00  0.00     0.093 C 
ATOM      9  O   UNL     1      27.871  29.738  24.839  1.00  0.00    -0.294 OA
ENDBRANCH   1   7
BRANCH   2  10
ATOM     10  O   UNL     1      29.124  30.197  22.296  1.00  0.00    -0.507 OA
ATOM     11  H   UNL     1      30.010  29.712  22.380  1.00  0.00     0.293 HD
ENDBRANCH   2  10
BRANCH   4  12
ATOM     12  O   UNL     1      29.122  34.897  21.214  1.00  0.00    -0.508 OA
ATOM     13  H   UNL     1      30.019  35.110  20.793  1.00  0.00     0.293 HD
ENDBRANCH   4  12
TORSDOF 3
ENDMDL
MODEL 8
REMARK VINA RESULT:    -3.784      2.695      4.896
REMARK INTER + INTRA:          -4.497
REMARK INTER:                  -4.252
REMARK INTRA:                  -0.245
REMARK UNBOUND:                -0.270
REMARK SMILES CC(=O)c1ccc(O)cc1O
REMARK SMILES IDX 4 1 10 2 9 3 7 4 6 5 5 6 2 7 1 8 3 9 11 10 8 12
REMARK H PARENT 11 11 8 13
REMARK Flexibility Score: inf
ROOT
ATOM      1  C   UNL     1      26.859  40.815  19.614  1.00  0.00     0.059 A 
ATOM      2  C   UNL     1      27.070  39.750  18.707  1.00  0.00     0.130 A 
ATOM      3  C   UNL     1      26.500  38.492  18.959  1.00  0.00     0.093 A 
ATOM      4  C   UNL     1      25.711  38.284  20.092  1.00  0.00     0.119 A 
ATOM      5  C   UNL     1      25.485  39.338  20.982  1.00  0.00     0.047 A 
ATOM      6  C   UNL     1      26.051  40.592  20.744  1.00  0.00     0.019 A 
ENDROOT
BRANCH   1   7
ATOM      7  C   UNL     1      27.450  42.166  19.413  1.00  0.00     0.163 C 
ATOM      8  C   UNL     1      28.567  42.691  20.262  1.00  0.00     0.093 C 
ATOM      9  O   UNL     1      27.001  42.906  18.495  1.00  0.00    -0.294 OA
ENDBRANCH   1   7
BRANCH   2  10
ATOM     10  O   UNL     1      27.820  39.935  17.546  1.00  0.00    -0.507 OA
ATOM     11  H   UNL     1      28.484  40.695  17.456  1.00  0.00     0.293 HD
ENDBRANCH   2  10
BRANCH   4  12
ATOM     12  O   UNL     1      25.154  37.028  20.321  1.00  0.00    -0.508 OA
ATOM     13  H   UNL     1      24.804  36.457  19.559  1.00  0.00     0.293 HD
ENDBRANCH   4  12
TORSDOF 3
ENDMDL
MODEL 9
REMARK VINA RESULT:    -3.769      6.714      9.939
REMARK INTER + INTRA:          -4.480
REMARK INTER:                  -4.222
REMARK INTRA:                  -0.259
REMARK UNBOUND:                -0.270
REMARK SMILES CC(=O)c1ccc(O)cc1O
REMARK SMILES IDX 4 1 10 2 9 3 7 4 6 5 5 6 2 7 1 8 3 9 11 10 8 12
REMARK H PARENT 11 11 8 13
REMARK Flexibility Score: inf
ROOT
ATOM      1  C   UNL     1      28.800  30.857  24.030  1.00  0.00     0.059 A 
ATOM      2  C   UNL     1      28.917  29.586  23.418  1.00  0.00     0.130 A 
ATOM      3  C   UNL     1      29.025  28.434  24.212  1.00  0.00     0.093 A 
ATOM      4  C   UNL     1      29.000  28.527  25.605  1.00  0.00     0.119 A 
ATOM      5  C   UNL     1      28.866  29.778  26.214  1.00  0.00     0.047 A 
ATOM      6  C   UNL     1      28.764  30.931  25.434  1.00  0.00     0.019 A 
ENDROOT
BRANCH   1   7
ATOM      7  C   UNL     1      28.701  32.117  23.244  1.00  0.00     0.163 C 
ATOM      8  C   UNL     1      28.112  33.375  23.809  1.00  0.00     0.093 C 
ATOM      9  O   UNL     1      29.125  32.140  22.056  1.00  0.00    -0.294 OA
ENDBRANCH   1   7
BRANCH   2  10
ATOM     10  O   UNL     1      28.906  29.456  22.029  1.00  0.00    -0.507 OA
ATOM     11  H   UNL     1      29.443  30.073  21.431  1.00  0.00     0.293 HD
ENDBRANCH   2  10
BRANCH   4  12
ATOM     12  O   UNL     1      29.106  27.369  26.373  1.00  0.00    -0.508 OA
ATOM     13  H   UNL     1      28.330  27.032  26.931  1.00  0.00     0.293 HD
ENDBRANCH   4  12
TORSDOF 3
ENDMDL
