MODEL 1
REMARK VINA RESULT:    -4.758      0.000      0.000
REMARK INTER + INTRA:          -5.942
REMARK INTER:                  -5.732
REMARK INTRA:                  -0.210
REMARK UNBOUND:                -0.210
REMARK SMILES C=CCc1ccc(O)c(OC)c1
REMARK SMILES IDX 9 1 7 2 6 3 5 4 4 5 12 6 10 7 11 8 8 9 3 11 2 12 1 13
REMARK H PARENT 8 10
REMARK Flexibility Score: inf
ROOT
ATOM      1  C   UNL     1     179.803 181.585 184.684  1.00  0.00     0.160 A 
ATOM      2  C   UNL     1     179.302 180.497 183.955  1.00  0.00     0.157 A 
ATOM      3  C   UNL     1     179.726 179.196 184.252  1.00  0.00     0.050 A 
ATOM      4  C   UNL     1     180.651 178.972 185.274  1.00  0.00     0.008 A 
ATOM      5  C   UNL     1     181.170 180.050 186.006  1.00  0.00    -0.040 A 
ATOM      6  C   UNL     1     180.737 181.354 185.714  1.00  0.00     0.054 A 
ENDROOT
BRANCH   1   7
ATOM      7  O   UNL     1     179.349 182.873 184.361  1.00  0.00    -0.493 OA
ATOM      8  C   UNL     1     178.567 183.692 185.223  1.00  0.00     0.278 C 
ENDBRANCH   1   7
BRANCH   2   9
ATOM      9  O   UNL     1     178.378 180.719 182.934  1.00  0.00    -0.504 OA
ATOM     10  H   UNL     1     177.825 181.567 182.895  1.00  0.00     0.293 HD
ENDBRANCH   2   9
BRANCH   5  11
ATOM     11  C   UNL     1     182.144 179.803 187.127  1.00  0.00     0.062 C 
BRANCH  11  12
ATOM     12  C   UNL     1     182.129 180.944 188.106  1.00  0.00    -0.030 C 
ATOM     13  C   UNL     1     183.255 181.556 188.488  1.00  0.00     0.004 C 
ENDBRANCH  11  12
ENDBRANCH   5  11
TORSDOF 4
ENDMDL
MODEL 2
REMARK VINA RESULT:    -4.723      2.435      4.186
REMARK INTER + INTRA:          -5.900
REMARK INTER:                  -5.689
REMARK INTRA:                  -0.211
REMARK UNBOUND:                -0.210
REMARK SMILES C=CCc1ccc(O)c(OC)c1
REMARK SMILES IDX 9 1 7 2 6 3 5 4 4 5 12 6 10 7 11 8 8 9 3 11 2 12 1 13
REMARK H PARENT 8 10
REMARK Flexibility Score: inf
ROOT
ATOM      1  C   UNL     1     179.642 180.280 183.596  1.00  0.00     0.160 A 
ATOM      2  C   UNL     1     179.650 180.196 184.996  1.00  0.00     0.157 A 
ATOM      3  C   UNL     1     180.292 179.128 185.633  1.00  0.00     0.050 A 
ATOM      4  C   UNL     1     180.929 178.138 184.881  1.00  0.00     0.008 A 
ATOM      5  C   UNL     1     180.922 178.201 183.480  1.00  0.00    -0.040 A 
ATOM      6  C   UNL     1     180.285 179.278 182.841  1.00  0.00     0.054 A 
ENDROOT
BRANCH   1   7
ATOM      7  O   UNL     1     178.993 181.369 182.994  1.00  0.00    -0.493 OA
ATOM      8  C   UNL     1     179.518 182.117 181.903  1.00  0.00     0.278 C 
ENDBRANCH   1   7
BRANCH   2   9
ATOM      9  O   UNL     1     179.015 181.184 185.748  1.00  0.00    -0.504 OA
ATOM     10  H   UNL     1     178.139 181.005 186.226  1.00  0.00     0.293 HD
ENDBRANCH   2   9
BRANCH   5  11
ATOM     11  C   UNL     1     181.634 177.149 182.673  1.00  0.00     0.062 C 
BRANCH  11  12
ATOM     12  C   UNL     1     181.613 175.826 183.385  1.00  0.00    -0.030 C 
ATOM     13  C   UNL     1     182.340 174.787 182.961  1.00  0.00     0.004 C 
ENDBRANCH  11  12
ENDBRANCH   5  11
TORSDOF 4
ENDMDL
MODEL 3
REMARK VINA RESULT:    -4.666      1.973      4.110
REMARK INTER + INTRA:          -5.831
REMARK INTER:                  -5.631
REMARK INTRA:                  -0.199
REMARK UNBOUND:                -0.210
REMARK SMILES C=CCc1ccc(O)c(OC)c1
REMARK SMILES IDX 9 1 7 2 6 3 5 4 4 5 12 6 10 7 11 8 8 9 3 11 2 12 1 13
REMARK H PARENT 8 10
REMARK Flexibility Score: inf
ROOT
ATOM      1  C   UNL     1     180.633 180.731 186.266  1.00  0.00     0.160 A 
ATOM      2  C   UNL     1     179.830 181.459 185.376  1.00  0.00     0.157 A 
ATOM      3  C   UNL     1     179.387 180.871 184.185  1.00  0.00     0.050 A 
ATOM      4  C   UNL     1     179.743 179.557 183.873  1.00  0.00     0.008 A 
ATOM      5  C   UNL     1     180.554 178.818 184.747  1.00  0.00    -0.040 A 
ATOM      6  C   UNL     1     180.991 179.406 185.946  1.00  0.00     0.054 A 
ENDROOT
BRANCH   1   7
ATOM      7  O   UNL     1     181.051 181.353 187.452  1.00  0.00    -0.493 OA
ATOM      8  C   UNL     1     182.155 180.924 188.241  1.00  0.00     0.278 C 
ENDBRANCH   1   7
BRANCH   2   9
ATOM      9  O   UNL     1     179.474 182.771 185.686  1.00  0.00    -0.504 OA
ATOM     10  H   UNL     1     180.065 183.554 185.434  1.00  0.00     0.293 HD
ENDBRANCH   2   9
BRANCH   5  11
ATOM     11  C   UNL     1     180.912 177.392 184.422  1.00  0.00     0.062 C 
BRANCH  11  12
ATOM     12  C   UNL     1     181.274 177.251 182.970  1.00  0.00    -0.030 C 
ATOM     13  C   UNL     1     181.613 176.070 182.442  1.00  0.00     0.004 C 
ENDBRANCH  11  12
ENDBRANCH   5  11
TORSDOF 4
ENDMDL
MODEL 4
REMARK VINA RESULT:    -4.628      1.471      3.005
REMARK INTER + INTRA:          -5.785
REMARK INTER:                  -5.552
REMARK INTRA:                  -0.233
REMARK UNBOUND:                -0.210
REMARK SMILES C=CCc1ccc(O)c(OC)c1
REMARK SMILES IDX 9 1 7 2 6 3 5 4 4 5 12 6 10 7 11 8 8 9 3 11 2 12 1 13
REMARK H PARENT 8 10
REMARK Flexibility Score: inf
ROOT
ATOM      1  C   UNL     1     180.526 179.082 184.630  1.00  0.00     0.160 A 
ATOM      2  C   UNL     1     179.596 180.129 184.711  1.00  0.00     0.157 A 
ATOM      3  C   UNL     1     179.701 181.087 185.728  1.00  0.00     0.050 A 
ATOM      4  C   UNL     1     180.730 181.006 186.668  1.00  0.00     0.008 A 
ATOM      5  C   UNL     1     181.663 179.960 186.607  1.00  0.00    -0.040 A 
ATOM      6  C   UNL     1     181.562 179.005 185.583  1.00  0.00     0.054 A 
ENDROOT
BRANCH   1   7
ATOM      7  O   UNL     1     180.391 178.146 183.594  1.00  0.00    -0.493 OA
ATOM      8  C   UNL     1     181.016 176.867 183.577  1.00  0.00     0.278 C 
ENDBRANCH   1   7
BRANCH   2   9
ATOM      9  O   UNL     1     178.567 180.210 183.773  1.00  0.00    -0.504 OA
ATOM     10  H   UNL     1     178.693 180.690 182.889  1.00  0.00     0.293 HD
ENDBRANCH   2   9
BRANCH   5  11
ATOM     11  C   UNL     1     182.789 179.893 187.604  1.00  0.00     0.062 C 
BRANCH  11  12
ATOM     12  C   UNL     1     182.817 181.129 188.460  1.00  0.00    -0.030 C 
ATOM     13  C   UNL     1     183.874 181.947 188.477  1.00  0.00     0.004 C 
ENDBRANCH  11  12
ENDBRANCH   5  11
TORSDOF 4
ENDMDL
MODEL 5
REMARK VINA RESULT:    -4.511      1.790      3.793
REMARK INTER + INTRA:          -5.644
REMARK INTER:                  -5.437
REMARK INTRA:                  -0.207
REMARK UNBOUND:                -0.210
REMARK SMILES C=CCc1ccc(O)c(OC)c1
REMARK SMILES IDX 9 1 7 2 6 3 5 4 4 5 12 6 10 7 11 8 8 9 3 11 2 12 1 13
REMARK H PARENT 8 10
REMARK Flexibility Score: inf
ROOT
ATOM      1  C   UNL     1     179.425 181.030 184.026  1.00  0.00     0.160 A 
ATOM      2  C   UNL     1     179.726 181.598 185.272  1.00  0.00     0.157 A 
ATOM      3  C   UNL     1     180.410 180.851 186.239  1.00  0.00     0.050 A 
ATOM      4  C   UNL     1     180.797 179.537 185.971  1.00  0.00     0.008 A 
ATOM      5  C   UNL     1     180.496 178.950 184.733  1.00  0.00    -0.040 A 
ATOM      6  C   UNL     1     179.817 179.702 183.760  1.00  0.00     0.054 A 
ENDROOT
BRANCH   1   7
ATOM      7  O   UNL     1     178.744 181.812 183.081  1.00  0.00    -0.493 OA
ATOM      8  C   UNL     1     179.348 182.395 181.931  1.00  0.00     0.278 C 
ENDBRANCH   1   7
BRANCH   2   9
ATOM      9  O   UNL     1     179.340 182.911 185.541  1.00  0.00    -0.504 OA
ATOM     10  H   UNL     1     178.382 183.144 185.776  1.00  0.00     0.293 HD
ENDBRANCH   2   9
BRANCH   5  11
ATOM     11  C   UNL     1     180.940 177.543 184.436  1.00  0.00     0.062 C 
BRANCH  11  12
ATOM     12  C   UNL     1     181.443 177.431 183.023  1.00  0.00    -0.030 C 
ATOM     13  C   UNL     1     181.446 176.264 182.369  1.00  0.00     0.004 C 
ENDBRANCH  11  12
ENDBRANCH   5  11
TORSDOF 4
ENDMDL
MODEL 6
REMARK VINA RESULT:    -4.226      2.311      3.238
REMARK INTER + INTRA:          -5.300
REMARK INTER:                  -5.062
REMARK INTRA:                  -0.238
REMARK UNBOUND:                -0.210
REMARK SMILES C=CCc1ccc(O)c(OC)c1
REMARK SMILES IDX 9 1 7 2 6 3 5 4 4 5 12 6 10 7 11 8 8 9 3 11 2 12 1 13
REMARK H PARENT 8 10
REMARK Flexibility Score: inf
ROOT
ATOM      1  C   UNL     1     180.521 179.492 182.350  1.00  0.00     0.160 A 
ATOM      2  C   UNL     1     181.182 178.265 182.508  1.00  0.00     0.157 A 
ATOM      3  C   UNL     1     181.340 177.710 183.784  1.00  0.00     0.050 A 
ATOM      4  C   UNL     1     180.843 178.374 184.907  1.00  0.00     0.008 A 
ATOM      5  C   UNL     1     180.189 179.607 184.768  1.00  0.00    -0.040 A 
ATOM      6  C   UNL     1     180.022 180.158 183.487  1.00  0.00     0.054 A 
ENDROOT
BRANCH   1   7
ATOM      7  O   UNL     1     180.377 180.012 181.054  1.00  0.00    -0.493 OA
ATOM      8  C   UNL     1     180.431 181.398 180.732  1.00  0.00     0.278 C 
ENDBRANCH   1   7
BRANCH   2   9
ATOM      9  O   UNL     1     181.679 177.601 181.386  1.00  0.00    -0.504 OA
ATOM     10  H   UNL     1     182.661 177.638 181.141  1.00  0.00     0.293 HD
ENDBRANCH   2   9
BRANCH   5  11
ATOM     11  C   UNL     1     179.627 180.305 185.978  1.00  0.00     0.062 C 
BRANCH  11  12
ATOM     12  C   UNL     1     180.577 181.360 186.473  1.00  0.00    -0.030 C 
ATOM     13  C   UNL     1     181.467 181.106 187.438  1.00  0.00     0.004 C 
ENDBRANCH  11  12
ENDBRANCH   5  11
TORSDOF 4
ENDMDL
MODEL 7
REMARK VINA RESULT:    -4.186      2.873      3.708
REMARK INTER + INTRA:          -5.252
REMARK INTER:                  -5.020
REMARK INTRA:                  -0.232
REMARK UNBOUND:                -0.210
REMARK SMILES C=CCc1ccc(O)c(OC)c1
REMARK SMILES IDX 9 1 7 2 6 3 5 4 4 5 12 6 10 7 11 8 8 9 3 11 2 12 1 13
REMARK H PARENT 8 10
REMARK Flexibility Score: inf
ROOT
ATOM      1  C   UNL     1     179.580 183.018 183.265  1.00  0.00     0.160 A 
ATOM      2  C   UNL     1     179.962 182.949 181.918  1.00  0.00     0.157 A 
ATOM      3  C   UNL     1     180.160 181.705 181.305  1.00  0.00     0.050 A 
ATOM      4  C   UNL     1     179.979 180.526 182.030  1.00  0.00     0.008 A 
ATOM      5  C   UNL     1     179.606 180.577 183.381  1.00  0.00    -0.040 A 
ATOM      6  C   UNL     1     179.399 181.824 183.993  1.00  0.00     0.054 A 
ENDROOT
BRANCH   1   7
ATOM      7  O   UNL     1     179.385 184.282 183.842  1.00  0.00    -0.493 OA
ATOM      8  C   UNL     1     178.112 184.838 184.154  1.00  0.00     0.278 C 
ENDBRANCH   1   7
BRANCH   2   9
ATOM      9  O   UNL     1     180.143 184.126 181.192  1.00  0.00    -0.504 OA
ATOM     10  H   UNL     1     180.941 184.254 180.581  1.00  0.00     0.293 HD
ENDBRANCH   2   9
BRANCH   5  11
ATOM     11  C   UNL     1     179.383 179.303 184.152  1.00  0.00     0.062 C 
BRANCH  11  12
ATOM     12  C   UNL     1     180.672 178.549 184.320  1.00  0.00    -0.030 C 
ATOM     13  C   UNL     1     180.836 177.318 183.823  1.00  0.00     0.004 C 
ENDBRANCH  11  12
ENDBRANCH   5  11
TORSDOF 4
ENDMDL
MODEL 8
REMARK VINA RESULT:    -4.174      5.533      7.258
REMARK INTER + INTRA:          -5.238
REMARK INTER:                  -5.022
REMARK INTRA:                  -0.216
REMARK UNBOUND:                -0.210
REMARK SMILES C=CCc1ccc(O)c(OC)c1
REMARK SMILES IDX 9 1 7 2 6 3 5 4 4 5 12 6 10 7 11 8 8 9 3 11 2 12 1 13
REMARK H PARENT 8 10
REMARK Flexibility Score: inf
ROOT
ATOM      1  C   UNL     1     181.559 174.858 180.576  1.00  0.00     0.160 A 
ATOM      2  C   UNL     1     181.792 173.835 181.507  1.00  0.00     0.157 A 
ATOM      3  C   UNL     1     181.966 174.143 182.862  1.00  0.00     0.050 A 
ATOM      4  C   UNL     1     181.909 175.469 183.296  1.00  0.00     0.008 A 
ATOM      5  C   UNL     1     181.687 176.505 182.377  1.00  0.00    -0.040 A 
ATOM      6  C   UNL     1     181.504 176.195 181.020  1.00  0.00     0.054 A 
ENDROOT
BRANCH   1   7
ATOM      7  O   UNL     1     181.383 174.509 179.228  1.00  0.00    -0.493 OA
ATOM      8  C   UNL     1     180.745 175.333 178.259  1.00  0.00     0.278 C 
ENDBRANCH   1   7
BRANCH   2   9
ATOM      9  O   UNL     1     181.850 172.511 181.075  1.00  0.00    -0.504 OA
ATOM     10  H   UNL     1     181.250 172.170 180.332  1.00  0.00     0.293 HD
ENDBRANCH   2   9
BRANCH   5  11
ATOM     11  C   UNL     1     181.596 177.930 182.853  1.00  0.00     0.062 C 
BRANCH  11  12
ATOM     12  C   UNL     1     180.479 178.091 183.845  1.00  0.00    -0.030 C 
ATOM     13  C   UNL     1     180.709 178.472 185.106  1.00  0.00     0.004 C 
ENDBRANCH  11  12
ENDBRANCH   5  11
TORSDOF 4
ENDMDL
MODEL 9
REMARK VINA RESULT:    -4.132      4.630      6.387
REMARK INTER + INTRA:          -5.188
REMARK INTER:                  -4.965
REMARK INTRA:                  -0.223
REMARK UNBOUND:                -0.210
REMARK SMILES C=CCc1ccc(O)c(OC)c1
REMARK SMILES IDX 9 1 7 2 6 3 5 4 4 5 12 6 10 7 11 8 8 9 3 11 2 12 1 13
REMARK H PARENT 8 10
REMARK Flexibility Score: inf
ROOT
ATOM      1  C   UNL     1     182.055 176.344 181.858  1.00  0.00     0.160 A 
ATOM      2  C   UNL     1     181.768 175.865 183.144  1.00  0.00     0.157 A 
ATOM      3  C   UNL     1     181.157 176.701 184.086  1.00  0.00     0.050 A 
ATOM      4  C   UNL     1     180.830 178.017 183.753  1.00  0.00     0.008 A 
ATOM      5  C   UNL     1     181.119 178.515 182.474  1.00  0.00    -0.040 A 
ATOM      6  C   UNL     1     181.724 177.673 181.527  1.00  0.00     0.054 A 
ENDROOT
BRANCH   1   7
ATOM      7  O   UNL     1     182.662 175.474 180.939  1.00  0.00    -0.493 OA
ATOM      8  C   UNL     1     182.020 174.943 179.786  1.00  0.00     0.278 C 
ENDBRANCH   1   7
BRANCH   2   9
ATOM      9  O   UNL     1     182.095 174.551 183.478  1.00  0.00    -0.504 OA
ATOM     10  H   UNL     1     182.046 174.220 184.435  1.00  0.00     0.293 HD
ENDBRANCH   2   9
BRANCH   5  11
ATOM     11  C   UNL     1     180.738 179.925 182.109  1.00  0.00     0.062 C 
BRANCH  11  12
ATOM     12  C   UNL     1     179.513 180.359 182.864  1.00  0.00    -0.030 C 
ATOM     13  C   UNL     1     178.932 181.542 182.641  1.00  0.00     0.004 C 
ENDBRANCH  11  12
ENDBRANCH   5  11
TORSDOF 4
ENDMDL
