MODEL 1
REMARK VINA RESULT:    -5.810      0.000      0.000
REMARK INTER + INTRA:          -9.042
REMARK INTER:                  -7.679
REMARK INTRA:                  -1.363
REMARK UNBOUND:                -1.363
REMARK SMILES CC[C@H](C=C[C@@H](C)[C@H]1CC[C@@H]2[C@@H]3CC=C4C[C@H](O)CC[C@@]4(C)[C@H]3CC[C@@]21C)C(C)C
REMARK SMILES IDX 6 1 7 2 5 3 4 4 3 5 2 6 1 7 28 8 29 9 30 10 8 11 9 12 26 13
REMARK SMILES IDX 10 14 11 15 25 16 27 17 12 18 24 19 23 20 13 21 21 22 14 23
REMARK SMILES IDX 15 24 20 25 22 26 16 27 19 28 17 29 18 30
REMARK H PARENT 18 31
REMARK Flexibility Score: inf
ROOT
ATOM      1  C   UNL     1      72.600  46.907   5.515  1.00  0.00     0.012 C 
ATOM      2  C   UNL     1      73.190  47.572   4.248  1.00  0.00     0.012 C 
ENDROOT
BRANCH   1   3
ATOM      3  C   UNL     1      73.065  47.654   6.755  1.00  0.00    -0.028 C 
ATOM      4  C   UNL     1      72.305  47.790   7.865  1.00  0.00    -0.027 C 
BRANCH   4   5
ATOM      5  C   UNL     1      72.830  48.430   9.142  1.00  0.00     0.014 C 
BRANCH   5   6
ATOM      6  C   UNL     1      71.715  49.220   9.883  1.00  0.00     0.004 C 
ATOM      7  C   UNL     1      70.569  49.637   8.953  1.00  0.00     0.004 C 
ENDBRANCH   5   6
BRANCH   5   8
ATOM      8  C   UNL     1      73.516  47.363  10.048  1.00  0.00    -0.011 C 
ATOM      9  C   UNL     1      72.669  46.080  10.124  1.00  0.00     0.008 C 
ATOM     10  C   UNL     1      74.926  46.995   9.562  1.00  0.00     0.008 C 
ENDBRANCH   5   8
ENDBRANCH   4   5
ENDBRANCH   1   3
BRANCH   1  11
ATOM     11  C   UNL     1      72.902  45.372   5.624  1.00  0.00     0.002 C 
ATOM     12  C   UNL     1      74.173  45.108   6.448  1.00  0.00     0.005 C 
ATOM     13  C   UNL     1      71.801  44.420   6.239  1.00  0.00    -0.026 C 
ATOM     14  C   UNL     1      74.064  43.687   6.952  1.00  0.00     0.005 C 
ATOM     15  C   UNL     1      72.576  43.472   7.214  1.00  0.00    -0.001 C 
ATOM     16  C   UNL     1      71.071  43.611   5.114  1.00  0.00     0.007 C 
ATOM     17  C   UNL     1      70.718  45.159   7.071  1.00  0.00     0.012 C 
ATOM     18  C   UNL     1      72.103  41.996   7.126  1.00  0.00     0.000 C 
ATOM     19  C   UNL     1      71.900  42.422   4.594  1.00  0.00     0.005 C 
ATOM     20  C   UNL     1      72.242  41.390   5.708  1.00  0.00     0.003 C 
ATOM     21  C   UNL     1      72.820  41.073   8.115  1.00  0.00     0.031 C 
ATOM     22  C   UNL     1      71.501  39.997   5.614  1.00  0.00    -0.008 C 
ATOM     23  C   UNL     1      72.242  39.687   8.036  1.00  0.00    -0.027 C 
ATOM     24  C   UNL     1      71.669  39.181   6.915  1.00  0.00    -0.065 C 
ATOM     25  C   UNL     1      69.966  40.169   5.379  1.00  0.00     0.014 C 
ATOM     26  C   UNL     1      72.133  39.205   4.438  1.00  0.00     0.016 C 
ATOM     27  C   UNL     1      70.926  37.866   7.013  1.00  0.00     0.063 C 
ATOM     28  C   UNL     1      69.189  38.840   5.452  1.00  0.00     0.033 C 
ATOM     29  C   UNL     1      69.427  38.102   6.776  1.00  0.00     0.118 C 
BRANCH  29  30
ATOM     30  O   UNL     1      68.748  36.875   6.746  1.00  0.00    -0.393 OA
ATOM     31  H   UNL     1      68.082  36.935   6.013  1.00  0.00     0.210 HD
ENDBRANCH  29  30
ENDBRANCH   1  11
TORSDOF 6
ENDMDL
MODEL 2
REMARK VINA RESULT:    -5.644      5.054      8.168
REMARK INTER + INTRA:          -8.822
REMARK INTER:                  -7.884
REMARK INTRA:                  -0.938
REMARK UNBOUND:                -1.363
REMARK SMILES CC[C@H](C=C[C@@H](C)[C@H]1CC[C@@H]2[C@@H]3CC=C4C[C@H](O)CC[C@@]4(C)[C@H]3CC[C@@]21C)C(C)C
REMARK SMILES IDX 6 1 7 2 5 3 4 4 3 5 2 6 1 7 28 8 29 9 30 10 8 11 9 12 26 13
REMARK SMILES IDX 10 14 11 15 25 16 27 17 12 18 24 19 23 20 13 21 21 22 14 23
REMARK SMILES IDX 15 24 20 25 22 26 16 27 19 28 17 29 18 30
REMARK H PARENT 18 31
REMARK Flexibility Score: inf
ROOT
ATOM      1  C   UNL     1      65.663  48.189   9.217  1.00  0.00     0.012 C 
ATOM      2  C   UNL     1      65.439  49.477  10.047  1.00  0.00     0.012 C 
ENDROOT
BRANCH   1   3
ATOM      3  C   UNL     1      64.650  47.130   9.621  1.00  0.00    -0.028 C 
ATOM      4  C   UNL     1      64.461  45.984   8.928  1.00  0.00    -0.027 C 
BRANCH   4   5
ATOM      5  C   UNL     1      63.536  44.878   9.414  1.00  0.00     0.014 C 
BRANCH   5   6
ATOM      6  C   UNL     1      62.044  45.301   9.315  1.00  0.00     0.004 C 
ATOM      7  C   UNL     1      61.083  44.117   9.478  1.00  0.00     0.004 C 
ENDBRANCH   5   6
BRANCH   5   8
ATOM      8  C   UNL     1      63.836  43.544   8.666  1.00  0.00    -0.011 C 
ATOM      9  C   UNL     1      63.823  43.754   7.141  1.00  0.00     0.008 C 
ATOM     10  C   UNL     1      65.187  42.934   9.068  1.00  0.00     0.008 C 
ENDBRANCH   5   8
ENDBRANCH   4   5
ENDBRANCH   1   3
BRANCH   1  11
ATOM     11  C   UNL     1      67.129  47.638   9.287  1.00  0.00     0.002 C 
ATOM     12  C   UNL     1      67.203  46.350  10.125  1.00  0.00     0.005 C 
ATOM     13  C   UNL     1      67.883  47.302   7.939  1.00  0.00    -0.026 C 
ATOM     14  C   UNL     1      68.456  45.629   9.682  1.00  0.00     0.005 C 
ATOM     15  C   UNL     1      68.576  45.921   8.189  1.00  0.00    -0.001 C 
ATOM     16  C   UNL     1      68.931  48.414   7.595  1.00  0.00     0.007 C 
ATOM     17  C   UNL     1      66.945  47.138   6.714  1.00  0.00     0.012 C 
ATOM     18  C   UNL     1      70.020  45.858   7.624  1.00  0.00     0.000 C 
ATOM     19  C   UNL     1      70.224  48.298   8.422  1.00  0.00     0.005 C 
ATOM     20  C   UNL     1      70.958  46.941   8.212  1.00  0.00     0.003 C 
ATOM     21  C   UNL     1      70.684  44.492   7.818  1.00  0.00     0.031 C 
ATOM     22  C   UNL     1      72.318  47.004   7.411  1.00  0.00    -0.008 C 
ATOM     23  C   UNL     1      72.037  44.480   7.163  1.00  0.00    -0.027 C 
ATOM     24  C   UNL     1      72.793  45.594   6.995  1.00  0.00    -0.065 C 
ATOM     25  C   UNL     1      72.184  47.845   6.102  1.00  0.00     0.014 C 
ATOM     26  C   UNL     1      73.386  47.639   8.344  1.00  0.00     0.016 C 
ATOM     27  C   UNL     1      74.032  45.503   6.130  1.00  0.00     0.063 C 
ATOM     28  C   UNL     1      73.443  47.787   5.213  1.00  0.00     0.033 C 
ATOM     29  C   UNL     1      73.837  46.346   4.861  1.00  0.00     0.118 C 
BRANCH  29  30
ATOM     30  O   UNL     1      75.022  46.365   4.111  1.00  0.00    -0.393 OA
ATOM     31  H   UNL     1      75.147  47.298   3.796  1.00  0.00     0.210 HD
ENDBRANCH  29  30
ENDBRANCH   1  11
TORSDOF 6
ENDMDL
MODEL 3
REMARK VINA RESULT:    -5.564      2.825      4.774
REMARK INTER + INTRA:          -8.717
REMARK INTER:                  -7.807
REMARK INTRA:                  -0.910
REMARK UNBOUND:                -1.363
REMARK SMILES CC[C@H](C=C[C@@H](C)[C@H]1CC[C@@H]2[C@@H]3CC=C4C[C@H](O)CC[C@@]4(C)[C@H]3CC[C@@]21C)C(C)C
REMARK SMILES IDX 6 1 7 2 5 3 4 4 3 5 2 6 1 7 28 8 29 9 30 10 8 11 9 12 26 13
REMARK SMILES IDX 10 14 11 15 25 16 27 17 12 18 24 19 23 20 13 21 21 22 14 23
REMARK SMILES IDX 15 24 20 25 22 26 16 27 19 28 17 29 18 30
REMARK H PARENT 18 31
REMARK Flexibility Score: inf
ROOT
ATOM      1  C   UNL     1      67.446  47.375   9.593  1.00  0.00     0.012 C 
ATOM      2  C   UNL     1      65.931  47.575   9.340  1.00  0.00     0.012 C 
ENDROOT
BRANCH   1   3
ATOM      3  C   UNL     1      68.248  48.259   8.651  1.00  0.00    -0.028 C 
ATOM      4  C   UNL     1      69.497  48.695   8.929  1.00  0.00    -0.027 C 
BRANCH   4   5
ATOM      5  C   UNL     1      70.334  49.473   7.925  1.00  0.00     0.014 C 
BRANCH   5   6
ATOM      6  C   UNL     1      71.790  49.674   8.432  1.00  0.00     0.004 C 
ATOM      7  C   UNL     1      72.098  48.848   9.686  1.00  0.00     0.004 C 
ENDBRANCH   5   6
BRANCH   5   8
ATOM      8  C   UNL     1      70.274  48.798   6.521  1.00  0.00    -0.011 C 
ATOM      9  C   UNL     1      69.923  49.827   5.431  1.00  0.00     0.008 C 
ATOM     10  C   UNL     1      71.592  48.108   6.141  1.00  0.00     0.008 C 
ENDBRANCH   5   8
ENDBRANCH   4   5
ENDBRANCH   1   3
BRANCH   1  11
ATOM     11  C   UNL     1      67.910  45.880   9.510  1.00  0.00     0.002 C 
ATOM     12  C   UNL     1      66.865  44.934  10.125  1.00  0.00     0.005 C 
ATOM     13  C   UNL     1      68.249  45.264   8.095  1.00  0.00    -0.026 C 
ATOM     14  C   UNL     1      67.118  43.573   9.518  1.00  0.00     0.005 C 
ATOM     15  C   UNL     1      67.571  43.853   8.088  1.00  0.00    -0.001 C 
ATOM     16  C   UNL     1      69.798  45.155   7.890  1.00  0.00     0.007 C 
ATOM     17  C   UNL     1      67.667  46.066   6.900  1.00  0.00     0.012 C 
ATOM     18  C   UNL     1      68.468  42.754   7.459  1.00  0.00     0.000 C 
ATOM     19  C   UNL     1      70.420  43.958   8.631  1.00  0.00     0.005 C 
ATOM     20  C   UNL     1      69.832  42.590   8.173  1.00  0.00     0.003 C 
ATOM     21  C   UNL     1      67.789  41.382   7.401  1.00  0.00     0.031 C 
ATOM     22  C   UNL     1      70.800  41.665   7.336  1.00  0.00    -0.008 C 
ATOM     23  C   UNL     1      68.680  40.398   6.696  1.00  0.00    -0.027 C 
ATOM     24  C   UNL     1      70.033  40.497   6.677  1.00  0.00    -0.065 C 
ATOM     25  C   UNL     1      71.508  42.451   6.186  1.00  0.00     0.014 C 
ATOM     26  C   UNL     1      71.860  41.084   8.312  1.00  0.00     0.016 C 
ATOM     27  C   UNL     1      70.813  39.582   5.756  1.00  0.00     0.063 C 
ATOM     28  C   UNL     1      72.327  41.545   5.246  1.00  0.00     0.033 C 
ATOM     29  C   UNL     1      71.480  40.413   4.650  1.00  0.00     0.118 C 
BRANCH  29  30
ATOM     30  O   UNL     1      72.300  39.591   3.863  1.00  0.00    -0.393 OA
ATOM     31  H   UNL     1      72.621  40.147   3.106  1.00  0.00     0.210 HD
ENDBRANCH  29  30
ENDBRANCH   1  11
TORSDOF 6
ENDMDL
MODEL 4
REMARK VINA RESULT:    -5.489      2.227      3.861
REMARK INTER + INTRA:          -8.617
REMARK INTER:                  -7.521
REMARK INTRA:                  -1.095
REMARK UNBOUND:                -1.363
REMARK SMILES CC[C@H](C=C[C@@H](C)[C@H]1CC[C@@H]2[C@@H]3CC=C4C[C@H](O)CC[C@@]4(C)[C@H]3CC[C@@]21C)C(C)C
REMARK SMILES IDX 6 1 7 2 5 3 4 4 3 5 2 6 1 7 28 8 29 9 30 10 8 11 9 12 26 13
REMARK SMILES IDX 10 14 11 15 25 16 27 17 12 18 24 19 23 20 13 21 21 22 14 23
REMARK SMILES IDX 15 24 20 25 22 26 16 27 19 28 17 29 18 30
REMARK H PARENT 18 31
REMARK Flexibility Score: inf
ROOT
ATOM      1  C   UNL     1      73.750  46.926   8.121  1.00  0.00     0.012 C 
ATOM      2  C   UNL     1      74.728  47.127   9.304  1.00  0.00     0.012 C 
ENDROOT
BRANCH   1   3
ATOM      3  C   UNL     1      72.551  47.848   8.279  1.00  0.00    -0.028 C 
ATOM      4  C   UNL     1      71.706  48.144   7.266  1.00  0.00    -0.027 C 
BRANCH   4   5
ATOM      5  C   UNL     1      70.441  48.965   7.469  1.00  0.00     0.014 C 
BRANCH   5   6
ATOM      6  C   UNL     1      69.535  48.937   6.207  1.00  0.00     0.004 C 
ATOM      7  C   UNL     1      69.917  50.010   5.181  1.00  0.00     0.004 C 
ENDBRANCH   5   6
BRANCH   5   8
ATOM      8  C   UNL     1      69.693  48.509   8.759  1.00  0.00    -0.011 C 
ATOM      9  C   UNL     1      68.816  49.645   9.315  1.00  0.00     0.008 C 
ATOM     10  C   UNL     1      68.810  47.275   8.523  1.00  0.00     0.008 C 
ENDBRANCH   5   8
ENDBRANCH   4   5
ENDBRANCH   1   3
BRANCH   1  11
ATOM     11  C   UNL     1      73.305  45.437   7.913  1.00  0.00     0.002 C 
ATOM     12  C   UNL     1      71.833  45.232   8.310  1.00  0.00     0.005 C 
ATOM     13  C   UNL     1      73.442  44.794   6.475  1.00  0.00    -0.026 C 
ATOM     14  C   UNL     1      71.366  43.994   7.579  1.00  0.00     0.005 C 
ATOM     15  C   UNL     1      72.100  44.023   6.241  1.00  0.00    -0.001 C 
ATOM     16  C   UNL     1      74.675  43.831   6.410  1.00  0.00     0.007 C 
ATOM     17  C   UNL     1      73.588  45.831   5.330  1.00  0.00     0.012 C 
ATOM     18  C   UNL     1      72.309  42.634   5.580  1.00  0.00     0.000 C 
ATOM     19  C   UNL     1      74.405  42.464   7.066  1.00  0.00     0.005 C 
ATOM     20  C   UNL     1      73.227  41.695   6.400  1.00  0.00     0.003 C 
ATOM     21  C   UNL     1      70.997  41.897   5.299  1.00  0.00     0.031 C 
ATOM     22  C   UNL     1      73.621  40.416   5.559  1.00  0.00    -0.008 C 
ATOM     23  C   UNL     1      71.275  40.608   4.575  1.00  0.00    -0.027 C 
ATOM     24  C   UNL     1      72.438  39.920   4.700  1.00  0.00    -0.065 C 
ATOM     25  C   UNL     1      74.805  40.704   4.582  1.00  0.00     0.014 C 
ATOM     26  C   UNL     1      74.020  39.298   6.560  1.00  0.00     0.016 C 
ATOM     27  C   UNL     1      72.696  38.762   3.760  1.00  0.00     0.063 C 
ATOM     28  C   UNL     1      75.104  39.530   3.628  1.00  0.00     0.033 C 
ATOM     29  C   UNL     1      73.865  39.107   2.826  1.00  0.00     0.118 C 
BRANCH  29  30
ATOM     30  O   UNL     1      74.190  37.996   2.034  1.00  0.00    -0.393 OA
ATOM     31  H   UNL     1      73.591  38.025   1.243  1.00  0.00     0.210 HD
ENDBRANCH  29  30
ENDBRANCH   1  11
TORSDOF 6
ENDMDL
MODEL 5
REMARK VINA RESULT:    -5.483      4.230      8.899
REMARK INTER + INTRA:          -8.609
REMARK INTER:                  -7.756
REMARK INTRA:                  -0.853
REMARK UNBOUND:                -1.363
REMARK SMILES CC[C@H](C=C[C@@H](C)[C@H]1CC[C@@H]2[C@@H]3CC=C4C[C@H](O)CC[C@@]4(C)[C@H]3CC[C@@]21C)C(C)C
REMARK SMILES IDX 6 1 7 2 5 3 4 4 3 5 2 6 1 7 28 8 29 9 30 10 8 11 9 12 26 13
REMARK SMILES IDX 10 14 11 15 25 16 27 17 12 18 24 19 23 20 13 21 21 22 14 23
REMARK SMILES IDX 15 24 20 25 22 26 16 27 19 28 17 29 18 30
REMARK H PARENT 18 31
REMARK Flexibility Score: inf
ROOT
ATOM      1  C   UNL     1      65.616  42.719   8.499  1.00  0.00     0.012 C 
ATOM      2  C   UNL     1      64.788  42.556   9.797  1.00  0.00     0.012 C 
ENDROOT
BRANCH   1   3
ATOM      3  C   UNL     1      66.777  41.738   8.500  1.00  0.00    -0.028 C 
ATOM      4  C   UNL     1      67.403  41.331   7.372  1.00  0.00    -0.027 C 
BRANCH   4   5
ATOM      5  C   UNL     1      68.642  40.448   7.398  1.00  0.00     0.014 C 
BRANCH   5   6
ATOM      6  C   UNL     1      69.069  40.025   5.965  1.00  0.00     0.004 C 
ATOM      7  C   UNL     1      69.414  38.534   5.868  1.00  0.00     0.004 C 
ENDBRANCH   5   6
BRANCH   5   8
ATOM      8  C   UNL     1      69.792  41.141   8.190  1.00  0.00    -0.011 C 
ATOM      9  C   UNL     1      70.478  40.146   9.144  1.00  0.00     0.008 C 
ATOM     10  C   UNL     1      70.857  41.754   7.268  1.00  0.00     0.008 C 
ENDBRANCH   5   8
ENDBRANCH   4   5
ENDBRANCH   1   3
BRANCH   1  11
ATOM     11  C   UNL     1      66.106  44.186   8.240  1.00  0.00     0.002 C 
ATOM     12  C   UNL     1      65.039  45.214   8.654  1.00  0.00     0.005 C 
ATOM     13  C   UNL     1      67.444  44.675   8.925  1.00  0.00    -0.026 C 
ATOM     14  C   UNL     1      65.774  46.513   8.895  1.00  0.00     0.005 C 
ATOM     15  C   UNL     1      67.123  46.103   9.479  1.00  0.00    -0.001 C 
ATOM     16  C   UNL     1      68.618  44.713   7.890  1.00  0.00     0.007 C 
ATOM     17  C   UNL     1      67.896  43.801  10.125  1.00  0.00     0.012 C 
ATOM     18  C   UNL     1      68.274  47.117   9.240  1.00  0.00     0.000 C 
ATOM     19  C   UNL     1      68.566  45.944   6.966  1.00  0.00     0.005 C 
ATOM     20  C   UNL     1      68.641  47.289   7.745  1.00  0.00     0.003 C 
ATOM     21  C   UNL     1      67.989  48.502   9.827  1.00  0.00     0.031 C 
ATOM     22  C   UNL     1      69.981  48.111   7.585  1.00  0.00    -0.008 C 
ATOM     23  C   UNL     1      69.184  49.396   9.640  1.00  0.00    -0.027 C 
ATOM     24  C   UNL     1      70.073  49.248   8.626  1.00  0.00    -0.065 C 
ATOM     25  C   UNL     1      71.242  47.211   7.780  1.00  0.00     0.014 C 
ATOM     26  C   UNL     1      69.986  48.731   6.160  1.00  0.00     0.016 C 
ATOM     27  C   UNL     1      71.351  50.059   8.661  1.00  0.00     0.063 C 
ATOM     28  C   UNL     1      72.561  48.010   7.797  1.00  0.00     0.033 C 
ATOM     29  C   UNL     1      72.551  49.120   8.858  1.00  0.00     0.118 C 
BRANCH  29  30
ATOM     30  O   UNL     1      73.747  49.847   8.773  1.00  0.00    -0.393 OA
ATOM     31  H   UNL     1      74.258  49.468   8.011  1.00  0.00     0.210 HD
ENDBRANCH  29  30
ENDBRANCH   1  11
TORSDOF 6
ENDMDL
MODEL 6
REMARK VINA RESULT:    -5.462      1.518      2.432
REMARK INTER + INTRA:          -8.582
REMARK INTER:                  -8.334
REMARK INTRA:                  -0.247
REMARK UNBOUND:                -1.363
REMARK SMILES CC[C@H](C=C[C@@H](C)[C@H]1CC[C@@H]2[C@@H]3CC=C4C[C@H](O)CC[C@@]4(C)[C@H]3CC[C@@]21C)C(C)C
REMARK SMILES IDX 6 1 7 2 5 3 4 4 3 5 2 6 1 7 28 8 29 9 30 10 8 11 9 12 26 13
REMARK SMILES IDX 10 14 11 15 25 16 27 17 12 18 24 19 23 20 13 21 21 22 14 23
REMARK SMILES IDX 15 24 20 25 22 26 16 27 19 28 17 29 18 30
REMARK H PARENT 18 31
REMARK Flexibility Score: inf
ROOT
ATOM      1  C   UNL     1      73.797  47.297   7.250  1.00  0.00     0.012 C 
ATOM      2  C   UNL     1      74.309  47.754   8.639  1.00  0.00     0.012 C 
ENDROOT
BRANCH   1   3
ATOM      3  C   UNL     1      72.356  47.742   7.058  1.00  0.00    -0.028 C 
ATOM      4  C   UNL     1      71.854  48.877   7.597  1.00  0.00    -0.027 C 
BRANCH   4   5
ATOM      5  C   UNL     1      70.449  49.373   7.293  1.00  0.00     0.014 C 
BRANCH   5   6
ATOM      6  C   UNL     1      69.922  48.803   5.946  1.00  0.00     0.004 C 
ATOM      7  C   UNL     1      69.961  49.835   4.812  1.00  0.00     0.004 C 
ENDBRANCH   5   6
BRANCH   5   8
ATOM      8  C   UNL     1      69.492  49.077   8.487  1.00  0.00    -0.011 C 
ATOM      9  C   UNL     1      68.490  47.966   8.127  1.00  0.00     0.008 C 
ATOM     10  C   UNL     1      70.248  48.667   9.760  1.00  0.00     0.008 C 
ENDBRANCH   5   8
ENDBRANCH   4   5
ENDBRANCH   1   3
BRANCH   1  11
ATOM     11  C   UNL     1      73.961  45.759   6.990  1.00  0.00     0.002 C 
ATOM     12  C   UNL     1      75.048  45.151   7.892  1.00  0.00     0.005 C 
ATOM     13  C   UNL     1      72.702  44.819   7.161  1.00  0.00    -0.026 C 
ATOM     14  C   UNL     1      74.748  43.672   7.977  1.00  0.00     0.005 C 
ATOM     15  C   UNL     1      73.225  43.573   7.951  1.00  0.00    -0.001 C 
ATOM     16  C   UNL     1      72.119  44.409   5.766  1.00  0.00     0.007 C 
ATOM     17  C   UNL     1      71.551  45.447   7.990  1.00  0.00     0.012 C 
ATOM     18  C   UNL     1      72.666  42.232   7.405  1.00  0.00     0.000 C 
ATOM     19  C   UNL     1      72.934  43.299   5.076  1.00  0.00     0.005 C 
ATOM     20  C   UNL     1      73.002  41.988   5.913  1.00  0.00     0.003 C 
ATOM     21  C   UNL     1      73.131  41.013   8.207  1.00  0.00     0.031 C 
ATOM     22  C   UNL     1      72.187  40.760   5.344  1.00  0.00    -0.008 C 
ATOM     23  C   UNL     1      72.475  39.768   7.678  1.00  0.00    -0.027 C 
ATOM     24  C   UNL     1      72.068  39.630   6.391  1.00  0.00    -0.065 C 
ATOM     25  C   UNL     1      70.733  41.163   4.940  1.00  0.00     0.014 C 
ATOM     26  C   UNL     1      72.952  40.219   4.105  1.00  0.00     0.016 C 
ATOM     27  C   UNL     1      71.223  38.428   6.025  1.00  0.00     0.063 C 
ATOM     28  C   UNL     1      69.858  39.958   4.542  1.00  0.00     0.033 C 
ATOM     29  C   UNL     1      69.809  38.889   5.642  1.00  0.00     0.118 C 
BRANCH  29  30
ATOM     30  O   UNL     1      69.056  37.796   5.187  1.00  0.00    -0.393 OA
ATOM     31  H   UNL     1      69.702  37.074   4.971  1.00  0.00     0.210 HD
ENDBRANCH  29  30
ENDBRANCH   1  11
TORSDOF 6
ENDMDL
MODEL 7
REMARK VINA RESULT:    -5.233      3.154      8.329
REMARK INTER + INTRA:          -8.279
REMARK INTER:                  -6.689
REMARK INTRA:                  -1.589
REMARK UNBOUND:                -1.363
REMARK SMILES CC[C@H](C=C[C@@H](C)[C@H]1CC[C@@H]2[C@@H]3CC=C4C[C@H](O)CC[C@@]4(C)[C@H]3CC[C@@]21C)C(C)C
REMARK SMILES IDX 6 1 7 2 5 3 4 4 3 5 2 6 1 7 28 8 29 9 30 10 8 11 9 12 26 13
REMARK SMILES IDX 10 14 11 15 25 16 27 17 12 18 24 19 23 20 13 21 21 22 14 23
REMARK SMILES IDX 15 24 20 25 22 26 16 27 19 28 17 29 18 30
REMARK H PARENT 18 31
REMARK Flexibility Score: inf
ROOT
ATOM      1  C   UNL     1      70.534  40.437   5.477  1.00  0.00     0.012 C 
ATOM      2  C   UNL     1      69.178  39.786   5.842  1.00  0.00     0.012 C 
ENDROOT
BRANCH   1   3
ATOM      3  C   UNL     1      71.563  39.358   5.180  1.00  0.00    -0.028 C 
ATOM      4  C   UNL     1      72.404  39.408   4.122  1.00  0.00    -0.027 C 
BRANCH   4   5
ATOM      5  C   UNL     1      73.511  38.386   3.909  1.00  0.00     0.014 C 
BRANCH   5   6
ATOM      6  C   UNL     1      73.661  38.015   2.408  1.00  0.00     0.004 C 
ATOM      7  C   UNL     1      75.108  38.130   1.913  1.00  0.00     0.004 C 
ENDBRANCH   5   6
BRANCH   5   8
ATOM      8  C   UNL     1      74.845  38.883   4.544  1.00  0.00    -0.011 C 
ATOM      9  C   UNL     1      74.849  40.415   4.686  1.00  0.00     0.008 C 
ATOM     10  C   UNL     1      75.109  38.259   5.923  1.00  0.00     0.008 C 
ENDBRANCH   5   8
ENDBRANCH   4   5
ENDBRANCH   1   3
BRANCH   1  11
ATOM     11  C   UNL     1      71.060  41.450   6.552  1.00  0.00     0.002 C 
ATOM     12  C   UNL     1      72.304  40.906   7.274  1.00  0.00     0.005 C 
ATOM     13  C   UNL     1      71.448  42.913   6.096  1.00  0.00    -0.026 C 
ATOM     14  C   UNL     1      73.027  42.108   7.836  1.00  0.00     0.005 C 
ATOM     15  C   UNL     1      72.805  43.219   6.814  1.00  0.00    -0.001 C 
ATOM     16  C   UNL     1      70.339  43.938   6.508  1.00  0.00     0.007 C 
ATOM     17  C   UNL     1      71.686  43.057   4.570  1.00  0.00     0.012 C 
ATOM     18  C   UNL     1      72.874  44.660   7.388  1.00  0.00     0.000 C 
ATOM     19  C   UNL     1      70.395  44.319   7.999  1.00  0.00     0.005 C 
ATOM     20  C   UNL     1      71.750  44.969   8.407  1.00  0.00     0.003 C 
ATOM     21  C   UNL     1      74.219  44.984   8.044  1.00  0.00     0.031 C 
ATOM     22  C   UNL     1      71.705  46.512   8.746  1.00  0.00    -0.008 C 
ATOM     23  C   UNL     1      74.242  46.420   8.488  1.00  0.00    -0.027 C 
ATOM     24  C   UNL     1      73.126  47.112   8.829  1.00  0.00    -0.065 C 
ATOM     25  C   UNL     1      70.930  47.324   7.659  1.00  0.00     0.014 C 
ATOM     26  C   UNL     1      71.009  46.672  10.125  1.00  0.00     0.016 C 
ATOM     27  C   UNL     1      73.239  48.606   9.045  1.00  0.00     0.063 C 
ATOM     28  C   UNL     1      71.012  48.849   7.869  1.00  0.00     0.033 C 
ATOM     29  C   UNL     1      72.462  49.346   7.947  1.00  0.00     0.118 C 
BRANCH  29  30
ATOM     30  O   UNL     1      72.462  50.724   8.206  1.00  0.00    -0.393 OA
ATOM     31  H   UNL     1      71.511  51.008   8.241  1.00  0.00     0.210 HD
ENDBRANCH  29  30
ENDBRANCH   1  11
TORSDOF 6
ENDMDL
MODEL 8
REMARK VINA RESULT:    -5.200      2.144      3.945
REMARK INTER + INTRA:          -8.235
REMARK INTER:                  -7.291
REMARK INTRA:                  -0.944
REMARK UNBOUND:                -1.363
REMARK SMILES CC[C@H](C=C[C@@H](C)[C@H]1CC[C@@H]2[C@@H]3CC=C4C[C@H](O)CC[C@@]4(C)[C@H]3CC[C@@]21C)C(C)C
REMARK SMILES IDX 6 1 7 2 5 3 4 4 3 5 2 6 1 7 28 8 29 9 30 10 8 11 9 12 26 13
REMARK SMILES IDX 10 14 11 15 25 16 27 17 12 18 24 19 23 20 13 21 21 22 14 23
REMARK SMILES IDX 15 24 20 25 22 26 16 27 19 28 17 29 18 30
REMARK H PARENT 18 31
REMARK Flexibility Score: inf
ROOT
ATOM      1  C   UNL     1      71.775  49.180   7.924  1.00  0.00     0.012 C 
ATOM      2  C   UNL     1      73.017  49.799   8.611  1.00  0.00     0.012 C 
ENDROOT
BRANCH   1   3
ATOM      3  C   UNL     1      70.693  48.911   8.958  1.00  0.00    -0.028 C 
ATOM      4  C   UNL     1      69.391  48.738   8.637  1.00  0.00    -0.027 C 
BRANCH   4   5
ATOM      5  C   UNL     1      68.341  48.345   9.666  1.00  0.00     0.014 C 
BRANCH   5   6
ATOM      6  C   UNL     1      67.293  49.474   9.870  1.00  0.00     0.004 C 
ATOM      7  C   UNL     1      65.850  48.956   9.823  1.00  0.00     0.004 C 
ENDBRANCH   5   6
BRANCH   5   8
ATOM      8  C   UNL     1      67.691  46.978   9.292  1.00  0.00    -0.011 C 
ATOM      9  C   UNL     1      67.855  46.685   7.790  1.00  0.00     0.008 C 
ATOM     10  C   UNL     1      68.280  45.806  10.091  1.00  0.00     0.008 C 
ENDBRANCH   5   8
ENDBRANCH   4   5
ENDBRANCH   1   3
BRANCH   1  11
ATOM     11  C   UNL     1      72.092  47.898   7.079  1.00  0.00     0.002 C 
ATOM     12  C   UNL     1      73.203  48.166   6.049  1.00  0.00     0.005 C 
ATOM     13  C   UNL     1      72.530  46.579   7.831  1.00  0.00    -0.026 C 
ATOM     14  C   UNL     1      73.799  46.820   5.709  1.00  0.00     0.005 C 
ATOM     15  C   UNL     1      73.739  46.020   7.008  1.00  0.00    -0.001 C 
ATOM     16  C   UNL     1      71.351  45.550   7.885  1.00  0.00     0.007 C 
ATOM     17  C   UNL     1      73.024  46.812   9.283  1.00  0.00     0.012 C 
ATOM     18  C   UNL     1      73.685  44.479   6.825  1.00  0.00     0.000 C 
ATOM     19  C   UNL     1      71.144  44.801   6.556  1.00  0.00     0.005 C 
ATOM     20  C   UNL     1      72.398  43.989   6.117  1.00  0.00     0.003 C 
ATOM     21  C   UNL     1      74.892  43.920   6.067  1.00  0.00     0.031 C 
ATOM     22  C   UNL     1      72.271  42.416   6.203  1.00  0.00    -0.008 C 
ATOM     23  C   UNL     1      74.816  42.419   6.014  1.00  0.00    -0.027 C 
ATOM     24  C   UNL     1      73.647  41.731   6.050  1.00  0.00    -0.065 C 
ATOM     25  C   UNL     1      71.682  41.954   7.574  1.00  0.00     0.014 C 
ATOM     26  C   UNL     1      71.347  41.953   5.044  1.00  0.00     0.016 C 
ATOM     27  C   UNL     1      73.698  40.227   6.214  1.00  0.00     0.063 C 
ATOM     28  C   UNL     1      71.702  40.423   7.757  1.00  0.00     0.033 C 
ATOM     29  C   UNL     1      73.110  39.837   7.578  1.00  0.00     0.118 C 
BRANCH  29  30
ATOM     30  O   UNL     1      73.043  38.441   7.690  1.00  0.00    -0.393 OA
ATOM     31  H   UNL     1      72.448  38.244   8.460  1.00  0.00     0.210 HD
ENDBRANCH  29  30
ENDBRANCH   1  11
TORSDOF 6
ENDMDL
MODEL 9
REMARK VINA RESULT:    -5.190      1.497      3.099
REMARK INTER + INTRA:          -8.222
REMARK INTER:                  -8.178
REMARK INTRA:                  -0.044
REMARK UNBOUND:                -1.363
REMARK SMILES CC[C@H](C=C[C@@H](C)[C@H]1CC[C@@H]2[C@@H]3CC=C4C[C@H](O)CC[C@@]4(C)[C@H]3CC[C@@]21C)C(C)C
REMARK SMILES IDX 6 1 7 2 5 3 4 4 3 5 2 6 1 7 28 8 29 9 30 10 8 11 9 12 26 13
REMARK SMILES IDX 10 14 11 15 25 16 27 17 12 18 24 19 23 20 13 21 21 22 14 23
REMARK SMILES IDX 15 24 20 25 22 26 16 27 19 28 17 29 18 30
REMARK H PARENT 18 31
REMARK Flexibility Score: inf
ROOT
ATOM      1  C   UNL     1      74.160  47.460   7.861  1.00  0.00     0.012 C 
ATOM      2  C   UNL     1      74.643  46.953   9.242  1.00  0.00     0.012 C 
ENDROOT
BRANCH   1   3
ATOM      3  C   UNL     1      73.207  48.631   8.045  1.00  0.00    -0.028 C 
ATOM      4  C   UNL     1      71.886  48.560   7.765  1.00  0.00    -0.027 C 
BRANCH   4   5
ATOM      5  C   UNL     1      70.923  49.697   8.072  1.00  0.00     0.014 C 
BRANCH   5   6
ATOM      6  C   UNL     1      69.921  49.925   6.906  1.00  0.00     0.004 C 
ATOM      7  C   UNL     1      70.249  49.077   5.671  1.00  0.00     0.004 C 
ENDBRANCH   5   6
BRANCH   5   8
ATOM      8  C   UNL     1      70.213  49.460   9.439  1.00  0.00    -0.011 C 
ATOM      9  C   UNL     1      68.690  49.643   9.306  1.00  0.00     0.008 C 
ATOM     10  C   UNL     1      70.493  48.064  10.015  1.00  0.00     0.008 C 
ENDBRANCH   5   8
ENDBRANCH   4   5
ENDBRANCH   1   3
BRANCH   1  11
ATOM     11  C   UNL     1      73.529  46.343   6.962  1.00  0.00     0.002 C 
ATOM     12  C   UNL     1      73.915  46.528   5.485  1.00  0.00     0.005 C 
ATOM     13  C   UNL     1      73.848  44.830   7.289  1.00  0.00    -0.026 C 
ATOM     14  C   UNL     1      73.753  45.174   4.832  1.00  0.00     0.005 C 
ATOM     15  C   UNL     1      74.153  44.165   5.905  1.00  0.00    -0.001 C 
ATOM     16  C   UNL     1      72.631  44.144   7.997  1.00  0.00     0.007 C 
ATOM     17  C   UNL     1      75.096  44.626   8.189  1.00  0.00     0.012 C 
ATOM     18  C   UNL     1      73.511  42.760   5.754  1.00  0.00     0.000 C 
ATOM     19  C   UNL     1      71.504  43.761   7.019  1.00  0.00     0.005 C 
ATOM     20  C   UNL     1      71.971  42.767   5.916  1.00  0.00     0.003 C 
ATOM     21  C   UNL     1      73.851  42.083   4.423  1.00  0.00     0.031 C 
ATOM     22  C   UNL     1      71.409  41.295   6.025  1.00  0.00    -0.008 C 
ATOM     23  C   UNL     1      73.275  40.694   4.392  1.00  0.00    -0.027 C 
ATOM     24  C   UNL     1      72.167  40.331   5.085  1.00  0.00    -0.065 C 
ATOM     25  C   UNL     1      71.549  40.724   7.472  1.00  0.00     0.014 C 
ATOM     26  C   UNL     1      69.913  41.329   5.610  1.00  0.00     0.016 C 
ATOM     27  C   UNL     1      71.807  38.862   5.157  1.00  0.00     0.063 C 
ATOM     28  C   UNL     1      71.166  39.234   7.576  1.00  0.00     0.033 C 
ATOM     29  C   UNL     1      71.967  38.362   6.600  1.00  0.00     0.118 C 
BRANCH  29  30
ATOM     30  O   UNL     1      71.522  37.036   6.699  1.00  0.00    -0.393 OA
ATOM     31  H   UNL     1      71.893  36.551   5.916  1.00  0.00     0.210 HD
ENDBRANCH  29  30
ENDBRANCH   1  11
TORSDOF 6
ENDMDL
