MODEL 1
REMARK VINA RESULT:    -3.222      0.000      0.000
REMARK INTER + INTRA:          -3.817
REMARK INTER:                  -3.693
REMARK INTRA:                  -0.124
REMARK UNBOUND:                -0.124
REMARK SMILES COc1ccc(C(C)=O)cc1O
REMARK SMILES IDX 6 1 10 2 11 3 3 4 4 5 5 6 7 7 8 8 9 9 12 10 2 12 1 13
REMARK H PARENT 12 11
REMARK Flexibility Score: inf
ROOT
ATOM      1  C   UNL     1      31.732  25.039  31.704  1.00  0.00     0.021 A 
ATOM      2  C   UNL     1      32.715  25.065  30.698  1.00  0.00     0.062 A 
ATOM      3  C   UNL     1      34.075  25.093  31.023  1.00  0.00     0.158 A 
ATOM      4  C   UNL     1      34.480  25.096  32.368  1.00  0.00     0.160 A 
ATOM      5  C   UNL     1      33.501  25.070  33.378  1.00  0.00     0.051 A 
ATOM      6  C   UNL     1      32.143  25.041  33.049  1.00  0.00     0.016 A 
ENDROOT
BRANCH   1   7
ATOM      7  C   UNL     1      30.290  25.009  31.336  1.00  0.00     0.159 C 
ATOM      8  C   UNL     1      29.206  25.099  32.369  1.00  0.00     0.093 C 
ATOM      9  O   UNL     1      29.955  24.905  30.124  1.00  0.00    -0.295 OA
ENDBRANCH   1   7
BRANCH   3  10
ATOM     10  O   UNL     1      35.012  25.119  29.990  1.00  0.00    -0.504 OA
ATOM     11  H   UNL     1      35.037  24.413  29.264  1.00  0.00     0.293 HD
ENDBRANCH   3  10
BRANCH   4  12
ATOM     12  O   UNL     1      35.853  25.125  32.664  1.00  0.00    -0.493 OA
ATOM     13  C   UNL     1      36.484  24.309  33.646  1.00  0.00     0.278 C 
ENDBRANCH   4  12
TORSDOF 3
ENDMDL
MODEL 2
REMARK VINA RESULT:    -3.073      1.725      4.459
REMARK INTER + INTRA:          -3.646
REMARK INTER:                  -3.544
REMARK INTRA:                  -0.103
REMARK UNBOUND:                -0.124
REMARK SMILES COc1ccc(C(C)=O)cc1O
REMARK SMILES IDX 6 1 10 2 11 3 3 4 4 5 5 6 7 7 8 8 9 9 12 10 2 12 1 13
REMARK H PARENT 12 11
REMARK Flexibility Score: inf
ROOT
ATOM      1  C   UNL     1      32.118  24.964  32.382  1.00  0.00     0.021 A 
ATOM      2  C   UNL     1      32.761  25.065  31.135  1.00  0.00     0.062 A 
ATOM      3  C   UNL     1      32.038  24.966  29.942  1.00  0.00     0.158 A 
ATOM      4  C   UNL     1      30.648  24.760  29.975  1.00  0.00     0.160 A 
ATOM      5  C   UNL     1      30.000  24.658  31.219  1.00  0.00     0.051 A 
ATOM      6  C   UNL     1      30.727  24.759  32.408  1.00  0.00     0.016 A 
ENDROOT
BRANCH   1   7
ATOM      7  C   UNL     1      32.908  25.074  33.639  1.00  0.00     0.159 C 
ATOM      8  C   UNL     1      32.250  25.125  34.986  1.00  0.00     0.093 C 
ATOM      9  O   UNL     1      34.167  25.125  33.586  1.00  0.00    -0.295 OA
ENDBRANCH   1   7
BRANCH   3  10
ATOM     10  O   UNL     1      32.721  25.072  28.731  1.00  0.00    -0.504 OA
ATOM     11  H   UNL     1      32.250  25.293  27.862  1.00  0.00     0.293 HD
ENDBRANCH   3  10
BRANCH   4  12
ATOM     12  O   UNL     1      29.947  24.664  28.761  1.00  0.00    -0.493 OA
ATOM     13  C   UNL     1      29.806  23.467  28.003  1.00  0.00     0.278 C 
ENDBRANCH   4  12
TORSDOF 3
ENDMDL
MODEL 3
REMARK VINA RESULT:    -2.993      1.827      2.792
REMARK INTER + INTRA:          -3.555
REMARK INTER:                  -3.416
REMARK INTRA:                  -0.139
REMARK UNBOUND:                -0.124
REMARK SMILES COc1ccc(C(C)=O)cc1O
REMARK SMILES IDX 6 1 10 2 11 3 3 4 4 5 5 6 7 7 8 8 9 9 12 10 2 12 1 13
REMARK H PARENT 12 11
REMARK Flexibility Score: inf
ROOT
ATOM      1  C   UNL     1      32.808  25.104  32.329  1.00  0.00     0.021 A 
ATOM      2  C   UNL     1      34.082  25.112  32.926  1.00  0.00     0.062 A 
ATOM      3  C   UNL     1      35.243  25.116  32.144  1.00  0.00     0.158 A 
ATOM      4  C   UNL     1      35.149  25.112  30.742  1.00  0.00     0.160 A 
ATOM      5  C   UNL     1      33.877  25.104  30.141  1.00  0.00     0.051 A 
ATOM      6  C   UNL     1      32.721  25.100  30.926  1.00  0.00     0.016 A 
ENDROOT
BRANCH   1   7
ATOM      7  C   UNL     1      31.587  25.099  33.181  1.00  0.00     0.159 C 
ATOM      8  C   UNL     1      30.209  25.104  32.590  1.00  0.00     0.093 C 
ATOM      9  O   UNL     1      31.700  25.091  34.437  1.00  0.00    -0.295 OA
ENDBRANCH   1   7
BRANCH   3  10
ATOM     10  O   UNL     1      36.483  25.124  32.782  1.00  0.00    -0.504 OA
ATOM     11  H   UNL     1      37.228  25.752  32.508  1.00  0.00     0.293 HD
ENDBRANCH   3  10
BRANCH   4  12
ATOM     12  O   UNL     1      36.331  25.117  29.982  1.00  0.00    -0.493 OA
ATOM     13  C   UNL     1      36.887  23.970  29.347  1.00  0.00     0.278 C 
ENDBRANCH   4  12
TORSDOF 3
ENDMDL
MODEL 4
REMARK VINA RESULT:    -2.964      1.875      2.507
REMARK INTER + INTRA:          -3.521
REMARK INTER:                  -3.383
REMARK INTRA:                  -0.138
REMARK UNBOUND:                -0.124
REMARK SMILES COc1ccc(C(C)=O)cc1O
REMARK SMILES IDX 6 1 10 2 11 3 3 4 4 5 5 6 7 7 8 8 9 9 12 10 2 12 1 13
REMARK H PARENT 12 11
REMARK Flexibility Score: inf
ROOT
ATOM      1  C   UNL     1      33.029  25.082  32.988  1.00  0.00     0.021 A 
ATOM      2  C   UNL     1      32.824  25.088  31.596  1.00  0.00     0.062 A 
ATOM      3  C   UNL     1      33.905  25.100  30.709  1.00  0.00     0.158 A 
ATOM      4  C   UNL     1      35.222  25.109  31.201  1.00  0.00     0.160 A 
ATOM      5  C   UNL     1      35.432  25.103  32.592  1.00  0.00     0.051 A 
ATOM      6  C   UNL     1      34.349  25.090  33.474  1.00  0.00     0.016 A 
ENDROOT
BRANCH   1   7
ATOM      7  C   UNL     1      31.863  25.068  33.913  1.00  0.00     0.159 C 
ATOM      8  C   UNL     1      32.033  25.125  35.402  1.00  0.00     0.093 C 
ATOM      9  O   UNL     1      30.693  25.007  33.446  1.00  0.00    -0.295 OA
ENDBRANCH   1   7
BRANCH   3  10
ATOM     10  O   UNL     1      33.650  25.106  29.338  1.00  0.00    -0.504 OA
ATOM     11  H   UNL     1      33.832  24.301  28.751  1.00  0.00     0.293 HD
ENDBRANCH   3  10
BRANCH   4  12
ATOM     12  O   UNL     1      36.288  25.121  30.287  1.00  0.00    -0.493 OA
ATOM     13  C   UNL     1      37.119  24.001  30.001  1.00  0.00     0.278 C 
ENDBRANCH   4  12
TORSDOF 3
ENDMDL
MODEL 5
REMARK VINA RESULT:    -2.827      1.995      2.788
REMARK INTER + INTRA:          -3.364
REMARK INTER:                  -3.246
REMARK INTRA:                  -0.118
REMARK UNBOUND:                -0.124
REMARK SMILES COc1ccc(C(C)=O)cc1O
REMARK SMILES IDX 6 1 10 2 11 3 3 4 4 5 5 6 7 7 8 8 9 9 12 10 2 12 1 13
REMARK H PARENT 12 11
REMARK Flexibility Score: inf
ROOT
ATOM      1  C   UNL     1      31.078  24.890  30.256  1.00  0.00     0.021 A 
ATOM      2  C   UNL     1      32.468  24.870  30.475  1.00  0.00     0.062 A 
ATOM      3  C   UNL     1      32.993  24.947  31.769  1.00  0.00     0.158 A 
ATOM      4  C   UNL     1      32.132  25.048  32.876  1.00  0.00     0.160 A 
ATOM      5  C   UNL     1      30.741  25.068  32.661  1.00  0.00     0.051 A 
ATOM      6  C   UNL     1      30.222  24.990  31.367  1.00  0.00     0.016 A 
ENDROOT
BRANCH   1   7
ATOM      7  C   UNL     1      30.542  24.806  28.870  1.00  0.00     0.159 C 
ATOM      8  C   UNL     1      29.072  24.881  28.583  1.00  0.00     0.093 C 
ATOM      9  O   UNL     1      31.335  24.669  27.898  1.00  0.00    -0.295 OA
ENDBRANCH   1   7
BRANCH   3  10
ATOM     10  O   UNL     1      34.377  24.924  31.936  1.00  0.00    -0.504 OA
ATOM     11  H   UNL     1      34.811  24.757  32.835  1.00  0.00     0.293 HD
ENDBRANCH   3  10
BRANCH   4  12
ATOM     12  O   UNL     1      32.687  25.124  34.164  1.00  0.00    -0.493 OA
ATOM     13  C   UNL     1      31.931  25.125  35.370  1.00  0.00     0.278 C 
ENDBRANCH   4  12
TORSDOF 3
ENDMDL
MODEL 6
REMARK VINA RESULT:    -2.654      1.888      2.980
REMARK INTER + INTRA:          -3.166
REMARK INTER:                  -3.052
REMARK INTRA:                  -0.114
REMARK UNBOUND:                -0.124
REMARK SMILES COc1ccc(C(C)=O)cc1O
REMARK SMILES IDX 6 1 10 2 11 3 3 4 4 5 5 6 7 7 8 8 9 9 12 10 2 12 1 13
REMARK H PARENT 12 11
REMARK Flexibility Score: inf
ROOT
ATOM      1  C   UNL     1      32.018  24.657  30.005  1.00  0.00     0.021 A 
ATOM      2  C   UNL     1      33.088  24.940  30.874  1.00  0.00     0.062 A 
ATOM      3  C   UNL     1      34.413  24.732  30.477  1.00  0.00     0.158 A 
ATOM      4  C   UNL     1      34.694  24.231  29.194  1.00  0.00     0.160 A 
ATOM      5  C   UNL     1      33.628  23.945  28.321  1.00  0.00     0.051 A 
ATOM      6  C   UNL     1      32.306  24.157  28.723  1.00  0.00     0.016 A 
ENDROOT
BRANCH   1   7
ATOM      7  C   UNL     1      30.617  24.887  30.450  1.00  0.00     0.159 C 
ATOM      8  C   UNL     1      30.230  24.859  31.899  1.00  0.00     0.093 C 
ATOM      9  O   UNL     1      29.718  25.116  29.595  1.00  0.00    -0.295 OA
ENDBRANCH   1   7
BRANCH   3  10
ATOM     10  O   UNL     1      35.439  25.027  31.374  1.00  0.00    -0.504 OA
ATOM     11  H   UNL     1      35.471  24.635  32.307  1.00  0.00     0.293 HD
ENDBRANCH   3  10
BRANCH   4  12
ATOM     12  O   UNL     1      36.034  24.031  28.822  1.00  0.00    -0.493 OA
ATOM     13  C   UNL     1      36.721  22.788  28.917  1.00  0.00     0.278 C 
ENDBRANCH   4  12
TORSDOF 3
ENDMDL
MODEL 7
REMARK VINA RESULT:    -2.652      2.173      2.744
REMARK INTER + INTRA:          -3.164
REMARK INTER:                  -3.065
REMARK INTRA:                  -0.098
REMARK UNBOUND:                -0.124
REMARK SMILES COc1ccc(C(C)=O)cc1O
REMARK SMILES IDX 6 1 10 2 11 3 3 4 4 5 5 6 7 7 8 8 9 9 12 10 2 12 1 13
REMARK H PARENT 12 11
REMARK Flexibility Score: inf
ROOT
ATOM      1  C   UNL     1      31.723  24.069  29.247  1.00  0.00     0.021 A 
ATOM      2  C   UNL     1      32.825  23.522  28.564  1.00  0.00     0.062 A 
ATOM      3  C   UNL     1      34.133  23.769  28.994  1.00  0.00     0.158 A 
ATOM      4  C   UNL     1      34.365  24.575  30.122  1.00  0.00     0.160 A 
ATOM      5  C   UNL     1      33.266  25.125  30.808  1.00  0.00     0.051 A 
ATOM      6  C   UNL     1      31.961  24.874  30.375  1.00  0.00     0.016 A 
ENDROOT
BRANCH   1   7
ATOM      7  C   UNL     1      30.340  23.792  28.771  1.00  0.00     0.159 C 
ATOM      8  C   UNL     1      30.028  22.626  27.880  1.00  0.00     0.093 C 
ATOM      9  O   UNL     1      29.394  24.549  29.120  1.00  0.00    -0.295 OA
ENDBRANCH   1   7
BRANCH   3  10
ATOM     10  O   UNL     1      35.192  23.205  28.285  1.00  0.00    -0.504 OA
ATOM     11  H   UNL     1      35.724  22.420  28.641  1.00  0.00     0.293 HD
ENDBRANCH   3  10
BRANCH   4  12
ATOM     12  O   UNL     1      35.689  24.806  30.531  1.00  0.00    -0.493 OA
ATOM     13  C   UNL     1      36.106  24.919  31.888  1.00  0.00     0.278 C 
ENDBRANCH   4  12
TORSDOF 3
ENDMDL
MODEL 8
REMARK VINA RESULT:    -2.439      2.092      5.484
REMARK INTER + INTRA:          -2.920
REMARK INTER:                  -2.791
REMARK INTRA:                  -0.129
REMARK UNBOUND:                -0.124
REMARK SMILES COc1ccc(C(C)=O)cc1O
REMARK SMILES IDX 6 1 10 2 11 3 3 4 4 5 5 6 7 7 8 8 9 9 12 10 2 12 1 13
REMARK H PARENT 12 11
REMARK Flexibility Score: inf
ROOT
ATOM      1  C   UNL     1      34.440  24.817  30.082  1.00  0.00     0.021 A 
ATOM      2  C   UNL     1      33.314  25.032  30.897  1.00  0.00     0.062 A 
ATOM      3  C   UNL     1      32.020  24.841  30.400  1.00  0.00     0.158 A 
ATOM      4  C   UNL     1      31.827  24.430  29.070  1.00  0.00     0.160 A 
ATOM      5  C   UNL     1      32.951  24.214  28.251  1.00  0.00     0.051 A 
ATOM      6  C   UNL     1      34.242  24.405  28.752  1.00  0.00     0.016 A 
ENDROOT
BRANCH   1   7
ATOM      7  C   UNL     1      35.808  25.025  30.632  1.00  0.00     0.159 C 
ATOM      8  C   UNL     1      37.012  25.125  29.743  1.00  0.00     0.093 C 
ATOM      9  O   UNL     1      35.974  25.124  31.878  1.00  0.00    -0.295 OA
ENDBRANCH   1   7
BRANCH   3  10
ATOM     10  O   UNL     1      30.935  25.067  31.247  1.00  0.00    -0.504 OA
ATOM     11  H   UNL     1      30.978  25.723  32.017  1.00  0.00     0.293 HD
ENDBRANCH   3  10
BRANCH   4  12
ATOM     12  O   UNL     1      30.517  24.247  28.599  1.00  0.00    -0.493 OA
ATOM     13  C   UNL     1      30.017  23.027  28.060  1.00  0.00     0.278 C 
ENDBRANCH   4  12
TORSDOF 3
ENDMDL
MODEL 9
REMARK VINA RESULT:    -2.159      2.585      3.809
REMARK INTER + INTRA:          -2.599
REMARK INTER:                  -2.481
REMARK INTRA:                  -0.118
REMARK UNBOUND:                -0.124
REMARK SMILES COc1ccc(C(C)=O)cc1O
REMARK SMILES IDX 6 1 10 2 11 3 3 4 4 5 5 6 7 7 8 8 9 9 12 10 2 12 1 13
REMARK H PARENT 12 11
REMARK Flexibility Score: inf
ROOT
ATOM      1  C   UNL     1      31.469  24.811  30.293  1.00  0.00     0.021 A 
ATOM      2  C   UNL     1      30.254  24.718  30.996  1.00  0.00     0.062 A 
ATOM      3  C   UNL     1      30.219  24.823  32.390  1.00  0.00     0.158 A 
ATOM      4  C   UNL     1      31.407  25.023  33.113  1.00  0.00     0.160 A 
ATOM      5  C   UNL     1      32.626  25.116  32.415  1.00  0.00     0.051 A 
ATOM      6  C   UNL     1      32.655  25.011  31.022  1.00  0.00     0.016 A 
ENDROOT
BRANCH   1   7
ATOM      7  C   UNL     1      31.483  24.697  28.809  1.00  0.00     0.159 C 
ATOM      8  C   UNL     1      32.761  24.705  28.025  1.00  0.00     0.093 C 
ATOM      9  O   UNL     1      30.395  24.589  28.179  1.00  0.00    -0.295 OA
ENDBRANCH   1   7
BRANCH   3  10
ATOM     10  O   UNL     1      28.989  24.724  33.041  1.00  0.00    -0.504 OA
ATOM     11  H   UNL     1      28.863  24.168  33.877  1.00  0.00     0.293 HD
ENDBRANCH   3  10
BRANCH   4  12
ATOM     12  O   UNL     1      31.342  25.125  34.513  1.00  0.00    -0.493 OA
ATOM     13  C   UNL     1      32.473  25.102  35.377  1.00  0.00     0.278 C 
ENDBRANCH   4  12
TORSDOF 3
ENDMDL
