MODEL 1
REMARK VINA RESULT:    -6.604      0.000      0.000
REMARK INTER + INTRA:         -19.382
REMARK INTER:                 -17.414
REMARK INTRA:                  -1.968
REMARK UNBOUND:                -1.968
REMARK SMILES CCCCCCCCCCCCCCCCCCCCCCCCCCCCCC(=O)[O-]
REMARK SMILES IDX 16 1 17 2 18 3 19 4 20 5 21 6 22 7 23 8 24 9 25 10 26 11
REMARK SMILES IDX 27 12 28 13 29 14 30 15 31 16 32 17 15 18 14 19 13 20 12 21
REMARK SMILES IDX 11 22 10 23 9 24 8 25 7 26 6 27 5 28 4 29 3 30 2 31 1 32
REMARK H PARENT
REMARK Flexibility Score: inf
ROOT
ATOM      1  C   UNL     1      17.648   1.031  11.421  1.00  0.00     0.000 C 
ENDROOT
BRANCH   1   2
ATOM      2  C   UNL     1      17.470   0.105  10.200  1.00  0.00     0.000 C 
BRANCH   2   3
ATOM      3  C   UNL     1      17.681   0.802   8.839  1.00  0.00     0.000 C 
BRANCH   3   4
ATOM      4  C   UNL     1      18.768   0.183   7.938  1.00  0.00     0.000 C 
BRANCH   4   5
ATOM      5  C   UNL     1      19.350   1.160   6.899  1.00  0.00     0.000 C 
BRANCH   5   6
ATOM      6  C   UNL     1      20.830   0.869   6.573  1.00  0.00     0.000 C 
BRANCH   6   7
ATOM      7  C   UNL     1      21.205  -0.609   6.788  1.00  0.00     0.000 C 
BRANCH   7   8
ATOM      8  C   UNL     1      22.232  -1.154   5.772  1.00  0.00     0.000 C 
BRANCH   8   9
ATOM      9  C   UNL     1      23.611  -0.458   5.792  1.00  0.00     0.000 C 
BRANCH   9  10
ATOM     10  C   UNL     1      24.818  -1.383   5.542  1.00  0.00     0.000 C 
BRANCH  10  11
ATOM     11  C   UNL     1      26.172  -0.823   6.023  1.00  0.00     0.000 C 
BRANCH  11  12
ATOM     12  C   UNL     1      27.114  -1.900   6.602  1.00  0.00     0.000 C 
BRANCH  12  13
ATOM     13  C   UNL     1      28.442  -2.012   5.831  1.00  0.00     0.006 C 
BRANCH  13  14
ATOM     14  C   UNL     1      29.454  -2.914   6.552  1.00  0.00     0.053 C 
BRANCH  14  15
ATOM     15  C   UNL     1      30.616  -2.136   7.091  1.00  0.00     0.041 C 
ATOM     16  O   UNL     1      31.472  -2.699   7.820  1.00  0.00    -0.550 OA
ATOM     17  O   UNL     1      30.757  -0.790   6.777  1.00  0.00    -0.550 OA
ENDBRANCH  14  15
ENDBRANCH  13  14
ENDBRANCH  12  13
ENDBRANCH  11  12
ENDBRANCH  10  11
ENDBRANCH   9  10
ENDBRANCH   8   9
ENDBRANCH   7   8
ENDBRANCH   6   7
ENDBRANCH   5   6
ENDBRANCH   4   5
ENDBRANCH   3   4
ENDBRANCH   2   3
ENDBRANCH   1   2
BRANCH   1  18
ATOM     18  C   UNL     1      16.685   2.230  11.401  1.00  0.00     0.000 C 
BRANCH  18  19
ATOM     19  C   UNL     1      15.467   1.977  12.305  1.00  0.00     0.000 C 
BRANCH  19  20
ATOM     20  C   UNL     1      15.176   3.149  13.259  1.00  0.00     0.000 C 
BRANCH  20  21
ATOM     21  C   UNL     1      15.339   2.820  14.755  1.00  0.00     0.000 C 
BRANCH  21  22
ATOM     22  C   UNL     1      14.192   1.995  15.366  1.00  0.00     0.000 C 
BRANCH  22  23
ATOM     23  C   UNL     1      13.351   2.798  16.373  1.00  0.00     0.000 C 
BRANCH  23  24
ATOM     24  C   UNL     1      14.129   3.115  17.662  1.00  0.00    -0.000 C 
BRANCH  24  25
ATOM     25  C   UNL     1      14.949   1.909  18.156  1.00  0.00    -0.000 C 
BRANCH  25  26
ATOM     26  C   UNL     1      14.142   0.982  19.091  1.00  0.00    -0.000 C 
BRANCH  26  27
ATOM     27  C   UNL     1      14.996   0.286  20.164  1.00  0.00    -0.000 C 
BRANCH  27  28
ATOM     28  C   UNL     1      16.363  -0.179  19.635  1.00  0.00    -0.000 C 
BRANCH  28  29
ATOM     29  C   UNL     1      16.295  -1.564  18.971  1.00  0.00    -0.000 C 
BRANCH  29  30
ATOM     30  C   UNL     1      17.107  -1.634  17.670  1.00  0.00    -0.000 C 
BRANCH  30  31
ATOM     31  C   UNL     1      16.315  -1.032  16.503  1.00  0.00    -0.003 C 
ATOM     32  C   UNL     1      17.241  -0.316  15.523  1.00  0.00     0.004 C 
ENDBRANCH  30  31
ENDBRANCH  29  30
ENDBRANCH  28  29
ENDBRANCH  27  28
ENDBRANCH  26  27
ENDBRANCH  25  26
ENDBRANCH  24  25
ENDBRANCH  23  24
ENDBRANCH  22  23
ENDBRANCH  21  22
ENDBRANCH  20  21
ENDBRANCH  19  20
ENDBRANCH  18  19
ENDBRANCH   1  18
TORSDOF 28
ENDMDL
MODEL 2
REMARK VINA RESULT:    -6.592      6.765      9.177
REMARK INTER + INTRA:         -19.351
REMARK INTER:                 -15.802
REMARK INTRA:                  -3.548
REMARK UNBOUND:                -1.968
REMARK SMILES CCCCCCCCCCCCCCCCCCCCCCCCCCCCCC(=O)[O-]
REMARK SMILES IDX 16 1 17 2 18 3 19 4 20 5 21 6 22 7 23 8 24 9 25 10 26 11
REMARK SMILES IDX 27 12 28 13 29 14 30 15 31 16 32 17 15 18 14 19 13 20 12 21
REMARK SMILES IDX 11 22 10 23 9 24 8 25 7 26 6 27 5 28 4 29 3 30 2 31 1 32
REMARK H PARENT
REMARK Flexibility Score: inf
ROOT
ATOM      1  C   UNL     1      16.439  -0.762  15.844  1.00  0.00     0.000 C 
ENDROOT
BRANCH   1   2
ATOM      2  C   UNL     1      17.753   0.026  16.028  1.00  0.00     0.000 C 
BRANCH   2   3
ATOM      3  C   UNL     1      18.742  -0.105  14.851  1.00  0.00     0.000 C 
BRANCH   3   4
ATOM      4  C   UNL     1      19.242  -1.534  14.560  1.00  0.00     0.000 C 
BRANCH   4   5
ATOM      5  C   UNL     1      20.323  -2.030  15.540  1.00  0.00     0.000 C 
BRANCH   5   6
ATOM      6  C   UNL     1      21.260  -0.900  16.013  1.00  0.00     0.000 C 
BRANCH   6   7
ATOM      7  C   UNL     1      22.683  -1.400  16.325  1.00  0.00     0.000 C 
BRANCH   7   8
ATOM      8  C   UNL     1      23.764  -0.299  16.274  1.00  0.00     0.000 C 
BRANCH   8   9
ATOM      9  C   UNL     1      23.232   1.150  16.320  1.00  0.00     0.000 C 
BRANCH   9  10
ATOM     10  C   UNL     1      24.203   2.225  15.795  1.00  0.00     0.000 C 
BRANCH  10  11
ATOM     11  C   UNL     1      25.556   2.290  16.533  1.00  0.00     0.000 C 
BRANCH  11  12
ATOM     12  C   UNL     1      25.442   2.805  17.984  1.00  0.00     0.000 C 
BRANCH  12  13
ATOM     13  C   UNL     1      25.827   4.289  18.125  1.00  0.00     0.006 C 
BRANCH  13  14
ATOM     14  C   UNL     1      24.802   5.075  18.955  1.00  0.00     0.053 C 
BRANCH  14  15
ATOM     15  C   UNL     1      25.165   6.524  19.070  1.00  0.00     0.041 C 
ATOM     16  O   UNL     1      25.338   7.218  18.035  1.00  0.00    -0.550 OA
ATOM     17  O   UNL     1      25.305   7.110  20.322  1.00  0.00    -0.550 OA
ENDBRANCH  14  15
ENDBRANCH  13  14
ENDBRANCH  12  13
ENDBRANCH  11  12
ENDBRANCH  10  11
ENDBRANCH   9  10
ENDBRANCH   8   9
ENDBRANCH   7   8
ENDBRANCH   6   7
ENDBRANCH   5   6
ENDBRANCH   4   5
ENDBRANCH   3   4
ENDBRANCH   2   3
ENDBRANCH   1   2
BRANCH   1  18
ATOM     18  C   UNL     1      16.310  -1.936  16.829  1.00  0.00     0.000 C 
BRANCH  18  19
ATOM     19  C   UNL     1      17.249  -1.755  18.033  1.00  0.00     0.000 C 
BRANCH  19  20
ATOM     20  C   UNL     1      16.529  -1.210  19.277  1.00  0.00     0.000 C 
BRANCH  20  21
ATOM     21  C   UNL     1      16.613   0.318  19.455  1.00  0.00     0.000 C 
BRANCH  21  22
ATOM     22  C   UNL     1      15.421   0.952  20.194  1.00  0.00     0.000 C 
BRANCH  22  23
ATOM     23  C   UNL     1      14.590   1.885  19.296  1.00  0.00     0.000 C 
BRANCH  23  24
ATOM     24  C   UNL     1      13.725   1.109  18.289  1.00  0.00    -0.000 C 
BRANCH  24  25
ATOM     25  C   UNL     1      13.634   1.825  16.929  1.00  0.00    -0.000 C 
BRANCH  25  26
ATOM     26  C   UNL     1      14.853   2.730  16.648  1.00  0.00    -0.000 C 
BRANCH  26  27
ATOM     27  C   UNL     1      15.374   2.639  15.204  1.00  0.00    -0.000 C 
BRANCH  27  28
ATOM     28  C   UNL     1      14.383   1.954  14.249  1.00  0.00    -0.000 C 
BRANCH  28  29
ATOM     29  C   UNL     1      15.051   1.491  12.944  1.00  0.00    -0.000 C 
BRANCH  29  30
ATOM     30  C   UNL     1      15.624   2.659  12.128  1.00  0.00    -0.000 C 
BRANCH  30  31
ATOM     31  C   UNL     1      16.870   2.218  11.352  1.00  0.00    -0.003 C 
ATOM     32  C   UNL     1      17.211   0.759  11.644  1.00  0.00     0.004 C 
ENDBRANCH  30  31
ENDBRANCH  29  30
ENDBRANCH  28  29
ENDBRANCH  27  28
ENDBRANCH  26  27
ENDBRANCH  25  26
ENDBRANCH  24  25
ENDBRANCH  23  24
ENDBRANCH  22  23
ENDBRANCH  21  22
ENDBRANCH  20  21
ENDBRANCH  19  20
ENDBRANCH  18  19
ENDBRANCH   1  18
TORSDOF 28
ENDMDL
MODEL 3
REMARK VINA RESULT:    -6.521      4.917      7.449
REMARK INTER + INTRA:         -19.162
REMARK INTER:                 -15.758
REMARK INTRA:                  -3.404
REMARK UNBOUND:                -1.968
REMARK SMILES CCCCCCCCCCCCCCCCCCCCCCCCCCCCCC(=O)[O-]
REMARK SMILES IDX 16 1 17 2 18 3 19 4 20 5 21 6 22 7 23 8 24 9 25 10 26 11
REMARK SMILES IDX 27 12 28 13 29 14 30 15 31 16 32 17 15 18 14 19 13 20 12 21
REMARK SMILES IDX 11 22 10 23 9 24 8 25 7 26 6 27 5 28 4 29 3 30 2 31 1 32
REMARK H PARENT
REMARK Flexibility Score: inf
ROOT
ATOM      1  C   UNL     1      17.168   0.888  17.170  1.00  0.00     0.000 C 
ENDROOT
BRANCH   1   2
ATOM      2  C   UNL     1      16.363  -0.011  16.209  1.00  0.00     0.000 C 
BRANCH   2   3
ATOM      3  C   UNL     1      16.906  -0.044  14.765  1.00  0.00     0.000 C 
BRANCH   3   4
ATOM      4  C   UNL     1      18.441  -0.091  14.634  1.00  0.00     0.000 C 
BRANCH   4   5
ATOM      5  C   UNL     1      18.978  -1.409  14.043  1.00  0.00     0.000 C 
BRANCH   5   6
ATOM      6  C   UNL     1      20.018  -2.089  14.957  1.00  0.00     0.000 C 
BRANCH   6   7
ATOM      7  C   UNL     1      20.437  -1.202  16.143  1.00  0.00     0.000 C 
BRANCH   7   8
ATOM      8  C   UNL     1      21.870  -0.638  16.035  1.00  0.00     0.000 C 
BRANCH   8   9
ATOM      9  C   UNL     1      23.001  -1.669  16.239  1.00  0.00     0.000 C 
BRANCH   9  10
ATOM     10  C   UNL     1      24.304  -1.378  15.469  1.00  0.00     0.000 C 
BRANCH  10  11
ATOM     11  C   UNL     1      25.596  -1.566  16.290  1.00  0.00     0.000 C 
BRANCH  11  12
ATOM     12  C   UNL     1      26.676  -0.503  15.990  1.00  0.00     0.000 C 
BRANCH  12  13
ATOM     13  C   UNL     1      26.177   0.610  15.050  1.00  0.00     0.006 C 
BRANCH  13  14
ATOM     14  C   UNL     1      27.100   1.837  15.069  1.00  0.00     0.053 C 
BRANCH  14  15
ATOM     15  C   UNL     1      27.600   2.184  13.699  1.00  0.00     0.041 C 
ATOM     16  O   UNL     1      27.540   3.369  13.284  1.00  0.00    -0.550 OA
ATOM     17  O   UNL     1      28.141   1.196  12.885  1.00  0.00    -0.550 OA
ENDBRANCH  14  15
ENDBRANCH  13  14
ENDBRANCH  12  13
ENDBRANCH  11  12
ENDBRANCH  10  11
ENDBRANCH   9  10
ENDBRANCH   8   9
ENDBRANCH   7   8
ENDBRANCH   6   7
ENDBRANCH   5   6
ENDBRANCH   4   5
ENDBRANCH   3   4
ENDBRANCH   2   3
ENDBRANCH   1   2
BRANCH   1  18
ATOM     18  C   UNL     1      17.488   0.193  18.504  1.00  0.00     0.000 C 
BRANCH  18  19
ATOM     19  C   UNL     1      16.488  -0.940  18.792  1.00  0.00     0.000 C 
BRANCH  19  20
ATOM     20  C   UNL     1      15.211  -0.447  19.493  1.00  0.00     0.000 C 
BRANCH  20  21
ATOM     21  C   UNL     1      15.450   0.552  20.642  1.00  0.00     0.000 C 
BRANCH  21  22
ATOM     22  C   UNL     1      14.735   1.905  20.483  1.00  0.00     0.000 C 
BRANCH  22  23
ATOM     23  C   UNL     1      14.100   2.085  19.093  1.00  0.00     0.000 C 
BRANCH  23  24
ATOM     24  C   UNL     1      13.613   3.525  18.855  1.00  0.00    -0.000 C 
BRANCH  24  25
ATOM     25  C   UNL     1      12.993   3.705  17.457  1.00  0.00    -0.000 C 
BRANCH  25  26
ATOM     26  C   UNL     1      13.386   2.576  16.481  1.00  0.00    -0.000 C 
BRANCH  26  27
ATOM     27  C   UNL     1      14.524   2.955  15.518  1.00  0.00    -0.000 C 
BRANCH  27  28
ATOM     28  C   UNL     1      14.356   2.341  14.118  1.00  0.00    -0.000 C 
BRANCH  28  29
ATOM     29  C   UNL     1      15.390   2.876  13.115  1.00  0.00    -0.000 C 
BRANCH  29  30
ATOM     30  C   UNL     1      15.595   1.933  11.919  1.00  0.00    -0.000 C 
BRANCH  30  31
ATOM     31  C   UNL     1      17.033   2.027  11.396  1.00  0.00    -0.003 C 
ATOM     32  C   UNL     1      17.434   0.751  10.661  1.00  0.00     0.004 C 
ENDBRANCH  30  31
ENDBRANCH  29  30
ENDBRANCH  28  29
ENDBRANCH  27  28
ENDBRANCH  26  27
ENDBRANCH  25  26
ENDBRANCH  24  25
ENDBRANCH  23  24
ENDBRANCH  22  23
ENDBRANCH  21  22
ENDBRANCH  20  21
ENDBRANCH  19  20
ENDBRANCH  18  19
ENDBRANCH   1  18
TORSDOF 28
ENDMDL
MODEL 4
REMARK VINA RESULT:    -6.406      6.658     12.615
REMARK INTER + INTRA:         -18.861
REMARK INTER:                 -15.312
REMARK INTRA:                  -3.549
REMARK UNBOUND:                -1.968
REMARK SMILES CCCCCCCCCCCCCCCCCCCCCCCCCCCCCC(=O)[O-]
REMARK SMILES IDX 16 1 17 2 18 3 19 4 20 5 21 6 22 7 23 8 24 9 25 10 26 11
REMARK SMILES IDX 27 12 28 13 29 14 30 15 31 16 32 17 15 18 14 19 13 20 12 21
REMARK SMILES IDX 11 22 10 23 9 24 8 25 7 26 6 27 5 28 4 29 3 30 2 31 1 32
REMARK H PARENT
REMARK Flexibility Score: inf
ROOT
ATOM      1  C   UNL     1      17.557   0.069  16.069  1.00  0.00     0.000 C 
ENDROOT
BRANCH   1   2
ATOM      2  C   UNL     1      16.342  -0.882  16.024  1.00  0.00     0.000 C 
BRANCH   2   3
ATOM      3  C   UNL     1      16.462  -2.108  16.953  1.00  0.00     0.000 C 
BRANCH   3   4
ATOM      4  C   UNL     1      17.168  -1.853  18.300  1.00  0.00     0.000 C 
BRANCH   4   5
ATOM      5  C   UNL     1      16.258  -1.232  19.376  1.00  0.00     0.000 C 
BRANCH   5   6
ATOM      6  C   UNL     1      16.654   0.217  19.727  1.00  0.00     0.000 C 
BRANCH   6   7
ATOM      7  C   UNL     1      15.436   1.149  19.862  1.00  0.00     0.000 C 
BRANCH   7   8
ATOM      8  C   UNL     1      14.111   0.531  19.366  1.00  0.00     0.000 C 
BRANCH   8   9
ATOM      9  C   UNL     1      13.620   1.038  17.993  1.00  0.00     0.000 C 
BRANCH   9  10
ATOM     10  C   UNL     1      13.960   2.508  17.675  1.00  0.00     0.000 C 
BRANCH  10  11
ATOM     11  C   UNL     1      13.247   3.082  16.433  1.00  0.00     0.000 C 
BRANCH  11  12
ATOM     12  C   UNL     1      13.628   2.368  15.118  1.00  0.00     0.000 C 
BRANCH  12  13
ATOM     13  C   UNL     1      15.082   2.641  14.689  1.00  0.00     0.006 C 
BRANCH  13  14
ATOM     14  C   UNL     1      15.178   3.066  13.216  1.00  0.00     0.053 C 
BRANCH  14  15
ATOM     15  C   UNL     1      15.867   2.033  12.377  1.00  0.00     0.041 C 
ATOM     16  O   UNL     1      16.243   0.948  12.891  1.00  0.00    -0.550 OA
ATOM     17  O   UNL     1      16.084   2.266  11.025  1.00  0.00    -0.550 OA
ENDBRANCH  14  15
ENDBRANCH  13  14
ENDBRANCH  12  13
ENDBRANCH  11  12
ENDBRANCH  10  11
ENDBRANCH   9  10
ENDBRANCH   8   9
ENDBRANCH   7   8
ENDBRANCH   6   7
ENDBRANCH   5   6
ENDBRANCH   4   5
ENDBRANCH   3   4
ENDBRANCH   2   3
ENDBRANCH   1   2
BRANCH   1  18
ATOM     18  C   UNL     1      18.631  -0.292  15.028  1.00  0.00     0.000 C 
BRANCH  18  19
ATOM     19  C   UNL     1      19.988  -0.555  15.702  1.00  0.00     0.000 C 
BRANCH  19  20
ATOM     20  C   UNL     1      20.484  -1.997  15.507  1.00  0.00     0.000 C 
BRANCH  20  21
ATOM     21  C   UNL     1      21.952  -2.236  15.910  1.00  0.00     0.000 C 
BRANCH  21  22
ATOM     22  C   UNL     1      22.750  -0.961  16.234  1.00  0.00     0.000 C 
BRANCH  22  23
ATOM     23  C   UNL     1      24.183  -1.259  16.711  1.00  0.00     0.000 C 
BRANCH  23  24
ATOM     24  C   UNL     1      24.949  -2.162  15.730  1.00  0.00    -0.000 C 
BRANCH  24  25
ATOM     25  C   UNL     1      26.467  -2.139  15.986  1.00  0.00    -0.000 C 
BRANCH  25  26
ATOM     26  C   UNL     1      27.038  -0.707  16.064  1.00  0.00    -0.000 C 
BRANCH  26  27
ATOM     27  C   UNL     1      27.127   0.002  14.701  1.00  0.00    -0.000 C 
BRANCH  27  28
ATOM     28  C   UNL     1      26.615   1.451  14.744  1.00  0.00    -0.000 C 
BRANCH  28  29
ATOM     29  C   UNL     1      27.221   2.253  15.907  1.00  0.00    -0.000 C 
BRANCH  29  30
ATOM     30  C   UNL     1      26.187   3.145  16.610  1.00  0.00    -0.000 C 
BRANCH  30  31
ATOM     31  C   UNL     1      25.067   2.297  17.224  1.00  0.00    -0.003 C 
ATOM     32  C   UNL     1      23.743   2.528  16.501  1.00  0.00     0.004 C 
ENDBRANCH  30  31
ENDBRANCH  29  30
ENDBRANCH  28  29
ENDBRANCH  27  28
ENDBRANCH  26  27
ENDBRANCH  25  26
ENDBRANCH  24  25
ENDBRANCH  23  24
ENDBRANCH  22  23
ENDBRANCH  21  22
ENDBRANCH  20  21
ENDBRANCH  19  20
ENDBRANCH  18  19
ENDBRANCH   1  18
TORSDOF 28
ENDMDL
MODEL 5
REMARK VINA RESULT:    -6.384      5.796      7.891
REMARK INTER + INTRA:         -18.802
REMARK INTER:                 -14.969
REMARK INTRA:                  -3.832
REMARK UNBOUND:                -1.968
REMARK SMILES CCCCCCCCCCCCCCCCCCCCCCCCCCCCCC(=O)[O-]
REMARK SMILES IDX 16 1 17 2 18 3 19 4 20 5 21 6 22 7 23 8 24 9 25 10 26 11
REMARK SMILES IDX 27 12 28 13 29 14 30 15 31 16 32 17 15 18 14 19 13 20 12 21
REMARK SMILES IDX 11 22 10 23 9 24 8 25 7 26 6 27 5 28 4 29 3 30 2 31 1 32
REMARK H PARENT
REMARK Flexibility Score: inf
ROOT
ATOM      1  C   UNL     1      17.900   0.175  15.499  1.00  0.00     0.000 C 
ENDROOT
BRANCH   1   2
ATOM      2  C   UNL     1      19.147  -0.484  14.874  1.00  0.00     0.000 C 
BRANCH   2   3
ATOM      3  C   UNL     1      19.500  -1.865  15.467  1.00  0.00     0.000 C 
BRANCH   3   4
ATOM      4  C   UNL     1      21.005  -2.187  15.549  1.00  0.00     0.000 C 
BRANCH   4   5
ATOM      5  C   UNL     1      21.861  -1.037  16.113  1.00  0.00     0.000 C 
BRANCH   5   6
ATOM      6  C   UNL     1      23.371  -1.354  16.091  1.00  0.00     0.000 C 
BRANCH   6   7
ATOM      7  C   UNL     1      23.659  -2.857  15.925  1.00  0.00     0.000 C 
BRANCH   7   8
ATOM      8  C   UNL     1      24.093  -3.563  17.229  1.00  0.00     0.000 C 
BRANCH   8   9
ATOM      9  C   UNL     1      25.228  -2.865  18.009  1.00  0.00     0.000 C 
BRANCH   9  10
ATOM     10  C   UNL     1      26.656  -3.216  17.548  1.00  0.00     0.000 C 
BRANCH  10  11
ATOM     11  C   UNL     1      27.463  -2.030  16.983  1.00  0.00     0.000 C 
BRANCH  11  12
ATOM     12  C   UNL     1      27.374  -1.898  15.447  1.00  0.00     0.000 C 
BRANCH  12  13
ATOM     13  C   UNL     1      27.123  -0.452  14.984  1.00  0.00     0.006 C 
BRANCH  13  14
ATOM     14  C   UNL     1      26.674   0.455  16.139  1.00  0.00     0.053 C 
BRANCH  14  15
ATOM     15  C   UNL     1      26.198   1.790  15.652  1.00  0.00     0.041 C 
ATOM     16  O   UNL     1      26.791   2.842  16.006  1.00  0.00    -0.550 OA
ATOM     17  O   UNL     1      25.105   1.871  14.798  1.00  0.00    -0.550 OA
ENDBRANCH  14  15
ENDBRANCH  13  14
ENDBRANCH  12  13
ENDBRANCH  11  12
ENDBRANCH  10  11
ENDBRANCH   9  10
ENDBRANCH   8   9
ENDBRANCH   7   8
ENDBRANCH   6   7
ENDBRANCH   5   6
ENDBRANCH   4   5
ENDBRANCH   3   4
ENDBRANCH   2   3
ENDBRANCH   1   2
BRANCH   1  18
ATOM     18  C   UNL     1      16.636  -0.689  15.350  1.00  0.00     0.000 C 
BRANCH  18  19
ATOM     19  C   UNL     1      15.837  -0.735  16.664  1.00  0.00     0.000 C 
BRANCH  19  20
ATOM     20  C   UNL     1      16.395  -1.758  17.667  1.00  0.00     0.000 C 
BRANCH  20  21
ATOM     21  C   UNL     1      17.128  -1.145  18.876  1.00  0.00     0.000 C 
BRANCH  21  22
ATOM     22  C   UNL     1      16.725   0.301  19.212  1.00  0.00     0.000 C 
BRANCH  22  23
ATOM     23  C   UNL     1      15.622   0.380  20.282  1.00  0.00     0.000 C 
BRANCH  23  24
ATOM     24  C   UNL     1      14.733   1.623  20.113  1.00  0.00    -0.000 C 
BRANCH  24  25
ATOM     25  C   UNL     1      14.074   1.681  18.722  1.00  0.00    -0.000 C 
BRANCH  25  26
ATOM     26  C   UNL     1      13.333   3.011  18.468  1.00  0.00    -0.000 C 
BRANCH  26  27
ATOM     27  C   UNL     1      13.505   3.554  17.039  1.00  0.00    -0.000 C 
BRANCH  27  28
ATOM     28  C   UNL     1      14.767   3.021  16.341  1.00  0.00    -0.000 C 
BRANCH  28  29
ATOM     29  C   UNL     1      14.448   2.313  15.014  1.00  0.00    -0.000 C 
BRANCH  29  30
ATOM     30  C   UNL     1      15.335   2.800  13.858  1.00  0.00    -0.000 C 
BRANCH  30  31
ATOM     31  C   UNL     1      15.233   1.850  12.660  1.00  0.00    -0.003 C 
ATOM     32  C   UNL     1      16.618   1.468  12.142  1.00  0.00     0.004 C 
ENDBRANCH  30  31
ENDBRANCH  29  30
ENDBRANCH  28  29
ENDBRANCH  27  28
ENDBRANCH  26  27
ENDBRANCH  25  26
ENDBRANCH  24  25
ENDBRANCH  23  24
ENDBRANCH  22  23
ENDBRANCH  21  22
ENDBRANCH  20  21
ENDBRANCH  19  20
ENDBRANCH  18  19
ENDBRANCH   1  18
TORSDOF 28
ENDMDL
MODEL 6
REMARK VINA RESULT:    -6.364      6.343      7.674
REMARK INTER + INTRA:         -18.750
REMARK INTER:                 -15.836
REMARK INTRA:                  -2.914
REMARK UNBOUND:                -1.968
REMARK SMILES CCCCCCCCCCCCCCCCCCCCCCCCCCCCCC(=O)[O-]
REMARK SMILES IDX 16 1 17 2 18 3 19 4 20 5 21 6 22 7 23 8 24 9 25 10 26 11
REMARK SMILES IDX 27 12 28 13 29 14 30 15 31 16 32 17 15 18 14 19 13 20 12 21
REMARK SMILES IDX 11 22 10 23 9 24 8 25 7 26 6 27 5 28 4 29 3 30 2 31 1 32
REMARK H PARENT
REMARK Flexibility Score: inf
ROOT
ATOM      1  C   UNL     1      17.377   1.038  11.476  1.00  0.00     0.000 C 
ENDROOT
BRANCH   1   2
ATOM      2  C   UNL     1      17.452  -0.140  12.470  1.00  0.00     0.000 C 
BRANCH   2   3
ATOM      3  C   UNL     1      18.503   0.037  13.586  1.00  0.00     0.000 C 
BRANCH   3   4
ATOM      4  C   UNL     1      18.326  -0.877  14.815  1.00  0.00     0.000 C 
BRANCH   4   5
ATOM      5  C   UNL     1      19.493  -1.859  15.037  1.00  0.00     0.000 C 
BRANCH   5   6
ATOM      6  C   UNL     1      20.623  -1.255  15.895  1.00  0.00     0.000 C 
BRANCH   6   7
ATOM      7  C   UNL     1      21.881  -2.142  15.928  1.00  0.00     0.000 C 
BRANCH   7   8
ATOM      8  C   UNL     1      23.150  -1.419  16.429  1.00  0.00     0.000 C 
BRANCH   8   9
ATOM      9  C   UNL     1      23.195   0.100  16.152  1.00  0.00     0.000 C 
BRANCH   9  10
ATOM     10  C   UNL     1      24.564   0.770  16.383  1.00  0.00     0.000 C 
BRANCH  10  11
ATOM     11  C   UNL     1      25.428   0.114  17.479  1.00  0.00     0.000 C 
BRANCH  11  12
ATOM     12  C   UNL     1      25.897   1.103  18.569  1.00  0.00     0.000 C 
BRANCH  12  13
ATOM     13  C   UNL     1      27.023   2.036  18.087  1.00  0.00     0.006 C 
BRANCH  13  14
ATOM     14  C   UNL     1      26.790   3.492  18.515  1.00  0.00     0.053 C 
BRANCH  14  15
ATOM     15  C   UNL     1      25.768   4.173  17.657  1.00  0.00     0.041 C 
ATOM     16  O   UNL     1      25.825   4.075  16.404  1.00  0.00    -0.550 OA
ATOM     17  O   UNL     1      24.745   4.908  18.243  1.00  0.00    -0.550 OA
ENDBRANCH  14  15
ENDBRANCH  13  14
ENDBRANCH  12  13
ENDBRANCH  11  12
ENDBRANCH  10  11
ENDBRANCH   9  10
ENDBRANCH   8   9
ENDBRANCH   7   8
ENDBRANCH   6   7
ENDBRANCH   5   6
ENDBRANCH   4   5
ENDBRANCH   3   4
ENDBRANCH   2   3
ENDBRANCH   1   2
BRANCH   1  18
ATOM     18  C   UNL     1      15.955   1.609  11.341  1.00  0.00     0.000 C 
BRANCH  18  19
ATOM     19  C   UNL     1      15.642   2.592  12.482  1.00  0.00     0.000 C 
BRANCH  19  20
ATOM     20  C   UNL     1      14.752   1.975  13.574  1.00  0.00     0.000 C 
BRANCH  20  21
ATOM     21  C   UNL     1      15.406   1.886  14.967  1.00  0.00     0.000 C 
BRANCH  21  22
ATOM     22  C   UNL     1      14.901   2.921  15.987  1.00  0.00     0.000 C 
BRANCH  22  23
ATOM     23  C   UNL     1      13.422   2.717  16.363  1.00  0.00     0.000 C 
BRANCH  23  24
ATOM     24  C   UNL     1      12.981   3.635  17.515  1.00  0.00    -0.000 C 
BRANCH  24  25
ATOM     25  C   UNL     1      13.784   3.375  18.804  1.00  0.00    -0.000 C 
BRANCH  25  26
ATOM     26  C   UNL     1      13.970   1.871  19.098  1.00  0.00    -0.000 C 
BRANCH  26  27
ATOM     27  C   UNL     1      14.745   1.583  20.394  1.00  0.00    -0.000 C 
BRANCH  27  28
ATOM     28  C   UNL     1      15.328   0.161  20.442  1.00  0.00    -0.000 C 
BRANCH  28  29
ATOM     29  C   UNL     1      15.399  -0.491  19.052  1.00  0.00    -0.000 C 
BRANCH  29  30
ATOM     30  C   UNL     1      16.813  -0.974  18.698  1.00  0.00    -0.000 C 
BRANCH  30  31
ATOM     31  C   UNL     1      17.836   0.151  18.898  1.00  0.00    -0.003 C 
ATOM     32  C   UNL     1      17.754   1.175  17.769  1.00  0.00     0.004 C 
ENDBRANCH  30  31
ENDBRANCH  29  30
ENDBRANCH  28  29
ENDBRANCH  27  28
ENDBRANCH  26  27
ENDBRANCH  25  26
ENDBRANCH  24  25
ENDBRANCH  23  24
ENDBRANCH  22  23
ENDBRANCH  21  22
ENDBRANCH  20  21
ENDBRANCH  19  20
ENDBRANCH  18  19
ENDBRANCH   1  18
TORSDOF 28
ENDMDL
MODEL 7
REMARK VINA RESULT:    -6.360      6.880     12.823
REMARK INTER + INTRA:         -18.738
REMARK INTER:                 -15.268
REMARK INTRA:                  -3.470
REMARK UNBOUND:                -1.968
REMARK SMILES CCCCCCCCCCCCCCCCCCCCCCCCCCCCCC(=O)[O-]
REMARK SMILES IDX 16 1 17 2 18 3 19 4 20 5 21 6 22 7 23 8 24 9 25 10 26 11
REMARK SMILES IDX 27 12 28 13 29 14 30 15 31 16 32 17 15 18 14 19 13 20 12 21
REMARK SMILES IDX 11 22 10 23 9 24 8 25 7 26 6 27 5 28 4 29 3 30 2 31 1 32
REMARK H PARENT
REMARK Flexibility Score: inf
ROOT
ATOM      1  C   UNL     1      17.639   0.215  16.308  1.00  0.00     0.000 C 
ENDROOT
BRANCH   1   2
ATOM      2  C   UNL     1      16.628  -0.863  15.864  1.00  0.00     0.000 C 
BRANCH   2   3
ATOM      3  C   UNL     1      16.243  -1.866  16.972  1.00  0.00     0.000 C 
BRANCH   3   4
ATOM      4  C   UNL     1      17.105  -1.808  18.248  1.00  0.00     0.000 C 
BRANCH   4   5
ATOM      5  C   UNL     1      16.353  -1.288  19.488  1.00  0.00     0.000 C 
BRANCH   5   6
ATOM      6  C   UNL     1      16.542   0.228  19.705  1.00  0.00     0.000 C 
BRANCH   6   7
ATOM      7  C   UNL     1      15.266   0.916  20.223  1.00  0.00     0.000 C 
BRANCH   7   8
ATOM      8  C   UNL     1      13.966   0.423  19.552  1.00  0.00     0.000 C 
BRANCH   8   9
ATOM      9  C   UNL     1      13.635   1.080  18.194  1.00  0.00     0.000 C 
BRANCH   9  10
ATOM     10  C   UNL     1      13.737   2.618  18.165  1.00  0.00     0.000 C 
BRANCH  10  11
ATOM     11  C   UNL     1      14.482   3.194  16.944  1.00  0.00     0.000 C 
BRANCH  11  12
ATOM     12  C   UNL     1      14.516   2.236  15.734  1.00  0.00     0.000 C 
BRANCH  12  13
ATOM     13  C   UNL     1      15.473   2.707  14.624  1.00  0.00     0.006 C 
BRANCH  13  14
ATOM     14  C   UNL     1      14.871   2.518  13.224  1.00  0.00     0.053 C 
BRANCH  14  15
ATOM     15  C   UNL     1      15.807   1.798  12.302  1.00  0.00     0.041 C 
ATOM     16  O   UNL     1      15.785   2.032  11.066  1.00  0.00    -0.550 OA
ATOM     17  O   UNL     1      16.711   0.873  12.812  1.00  0.00    -0.550 OA
ENDBRANCH  14  15
ENDBRANCH  13  14
ENDBRANCH  12  13
ENDBRANCH  11  12
ENDBRANCH  10  11
ENDBRANCH   9  10
ENDBRANCH   8   9
ENDBRANCH   7   8
ENDBRANCH   6   7
ENDBRANCH   5   6
ENDBRANCH   4   5
ENDBRANCH   3   4
ENDBRANCH   2   3
ENDBRANCH   1   2
BRANCH   1  18
ATOM     18  C   UNL     1      19.016   0.045  15.645  1.00  0.00     0.000 C 
BRANCH  18  19
ATOM     19  C   UNL     1      19.040  -1.188  14.726  1.00  0.00     0.000 C 
BRANCH  19  20
ATOM     20  C   UNL     1      20.026  -2.269  15.200  1.00  0.00     0.000 C 
BRANCH  20  21
ATOM     21  C   UNL     1      21.277  -1.731  15.922  1.00  0.00     0.000 C 
BRANCH  21  22
ATOM     22  C   UNL     1      22.471  -2.701  15.959  1.00  0.00     0.000 C 
BRANCH  22  23
ATOM     23  C   UNL     1      23.628  -2.191  16.836  1.00  0.00     0.000 C 
BRANCH  23  24
ATOM     24  C   UNL     1      24.031  -0.748  16.489  1.00  0.00    -0.000 C 
BRANCH  24  25
ATOM     25  C   UNL     1      25.165  -0.696  15.449  1.00  0.00    -0.000 C 
BRANCH  25  26
ATOM     26  C   UNL     1      26.206  -1.818  15.646  1.00  0.00    -0.000 C 
BRANCH  26  27
ATOM     27  C   UNL     1      27.274  -1.497  16.705  1.00  0.00    -0.000 C 
BRANCH  27  28
ATOM     28  C   UNL     1      27.190  -2.412  17.939  1.00  0.00    -0.000 C 
BRANCH  28  29
ATOM     29  C   UNL     1      27.482  -3.882  17.599  1.00  0.00    -0.000 C 
BRANCH  29  30
ATOM     30  C   UNL     1      28.981  -4.157  17.405  1.00  0.00    -0.000 C 
BRANCH  30  31
ATOM     31  C   UNL     1      29.699  -4.223  18.758  1.00  0.00    -0.003 C 
ATOM     32  C   UNL     1      30.652  -3.043  18.932  1.00  0.00     0.004 C 
ENDBRANCH  30  31
ENDBRANCH  29  30
ENDBRANCH  28  29
ENDBRANCH  27  28
ENDBRANCH  26  27
ENDBRANCH  25  26
ENDBRANCH  24  25
ENDBRANCH  23  24
ENDBRANCH  22  23
ENDBRANCH  21  22
ENDBRANCH  20  21
ENDBRANCH  19  20
ENDBRANCH  18  19
ENDBRANCH   1  18
TORSDOF 28
ENDMDL
MODEL 8
REMARK VINA RESULT:    -6.304      6.700     12.065
REMARK INTER + INTRA:         -18.591
REMARK INTER:                 -15.078
REMARK INTRA:                  -3.513
REMARK UNBOUND:                -1.968
REMARK SMILES CCCCCCCCCCCCCCCCCCCCCCCCCCCCCC(=O)[O-]
REMARK SMILES IDX 16 1 17 2 18 3 19 4 20 5 21 6 22 7 23 8 24 9 25 10 26 11
REMARK SMILES IDX 27 12 28 13 29 14 30 15 31 16 32 17 15 18 14 19 13 20 12 21
REMARK SMILES IDX 11 22 10 23 9 24 8 25 7 26 6 27 5 28 4 29 3 30 2 31 1 32
REMARK H PARENT
REMARK Flexibility Score: inf
ROOT
ATOM      1  C   UNL     1      18.304  -0.180  13.439  1.00  0.00     0.000 C 
ENDROOT
BRANCH   1   2
ATOM      2  C   UNL     1      17.358  -0.160  12.220  1.00  0.00     0.000 C 
BRANCH   2   3
ATOM      3  C   UNL     1      17.711   0.905  11.160  1.00  0.00     0.000 C 
BRANCH   3   4
ATOM      4  C   UNL     1      16.965   2.247  11.294  1.00  0.00     0.000 C 
BRANCH   4   5
ATOM      5  C   UNL     1      15.533   2.114  11.847  1.00  0.00     0.000 C 
BRANCH   5   6
ATOM      6  C   UNL     1      15.383   2.714  13.260  1.00  0.00     0.000 C 
BRANCH   6   7
ATOM      7  C   UNL     1      14.547   1.823  14.197  1.00  0.00     0.000 C 
BRANCH   7   8
ATOM      8  C   UNL     1      13.884   2.584  15.366  1.00  0.00     0.000 C 
BRANCH   8   9
ATOM      9  C   UNL     1      14.863   3.220  16.377  1.00  0.00     0.000 C 
BRANCH   9  10
ATOM     10  C   UNL     1      14.208   3.827  17.633  1.00  0.00     0.000 C 
BRANCH  10  11
ATOM     11  C   UNL     1      13.418   2.825  18.500  1.00  0.00     0.000 C 
BRANCH  11  12
ATOM     12  C   UNL     1      14.318   1.904  19.352  1.00  0.00     0.000 C 
BRANCH  12  13
ATOM     13  C   UNL     1      14.172   0.416  18.985  1.00  0.00     0.006 C 
BRANCH  13  14
ATOM     14  C   UNL     1      15.311  -0.069  18.076  1.00  0.00     0.053 C 
BRANCH  14  15
ATOM     15  C   UNL     1      16.455  -0.632  18.862  1.00  0.00     0.041 C 
ATOM     16  O   UNL     1      16.632  -1.876  18.921  1.00  0.00    -0.550 OA
ATOM     17  O   UNL     1      17.333   0.220  19.522  1.00  0.00    -0.550 OA
ENDBRANCH  14  15
ENDBRANCH  13  14
ENDBRANCH  12  13
ENDBRANCH  11  12
ENDBRANCH  10  11
ENDBRANCH   9  10
ENDBRANCH   8   9
ENDBRANCH   7   8
ENDBRANCH   6   7
ENDBRANCH   5   6
ENDBRANCH   4   5
ENDBRANCH   3   4
ENDBRANCH   2   3
ENDBRANCH   1   2
BRANCH   1  18
ATOM     18  C   UNL     1      17.545  -0.216  14.776  1.00  0.00     0.000 C 
BRANCH  18  19
ATOM     19  C   UNL     1      18.484  -0.592  15.935  1.00  0.00     0.000 C 
BRANCH  19  20
ATOM     20  C   UNL     1      18.951  -2.056  15.877  1.00  0.00     0.000 C 
BRANCH  20  21
ATOM     21  C   UNL     1      20.443  -2.246  15.544  1.00  0.00     0.000 C 
BRANCH  21  22
ATOM     22  C   UNL     1      21.339  -1.039  15.875  1.00  0.00     0.000 C 
BRANCH  22  23
ATOM     23  C   UNL     1      22.816  -1.427  16.069  1.00  0.00     0.000 C 
BRANCH  23  24
ATOM     24  C   UNL     1      23.009  -2.948  16.186  1.00  0.00    -0.000 C 
BRANCH  24  25
ATOM     25  C   UNL     1      24.259  -3.313  17.007  1.00  0.00    -0.000 C 
BRANCH  25  26
ATOM     26  C   UNL     1      24.867  -2.098  17.740  1.00  0.00    -0.000 C 
BRANCH  26  27
ATOM     27  C   UNL     1      26.317  -1.788  17.333  1.00  0.00    -0.000 C 
BRANCH  27  28
ATOM     28  C   UNL     1      26.553  -1.903  15.818  1.00  0.00    -0.000 C 
BRANCH  28  29
ATOM     29  C   UNL     1      27.121  -0.608  15.213  1.00  0.00    -0.000 C 
BRANCH  29  30
ATOM     30  C   UNL     1      26.604   0.651  15.924  1.00  0.00    -0.000 C 
BRANCH  30  31
ATOM     31  C   UNL     1      25.289   1.126  15.297  1.00  0.00    -0.003 C 
ATOM     32  C   UNL     1      24.452   1.912  16.304  1.00  0.00     0.004 C 
ENDBRANCH  30  31
ENDBRANCH  29  30
ENDBRANCH  28  29
ENDBRANCH  27  28
ENDBRANCH  26  27
ENDBRANCH  25  26
ENDBRANCH  24  25
ENDBRANCH  23  24
ENDBRANCH  22  23
ENDBRANCH  21  22
ENDBRANCH  20  21
ENDBRANCH  19  20
ENDBRANCH  18  19
ENDBRANCH   1  18
TORSDOF 28
ENDMDL
MODEL 9
REMARK VINA RESULT:    -6.257      6.847     12.155
REMARK INTER + INTRA:         -18.468
REMARK INTER:                 -15.538
REMARK INTRA:                  -2.930
REMARK UNBOUND:                -1.968
REMARK SMILES CCCCCCCCCCCCCCCCCCCCCCCCCCCCCC(=O)[O-]
REMARK SMILES IDX 16 1 17 2 18 3 19 4 20 5 21 6 22 7 23 8 24 9 25 10 26 11
REMARK SMILES IDX 27 12 28 13 29 14 30 15 31 16 32 17 15 18 14 19 13 20 12 21
REMARK SMILES IDX 11 22 10 23 9 24 8 25 7 26 6 27 5 28 4 29 3 30 2 31 1 32
REMARK H PARENT
REMARK Flexibility Score: inf
ROOT
ATOM      1  C   UNL     1      17.358  -0.060  12.912  1.00  0.00     0.000 C 
ENDROOT
BRANCH   1   2
ATOM      2  C   UNL     1      17.767   0.755  11.667  1.00  0.00     0.000 C 
BRANCH   2   3
ATOM      3  C   UNL     1      16.880   1.989  11.397  1.00  0.00     0.000 C 
BRANCH   3   4
ATOM      4  C   UNL     1      15.522   2.003  12.128  1.00  0.00     0.000 C 
BRANCH   4   5
ATOM      5  C   UNL     1      15.422   3.062  13.242  1.00  0.00     0.000 C 
BRANCH   5   6
ATOM      6  C   UNL     1      14.597   2.577  14.451  1.00  0.00     0.000 C 
BRANCH   6   7
ATOM      7  C   UNL     1      15.420   1.708  15.420  1.00  0.00     0.000 C 
BRANCH   7   8
ATOM      8  C   UNL     1      15.775   2.409  16.749  1.00  0.00     0.000 C 
BRANCH   8   9
ATOM      9  C   UNL     1      14.740   3.441  17.247  1.00  0.00     0.000 C 
BRANCH   9  10
ATOM     10  C   UNL     1      13.676   2.891  18.217  1.00  0.00     0.000 C 
BRANCH  10  11
ATOM     11  C   UNL     1      13.934   1.453  18.711  1.00  0.00     0.000 C 
BRANCH  11  12
ATOM     12  C   UNL     1      14.453   1.384  20.164  1.00  0.00     0.000 C 
BRANCH  12  13
ATOM     13  C   UNL     1      15.653   0.433  20.327  1.00  0.00     0.006 C 
BRANCH  13  14
ATOM     14  C   UNL     1      15.720  -0.610  19.202  1.00  0.00     0.053 C 
BRANCH  14  15
ATOM     15  C   UNL     1      17.103  -0.744  18.642  1.00  0.00     0.041 C 
ATOM     16  O   UNL     1      17.469  -1.822  18.107  1.00  0.00    -0.550 OA
ATOM     17  O   UNL     1      17.985   0.328  18.702  1.00  0.00    -0.550 OA
ENDBRANCH  14  15
ENDBRANCH  13  14
ENDBRANCH  12  13
ENDBRANCH  11  12
ENDBRANCH  10  11
ENDBRANCH   9  10
ENDBRANCH   8   9
ENDBRANCH   7   8
ENDBRANCH   6   7
ENDBRANCH   5   6
ENDBRANCH   4   5
ENDBRANCH   3   4
ENDBRANCH   2   3
ENDBRANCH   1   2
BRANCH   1  18
ATOM     18  C   UNL     1      18.566  -0.668  13.645  1.00  0.00     0.000 C 
BRANCH  18  19
ATOM     19  C   UNL     1      18.627  -0.189  15.105  1.00  0.00     0.000 C 
BRANCH  19  20
ATOM     20  C   UNL     1      19.917  -0.620  15.823  1.00  0.00     0.000 C 
BRANCH  20  21
ATOM     21  C   UNL     1      20.401  -2.043  15.483  1.00  0.00     0.000 C 
BRANCH  21  22
ATOM     22  C   UNL     1      21.852  -2.350  15.895  1.00  0.00     0.000 C 
BRANCH  22  23
ATOM     23  C   UNL     1      22.655  -1.084  16.240  1.00  0.00     0.000 C 
BRANCH  23  24
ATOM     24  C   UNL     1      24.173  -1.309  16.135  1.00  0.00    -0.000 C 
BRANCH  24  25
ATOM     25  C   UNL     1      24.975  -0.068  16.568  1.00  0.00    -0.000 C 
BRANCH  25  26
ATOM     26  C   UNL     1      25.011   1.028  15.482  1.00  0.00    -0.000 C 
BRANCH  26  27
ATOM     27  C   UNL     1      24.635   2.427  15.999  1.00  0.00    -0.000 C 
BRANCH  27  28
ATOM     28  C   UNL     1      24.843   2.584  17.514  1.00  0.00    -0.000 C 
BRANCH  28  29
ATOM     29  C   UNL     1      24.755   4.050  17.970  1.00  0.00    -0.000 C 
BRANCH  29  30
ATOM     30  C   UNL     1      25.835   4.413  18.999  1.00  0.00    -0.000 C 
BRANCH  30  31
ATOM     31  C   UNL     1      26.860   5.378  18.392  1.00  0.00    -0.003 C 
ATOM     32  C   UNL     1      26.451   5.797  16.982  1.00  0.00     0.004 C 
ENDBRANCH  30  31
ENDBRANCH  29  30
ENDBRANCH  28  29
ENDBRANCH  27  28
ENDBRANCH  26  27
ENDBRANCH  25  26
ENDBRANCH  24  25
ENDBRANCH  23  24
ENDBRANCH  22  23
ENDBRANCH  21  22
ENDBRANCH  20  21
ENDBRANCH  19  20
ENDBRANCH  18  19
ENDBRANCH   1  18
TORSDOF 28
ENDMDL
