MODEL 1
REMARK VINA RESULT:    -5.023      0.000      0.000
REMARK INTER + INTRA:          -7.193
REMARK INTER:                  -6.784
REMARK INTRA:                  -0.408
REMARK UNBOUND:                -0.408
REMARK SMILES C=C[C@](C)(CCC=C(C)C)OC(C)=O
REMARK SMILES IDX 3 1 4 2 5 3 6 4 7 5 9 6 8 7 10 8 2 9 1 10 11 11 12 12 14 13
REMARK SMILES IDX 13 14
REMARK H PARENT
REMARK Flexibility Score: inf
ROOT
ATOM      1  C   UNL     1      68.896  51.344  19.107  1.00  0.00     0.127 C 
ATOM      2  C   UNL     1      68.331  52.523  19.935  1.00  0.00     0.061 C 
ENDROOT
BRANCH   1   3
ATOM      3  C   UNL     1      69.791  51.867  17.951  1.00  0.00     0.057 C 
BRANCH   3   4
ATOM      4  C   UNL     1      70.275  53.323  18.082  1.00  0.00     0.032 C 
BRANCH   4   5
ATOM      5  C   UNL     1      70.589  53.902  16.725  1.00  0.00    -0.028 C 
ATOM      6  C   UNL     1      71.991  54.826  14.931  1.00  0.00     0.039 C 
ATOM      7  C   UNL     1      71.819  54.303  16.333  1.00  0.00    -0.080 C 
ATOM      8  C   UNL     1      73.009  54.258  17.263  1.00  0.00     0.039 C 
ENDBRANCH   4   5
ENDBRANCH   3   4
ENDBRANCH   1   3
BRANCH   1   9
ATOM      9  C   UNL     1      67.802  50.429  18.563  1.00  0.00     0.013 C 
ATOM     10  C   UNL     1      66.841  49.876  19.315  1.00  0.00     0.008 C 
ENDBRANCH   1   9
BRANCH   1  11
ATOM     11  O   UNL     1      69.760  50.573  19.957  1.00  0.00    -0.455 OA
BRANCH  11  12
ATOM     12  C   UNL     1      70.006  50.823  21.316  1.00  0.00     0.303 C 
ATOM     13  O   UNL     1      70.792  51.739  21.680  1.00  0.00    -0.253 OA
ATOM     14  C   UNL     1      69.277  50.030  22.346  1.00  0.00     0.139 C 
ENDBRANCH  11  12
ENDBRANCH   1  11
TORSDOF 6
ENDMDL
MODEL 2
REMARK VINA RESULT:    -4.704      2.359      5.318
REMARK INTER + INTRA:          -6.762
REMARK INTER:                  -6.185
REMARK INTRA:                  -0.577
REMARK UNBOUND:                -0.408
REMARK SMILES C=C[C@](C)(CCC=C(C)C)OC(C)=O
REMARK SMILES IDX 3 1 4 2 5 3 6 4 7 5 9 6 8 7 10 8 2 9 1 10 11 11 12 12 14 13
REMARK SMILES IDX 13 14
REMARK H PARENT
REMARK Flexibility Score: inf
ROOT
ATOM      1  C   UNL     1      69.006  51.393  19.433  1.00  0.00     0.127 C 
ATOM      2  C   UNL     1      69.972  52.150  18.490  1.00  0.00     0.061 C 
ENDROOT
BRANCH   1   3
ATOM      3  C   UNL     1      69.799  50.548  20.464  1.00  0.00     0.057 C 
BRANCH   3   4
ATOM      4  C   UNL     1      69.170  50.432  21.866  1.00  0.00     0.032 C 
BRANCH   4   5
ATOM      5  C   UNL     1      70.130  49.773  22.825  1.00  0.00    -0.028 C 
ATOM      6  C   UNL     1      71.761  49.644  24.659  1.00  0.00     0.039 C 
ATOM      7  C   UNL     1      70.872  50.439  23.738  1.00  0.00    -0.080 C 
ATOM      8  C   UNL     1      70.847  51.946  23.844  1.00  0.00     0.039 C 
ENDBRANCH   4   5
ENDBRANCH   3   4
ENDBRANCH   1   3
BRANCH   1   9
ATOM      9  C   UNL     1      68.010  50.518  18.677  1.00  0.00     0.013 C 
ATOM     10  C   UNL     1      66.796  50.188  19.137  1.00  0.00     0.008 C 
ENDBRANCH   1   9
BRANCH   1  11
ATOM     11  O   UNL     1      68.275  52.365  20.198  1.00  0.00    -0.455 OA
BRANCH  11  12
ATOM     12  C   UNL     1      68.505  53.750  20.197  1.00  0.00     0.303 C 
ATOM     13  O   UNL     1      67.888  54.515  19.408  1.00  0.00    -0.253 OA
ATOM     14  C   UNL     1      69.452  54.330  21.191  1.00  0.00     0.139 C 
ENDBRANCH  11  12
ENDBRANCH   1  11
TORSDOF 6
ENDMDL
MODEL 3
REMARK VINA RESULT:    -4.661      1.958      3.005
REMARK INTER + INTRA:          -6.704
REMARK INTER:                  -6.007
REMARK INTRA:                  -0.696
REMARK UNBOUND:                -0.408
REMARK SMILES C=C[C@](C)(CCC=C(C)C)OC(C)=O
REMARK SMILES IDX 3 1 4 2 5 3 6 4 7 5 9 6 8 7 10 8 2 9 1 10 11 11 12 12 14 13
REMARK SMILES IDX 13 14
REMARK H PARENT
REMARK Flexibility Score: inf
ROOT
ATOM      1  C   UNL     1      68.178  51.865  19.138  1.00  0.00     0.127 C 
ATOM      2  C   UNL     1      66.877  51.054  18.924  1.00  0.00     0.061 C 
ENDROOT
BRANCH   1   3
ATOM      3  C   UNL     1      69.222  51.523  18.041  1.00  0.00     0.057 C 
BRANCH   3   4
ATOM      4  C   UNL     1      69.824  52.725  17.288  1.00  0.00     0.032 C 
BRANCH   4   5
ATOM      5  C   UNL     1      71.197  53.051  17.820  1.00  0.00    -0.028 C 
ATOM      6  C   UNL     1      73.424  54.090  17.845  1.00  0.00     0.039 C 
ATOM      7  C   UNL     1      72.104  53.817  17.173  1.00  0.00    -0.080 C 
ATOM      8  C   UNL     1      71.835  54.384  15.799  1.00  0.00     0.039 C 
ENDBRANCH   4   5
ENDBRANCH   3   4
ENDBRANCH   1   3
BRANCH   1   9
ATOM      9  C   UNL     1      68.777  51.661  20.527  1.00  0.00     0.013 C 
ATOM     10  C   UNL     1      69.642  50.688  20.838  1.00  0.00     0.008 C 
ENDBRANCH   1   9
BRANCH   1  11
ATOM     11  O   UNL     1      67.871  53.258  18.969  1.00  0.00    -0.455 OA
BRANCH  11  12
ATOM     12  C   UNL     1      67.788  54.208  19.999  1.00  0.00     0.303 C 
ATOM     13  O   UNL     1      66.770  54.285  20.738  1.00  0.00    -0.253 OA
ATOM     14  C   UNL     1      68.953  55.101  20.261  1.00  0.00     0.139 C 
ENDBRANCH  11  12
ENDBRANCH   1  11
TORSDOF 6
ENDMDL
MODEL 4
REMARK VINA RESULT:    -4.561      1.747      5.519
REMARK INTER + INTRA:          -6.569
REMARK INTER:                  -5.988
REMARK INTRA:                  -0.580
REMARK UNBOUND:                -0.408
REMARK SMILES C=C[C@](C)(CCC=C(C)C)OC(C)=O
REMARK SMILES IDX 3 1 4 2 5 3 6 4 7 5 9 6 8 7 10 8 2 9 1 10 11 11 12 12 14 13
REMARK SMILES IDX 13 14
REMARK H PARENT
REMARK Flexibility Score: inf
ROOT
ATOM      1  C   UNL     1      69.006  51.458  19.377  1.00  0.00     0.127 C 
ATOM      2  C   UNL     1      67.722  50.762  18.863  1.00  0.00     0.061 C 
ENDROOT
BRANCH   1   3
ATOM      3  C   UNL     1      69.750  50.550  20.393  1.00  0.00     0.057 C 
BRANCH   3   4
ATOM      4  C   UNL     1      69.073  50.381  21.766  1.00  0.00     0.032 C 
BRANCH   4   5
ATOM      5  C   UNL     1      70.026  49.756  22.754  1.00  0.00    -0.028 C 
ATOM      6  C   UNL     1      71.671  49.694  24.578  1.00  0.00     0.039 C 
ATOM      7  C   UNL     1      70.793  50.455  23.620  1.00  0.00    -0.080 C 
ATOM      8  C   UNL     1      70.805  51.966  23.638  1.00  0.00     0.039 C 
ENDBRANCH   4   5
ENDBRANCH   3   4
ENDBRANCH   1   3
BRANCH   1   9
ATOM      9  C   UNL     1      68.728  52.828  19.989  1.00  0.00     0.013 C 
ATOM     10  C   UNL     1      67.527  53.421  19.993  1.00  0.00     0.008 C 
ENDBRANCH   1   9
BRANCH   1  11
ATOM     11  O   UNL     1      69.901  51.623  18.266  1.00  0.00    -0.455 OA
BRANCH  11  12
ATOM     12  C   UNL     1      70.664  52.769  17.994  1.00  0.00     0.303 C 
ATOM     13  O   UNL     1      71.695  53.044  18.665  1.00  0.00    -0.253 OA
ATOM     14  C   UNL     1      70.281  53.643  16.849  1.00  0.00     0.139 C 
ENDBRANCH  11  12
ENDBRANCH   1  11
TORSDOF 6
ENDMDL
MODEL 5
REMARK VINA RESULT:    -4.462      2.464      5.686
REMARK INTER + INTRA:          -6.436
REMARK INTER:                  -5.952
REMARK INTRA:                  -0.483
REMARK UNBOUND:                -0.408
REMARK SMILES C=C[C@](C)(CCC=C(C)C)OC(C)=O
REMARK SMILES IDX 3 1 4 2 5 3 6 4 7 5 9 6 8 7 10 8 2 9 1 10 11 11 12 12 14 13
REMARK SMILES IDX 13 14
REMARK H PARENT
REMARK Flexibility Score: inf
ROOT
ATOM      1  C   UNL     1      71.409  54.260  16.916  1.00  0.00     0.127 C 
ATOM      2  C   UNL     1      71.827  54.469  15.440  1.00  0.00     0.061 C 
ENDROOT
BRANCH   1   3
ATOM      3  C   UNL     1      70.170  53.330  17.007  1.00  0.00     0.057 C 
BRANCH   3   4
ATOM      4  C   UNL     1      70.242  52.217  18.069  1.00  0.00     0.032 C 
BRANCH   4   5
ATOM      5  C   UNL     1      68.930  51.475  18.150  1.00  0.00    -0.028 C 
ATOM      6  C   UNL     1      67.161  50.117  19.181  1.00  0.00     0.039 C 
ATOM      7  C   UNL     1      68.515  50.777  19.230  1.00  0.00    -0.080 C 
ATOM      8  C   UNL     1      69.373  50.627  20.464  1.00  0.00     0.039 C 
ENDBRANCH   4   5
ENDBRANCH   3   4
ENDBRANCH   1   3
BRANCH   1   9
ATOM      9  C   UNL     1      71.145  55.575  17.644  1.00  0.00     0.013 C 
ATOM     10  C   UNL     1      71.168  56.779  17.058  1.00  0.00     0.008 C 
ENDBRANCH   1   9
BRANCH   1  11
ATOM     11  O   UNL     1      72.473  53.568  17.588  1.00  0.00    -0.455 OA
BRANCH  11  12
ATOM     12  C   UNL     1      73.590  54.169  18.189  1.00  0.00     0.303 C 
ATOM     13  O   UNL     1      74.481  54.732  17.498  1.00  0.00    -0.253 OA
ATOM     14  C   UNL     1      73.691  54.194  19.676  1.00  0.00     0.139 C 
ENDBRANCH  11  12
ENDBRANCH   1  11
TORSDOF 6
ENDMDL
MODEL 6
REMARK VINA RESULT:    -4.415      2.720      5.769
REMARK INTER + INTRA:          -6.372
REMARK INTER:                  -5.665
REMARK INTRA:                  -0.707
REMARK UNBOUND:                -0.408
REMARK SMILES C=C[C@](C)(CCC=C(C)C)OC(C)=O
REMARK SMILES IDX 3 1 4 2 5 3 6 4 7 5 9 6 8 7 10 8 2 9 1 10 11 11 12 12 14 13
REMARK SMILES IDX 13 14
REMARK H PARENT
REMARK Flexibility Score: inf
ROOT
ATOM      1  C   UNL     1      69.749  51.617  20.795  1.00  0.00     0.127 C 
ATOM      2  C   UNL     1      70.509  51.720  19.450  1.00  0.00     0.061 C 
ENDROOT
BRANCH   1   3
ATOM      3  C   UNL     1      70.319  52.630  21.824  1.00  0.00     0.057 C 
BRANCH   3   4
ATOM      4  C   UNL     1      71.696  52.282  22.420  1.00  0.00     0.032 C 
BRANCH   4   5
ATOM      5  C   UNL     1      71.747  52.642  23.883  1.00  0.00    -0.028 C 
ATOM      6  C   UNL     1      71.993  52.259  26.298  1.00  0.00     0.039 C 
ATOM      7  C   UNL     1      71.924  51.749  24.882  1.00  0.00    -0.080 C 
ATOM      8  C   UNL     1      72.035  50.265  24.618  1.00  0.00     0.039 C 
ENDBRANCH   4   5
ENDBRANCH   3   4
ENDBRANCH   1   3
BRANCH   1   9
ATOM      9  C   UNL     1      69.765  50.204  21.372  1.00  0.00     0.013 C 
ATOM     10  C   UNL     1      69.066  49.824  22.450  1.00  0.00     0.008 C 
ENDBRANCH   1   9
BRANCH   1  11
ATOM     11  O   UNL     1      68.385  52.007  20.570  1.00  0.00    -0.455 OA
BRANCH  11  12
ATOM     12  C   UNL     1      67.663  51.810  19.383  1.00  0.00     0.303 C 
ATOM     13  O   UNL     1      67.505  52.744  18.551  1.00  0.00    -0.253 OA
ATOM     14  C   UNL     1      67.126  50.455  19.074  1.00  0.00     0.139 C 
ENDBRANCH  11  12
ENDBRANCH   1  11
TORSDOF 6
ENDMDL
MODEL 7
REMARK VINA RESULT:    -4.274      1.892      5.291
REMARK INTER + INTRA:          -6.182
REMARK INTER:                  -5.781
REMARK INTRA:                  -0.401
REMARK UNBOUND:                -0.408
REMARK SMILES C=C[C@](C)(CCC=C(C)C)OC(C)=O
REMARK SMILES IDX 3 1 4 2 5 3 6 4 7 5 9 6 8 7 10 8 2 9 1 10 11 11 12 12 14 13
REMARK SMILES IDX 13 14
REMARK H PARENT
REMARK Flexibility Score: inf
ROOT
ATOM      1  C   UNL     1      69.471  52.904  18.288  1.00  0.00     0.127 C 
ATOM      2  C   UNL     1      68.699  53.749  19.331  1.00  0.00     0.061 C 
ENDROOT
BRANCH   1   3
ATOM      3  C   UNL     1      70.447  51.924  18.993  1.00  0.00     0.057 C 
BRANCH   3   4
ATOM      4  C   UNL     1      70.507  52.023  20.529  1.00  0.00     0.032 C 
BRANCH   4   5
ATOM      5  C   UNL     1      69.717  50.906  21.165  1.00  0.00    -0.028 C 
ATOM      6  C   UNL     1      68.881  49.479  22.982  1.00  0.00     0.039 C 
ATOM      7  C   UNL     1      69.755  50.598  22.480  1.00  0.00    -0.080 C 
ATOM      8  C   UNL     1      70.657  51.330  23.447  1.00  0.00     0.039 C 
ENDBRANCH   4   5
ENDBRANCH   3   4
ENDBRANCH   1   3
BRANCH   1   9
ATOM      9  C   UNL     1      70.218  53.762  17.271  1.00  0.00     0.013 C 
ATOM     10  C   UNL     1      71.493  53.567  16.913  1.00  0.00     0.008 C 
ENDBRANCH   1   9
BRANCH   1  11
ATOM     11  O   UNL     1      68.524  52.082  17.588  1.00  0.00    -0.455 OA
BRANCH  11  12
ATOM     12  C   UNL     1      67.366  51.513  18.143  1.00  0.00     0.303 C 
ATOM     13  O   UNL     1      66.262  52.120  18.117  1.00  0.00    -0.253 OA
ATOM     14  C   UNL     1      67.435  50.139  18.717  1.00  0.00     0.139 C 
ENDBRANCH  11  12
ENDBRANCH   1  11
TORSDOF 6
ENDMDL
MODEL 8
REMARK VINA RESULT:    -4.241      2.379      5.510
REMARK INTER + INTRA:          -6.137
REMARK INTER:                  -5.449
REMARK INTRA:                  -0.688
REMARK UNBOUND:                -0.408
REMARK SMILES C=C[C@](C)(CCC=C(C)C)OC(C)=O
REMARK SMILES IDX 3 1 4 2 5 3 6 4 7 5 9 6 8 7 10 8 2 9 1 10 11 11 12 12 14 13
REMARK SMILES IDX 13 14
REMARK H PARENT
REMARK Flexibility Score: inf
ROOT
ATOM      1  C   UNL     1      70.516  54.518  18.519  1.00  0.00     0.127 C 
ATOM      2  C   UNL     1      70.207  55.950  18.019  1.00  0.00     0.061 C 
ENDROOT
BRANCH   1   3
ATOM      3  C   UNL     1      69.662  53.474  17.751  1.00  0.00     0.057 C 
BRANCH   3   4
ATOM      4  C   UNL     1      69.948  51.997  18.080  1.00  0.00     0.032 C 
BRANCH   4   5
ATOM      5  C   UNL     1      68.659  51.227  18.229  1.00  0.00    -0.028 C 
ATOM      6  C   UNL     1      66.934  49.910  19.380  1.00  0.00     0.039 C 
ATOM      7  C   UNL     1      68.267  50.610  19.366  1.00  0.00    -0.080 C 
ATOM      8  C   UNL     1      69.133  50.589  20.604  1.00  0.00     0.039 C 
ENDBRANCH   4   5
ENDBRANCH   3   4
ENDBRANCH   1   3
BRANCH   1   9
ATOM      9  C   UNL     1      70.318  54.366  20.025  1.00  0.00     0.013 C 
ATOM     10  C   UNL     1      69.128  54.415  20.637  1.00  0.00     0.008 C 
ENDBRANCH   1   9
BRANCH   1  11
ATOM     11  O   UNL     1      71.884  54.218  18.203  1.00  0.00    -0.455 OA
BRANCH  11  12
ATOM     12  C   UNL     1      72.573  54.648  17.057  1.00  0.00     0.303 C 
ATOM     13  O   UNL     1      72.221  54.278  15.905  1.00  0.00    -0.253 OA
ATOM     14  C   UNL     1      73.703  55.609  17.206  1.00  0.00     0.139 C 
ENDBRANCH  11  12
ENDBRANCH   1  11
TORSDOF 6
ENDMDL
MODEL 9
REMARK VINA RESULT:    -4.220      2.231      3.883
REMARK INTER + INTRA:          -6.109
REMARK INTER:                  -5.293
REMARK INTRA:                  -0.817
REMARK UNBOUND:                -0.408
REMARK SMILES C=C[C@](C)(CCC=C(C)C)OC(C)=O
REMARK SMILES IDX 3 1 4 2 5 3 6 4 7 5 9 6 8 7 10 8 2 9 1 10 11 11 12 12 14 13
REMARK SMILES IDX 13 14
REMARK H PARENT
REMARK Flexibility Score: inf
ROOT
ATOM      1  C   UNL     1      69.037  51.223  19.777  1.00  0.00     0.127 C 
ATOM      2  C   UNL     1      69.587  50.435  20.992  1.00  0.00     0.061 C 
ENDROOT
BRANCH   1   3
ATOM      3  C   UNL     1      68.738  52.694  20.170  1.00  0.00     0.057 C 
BRANCH   3   4
ATOM      4  C   UNL     1      69.448  53.210  21.436  1.00  0.00     0.032 C 
BRANCH   4   5
ATOM      5  C   UNL     1      70.574  54.145  21.069  1.00  0.00    -0.028 C 
ATOM      6  C   UNL     1      72.899  54.920  20.883  1.00  0.00     0.039 C 
ATOM      7  C   UNL     1      71.877  53.914  21.345  1.00  0.00    -0.080 C 
ATOM      8  C   UNL     1      72.327  52.694  22.115  1.00  0.00     0.039 C 
ENDBRANCH   4   5
ENDBRANCH   3   4
ENDBRANCH   1   3
BRANCH   1   9
ATOM      9  C   UNL     1      67.801  50.571  19.164  1.00  0.00     0.013 C 
ATOM     10  C   UNL     1      66.664  51.223  18.889  1.00  0.00     0.008 C 
ENDBRANCH   1   9
BRANCH   1  11
ATOM     11  O   UNL     1      70.068  51.282  18.779  1.00  0.00    -0.455 OA
BRANCH  11  12
ATOM     12  C   UNL     1      70.242  52.313  17.842  1.00  0.00     0.303 C 
ATOM     13  O   UNL     1      69.297  52.686  17.097  1.00  0.00    -0.253 OA
ATOM     14  C   UNL     1      71.553  53.020  17.773  1.00  0.00     0.139 C 
ENDBRANCH  11  12
ENDBRANCH   1  11
TORSDOF 6
ENDMDL
