MODEL 1
REMARK VINA RESULT:    -4.567      0.000      0.000
REMARK INTER + INTRA:          -7.138
REMARK INTER:                  -6.169
REMARK INTRA:                  -0.970
REMARK UNBOUND:                -0.970
REMARK SMILES CC(=O)OCC=C(C)CCC=C(C)C
REMARK SMILES IDX 7 1 6 2 8 3 9 4 10 5 11 6 13 7 12 8 14 9 5 10 4 11 2 12 3 13
REMARK SMILES IDX 1 14
REMARK H PARENT
REMARK Flexibility Score: inf
ROOT
ATOM      1  C   UNL     1      69.143  53.463  19.910  1.00  0.00    -0.074 C 
ATOM      2  C   UNL     1      69.506  53.084  21.156  1.00  0.00     0.013 C 
ATOM      3  C   UNL     1      67.994  54.426  19.762  1.00  0.00     0.039 C 
ENDROOT
BRANCH   1   4
ATOM      4  C   UNL     1      69.856  52.970  18.663  1.00  0.00     0.034 C 
BRANCH   4   5
ATOM      5  C   UNL     1      68.942  52.121  17.769  1.00  0.00     0.032 C 
BRANCH   5   6
ATOM      6  C   UNL     1      68.459  50.885  18.491  1.00  0.00    -0.028 C 
ATOM      7  C   UNL     1      66.069  51.634  18.552  1.00  0.00     0.039 C 
ATOM      8  C   UNL     1      67.181  50.665  18.872  1.00  0.00    -0.080 C 
ATOM      9  C   UNL     1      66.871  49.408  19.644  1.00  0.00     0.039 C 
ENDBRANCH   5   6
ENDBRANCH   4   5
ENDBRANCH   1   4
BRANCH   2  10
ATOM     10  C   UNL     1      70.618  52.109  21.452  1.00  0.00     0.260 C 
BRANCH  10  11
ATOM     11  O   UNL     1      70.555  51.676  22.809  1.00  0.00    -0.462 OA
BRANCH  11  12
ATOM     12  C   UNL     1      70.271  50.358  23.182  1.00  0.00     0.302 C 
ATOM     13  O   UNL     1      71.062  49.714  23.924  1.00  0.00    -0.253 OA
ATOM     14  C   UNL     1      69.044  49.694  22.658  1.00  0.00     0.139 C 
ENDBRANCH  11  12
ENDBRANCH  10  11
ENDBRANCH   2  10
TORSDOF 6
ENDMDL
MODEL 2
REMARK VINA RESULT:    -4.500      3.307      5.894
REMARK INTER + INTRA:          -7.048
REMARK INTER:                  -6.662
REMARK INTRA:                  -0.386
REMARK UNBOUND:                -0.970
REMARK SMILES CC(=O)OCC=C(C)CCC=C(C)C
REMARK SMILES IDX 7 1 6 2 8 3 9 4 10 5 11 6 13 7 12 8 14 9 5 10 4 11 2 12 3 13
REMARK SMILES IDX 1 14
REMARK H PARENT
REMARK Flexibility Score: inf
ROOT
ATOM      1  C   UNL     1      68.871  51.117  18.822  1.00  0.00    -0.074 C 
ATOM      2  C   UNL     1      69.196  51.988  17.842  1.00  0.00     0.013 C 
ATOM      3  C   UNL     1      67.543  50.409  18.738  1.00  0.00     0.039 C 
ENDROOT
BRANCH   1   4
ATOM      4  C   UNL     1      69.794  50.812  19.989  1.00  0.00     0.034 C 
BRANCH   4   5
ATOM      5  C   UNL     1      69.035  50.711  21.319  1.00  0.00     0.032 C 
BRANCH   5   6
ATOM      6  C   UNL     1      69.849  49.987  22.366  1.00  0.00    -0.028 C 
ATOM      7  C   UNL     1      70.649  52.095  23.460  1.00  0.00     0.039 C 
ATOM      8  C   UNL     1      70.599  50.593  23.314  1.00  0.00    -0.080 C 
ATOM      9  C   UNL     1      71.409  49.729  24.246  1.00  0.00     0.039 C 
ENDBRANCH   5   6
ENDBRANCH   4   5
ENDBRANCH   1   4
BRANCH   2  10
ATOM     10  C   UNL     1      70.477  52.785  17.812  1.00  0.00     0.260 C 
BRANCH  10  11
ATOM     11  O   UNL     1      70.538  53.588  16.635  1.00  0.00    -0.462 OA
BRANCH  11  12
ATOM     12  C   UNL     1      71.712  54.201  16.185  1.00  0.00     0.302 C 
ATOM     13  O   UNL     1      71.818  54.591  14.990  1.00  0.00    -0.253 OA
ATOM     14  C   UNL     1      72.866  54.353  17.116  1.00  0.00     0.139 C 
ENDBRANCH  11  12
ENDBRANCH  10  11
ENDBRANCH   2  10
TORSDOF 6
ENDMDL
MODEL 3
REMARK VINA RESULT:    -4.457      1.766      3.773
REMARK INTER + INTRA:          -6.990
REMARK INTER:                  -6.599
REMARK INTRA:                  -0.391
REMARK UNBOUND:                -0.970
REMARK SMILES CC(=O)OCC=C(C)CCC=C(C)C
REMARK SMILES IDX 7 1 6 2 8 3 9 4 10 5 11 6 13 7 12 8 14 9 5 10 4 11 2 12 3 13
REMARK SMILES IDX 1 14
REMARK H PARENT
REMARK Flexibility Score: inf
ROOT
ATOM      1  C   UNL     1      68.312  50.672  19.475  1.00  0.00    -0.074 C 
ATOM      2  C   UNL     1      68.630  50.515  20.779  1.00  0.00     0.013 C 
ATOM      3  C   UNL     1      66.923  50.299  19.026  1.00  0.00     0.039 C 
ENDROOT
BRANCH   1   4
ATOM      4  C   UNL     1      69.292  51.223  18.453  1.00  0.00     0.034 C 
BRANCH   4   5
ATOM      5  C   UNL     1      69.134  52.737  18.256  1.00  0.00     0.032 C 
BRANCH   5   6
ATOM      6  C   UNL     1      69.934  53.225  17.071  1.00  0.00    -0.028 C 
ATOM      7  C   UNL     1      71.959  53.782  18.438  1.00  0.00     0.039 C 
ATOM      8  C   UNL     1      71.190  53.721  17.140  1.00  0.00    -0.080 C 
ATOM      9  C   UNL     1      71.829  54.229  15.874  1.00  0.00     0.039 C 
ENDBRANCH   5   6
ENDBRANCH   4   5
ENDBRANCH   1   4
BRANCH   2  10
ATOM     10  C   UNL     1      69.987  50.821  21.361  1.00  0.00     0.260 C 
BRANCH  10  11
ATOM     11  O   UNL     1      70.164  50.142  22.601  1.00  0.00    -0.462 OA
BRANCH  11  12
ATOM     12  C   UNL     1      70.866  50.687  23.682  1.00  0.00     0.302 C 
ATOM     13  O   UNL     1      70.828  51.926  23.916  1.00  0.00    -0.253 OA
ATOM     14  C   UNL     1      71.704  49.799  24.537  1.00  0.00     0.139 C 
ENDBRANCH  11  12
ENDBRANCH  10  11
ENDBRANCH   2  10
TORSDOF 6
ENDMDL
MODEL 4
REMARK VINA RESULT:    -4.449      2.674      5.911
REMARK INTER + INTRA:          -6.979
REMARK INTER:                  -6.183
REMARK INTRA:                  -0.797
REMARK UNBOUND:                -0.970
REMARK SMILES CC(=O)OCC=C(C)CCC=C(C)C
REMARK SMILES IDX 7 1 6 2 8 3 9 4 10 5 11 6 13 7 12 8 14 9 5 10 4 11 2 12 3 13
REMARK SMILES IDX 1 14
REMARK H PARENT
REMARK Flexibility Score: inf
ROOT
ATOM      1  C   UNL     1      69.716  50.821  21.628  1.00  0.00    -0.074 C 
ATOM      2  C   UNL     1      69.584  50.547  20.311  1.00  0.00     0.013 C 
ATOM      3  C   UNL     1      69.304  49.767  22.623  1.00  0.00     0.039 C 
ENDROOT
BRANCH   1   4
ATOM      4  C   UNL     1      70.277  52.137  22.140  1.00  0.00     0.034 C 
BRANCH   4   5
ATOM      5  C   UNL     1      71.711  51.991  22.667  1.00  0.00     0.032 C 
BRANCH   5   6
ATOM      6  C   UNL     1      71.816  52.430  24.108  1.00  0.00    -0.028 C 
ATOM      7  C   UNL     1      72.066  50.097  24.989  1.00  0.00     0.039 C 
ATOM      8  C   UNL     1      71.948  51.592  25.161  1.00  0.00    -0.080 C 
ATOM      9  C   UNL     1      71.973  52.183  26.547  1.00  0.00     0.039 C 
ENDBRANCH   5   6
ENDBRANCH   4   5
ENDBRANCH   1   4
BRANCH   2  10
ATOM     10  C   UNL     1      69.930  51.515  19.208  1.00  0.00     0.260 C 
BRANCH  10  11
ATOM     11  O   UNL     1      68.779  51.811  18.422  1.00  0.00    -0.462 OA
BRANCH  11  12
ATOM     12  C   UNL     1      67.566  52.246  18.969  1.00  0.00     0.302 C 
ATOM     13  O   UNL     1      67.509  53.309  19.645  1.00  0.00    -0.253 OA
ATOM     14  C   UNL     1      66.339  51.419  18.787  1.00  0.00     0.139 C 
ENDBRANCH  11  12
ENDBRANCH  10  11
ENDBRANCH   2  10
TORSDOF 6
ENDMDL
MODEL 5
REMARK VINA RESULT:    -4.332      2.219      3.676
REMARK INTER + INTRA:          -6.822
REMARK INTER:                  -6.250
REMARK INTRA:                  -0.572
REMARK UNBOUND:                -0.970
REMARK SMILES CC(=O)OCC=C(C)CCC=C(C)C
REMARK SMILES IDX 7 1 6 2 8 3 9 4 10 5 11 6 13 7 12 8 14 9 5 10 4 11 2 12 3 13
REMARK SMILES IDX 1 14
REMARK H PARENT
REMARK Flexibility Score: inf
ROOT
ATOM      1  C   UNL     1      69.889  50.419  22.719  1.00  0.00    -0.074 C 
ATOM      2  C   UNL     1      70.772  50.428  23.741  1.00  0.00     0.013 C 
ATOM      3  C   UNL     1      68.773  49.406  22.746  1.00  0.00     0.039 C 
ENDROOT
BRANCH   1   4
ATOM      4  C   UNL     1      69.966  51.397  21.559  1.00  0.00     0.034 C 
BRANCH   4   5
ATOM      5  C   UNL     1      69.686  50.720  20.210  1.00  0.00     0.032 C 
BRANCH   5   6
ATOM      6  C   UNL     1      68.701  51.516  19.387  1.00  0.00    -0.028 C 
ATOM      7  C   UNL     1      66.931  49.744  19.460  1.00  0.00     0.039 C 
ATOM      8  C   UNL     1      67.474  51.082  19.020  1.00  0.00    -0.080 C 
ATOM      9  C   UNL     1      66.633  51.972  18.141  1.00  0.00     0.039 C 
ENDBRANCH   5   6
ENDBRANCH   4   5
ENDBRANCH   1   4
BRANCH   2  10
ATOM     10  C   UNL     1      71.950  51.366  23.831  1.00  0.00     0.260 C 
BRANCH  10  11
ATOM     11  O   UNL     1      72.114  51.835  25.167  1.00  0.00    -0.462 OA
BRANCH  11  12
ATOM     12  C   UNL     1      71.411  52.927  25.690  1.00  0.00     0.302 C 
ATOM     13  O   UNL     1      70.573  53.551  24.985  1.00  0.00    -0.253 OA
ATOM     14  C   UNL     1      71.693  53.384  27.081  1.00  0.00     0.139 C 
ENDBRANCH  11  12
ENDBRANCH  10  11
ENDBRANCH   2  10
TORSDOF 6
ENDMDL
MODEL 6
REMARK VINA RESULT:    -4.308      1.908      4.117
REMARK INTER + INTRA:          -6.789
REMARK INTER:                  -5.817
REMARK INTRA:                  -0.972
REMARK UNBOUND:                -0.970
REMARK SMILES CC(=O)OCC=C(C)CCC=C(C)C
REMARK SMILES IDX 7 1 6 2 8 3 9 4 10 5 11 6 13 7 12 8 14 9 5 10 4 11 2 12 3 13
REMARK SMILES IDX 1 14
REMARK H PARENT
REMARK Flexibility Score: inf
ROOT
ATOM      1  C   UNL     1      68.182  50.796  19.358  1.00  0.00    -0.074 C 
ATOM      2  C   UNL     1      68.465  50.497  20.645  1.00  0.00     0.013 C 
ATOM      3  C   UNL     1      66.747  50.718  18.904  1.00  0.00     0.039 C 
ENDROOT
BRANCH   1   4
ATOM      4  C   UNL     1      69.247  51.223  18.362  1.00  0.00     0.034 C 
BRANCH   4   5
ATOM      5  C   UNL     1      69.072  52.681  17.915  1.00  0.00     0.032 C 
BRANCH   5   6
ATOM      6  C   UNL     1      70.188  53.112  16.993  1.00  0.00    -0.028 C 
ATOM      7  C   UNL     1      70.430  55.372  18.048  1.00  0.00     0.039 C 
ATOM      8  C   UNL     1      70.788  54.324  17.023  1.00  0.00    -0.080 C 
ATOM      9  C   UNL     1      71.844  54.625  15.990  1.00  0.00     0.039 C 
ENDBRANCH   5   6
ENDBRANCH   4   5
ENDBRANCH   1   4
BRANCH   2  10
ATOM     10  C   UNL     1      69.856  50.508  21.229  1.00  0.00     0.260 C 
BRANCH  10  11
ATOM     11  O   UNL     1      70.067  51.691  21.996  1.00  0.00    -0.462 OA
BRANCH  11  12
ATOM     12  C   UNL     1      70.348  52.937  21.425  1.00  0.00     0.302 C 
ATOM     13  O   UNL     1      69.462  53.833  21.366  1.00  0.00    -0.253 OA
ATOM     14  C   UNL     1      71.694  53.190  20.838  1.00  0.00     0.139 C 
ENDBRANCH  11  12
ENDBRANCH  10  11
ENDBRANCH   2  10
TORSDOF 6
ENDMDL
MODEL 7
REMARK VINA RESULT:    -4.277      2.157      4.905
REMARK INTER + INTRA:          -6.747
REMARK INTER:                  -5.918
REMARK INTRA:                  -0.829
REMARK UNBOUND:                -0.970
REMARK SMILES CC(=O)OCC=C(C)CCC=C(C)C
REMARK SMILES IDX 7 1 6 2 8 3 9 4 10 5 11 6 13 7 12 8 14 9 5 10 4 11 2 12 3 13
REMARK SMILES IDX 1 14
REMARK H PARENT
REMARK Flexibility Score: inf
ROOT
ATOM      1  C   UNL     1      68.436  50.900  18.946  1.00  0.00    -0.074 C 
ATOM      2  C   UNL     1      68.571  51.779  17.929  1.00  0.00     0.013 C 
ATOM      3  C   UNL     1      67.124  50.175  19.097  1.00  0.00     0.039 C 
ENDROOT
BRANCH   1   4
ATOM      4  C   UNL     1      69.557  50.603  19.928  1.00  0.00     0.034 C 
BRANCH   4   5
ATOM      5  C   UNL     1      69.224  51.076  21.350  1.00  0.00     0.032 C 
BRANCH   5   6
ATOM      6  C   UNL     1      69.970  50.271  22.387  1.00  0.00    -0.028 C 
ATOM      7  C   UNL     1      70.827  52.289  23.599  1.00  0.00     0.039 C 
ATOM      8  C   UNL     1      70.714  50.799  23.385  1.00  0.00    -0.080 C 
ATOM      9  C   UNL     1      71.452  49.859  24.302  1.00  0.00     0.039 C 
ENDBRANCH   5   6
ENDBRANCH   4   5
ENDBRANCH   1   4
BRANCH   2  10
ATOM     10  C   UNL     1      69.816  52.591  17.674  1.00  0.00     0.260 C 
BRANCH  10  11
ATOM     11  O   UNL     1      69.689  53.892  18.245  1.00  0.00    -0.462 OA
BRANCH  11  12
ATOM     12  C   UNL     1      70.050  54.190  19.564  1.00  0.00     0.302 C 
ATOM     13  O   UNL     1      71.221  53.973  19.977  1.00  0.00    -0.253 OA
ATOM     14  C   UNL     1      69.024  54.726  20.503  1.00  0.00     0.139 C 
ENDBRANCH  11  12
ENDBRANCH  10  11
ENDBRANCH   2  10
TORSDOF 6
ENDMDL
MODEL 8
REMARK VINA RESULT:    -4.190      1.322      3.197
REMARK INTER + INTRA:          -6.630
REMARK INTER:                  -5.799
REMARK INTRA:                  -0.831
REMARK UNBOUND:                -0.970
REMARK SMILES CC(=O)OCC=C(C)CCC=C(C)C
REMARK SMILES IDX 7 1 6 2 8 3 9 4 10 5 11 6 13 7 12 8 14 9 5 10 4 11 2 12 3 13
REMARK SMILES IDX 1 14
REMARK H PARENT
REMARK Flexibility Score: inf
ROOT
ATOM      1  C   UNL     1      68.444  50.617  19.560  1.00  0.00    -0.074 C 
ATOM      2  C   UNL     1      68.696  50.516  20.884  1.00  0.00     0.013 C 
ATOM      3  C   UNL     1      67.069  50.250  19.063  1.00  0.00     0.039 C 
ENDROOT
BRANCH   1   4
ATOM      4  C   UNL     1      69.481  51.101  18.561  1.00  0.00     0.034 C 
BRANCH   4   5
ATOM      5  C   UNL     1      69.146  52.491  18.003  1.00  0.00     0.032 C 
BRANCH   5   6
ATOM      6  C   UNL     1      69.757  53.585  18.846  1.00  0.00    -0.028 C 
ATOM      7  C   UNL     1      67.638  54.052  20.100  1.00  0.00     0.039 C 
ATOM      8  C   UNL     1      69.088  54.312  19.770  1.00  0.00    -0.080 C 
ATOM      9  C   UNL     1      69.826  55.415  20.483  1.00  0.00     0.039 C 
ENDBRANCH   5   6
ENDBRANCH   4   5
ENDBRANCH   1   4
BRANCH   2  10
ATOM     10  C   UNL     1      70.031  50.825  21.514  1.00  0.00     0.260 C 
BRANCH  10  11
ATOM     11  O   UNL     1      70.069  50.354  22.860  1.00  0.00    -0.462 OA
BRANCH  11  12
ATOM     12  C   UNL     1      71.042  50.750  23.784  1.00  0.00     0.302 C 
ATOM     13  O   UNL     1      71.361  51.964  23.904  1.00  0.00    -0.253 OA
ATOM     14  C   UNL     1      71.741  49.718  24.603  1.00  0.00     0.139 C 
ENDBRANCH  11  12
ENDBRANCH  10  11
ENDBRANCH   2  10
TORSDOF 6
ENDMDL
MODEL 9
REMARK VINA RESULT:    -4.118      3.009      5.545
REMARK INTER + INTRA:          -6.532
REMARK INTER:                  -5.506
REMARK INTRA:                  -1.026
REMARK UNBOUND:                -0.970
REMARK SMILES CC(=O)OCC=C(C)CCC=C(C)C
REMARK SMILES IDX 7 1 6 2 8 3 9 4 10 5 11 6 13 7 12 8 14 9 5 10 4 11 2 12 3 13
REMARK SMILES IDX 1 14
REMARK H PARENT
REMARK Flexibility Score: inf
ROOT
ATOM      1  C   UNL     1      68.700  51.105  18.711  1.00  0.00    -0.074 C 
ATOM      2  C   UNL     1      69.014  51.890  17.656  1.00  0.00     0.013 C 
ATOM      3  C   UNL     1      67.341  50.454  18.738  1.00  0.00     0.039 C 
ENDROOT
BRANCH   1   4
ATOM      4  C   UNL     1      69.664  50.842  19.854  1.00  0.00     0.034 C 
BRANCH   4   5
ATOM      5  C   UNL     1      69.276  51.605  21.128  1.00  0.00     0.032 C 
BRANCH   5   6
ATOM      6  C   UNL     1      69.891  52.985  21.152  1.00  0.00    -0.028 C 
ATOM      7  C   UNL     1      67.774  54.137  20.466  1.00  0.00     0.039 C 
ATOM      8  C   UNL     1      69.239  54.125  20.832  1.00  0.00    -0.080 C 
ATOM      9  C   UNL     1      70.011  55.419  20.841  1.00  0.00     0.039 C 
ENDBRANCH   5   6
ENDBRANCH   4   5
ENDBRANCH   1   4
BRANCH   2  10
ATOM     10  C   UNL     1      70.324  52.623  17.510  1.00  0.00     0.260 C 
BRANCH  10  11
ATOM     11  O   UNL     1      70.111  54.032  17.511  1.00  0.00    -0.462 OA
BRANCH  11  12
ATOM     12  C   UNL     1      70.891  54.928  16.771  1.00  0.00     0.302 C 
ATOM     13  O   UNL     1      70.744  56.173  16.903  1.00  0.00    -0.253 OA
ATOM     14  C   UNL     1      71.874  54.401  15.781  1.00  0.00     0.139 C 
ENDBRANCH  11  12
ENDBRANCH  10  11
ENDBRANCH   2  10
TORSDOF 6
ENDMDL
