MODEL 1
REMARK VINA RESULT:    -7.539      0.000      0.000
REMARK INTER + INTRA:          -9.922
REMARK INTER:                  -9.302
REMARK INTRA:                  -0.620
REMARK UNBOUND:                -0.620
REMARK SMILES CC(C)=CCC[C@@H](C)c1ccc(C)cc1
REMARK SMILES IDX 6 1 7 2 8 3 9 4 13 5 12 6 11 7 14 8 10 9 15 10 5 11 4 12
REMARK SMILES IDX 2 13 1 14 3 15
REMARK H PARENT
REMARK Flexibility Score: inf
ROOT
ATOM      1  C   UNL     1      26.594 -39.109   1.864  1.00  0.00     0.012 C 
ENDROOT
BRANCH   1   2
ATOM      2  C   UNL     1      25.230 -39.758   1.519  1.00  0.00     0.016 C 
ATOM      3  C   UNL     1      24.075 -38.825   1.904  1.00  0.00     0.013 C 
BRANCH   2   4
ATOM      4  C   UNL     1      25.123 -40.140   0.052  1.00  0.00    -0.045 A 
ATOM      5  C   UNL     1      24.737 -41.227  -4.109  1.00  0.00     0.044 C 
ATOM      6  C   UNL     1      24.855 -40.861  -2.660  1.00  0.00    -0.051 A 
ATOM      7  C   UNL     1      25.648 -41.633  -1.799  1.00  0.00     0.004 A 
ATOM      8  C   UNL     1      24.227 -39.707  -2.169  1.00  0.00     0.004 A 
ATOM      9  C   UNL     1      25.779 -41.278  -0.454  1.00  0.00     0.004 A 
ATOM     10  C   UNL     1      24.358 -39.350  -0.824  1.00  0.00     0.004 A 
ENDBRANCH   2   4
ENDBRANCH   1   2
BRANCH   1  11
ATOM     11  C   UNL     1      27.550 -40.040   2.635  1.00  0.00     0.028 C 
BRANCH  11  12
ATOM     12  C   UNL     1      28.506 -40.792   1.741  1.00  0.00    -0.028 C 
ATOM     13  C   UNL     1      29.628 -41.420   2.157  1.00  0.00    -0.080 C 
ATOM     14  C   UNL     1      30.022 -41.483   3.614  1.00  0.00     0.039 C 
ATOM     15  C   UNL     1      30.489 -42.103   1.127  1.00  0.00     0.039 C 
ENDBRANCH  11  12
ENDBRANCH   1  11
TORSDOF 4
ENDMDL
MODEL 2
REMARK VINA RESULT:    -7.442      0.128      1.257
REMARK INTER + INTRA:          -9.802
REMARK INTER:                  -9.173
REMARK INTRA:                  -0.629
REMARK UNBOUND:                -0.620
REMARK SMILES CC(C)=CCC[C@@H](C)c1ccc(C)cc1
REMARK SMILES IDX 6 1 7 2 8 3 9 4 13 5 12 6 11 7 14 8 10 9 15 10 5 11 4 12
REMARK SMILES IDX 2 13 1 14 3 15
REMARK H PARENT
REMARK Flexibility Score: inf
ROOT
ATOM      1  C   UNL     1      26.602 -39.118   1.883  1.00  0.00     0.012 C 
ENDROOT
BRANCH   1   2
ATOM      2  C   UNL     1      25.270 -39.829   1.534  1.00  0.00     0.016 C 
ATOM      3  C   UNL     1      24.072 -38.974   1.965  1.00  0.00     0.013 C 
BRANCH   2   4
ATOM      4  C   UNL     1      25.162 -40.167   0.057  1.00  0.00    -0.045 A 
ATOM      5  C   UNL     1      24.939 -41.127  -4.148  1.00  0.00     0.044 C 
ATOM      6  C   UNL     1      25.032 -40.782  -2.691  1.00  0.00    -0.051 A 
ATOM      7  C   UNL     1      24.339 -39.676  -2.182  1.00  0.00     0.004 A 
ATOM      8  C   UNL     1      25.761 -41.601  -1.817  1.00  0.00     0.004 A 
ATOM      9  C   UNL     1      24.405 -39.368  -0.821  1.00  0.00     0.004 A 
ATOM     10  C   UNL     1      25.827 -41.296  -0.454  1.00  0.00     0.004 A 
ENDBRANCH   2   4
ENDBRANCH   1   2
BRANCH   1  11
ATOM     11  C   UNL     1      27.615 -40.018   2.615  1.00  0.00     0.028 C 
BRANCH  11  12
ATOM     12  C   UNL     1      28.556 -40.744   1.683  1.00  0.00    -0.028 C 
ATOM     13  C   UNL     1      29.627 -41.470   2.072  1.00  0.00    -0.080 C 
ATOM     14  C   UNL     1      29.970 -41.684   3.528  1.00  0.00     0.039 C 
ATOM     15  C   UNL     1      30.481 -42.110   1.008  1.00  0.00     0.039 C 
ENDBRANCH  11  12
ENDBRANCH   1  11
TORSDOF 4
ENDMDL
MODEL 3
REMARK VINA RESULT:    -7.145      0.979      5.928
REMARK INTER + INTRA:          -9.436
REMARK INTER:                  -8.948
REMARK INTRA:                  -0.488
REMARK UNBOUND:                -0.620
REMARK SMILES CC(C)=CCC[C@@H](C)c1ccc(C)cc1
REMARK SMILES IDX 6 1 7 2 8 3 9 4 13 5 12 6 11 7 14 8 10 9 15 10 5 11 4 12
REMARK SMILES IDX 2 13 1 14 3 15
REMARK H PARENT
REMARK Flexibility Score: inf
ROOT
ATOM      1  C   UNL     1      25.255 -40.492  -0.308  1.00  0.00     0.012 C 
ENDROOT
BRANCH   1   2
ATOM      2  C   UNL     1      25.765 -39.584   0.839  1.00  0.00     0.016 C 
ATOM      3  C   UNL     1      24.676 -39.392   1.902  1.00  0.00     0.013 C 
BRANCH   2   4
ATOM      4  C   UNL     1      27.032 -40.118   1.484  1.00  0.00    -0.045 A 
ATOM      5  C   UNL     1      30.607 -41.716   3.306  1.00  0.00     0.044 C 
ATOM      6  C   UNL     1      29.355 -41.176   2.681  1.00  0.00    -0.051 A 
ATOM      7  C   UNL     1      28.555 -40.261   3.379  1.00  0.00     0.004 A 
ATOM      8  C   UNL     1      29.010 -41.533   1.369  1.00  0.00     0.004 A 
ATOM      9  C   UNL     1      27.402 -39.738   2.788  1.00  0.00     0.004 A 
ATOM     10  C   UNL     1      27.857 -41.009   0.776  1.00  0.00     0.004 A 
ENDBRANCH   2   4
ENDBRANCH   1   2
BRANCH   1  11
ATOM     11  C   UNL     1      24.447 -39.743  -1.385  1.00  0.00     0.028 C 
BRANCH  11  12
ATOM     12  C   UNL     1      24.994 -39.923  -2.780  1.00  0.00    -0.028 C 
ATOM     13  C   UNL     1      24.761 -40.992  -3.573  1.00  0.00    -0.080 C 
ATOM     14  C   UNL     1      23.853 -42.125  -3.153  1.00  0.00     0.039 C 
ATOM     15  C   UNL     1      25.408 -41.028  -4.933  1.00  0.00     0.039 C 
ENDBRANCH  11  12
ENDBRANCH   1  11
TORSDOF 4
ENDMDL
MODEL 4
REMARK VINA RESULT:    -7.025      1.850      4.848
REMARK INTER + INTRA:          -9.288
REMARK INTER:                  -8.638
REMARK INTRA:                  -0.650
REMARK UNBOUND:                -0.620
REMARK SMILES CC(C)=CCC[C@@H](C)c1ccc(C)cc1
REMARK SMILES IDX 6 1 7 2 8 3 9 4 13 5 12 6 11 7 14 8 10 9 15 10 5 11 4 12
REMARK SMILES IDX 2 13 1 14 3 15
REMARK H PARENT
REMARK Flexibility Score: inf
ROOT
ATOM      1  C   UNL     1      24.848 -40.191   1.635  1.00  0.00     0.012 C 
ENDROOT
BRANCH   1   2
ATOM      2  C   UNL     1      25.926 -40.030   0.534  1.00  0.00     0.016 C 
ATOM      3  C   UNL     1      27.182 -40.838   0.884  1.00  0.00     0.013 C 
BRANCH   2   4
ATOM      4  C   UNL     1      25.417 -40.433  -0.840  1.00  0.00    -0.045 A 
ATOM      5  C   UNL     1      24.046 -41.600  -4.766  1.00  0.00     0.044 C 
ATOM      6  C   UNL     1      24.539 -41.189  -3.410  1.00  0.00    -0.051 A 
ATOM      7  C   UNL     1      24.324 -39.884  -2.946  1.00  0.00     0.004 A 
ATOM      8  C   UNL     1      25.163 -42.125  -2.572  1.00  0.00     0.004 A 
ATOM      9  C   UNL     1      24.760 -39.507  -1.674  1.00  0.00     0.004 A 
ATOM     10  C   UNL     1      25.599 -41.749  -1.298  1.00  0.00     0.004 A 
ENDBRANCH   2   4
ENDBRANCH   1   2
BRANCH   1  11
ATOM     11  C   UNL     1      24.386 -38.856   2.253  1.00  0.00     0.028 C 
BRANCH  11  12
ATOM     12  C   UNL     1      23.464 -38.068   1.354  1.00  0.00    -0.028 C 
ATOM     13  C   UNL     1      22.514 -37.206   1.781  1.00  0.00    -0.080 C 
ATOM     14  C   UNL     1      22.311 -36.891   3.245  1.00  0.00     0.039 C 
ATOM     15  C   UNL     1      21.658 -36.518   0.749  1.00  0.00     0.039 C 
ENDBRANCH  11  12
ENDBRANCH   1  11
TORSDOF 4
ENDMDL
MODEL 5
REMARK VINA RESULT:    -6.866      1.809      5.479
REMARK INTER + INTRA:          -9.092
REMARK INTER:                  -8.506
REMARK INTRA:                  -0.586
REMARK UNBOUND:                -0.620
REMARK SMILES CC(C)=CCC[C@@H](C)c1ccc(C)cc1
REMARK SMILES IDX 6 1 7 2 8 3 9 4 13 5 12 6 11 7 14 8 10 9 15 10 5 11 4 12
REMARK SMILES IDX 2 13 1 14 3 15
REMARK H PARENT
REMARK Flexibility Score: inf
ROOT
ATOM      1  C   UNL     1      26.419 -40.805  -0.558  1.00  0.00     0.012 C 
ENDROOT
BRANCH   1   2
ATOM      2  C   UNL     1      25.922 -40.695   0.905  1.00  0.00     0.016 C 
ATOM      3  C   UNL     1      27.092 -40.400   1.853  1.00  0.00     0.013 C 
BRANCH   2   4
ATOM      4  C   UNL     1      24.840 -39.641   1.073  1.00  0.00    -0.045 A 
ATOM      5  C   UNL     1      21.811 -36.594   1.508  1.00  0.00     0.044 C 
ATOM      6  C   UNL     1      22.877 -37.638   1.358  1.00  0.00    -0.051 A 
ATOM      7  C   UNL     1      23.408 -38.272   2.489  1.00  0.00     0.004 A 
ATOM      8  C   UNL     1      23.304 -38.034   0.082  1.00  0.00     0.004 A 
ATOM      9  C   UNL     1      24.383 -39.264   2.350  1.00  0.00     0.004 A 
ATOM     10  C   UNL     1      24.279 -39.026  -0.059  1.00  0.00     0.004 A 
ENDBRANCH   2   4
ENDBRANCH   1   2
BRANCH   1  11
ATOM     11  C   UNL     1      25.559 -41.732  -1.439  1.00  0.00     0.028 C 
BRANCH  11  12
ATOM     12  C   UNL     1      25.725 -41.477  -2.918  1.00  0.00    -0.028 C 
ATOM     13  C   UNL     1      24.725 -41.150  -3.766  1.00  0.00    -0.080 C 
ATOM     14  C   UNL     1      23.305 -40.943  -3.295  1.00  0.00     0.039 C 
ATOM     15  C   UNL     1      25.058 -40.955  -5.223  1.00  0.00     0.039 C 
ENDBRANCH  11  12
ENDBRANCH   1  11
TORSDOF 4
ENDMDL
MODEL 6
REMARK VINA RESULT:    -6.791      1.743      6.468
REMARK INTER + INTRA:          -8.999
REMARK INTER:                  -8.529
REMARK INTRA:                  -0.470
REMARK UNBOUND:                -0.620
REMARK SMILES CC(C)=CCC[C@@H](C)c1ccc(C)cc1
REMARK SMILES IDX 6 1 7 2 8 3 9 4 13 5 12 6 11 7 14 8 10 9 15 10 5 11 4 12
REMARK SMILES IDX 2 13 1 14 3 15
REMARK H PARENT
REMARK Flexibility Score: inf
ROOT
ATOM      1  C   UNL     1      25.571 -39.127   1.262  1.00  0.00     0.012 C 
ENDROOT
BRANCH   1   2
ATOM      2  C   UNL     1      26.023 -40.599   1.094  1.00  0.00     0.016 C 
ATOM      3  C   UNL     1      26.080 -40.981  -0.391  1.00  0.00     0.013 C 
BRANCH   2   4
ATOM      4  C   UNL     1      27.365 -40.873   1.752  1.00  0.00    -0.045 A 
ATOM      5  C   UNL     1      31.163 -41.732   3.619  1.00  0.00     0.044 C 
ATOM      6  C   UNL     1      29.836 -41.449   2.980  1.00  0.00    -0.051 A 
ATOM      7  C   UNL     1      28.908 -40.617   3.619  1.00  0.00     0.004 A 
ATOM      8  C   UNL     1      29.541 -41.963   1.708  1.00  0.00     0.004 A 
ATOM      9  C   UNL     1      27.681 -40.333   3.014  1.00  0.00     0.004 A 
ATOM     10  C   UNL     1      28.315 -41.678   1.100  1.00  0.00     0.004 A 
ENDBRANCH   2   4
ENDBRANCH   1   2
BRANCH   1  11
ATOM     11  C   UNL     1      24.047 -38.927   1.149  1.00  0.00     0.028 C 
BRANCH  11  12
ATOM     12  C   UNL     1      23.421 -38.367   2.404  1.00  0.00    -0.028 C 
ATOM     13  C   UNL     1      22.548 -37.336   2.442  1.00  0.00    -0.080 C 
ATOM     14  C   UNL     1      22.050 -36.654   1.189  1.00  0.00     0.039 C 
ATOM     15  C   UNL     1      22.037 -36.882   3.785  1.00  0.00     0.039 C 
ENDBRANCH  11  12
ENDBRANCH   1  11
TORSDOF 4
ENDMDL
MODEL 7
REMARK VINA RESULT:    -6.194      1.749      7.116
REMARK INTER + INTRA:          -8.262
REMARK INTER:                  -7.643
REMARK INTRA:                  -0.619
REMARK UNBOUND:                -0.620
REMARK SMILES CC(C)=CCC[C@@H](C)c1ccc(C)cc1
REMARK SMILES IDX 6 1 7 2 8 3 9 4 13 5 12 6 11 7 14 8 10 9 15 10 5 11 4 12
REMARK SMILES IDX 2 13 1 14 3 15
REMARK H PARENT
REMARK Flexibility Score: inf
ROOT
ATOM      1  C   UNL     1      28.033 -40.396   1.098  1.00  0.00     0.012 C 
ENDROOT
BRANCH   1   2
ATOM      2  C   UNL     1      28.811 -41.585   1.717  1.00  0.00     0.016 C 
ATOM      3  C   UNL     1      30.125 -41.824   0.963  1.00  0.00     0.013 C 
BRANCH   2   4
ATOM      4  C   UNL     1      29.091 -41.388   3.198  1.00  0.00    -0.045 A 
ATOM      5  C   UNL     1      29.899 -40.910   7.413  1.00  0.00     0.044 C 
ATOM      6  C   UNL     1      29.610 -41.093   5.953  1.00  0.00    -0.051 A 
ATOM      7  C   UNL     1      28.405 -40.629   5.408  1.00  0.00     0.004 A 
ATOM      8  C   UNL     1      30.570 -41.673   5.110  1.00  0.00     0.004 A 
ATOM      9  C   UNL     1      28.145 -40.777   4.043  1.00  0.00     0.004 A 
ATOM     10  C   UNL     1      30.312 -41.821   3.744  1.00  0.00     0.004 A 
ENDBRANCH   2   4
ENDBRANCH   1   2
BRANCH   1  11
ATOM     11  C   UNL     1      26.594 -40.747   0.676  1.00  0.00     0.028 C 
BRANCH  11  12
ATOM     12  C   UNL     1      25.541 -39.979   1.439  1.00  0.00    -0.028 C 
ATOM     13  C   UNL     1      24.557 -39.242   0.877  1.00  0.00    -0.080 C 
ATOM     14  C   UNL     1      24.370 -39.155  -0.619  1.00  0.00     0.039 C 
ATOM     15  C   UNL     1      23.602 -38.514   1.787  1.00  0.00     0.039 C 
ENDBRANCH  11  12
ENDBRANCH   1  11
TORSDOF 4
ENDMDL
MODEL 8
REMARK VINA RESULT:    -6.158      1.324      3.511
REMARK INTER + INTRA:          -8.218
REMARK INTER:                  -7.542
REMARK INTRA:                  -0.676
REMARK UNBOUND:                -0.620
REMARK SMILES CC(C)=CCC[C@@H](C)c1ccc(C)cc1
REMARK SMILES IDX 6 1 7 2 8 3 9 4 13 5 12 6 11 7 14 8 10 9 15 10 5 11 4 12
REMARK SMILES IDX 2 13 1 14 3 15
REMARK H PARENT
REMARK Flexibility Score: inf
ROOT
ATOM      1  C   UNL     1      27.181 -41.490   0.725  1.00  0.00     0.012 C 
ENDROOT
BRANCH   1   2
ATOM      2  C   UNL     1      26.290 -40.777  -0.323  1.00  0.00     0.016 C 
ATOM      3  C   UNL     1      25.603 -41.802  -1.235  1.00  0.00     0.013 C 
BRANCH   2   4
ATOM      4  C   UNL     1      25.251 -39.873   0.317  1.00  0.00    -0.045 A 
ATOM      5  C   UNL     1      22.328 -37.236   2.096  1.00  0.00     0.044 C 
ATOM      6  C   UNL     1      23.356 -38.137   1.478  1.00  0.00    -0.051 A 
ATOM      7  C   UNL     1      24.200 -38.907   2.291  1.00  0.00     0.004 A 
ATOM      8  C   UNL     1      23.438 -38.264   0.084  1.00  0.00     0.004 A 
ATOM      9  C   UNL     1      25.141 -39.765   1.717  1.00  0.00     0.004 A 
ATOM     10  C   UNL     1      24.378 -39.124  -0.492  1.00  0.00     0.004 A 
ENDBRANCH   2   4
ENDBRANCH   1   2
BRANCH   1  11
ATOM     11  C   UNL     1      28.519 -40.775   0.993  1.00  0.00     0.028 C 
BRANCH  11  12
ATOM     12  C   UNL     1      29.348 -41.437   2.067  1.00  0.00    -0.028 C 
ATOM     13  C   UNL     1      29.308 -41.126   3.382  1.00  0.00    -0.080 C 
ATOM     14  C   UNL     1      28.359 -40.089   3.936  1.00  0.00     0.039 C 
ATOM     15  C   UNL     1      30.225 -41.868   4.320  1.00  0.00     0.039 C 
ENDBRANCH  11  12
ENDBRANCH   1  11
TORSDOF 4
ENDMDL
MODEL 9
REMARK VINA RESULT:    -5.947      1.698      7.034
REMARK INTER + INTRA:          -7.958
REMARK INTER:                  -7.486
REMARK INTRA:                  -0.473
REMARK UNBOUND:                -0.620
REMARK SMILES CC(C)=CCC[C@@H](C)c1ccc(C)cc1
REMARK SMILES IDX 6 1 7 2 8 3 9 4 13 5 12 6 11 7 14 8 10 9 15 10 5 11 4 12
REMARK SMILES IDX 2 13 1 14 3 15
REMARK H PARENT
REMARK Flexibility Score: inf
ROOT
ATOM      1  C   UNL     1      27.227 -39.801   2.054  1.00  0.00     0.012 C 
ENDROOT
BRANCH   1   2
ATOM      2  C   UNL     1      28.153 -41.032   2.212  1.00  0.00     0.016 C 
ATOM      3  C   UNL     1      29.235 -41.039   1.125  1.00  0.00     0.013 C 
BRANCH   2   4
ATOM      4  C   UNL     1      28.798 -41.101   3.587  1.00  0.00    -0.045 A 
ATOM      5  C   UNL     1      30.637 -41.378   7.484  1.00  0.00     0.044 C 
ATOM      6  C   UNL     1      29.990 -41.300   6.134  1.00  0.00    -0.051 A 
ATOM      7  C   UNL     1      28.724 -40.716   5.990  1.00  0.00     0.004 A 
ATOM      8  C   UNL     1      30.674 -41.751   4.995  1.00  0.00     0.004 A 
ATOM      9  C   UNL     1      28.131 -40.619   4.729  1.00  0.00     0.004 A 
ATOM     10  C   UNL     1      30.082 -41.654   3.732  1.00  0.00     0.004 A 
ENDBRANCH   2   4
ENDBRANCH   1   2
BRANCH   1  11
ATOM     11  C   UNL     1      25.862 -40.126   1.417  1.00  0.00     0.028 C 
BRANCH  11  12
ATOM     12  C   UNL     1      25.974 -40.853   0.098  1.00  0.00    -0.028 C 
ATOM     13  C   UNL     1      25.297 -40.531  -1.027  1.00  0.00    -0.080 C 
ATOM     14  C   UNL     1      24.374 -39.337  -1.097  1.00  0.00     0.039 C 
ATOM     15  C   UNL     1      25.505 -41.380  -2.254  1.00  0.00     0.039 C 
ENDBRANCH  11  12
ENDBRANCH   1  11
TORSDOF 4
ENDMDL
