MODEL 1
REMARK VINA RESULT:    -8.086      0.000      0.000
REMARK INTER + INTRA:          -8.795
REMARK INTER:                  -8.795
REMARK INTRA:                   0.000
REMARK UNBOUND:                 0.000
REMARK SMILES Cc1cc(O)c2c(c1)C(=O)c1cc(O)cc(O)c1C2=O
REMARK SMILES IDX 1 1 2 2 8 3 7 4 6 5 4 6 3 7 19 8 20 9 18 10 11 11 9 12 10 13
REMARK SMILES IDX 12 14 13 15 15 16 16 17 5 18 17 20 14 22
REMARK H PARENT 5 19 17 21 14 23
REMARK Flexibility Score: inf
ROOT
ATOM      1  C   UNL     1      61.055 -16.679   1.248  1.00  0.00     0.044 C 
ATOM      2  C   UNL     1      59.673 -17.055   1.696  1.00  0.00    -0.047 A 
ATOM      3  C   UNL     1      59.411 -18.349   2.159  1.00  0.00     0.016 A 
ATOM      4  C   UNL     1      58.111 -18.723   2.540  1.00  0.00     0.038 A 
ATOM      5  C   UNL     1      57.051 -17.796   2.430  1.00  0.00     0.076 A 
ATOM      6  C   UNL     1      57.331 -16.473   2.004  1.00  0.00     0.127 A 
ATOM      7  C   UNL     1      58.629 -16.129   1.612  1.00  0.00     0.050 A 
ATOM      8  C   UNL     1      55.670 -18.274   2.700  1.00  0.00     0.201 C 
ATOM      9  O   UNL     1      54.695 -17.744   2.105  1.00  0.00    -0.288 OA
ATOM     10  C   UNL     1      55.459 -19.494   3.523  1.00  0.00     0.076 A 
ATOM     11  C   UNL     1      56.522 -20.419   3.630  1.00  0.00     0.041 A 
ATOM     12  C   UNL     1      57.849 -20.088   3.059  1.00  0.00     0.194 C 
ATOM     13  O   UNL     1      58.763 -20.958   3.039  1.00  0.00    -0.289 OA
ATOM     14  C   UNL     1      56.318 -21.647   4.282  1.00  0.00     0.059 A 
ATOM     15  C   UNL     1      55.077 -21.956   4.839  1.00  0.00     0.120 A 
ATOM     16  C   UNL     1      54.034 -21.027   4.772  1.00  0.00     0.093 A 
ATOM     17  C   UNL     1      54.218 -19.791   4.146  1.00  0.00     0.131 A 
ENDROOT
BRANCH   6  18
ATOM     18  O   UNL     1      56.365 -15.464   1.985  1.00  0.00    -0.507 OA
ATOM     19  H   UNL     1      55.862 -15.157   2.806  1.00  0.00     0.293 HD
ENDBRANCH   6  18
BRANCH  17  20
ATOM     20  O   UNL     1      53.161 -18.879   4.197  1.00  0.00    -0.507 OA
ATOM     21  H   UNL     1      52.242 -19.108   4.549  1.00  0.00     0.293 HD
ENDBRANCH  17  20
BRANCH  15  22
ATOM     22  O   UNL     1      54.894 -23.185   5.470  1.00  0.00    -0.508 OA
ATOM     23  H   UNL     1      54.219 -23.858   5.130  1.00  0.00     0.293 HD
ENDBRANCH  15  22
TORSDOF 3
ENDMDL
MODEL 2
REMARK VINA RESULT:    -7.743      2.038      5.389
REMARK INTER + INTRA:          -8.422
REMARK INTER:                  -8.422
REMARK INTRA:                   0.000
REMARK UNBOUND:                 0.000
REMARK SMILES Cc1cc(O)c2c(c1)C(=O)c1cc(O)cc(O)c1C2=O
REMARK SMILES IDX 1 1 2 2 8 3 7 4 6 5 4 6 3 7 19 8 20 9 18 10 11 11 9 12 10 13
REMARK SMILES IDX 12 14 13 15 15 16 16 17 5 18 17 20 14 22
REMARK H PARENT 5 19 17 21 14 23
REMARK Flexibility Score: inf
ROOT
ATOM      1  C   UNL     1      53.290 -20.725   4.463  1.00  0.00     0.044 C 
ATOM      2  C   UNL     1      54.515 -20.093   3.868  1.00  0.00    -0.047 A 
ATOM      3  C   UNL     1      55.769 -20.690   4.040  1.00  0.00     0.016 A 
ATOM      4  C   UNL     1      56.926 -20.083   3.524  1.00  0.00     0.038 A 
ATOM      5  C   UNL     1      56.832 -18.845   2.849  1.00  0.00     0.076 A 
ATOM      6  C   UNL     1      55.553 -18.268   2.639  1.00  0.00     0.127 A 
ATOM      7  C   UNL     1      54.417 -18.881   3.178  1.00  0.00     0.050 A 
ATOM      8  C   UNL     1      58.092 -18.166   2.451  1.00  0.00     0.201 C 
ATOM      9  O   UNL     1      58.135 -16.908   2.395  1.00  0.00    -0.288 OA
ATOM     10  C   UNL     1      59.342 -18.955   2.306  1.00  0.00     0.076 A 
ATOM     11  C   UNL     1      59.433 -20.192   2.982  1.00  0.00     0.041 A 
ATOM     12  C   UNL     1      58.247 -20.739   3.684  1.00  0.00     0.194 C 
ATOM     13  O   UNL     1      58.356 -21.776   4.394  1.00  0.00    -0.289 OA
ATOM     14  C   UNL     1      60.646 -20.902   2.983  1.00  0.00     0.059 A 
ATOM     15  C   UNL     1      61.760 -20.402   2.308  1.00  0.00     0.120 A 
ATOM     16  C   UNL     1      61.664 -19.199   1.603  1.00  0.00     0.093 A 
ATOM     17  C   UNL     1      60.462 -18.484   1.571  1.00  0.00     0.131 A 
ENDROOT
BRANCH   6  18
ATOM     18  O   UNL     1      55.361 -17.113   1.878  1.00  0.00    -0.507 OA
ATOM     19  H   UNL     1      55.884 -16.259   2.017  1.00  0.00     0.293 HD
ENDBRANCH   6  18
BRANCH  17  20
ATOM     20  O   UNL     1      60.415 -17.339   0.772  1.00  0.00    -0.507 OA
ATOM     21  H   UNL     1      59.662 -17.137   0.129  1.00  0.00     0.293 HD
ENDBRANCH  17  20
BRANCH  15  22
ATOM     22  O   UNL     1      62.956 -21.117   2.333  1.00  0.00    -0.508 OA
ATOM     23  H   UNL     1      63.121 -21.894   1.704  1.00  0.00     0.293 HD
ENDBRANCH  15  22
TORSDOF 3
ENDMDL
MODEL 3
REMARK VINA RESULT:    -7.693      1.478      3.973
REMARK INTER + INTRA:          -8.367
REMARK INTER:                  -8.367
REMARK INTRA:                   0.000
REMARK UNBOUND:                 0.000
REMARK SMILES Cc1cc(O)c2c(c1)C(=O)c1cc(O)cc(O)c1C2=O
REMARK SMILES IDX 1 1 2 2 8 3 7 4 6 5 4 6 3 7 19 8 20 9 18 10 11 11 9 12 10 13
REMARK SMILES IDX 12 14 13 15 15 16 16 17 5 18 17 20 14 22
REMARK H PARENT 5 19 17 21 14 23
REMARK Flexibility Score: inf
ROOT
ATOM      1  C   UNL     1      61.891 -15.422  -0.691  1.00  0.00     0.044 C 
ATOM      2  C   UNL     1      61.253 -16.502   0.133  1.00  0.00    -0.047 A 
ATOM      3  C   UNL     1      59.928 -16.370   0.562  1.00  0.00     0.016 A 
ATOM      4  C   UNL     1      59.336 -17.355   1.371  1.00  0.00     0.038 A 
ATOM      5  C   UNL     1      60.091 -18.478   1.780  1.00  0.00     0.076 A 
ATOM      6  C   UNL     1      61.419 -18.628   1.304  1.00  0.00     0.127 A 
ATOM      7  C   UNL     1      61.993 -17.625   0.516  1.00  0.00     0.050 A 
ATOM      8  C   UNL     1      59.478 -19.418   2.753  1.00  0.00     0.201 C 
ATOM      9  O   UNL     1      60.210 -20.049   3.561  1.00  0.00    -0.288 OA
ATOM     10  C   UNL     1      58.000 -19.471   2.899  1.00  0.00     0.076 A 
ATOM     11  C   UNL     1      57.249 -18.346   2.489  1.00  0.00     0.041 A 
ATOM     12  C   UNL     1      57.921 -17.222   1.795  1.00  0.00     0.194 C 
ATOM     13  O   UNL     1      57.282 -16.164   1.541  1.00  0.00    -0.289 OA
ATOM     14  C   UNL     1      55.866 -18.300   2.736  1.00  0.00     0.059 A 
ATOM     15  C   UNL     1      55.224 -19.364   3.371  1.00  0.00     0.120 A 
ATOM     16  C   UNL     1      55.955 -20.496   3.742  1.00  0.00     0.093 A 
ATOM     17  C   UNL     1      57.329 -20.574   3.489  1.00  0.00     0.131 A 
ENDROOT
BRANCH   6  18
ATOM     18  O   UNL     1      62.189 -19.765   1.560  1.00  0.00    -0.507 OA
ATOM     19  H   UNL     1      62.999 -20.026   1.015  1.00  0.00     0.293 HD
ENDBRANCH   6  18
BRANCH  17  20
ATOM     20  O   UNL     1      57.975 -21.771   3.804  1.00  0.00    -0.507 OA
ATOM     21  H   UNL     1      58.147 -22.081   4.751  1.00  0.00     0.293 HD
ENDBRANCH  17  20
BRANCH  15  22
ATOM     22  O   UNL     1      53.855 -19.291   3.617  1.00  0.00    -0.508 OA
ATOM     23  H   UNL     1      53.380 -19.988   4.179  1.00  0.00     0.293 HD
ENDBRANCH  15  22
TORSDOF 3
ENDMDL
MODEL 4
REMARK VINA RESULT:    -7.678      3.684      4.691
REMARK INTER + INTRA:          -8.352
REMARK INTER:                  -8.352
REMARK INTRA:                   0.000
REMARK UNBOUND:                 0.000
REMARK SMILES Cc1cc(O)c2c(c1)C(=O)c1cc(O)cc(O)c1C2=O
REMARK SMILES IDX 1 1 2 2 8 3 7 4 6 5 4 6 3 7 19 8 20 9 18 10 11 11 9 12 10 13
REMARK SMILES IDX 12 14 13 15 15 16 16 17 5 18 17 20 14 22
REMARK H PARENT 5 19 17 21 14 23
REMARK Flexibility Score: inf
ROOT
ATOM      1  C   UNL     1      62.149 -15.221  -1.509  1.00  0.00     0.044 C 
ATOM      2  C   UNL     1      61.580 -16.116  -0.447  1.00  0.00    -0.047 A 
ATOM      3  C   UNL     1      61.677 -17.506  -0.572  1.00  0.00     0.016 A 
ATOM      4  C   UNL     1      61.109 -18.352   0.395  1.00  0.00     0.038 A 
ATOM      5  C   UNL     1      60.409 -17.800   1.491  1.00  0.00     0.076 A 
ATOM      6  C   UNL     1      60.353 -16.390   1.636  1.00  0.00     0.127 A 
ATOM      7  C   UNL     1      60.909 -15.567   0.650  1.00  0.00     0.050 A 
ATOM      8  C   UNL     1      59.698 -18.728   2.408  1.00  0.00     0.201 C 
ATOM      9  O   UNL     1      58.653 -18.346   3.000  1.00  0.00    -0.288 OA
ATOM     10  C   UNL     1      60.108 -20.154   2.480  1.00  0.00     0.076 A 
ATOM     11  C   UNL     1      60.808 -20.703   1.382  1.00  0.00     0.041 A 
ATOM     12  C   UNL     1      61.245 -19.824   0.271  1.00  0.00     0.194 C 
ATOM     13  O   UNL     1      61.756 -20.326  -0.768  1.00  0.00    -0.289 OA
ATOM     14  C   UNL     1      61.092 -22.079   1.350  1.00  0.00     0.059 A 
ATOM     15  C   UNL     1      60.701 -22.907   2.402  1.00  0.00     0.120 A 
ATOM     16  C   UNL     1      60.044 -22.363   3.509  1.00  0.00     0.093 A 
ATOM     17  C   UNL     1      59.768 -20.994   3.574  1.00  0.00     0.131 A 
ENDROOT
BRANCH   6  18
ATOM     18  O   UNL     1      59.788 -15.767   2.750  1.00  0.00    -0.507 OA
ATOM     19  H   UNL     1      59.249 -16.257   3.451  1.00  0.00     0.293 HD
ENDBRANCH   6  18
BRANCH  17  20
ATOM     20  O   UNL     1      59.192 -20.507   4.749  1.00  0.00    -0.507 OA
ATOM     21  H   UNL     1      59.434 -20.843   5.671  1.00  0.00     0.293 HD
ENDBRANCH  17  20
BRANCH  15  22
ATOM     22  O   UNL     1      60.982 -24.271   2.343  1.00  0.00    -0.508 OA
ATOM     23  H   UNL     1      61.519 -24.732   3.067  1.00  0.00     0.293 HD
ENDBRANCH  15  22
TORSDOF 3
ENDMDL
MODEL 5
REMARK VINA RESULT:    -7.474      1.553      3.900
REMARK INTER + INTRA:          -8.130
REMARK INTER:                  -8.130
REMARK INTRA:                   0.000
REMARK UNBOUND:                 0.000
REMARK SMILES Cc1cc(O)c2c(c1)C(=O)c1cc(O)cc(O)c1C2=O
REMARK SMILES IDX 1 1 2 2 8 3 7 4 6 5 4 6 3 7 19 8 20 9 18 10 11 11 9 12 10 13
REMARK SMILES IDX 12 14 13 15 15 16 16 17 5 18 17 20 14 22
REMARK H PARENT 5 19 17 21 14 23
REMARK Flexibility Score: inf
ROOT
ATOM      1  C   UNL     1      62.511 -17.261  -0.159  1.00  0.00     0.044 C 
ATOM      2  C   UNL     1      61.547 -18.077   0.653  1.00  0.00    -0.047 A 
ATOM      3  C   UNL     1      60.264 -17.589   0.920  1.00  0.00     0.016 A 
ATOM      4  C   UNL     1      59.370 -18.326   1.715  1.00  0.00     0.038 A 
ATOM      5  C   UNL     1      59.776 -19.558   2.275  1.00  0.00     0.076 A 
ATOM      6  C   UNL     1      61.062 -20.069   1.963  1.00  0.00     0.127 A 
ATOM      7  C   UNL     1      61.942 -19.308   1.185  1.00  0.00     0.050 A 
ATOM      8  C   UNL     1      58.857 -20.232   3.228  1.00  0.00     0.201 C 
ATOM      9  O   UNL     1      59.327 -20.949   4.151  1.00  0.00    -0.288 OA
ATOM     10  C   UNL     1      57.406 -19.910   3.209  1.00  0.00     0.076 A 
ATOM     11  C   UNL     1      57.004 -18.677   2.649  1.00  0.00     0.041 A 
ATOM     12  C   UNL     1      58.000 -17.815   1.968  1.00  0.00     0.194 C 
ATOM     13  O   UNL     1      57.675 -16.660   1.579  1.00  0.00    -0.289 OA
ATOM     14  C   UNL     1      55.661 -18.274   2.735  1.00  0.00     0.059 A 
ATOM     15  C   UNL     1      54.715 -19.089   3.357  1.00  0.00     0.120 A 
ATOM     16  C   UNL     1      55.100 -20.328   3.877  1.00  0.00     0.093 A 
ATOM     17  C   UNL     1      56.427 -20.761   3.786  1.00  0.00     0.131 A 
ENDROOT
BRANCH   6  18
ATOM     18  O   UNL     1      61.494 -21.331   2.373  1.00  0.00    -0.507 OA
ATOM     19  H   UNL     1      61.028 -21.877   3.086  1.00  0.00     0.293 HD
ENDBRANCH   6  18
BRANCH  17  20
ATOM     20  O   UNL     1      56.718 -22.047   4.245  1.00  0.00    -0.507 OA
ATOM     21  H   UNL     1      57.041 -22.794   3.646  1.00  0.00     0.293 HD
ENDBRANCH  17  20
BRANCH  15  22
ATOM     22  O   UNL     1      53.391 -18.663   3.442  1.00  0.00    -0.508 OA
ATOM     23  H   UNL     1      52.718 -19.142   4.029  1.00  0.00     0.293 HD
ENDBRANCH  15  22
TORSDOF 3
ENDMDL
MODEL 6
REMARK VINA RESULT:    -7.474      1.531      3.772
REMARK INTER + INTRA:          -8.129
REMARK INTER:                  -8.129
REMARK INTRA:                   0.000
REMARK UNBOUND:                 0.000
REMARK SMILES Cc1cc(O)c2c(c1)C(=O)c1cc(O)cc(O)c1C2=O
REMARK SMILES IDX 1 1 2 2 8 3 7 4 6 5 4 6 3 7 19 8 20 9 18 10 11 11 9 12 10 13
REMARK SMILES IDX 12 14 13 15 15 16 16 17 5 18 17 20 14 22
REMARK H PARENT 5 19 17 21 14 23
REMARK Flexibility Score: inf
ROOT
ATOM      1  C   UNL     1      61.732 -18.576   1.035  1.00  0.00     0.044 C 
ATOM      2  C   UNL     1      60.697 -19.262   1.879  1.00  0.00    -0.047 A 
ATOM      3  C   UNL     1      59.393 -18.759   1.941  1.00  0.00     0.016 A 
ATOM      4  C   UNL     1      58.429 -19.369   2.762  1.00  0.00     0.038 A 
ATOM      5  C   UNL     1      58.783 -20.484   3.554  1.00  0.00     0.076 A 
ATOM      6  C   UNL     1      60.094 -21.017   3.452  1.00  0.00     0.127 A 
ATOM      7  C   UNL     1      61.042 -20.381   2.643  1.00  0.00     0.050 A 
ATOM      8  C   UNL     1      57.780 -21.006   4.517  1.00  0.00     0.201 C 
ATOM      9  O   UNL     1      58.162 -21.552   5.586  1.00  0.00    -0.288 OA
ATOM     10  C   UNL     1      56.337 -20.716   4.310  1.00  0.00     0.076 A 
ATOM     11  C   UNL     1      55.987 -19.600   3.517  1.00  0.00     0.041 A 
ATOM     12  C   UNL     1      57.042 -18.847   2.797  1.00  0.00     0.194 C 
ATOM     13  O   UNL     1      56.753 -17.778   2.193  1.00  0.00    -0.289 OA
ATOM     14  C   UNL     1      54.641 -19.212   3.410  1.00  0.00     0.059 A 
ATOM     15  C   UNL     1      53.642 -19.929   4.069  1.00  0.00     0.120 A 
ATOM     16  C   UNL     1      53.978 -21.058   4.822  1.00  0.00     0.093 A 
ATOM     17  C   UNL     1      55.308 -21.476   4.928  1.00  0.00     0.131 A 
ENDROOT
BRANCH   6  18
ATOM     18  O   UNL     1      60.486 -22.186   4.106  1.00  0.00    -0.507 OA
ATOM     19  H   UNL     1      61.281 -22.239   4.728  1.00  0.00     0.293 HD
ENDBRANCH   6  18
BRANCH  17  20
ATOM     20  O   UNL     1      55.557 -22.664   5.620  1.00  0.00    -0.507 OA
ATOM     21  H   UNL     1      55.784 -23.538   5.166  1.00  0.00     0.293 HD
ENDBRANCH  17  20
BRANCH  15  22
ATOM     22  O   UNL     1      52.315 -19.518   3.959  1.00  0.00    -0.508 OA
ATOM     23  H   UNL     1      51.579 -20.167   3.710  1.00  0.00     0.293 HD
ENDBRANCH  15  22
TORSDOF 3
ENDMDL
MODEL 7
REMARK VINA RESULT:    -7.448      1.863      6.671
REMARK INTER + INTRA:          -8.101
REMARK INTER:                  -8.101
REMARK INTRA:                   0.000
REMARK UNBOUND:                 0.000
REMARK SMILES Cc1cc(O)c2c(c1)C(=O)c1cc(O)cc(O)c1C2=O
REMARK SMILES IDX 1 1 2 2 8 3 7 4 6 5 4 6 3 7 19 8 20 9 18 10 11 11 9 12 10 13
REMARK SMILES IDX 12 14 13 15 15 16 16 17 5 18 17 20 14 22
REMARK H PARENT 5 19 17 21 14 23
REMARK Flexibility Score: inf
ROOT
ATOM      1  C   UNL     1      54.957 -21.368   4.781  1.00  0.00     0.044 C 
ATOM      2  C   UNL     1      56.224 -20.910   4.118  1.00  0.00    -0.047 A 
ATOM      3  C   UNL     1      56.286 -19.651   3.511  1.00  0.00     0.016 A 
ATOM      4  C   UNL     1      57.453 -19.231   2.851  1.00  0.00     0.038 A 
ATOM      5  C   UNL     1      58.568 -20.096   2.773  1.00  0.00     0.076 A 
ATOM      6  C   UNL     1      58.515 -21.352   3.430  1.00  0.00     0.127 A 
ATOM      7  C   UNL     1      57.336 -21.756   4.065  1.00  0.00     0.050 A 
ATOM      8  C   UNL     1      59.725 -19.676   1.942  1.00  0.00     0.201 C 
ATOM      9  O   UNL     1      60.438 -20.545   1.374  1.00  0.00    -0.288 OA
ATOM     10  C   UNL     1      59.925 -18.237   1.627  1.00  0.00     0.076 A 
ATOM     11  C   UNL     1      58.807 -17.376   1.706  1.00  0.00     0.041 A 
ATOM     12  C   UNL     1      57.520 -17.883   2.237  1.00  0.00     0.194 C 
ATOM     13  O   UNL     1      56.488 -17.158   2.191  1.00  0.00    -0.289 OA
ATOM     14  C   UNL     1      58.922 -16.040   1.285  1.00  0.00     0.059 A 
ATOM     15  C   UNL     1      60.137 -15.551   0.803  1.00  0.00     0.120 A 
ATOM     16  C   UNL     1      61.256 -16.387   0.762  1.00  0.00     0.093 A 
ATOM     17  C   UNL     1      61.172 -17.715   1.194  1.00  0.00     0.131 A 
ENDROOT
BRANCH   6  18
ATOM     18  O   UNL     1      59.613 -22.212   3.506  1.00  0.00    -0.507 OA
ATOM     19  H   UNL     1      60.085 -22.588   2.695  1.00  0.00     0.293 HD
ENDBRANCH   6  18
BRANCH  17  20
ATOM     20  O   UNL     1      62.351 -18.464   1.209  1.00  0.00    -0.507 OA
ATOM     21  H   UNL     1      63.193 -18.189   0.723  1.00  0.00     0.293 HD
ENDBRANCH  17  20
BRANCH  15  22
ATOM     22  O   UNL     1      60.225 -14.227   0.379  1.00  0.00    -0.508 OA
ATOM     23  H   UNL     1      59.594 -13.516   0.731  1.00  0.00     0.293 HD
ENDBRANCH  15  22
TORSDOF 3
ENDMDL
MODEL 8
REMARK VINA RESULT:    -7.214      1.642      3.983
REMARK INTER + INTRA:          -7.847
REMARK INTER:                  -7.847
REMARK INTRA:                   0.000
REMARK UNBOUND:                 0.000
REMARK SMILES Cc1cc(O)c2c(c1)C(=O)c1cc(O)cc(O)c1C2=O
REMARK SMILES IDX 1 1 2 2 8 3 7 4 6 5 4 6 3 7 19 8 20 9 18 10 11 11 9 12 10 13
REMARK SMILES IDX 12 14 13 15 15 16 16 17 5 18 17 20 14 22
REMARK H PARENT 5 19 17 21 14 23
REMARK Flexibility Score: inf
ROOT
ATOM      1  C   UNL     1      59.307 -17.459   1.737  1.00  0.00     0.044 C 
ATOM      2  C   UNL     1      58.266 -18.370   2.321  1.00  0.00    -0.047 A 
ATOM      3  C   UNL     1      56.923 -17.981   2.342  1.00  0.00     0.016 A 
ATOM      4  C   UNL     1      55.948 -18.807   2.927  1.00  0.00     0.038 A 
ATOM      5  C   UNL     1      56.327 -20.030   3.524  1.00  0.00     0.076 A 
ATOM      6  C   UNL     1      57.683 -20.440   3.459  1.00  0.00     0.127 A 
ATOM      7  C   UNL     1      58.639 -19.592   2.889  1.00  0.00     0.050 A 
ATOM      8  C   UNL     1      55.292 -20.802   4.260  1.00  0.00     0.201 C 
ATOM      9  O   UNL     1      55.625 -21.522   5.238  1.00  0.00    -0.288 OA
ATOM     10  C   UNL     1      53.853 -20.578   3.963  1.00  0.00     0.076 A 
ATOM     11  C   UNL     1      53.478 -19.353   3.366  1.00  0.00     0.041 A 
ATOM     12  C   UNL     1      54.521 -18.400   2.917  1.00  0.00     0.194 C 
ATOM     13  O   UNL     1      54.194 -17.255   2.501  1.00  0.00    -0.289 OA
ATOM     14  C   UNL     1      52.118 -19.045   3.195  1.00  0.00     0.059 A 
ATOM     15  C   UNL     1      51.132 -19.947   3.597  1.00  0.00     0.120 A 
ATOM     16  C   UNL     1      51.498 -21.177   4.151  1.00  0.00     0.093 A 
ATOM     17  C   UNL     1      52.845 -21.515   4.313  1.00  0.00     0.131 A 
ENDROOT
BRANCH   6  18
ATOM     18  O   UNL     1      58.119 -21.686   3.914  1.00  0.00    -0.507 OA
ATOM     19  H   UNL     1      58.686 -21.812   4.741  1.00  0.00     0.293 HD
ENDBRANCH   6  18
BRANCH  17  20
ATOM     20  O   UNL     1      53.136 -22.796   4.787  1.00  0.00    -0.507 OA
ATOM     21  H   UNL     1      53.614 -23.499   4.241  1.00  0.00     0.293 HD
ENDBRANCH  17  20
BRANCH  15  22
ATOM     22  O   UNL     1      49.789 -19.615   3.430  1.00  0.00    -0.508 OA
ATOM     23  H   UNL     1      49.504 -18.843   2.840  1.00  0.00     0.293 HD
ENDBRANCH  15  22
TORSDOF 3
ENDMDL
MODEL 9
REMARK VINA RESULT:    -7.050      2.667      5.112
REMARK INTER + INTRA:          -7.668
REMARK INTER:                  -7.668
REMARK INTRA:                   0.000
REMARK UNBOUND:                 0.000
REMARK SMILES Cc1cc(O)c2c(c1)C(=O)c1cc(O)cc(O)c1C2=O
REMARK SMILES IDX 1 1 2 2 8 3 7 4 6 5 4 6 3 7 19 8 20 9 18 10 11 11 9 12 10 13
REMARK SMILES IDX 12 14 13 15 15 16 16 17 5 18 17 20 14 22
REMARK H PARENT 5 19 17 21 14 23
REMARK Flexibility Score: inf
ROOT
ATOM      1  C   UNL     1      60.904 -13.152  -0.628  1.00  0.00     0.044 C 
ATOM      2  C   UNL     1      60.928 -14.620  -0.319  1.00  0.00    -0.047 A 
ATOM      3  C   UNL     1      60.095 -15.143   0.677  1.00  0.00     0.016 A 
ATOM      4  C   UNL     1      60.142 -16.509   1.004  1.00  0.00     0.038 A 
ATOM      5  C   UNL     1      61.055 -17.361   0.342  1.00  0.00     0.076 A 
ATOM      6  C   UNL     1      61.863 -16.834  -0.697  1.00  0.00     0.127 A 
ATOM      7  C   UNL     1      61.814 -15.467  -0.992  1.00  0.00     0.050 A 
ATOM      8  C   UNL     1      61.177 -18.763   0.819  1.00  0.00     0.201 C 
ATOM      9  O   UNL     1      62.277 -19.368   0.710  1.00  0.00    -0.288 OA
ATOM     10  C   UNL     1      60.067 -19.381   1.589  1.00  0.00     0.076 A 
ATOM     11  C   UNL     1      59.156 -18.526   2.249  1.00  0.00     0.041 A 
ATOM     12  C   UNL     1      59.234 -17.060   2.039  1.00  0.00     0.194 C 
ATOM     13  O   UNL     1      58.509 -16.285   2.721  1.00  0.00    -0.289 OA
ATOM     14  C   UNL     1      58.176 -19.068   3.098  1.00  0.00     0.059 A 
ATOM     15  C   UNL     1      58.085 -20.448   3.284  1.00  0.00     0.120 A 
ATOM     16  C   UNL     1      58.957 -21.301   2.602  1.00  0.00     0.093 A 
ATOM     17  C   UNL     1      59.928 -20.786   1.736  1.00  0.00     0.131 A 
ENDROOT
BRANCH   6  18
ATOM     18  O   UNL     1      62.700 -17.631  -1.481  1.00  0.00    -0.507 OA
ATOM     19  H   UNL     1      63.478 -18.159  -1.110  1.00  0.00     0.293 HD
ENDBRANCH   6  18
BRANCH  17  20
ATOM     20  O   UNL     1      60.703 -21.702   1.020  1.00  0.00    -0.507 OA
ATOM     21  H   UNL     1      61.163 -21.481   0.147  1.00  0.00     0.293 HD
ENDBRANCH  17  20
BRANCH  15  22
ATOM     22  O   UNL     1      57.114 -20.962   4.140  1.00  0.00    -0.508 OA
ATOM     23  H   UNL     1      57.130 -20.771   5.135  1.00  0.00     0.293 HD
ENDBRANCH  15  22
TORSDOF 3
ENDMDL
