MODEL 1
REMARK VINA RESULT:    -3.180      0.000      0.000
REMARK INTER + INTRA:          -3.180
REMARK INTER:                  -3.180
REMARK INTRA:                   0.000
REMARK UNBOUND:                 0.000
REMARK SMILES CC1(C)O[C@]2(C)CC[C@H]1CC2
REMARK SMILES IDX 1 1 2 2 9 3 8 4 7 5 5 6 4 7 11 8 10 9 6 10 3 11
REMARK H PARENT
REMARK Flexibility Score: inf
ROOT
ATOM      1  C   UNL     1     135.103 139.491 136.875  1.00  0.00     0.042 C 
ATOM      2  C   UNL     1     134.140 139.111 138.021  1.00  0.00     0.066 C 
ATOM      3  C   UNL     1     134.761 139.492 139.420  1.00  0.00     0.021 C 
ATOM      4  C   UNL     1     136.051 138.662 139.625  1.00  0.00     0.009 C 
ATOM      5  C   UNL     1     135.736 137.165 139.384  1.00  0.00     0.035 C 
ATOM      6  C   UNL     1     134.216 136.985 139.108  1.00  0.00     0.066 C 
ATOM      7  O   UNL     1     133.866 137.705 137.925  1.00  0.00    -0.369 OA
ATOM      8  C   UNL     1     133.412 137.556 140.311  1.00  0.00     0.035 C 
ATOM      9  C   UNL     1     133.781 139.043 140.531  1.00  0.00     0.009 C 
ATOM     10  C   UNL     1     133.884 135.504 138.900  1.00  0.00     0.042 C 
ATOM     11  C   UNL     1     132.819 139.874 137.785  1.00  0.00     0.042 C 
ENDROOT
TORSDOF 0
ENDMDL
MODEL 2
REMARK VINA RESULT:    -3.177      8.761     10.015
REMARK INTER + INTRA:          -3.177
REMARK INTER:                  -3.177
REMARK INTRA:                   0.000
REMARK UNBOUND:                 0.000
REMARK SMILES CC1(C)O[C@]2(C)CC[C@H]1CC2
REMARK SMILES IDX 1 1 2 2 9 3 8 4 7 5 5 6 4 7 11 8 10 9 6 10 3 11
REMARK H PARENT
REMARK Flexibility Score: inf
ROOT
ATOM      1  C   UNL     1     139.444 146.391 136.875  1.00  0.00     0.042 C 
ATOM      2  C   UNL     1     139.101 147.364 138.023  1.00  0.00     0.066 C 
ATOM      3  C   UNL     1     139.504 146.745 139.418  1.00  0.00     0.021 C 
ATOM      4  C   UNL     1     138.663 145.467 139.648  1.00  0.00     0.009 C 
ATOM      5  C   UNL     1     137.165 145.799 139.437  1.00  0.00     0.035 C 
ATOM      6  C   UNL     1     136.998 147.321 139.156  1.00  0.00     0.066 C 
ATOM      7  O   UNL     1     137.697 147.655 137.957  1.00  0.00    -0.369 OA
ATOM      8  C   UNL     1     137.605 148.124 140.343  1.00  0.00     0.035 C 
ATOM      9  C   UNL     1     139.092 147.737 140.532  1.00  0.00     0.009 C 
ATOM     10  C   UNL     1     135.517 147.670 138.979  1.00  0.00     0.042 C 
ATOM     11  C   UNL     1     139.875 148.674 137.764  1.00  0.00     0.042 C 
ENDROOT
TORSDOF 0
ENDMDL
MODEL 3
REMARK VINA RESULT:    -3.168      8.830     10.072
REMARK INTER + INTRA:          -3.168
REMARK INTER:                  -3.168
REMARK INTRA:                   0.000
REMARK UNBOUND:                 0.000
REMARK SMILES CC1(C)O[C@]2(C)CC[C@H]1CC2
REMARK SMILES IDX 1 1 2 2 9 3 8 4 7 5 5 6 4 7 11 8 10 9 6 10 3 11
REMARK H PARENT
REMARK Flexibility Score: inf
ROOT
ATOM      1  C   UNL     1     142.133 135.084 136.875  1.00  0.00     0.042 C 
ATOM      2  C   UNL     1     142.503 134.152 138.048  1.00  0.00     0.066 C 
ATOM      3  C   UNL     1     142.104 134.806 139.428  1.00  0.00     0.021 C 
ATOM      4  C   UNL     1     142.927 136.104 139.610  1.00  0.00     0.009 C 
ATOM      5  C   UNL     1     144.428 135.788 139.394  1.00  0.00     0.035 C 
ATOM      6  C   UNL     1     144.616 134.262 139.157  1.00  0.00     0.066 C 
ATOM      7  O   UNL     1     143.911 133.880 137.976  1.00  0.00    -0.369 OA
ATOM      8  C   UNL     1     144.034 133.486 140.374  1.00  0.00     0.035 C 
ATOM      9  C   UNL     1     142.543 133.855 140.567  1.00  0.00     0.009 C 
ATOM     10  C   UNL     1     146.101 133.930 138.975  1.00  0.00     0.042 C 
ATOM     11  C   UNL     1     141.747 132.823 137.836  1.00  0.00     0.042 C 
ENDROOT
TORSDOF 0
ENDMDL
MODEL 4
REMARK VINA RESULT:    -3.146     12.510     14.207
REMARK INTER + INTRA:          -3.146
REMARK INTER:                  -3.146
REMARK INTRA:                   0.000
REMARK UNBOUND:                 0.000
REMARK SMILES CC1(C)O[C@]2(C)CC[C@H]1CC2
REMARK SMILES IDX 1 1 2 2 9 3 8 4 7 5 5 6 4 7 11 8 10 9 6 10 3 11
REMARK H PARENT
REMARK Flexibility Score: inf
ROOT
ATOM      1  C   UNL     1     146.435 142.125 136.875  1.00  0.00     0.042 C 
ATOM      2  C   UNL     1     147.400 142.505 138.018  1.00  0.00     0.066 C 
ATOM      3  C   UNL     1     146.787 142.116 139.419  1.00  0.00     0.021 C 
ATOM      4  C   UNL     1     145.494 142.938 139.633  1.00  0.00     0.009 C 
ATOM      5  C   UNL     1     145.801 144.437 139.397  1.00  0.00     0.035 C 
ATOM      6  C   UNL     1     147.319 144.626 139.114  1.00  0.00     0.066 C 
ATOM      7  O   UNL     1     147.668 143.913 137.928  1.00  0.00    -0.369 OA
ATOM      8  C   UNL     1     148.131 144.054 140.312  1.00  0.00     0.035 C 
ATOM      9  C   UNL     1     147.770 142.564 140.527  1.00  0.00     0.009 C 
ATOM     10  C   UNL     1     147.643 146.110 138.912  1.00  0.00     0.042 C 
ATOM     11  C   UNL     1     148.724 141.749 137.773  1.00  0.00     0.042 C 
ENDROOT
TORSDOF 0
ENDMDL
MODEL 5
REMARK VINA RESULT:    -3.134      1.217      2.101
REMARK INTER + INTRA:          -3.134
REMARK INTER:                  -3.134
REMARK INTRA:                   0.000
REMARK UNBOUND:                 0.000
REMARK SMILES CC1(C)O[C@]2(C)CC[C@H]1CC2
REMARK SMILES IDX 1 1 2 2 9 3 8 4 7 5 5 6 4 7 11 8 10 9 6 10 3 11
REMARK H PARENT
REMARK Flexibility Score: inf
ROOT
ATOM      1  C   UNL     1     136.325 140.225 139.167  1.00  0.00     0.042 C 
ATOM      2  C   UNL     1     135.418 139.257 138.377  1.00  0.00     0.066 C 
ATOM      3  C   UNL     1     133.903 139.476 138.758  1.00  0.00     0.021 C 
ATOM      4  C   UNL     1     133.721 139.136 140.257  1.00  0.00     0.009 C 
ATOM      5  C   UNL     1     134.317 137.735 140.536  1.00  0.00     0.035 C 
ATOM      6  C   UNL     1     134.814 137.099 139.206  1.00  0.00     0.066 C 
ATOM      7  O   UNL     1     135.848 137.916 138.654  1.00  0.00    -0.369 OA
ATOM      8  C   UNL     1     133.627 137.031 138.203  1.00  0.00     0.035 C 
ATOM      9  C   UNL     1     133.047 138.448 137.979  1.00  0.00     0.009 C 
ATOM     10  C   UNL     1     135.376 135.697 139.463  1.00  0.00     0.042 C 
ATOM     11  C   UNL     1     135.648 139.533 136.875  1.00  0.00     0.042 C 
ENDROOT
TORSDOF 0
ENDMDL
MODEL 6
REMARK VINA RESULT:    -3.105      8.450      9.760
REMARK INTER + INTRA:          -3.105
REMARK INTER:                  -3.105
REMARK INTRA:                   0.000
REMARK UNBOUND:                 0.000
REMARK SMILES CC1(C)O[C@]2(C)CC[C@H]1CC2
REMARK SMILES IDX 1 1 2 2 9 3 8 4 7 5 5 6 4 7 11 8 10 9 6 10 3 11
REMARK H PARENT
REMARK Flexibility Score: inf
ROOT
ATOM      1  C   UNL     1     140.309 145.276 139.107  1.00  0.00     0.042 C 
ATOM      2  C   UNL     1     139.279 146.177 138.394  1.00  0.00     0.066 C 
ATOM      3  C   UNL     1     139.439 147.678 138.853  1.00  0.00     0.021 C 
ATOM      4  C   UNL     1     139.135 147.762 140.368  1.00  0.00     0.009 C 
ATOM      5  C   UNL     1     137.771 147.087 140.650  1.00  0.00     0.035 C 
ATOM      6  C   UNL     1     137.121 146.633 139.311  1.00  0.00     0.066 C 
ATOM      7  O   UNL     1     137.967 145.671 138.681  1.00  0.00    -0.369 OA
ATOM      8  C   UNL     1     136.970 147.869 138.378  1.00  0.00     0.035 C 
ATOM      9  C   UNL     1     138.353 148.526 138.150  1.00  0.00     0.009 C 
ATOM     10  C   UNL     1     135.753 145.993 139.572  1.00  0.00     0.042 C 
ATOM     11  C   UNL     1     139.522 146.043 136.875  1.00  0.00     0.042 C 
ENDROOT
TORSDOF 0
ENDMDL
MODEL 7
REMARK VINA RESULT:    -3.067      9.086     10.252
REMARK INTER + INTRA:          -3.067
REMARK INTER:                  -3.067
REMARK INTRA:                   0.000
REMARK UNBOUND:                 0.000
REMARK SMILES CC1(C)O[C@]2(C)CC[C@H]1CC2
REMARK SMILES IDX 1 1 2 2 9 3 8 4 7 5 5 6 4 7 11 8 10 9 6 10 3 11
REMARK H PARENT
REMARK Flexibility Score: inf
ROOT
ATOM      1  C   UNL     1     136.564 150.192 139.031  1.00  0.00     0.042 C 
ATOM      2  C   UNL     1     136.511 148.687 138.690  1.00  0.00     0.066 C 
ATOM      3  C   UNL     1     136.261 147.829 139.990  1.00  0.00     0.021 C 
ATOM      4  C   UNL     1     137.462 148.029 140.946  1.00  0.00     0.009 C 
ATOM      5  C   UNL     1     138.776 147.761 140.173  1.00  0.00     0.035 C 
ATOM      6  C   UNL     1     138.450 147.293 138.725  1.00  0.00     0.066 C 
ATOM      7  O   UNL     1     137.743 148.331 138.046  1.00  0.00    -0.369 OA
ATOM      8  C   UNL     1     137.554 146.023 138.794  1.00  0.00     0.035 C 
ATOM      9  C   UNL     1     136.268 146.332 139.599  1.00  0.00     0.009 C 
ATOM     10  C   UNL     1     139.742 146.992 137.959  1.00  0.00     0.042 C 
ATOM     11  C   UNL     1     135.364 148.486 137.675  1.00  0.00     0.042 C 
ENDROOT
TORSDOF 0
ENDMDL
MODEL 8
REMARK VINA RESULT:    -3.061      9.443     11.152
REMARK INTER + INTRA:          -3.061
REMARK INTER:                  -3.061
REMARK INTRA:                   0.000
REMARK UNBOUND:                 0.000
REMARK SMILES CC1(C)O[C@]2(C)CC[C@H]1CC2
REMARK SMILES IDX 1 1 2 2 9 3 8 4 7 5 5 6 4 7 11 8 10 9 6 10 3 11
REMARK H PARENT
REMARK Flexibility Score: inf
ROOT
ATOM      1  C   UNL     1     144.894 131.372 139.016  1.00  0.00     0.042 C 
ATOM      2  C   UNL     1     144.980 132.887 138.728  1.00  0.00     0.066 C 
ATOM      3  C   UNL     1     145.113 133.703 140.072  1.00  0.00     0.021 C 
ATOM      4  C   UNL     1     143.831 133.479 140.909  1.00  0.00     0.009 C 
ATOM      5  C   UNL     1     142.592 133.777 140.030  1.00  0.00     0.035 C 
ATOM      6  C   UNL     1     143.048 134.287 138.633  1.00  0.00     0.066 C 
ATOM      7  O   UNL     1     143.811 133.268 137.987  1.00  0.00    -0.369 OA
ATOM      8  C   UNL     1     143.936 135.551 138.821  1.00  0.00     0.035 C 
ATOM      9  C   UNL     1     145.144 135.212 139.729  1.00  0.00     0.009 C 
ATOM     10  C   UNL     1     141.830 134.618 137.763  1.00  0.00     0.042 C 
ATOM     11  C   UNL     1     146.214 133.114 137.828  1.00  0.00     0.042 C 
ENDROOT
TORSDOF 0
ENDMDL
MODEL 9
REMARK VINA RESULT:    -3.039     13.384     14.822
REMARK INTER + INTRA:          -3.039
REMARK INTER:                  -3.039
REMARK INTRA:                   0.000
REMARK UNBOUND:                 0.000
REMARK SMILES CC1(C)O[C@]2(C)CC[C@H]1CC2
REMARK SMILES IDX 1 1 2 2 9 3 8 4 7 5 5 6 4 7 11 8 10 9 6 10 3 11
REMARK H PARENT
REMARK Flexibility Score: inf
ROOT
ATOM      1  C   UNL     1     150.203 144.942 138.991  1.00  0.00     0.042 C 
ATOM      2  C   UNL     1     148.692 145.013 138.681  1.00  0.00     0.066 C 
ATOM      3  C   UNL     1     147.862 145.241 140.004  1.00  0.00     0.021 C 
ATOM      4  C   UNL     1     148.072 144.019 140.930  1.00  0.00     0.009 C 
ATOM      5  C   UNL     1     147.780 142.723 140.135  1.00  0.00     0.035 C 
ATOM      6  C   UNL     1     147.286 143.083 138.704  1.00  0.00     0.066 C 
ATOM      7  O   UNL     1     148.314 143.797 138.018  1.00  0.00    -0.369 OA
ATOM      8  C   UNL     1     146.023 143.985 138.817  1.00  0.00     0.035 C 
ATOM      9  C   UNL     1     146.357 145.252 139.643  1.00  0.00     0.009 C 
ATOM     10  C   UNL     1     146.960 141.809 137.916  1.00  0.00     0.042 C 
ATOM     11  C   UNL     1     148.478 146.183 137.696  1.00  0.00     0.042 C 
ENDROOT
TORSDOF 0
ENDMDL
