MODEL 1
REMARK VINA RESULT:    -5.727      0.000      0.000
REMARK INTER + INTRA:          -6.204
REMARK INTER:                  -6.061
REMARK INTRA:                  -0.142
REMARK UNBOUND:                -0.142
REMARK SMILES CC1=CC=C(C(C)C)CC1
REMARK SMILES IDX 1 1 2 2 3 3 4 4 5 5 9 6 10 7 6 8 7 9 8 10
REMARK H PARENT
REMARK Flexibility Score: inf
ROOT
ATOM      1  C   UNL     1      -1.918  14.059   5.984  1.00  0.00     0.039 C 
ATOM      2  C   UNL     1      -0.525  13.702   5.556  1.00  0.00    -0.073 C 
ATOM      3  C   UNL     1      -0.147  13.899   4.284  1.00  0.00    -0.001 C 
ATOM      4  C   UNL     1       1.219  13.560   3.841  1.00  0.00    -0.001 C 
ATOM      5  C   UNL     1       2.183  13.263   4.733  1.00  0.00    -0.067 C 
ATOM      6  C   UNL     1       1.881  13.388   6.213  1.00  0.00     0.035 C 
ATOM      7  C   UNL     1       0.420  13.027   6.522  1.00  0.00     0.035 C 
ENDROOT
BRANCH   5   8
ATOM      8  C   UNL     1       3.587  12.894   4.287  1.00  0.00     0.009 C 
ATOM      9  C   UNL     1       3.582  11.609   3.451  1.00  0.00     0.012 C 
ATOM     10  C   UNL     1       4.255  14.046   3.527  1.00  0.00     0.012 C 
ENDBRANCH   5   8
TORSDOF 1
ENDMDL
MODEL 2
REMARK VINA RESULT:    -5.668      0.971      4.557
REMARK INTER + INTRA:          -6.142
REMARK INTER:                  -5.992
REMARK INTRA:                  -0.150
REMARK UNBOUND:                -0.142
REMARK SMILES CC1=CC=C(C(C)C)CC1
REMARK SMILES IDX 1 1 2 2 3 3 4 4 5 5 9 6 10 7 6 8 7 9 8 10
REMARK H PARENT
REMARK Flexibility Score: inf
ROOT
ATOM      1  C   UNL     1       4.408  13.478   3.491  1.00  0.00     0.039 C 
ATOM      2  C   UNL     1       3.095  13.384   4.214  1.00  0.00    -0.073 C 
ATOM      3  C   UNL     1       3.064  13.463   5.552  1.00  0.00    -0.001 C 
ATOM      4  C   UNL     1       1.785  13.378   6.284  1.00  0.00    -0.001 C 
ATOM      5  C   UNL     1       0.608  13.449   5.633  1.00  0.00    -0.067 C 
ATOM      6  C   UNL     1       0.606  13.729   4.144  1.00  0.00     0.035 C 
ATOM      7  C   UNL     1       1.823  13.099   3.451  1.00  0.00     0.035 C 
ENDROOT
BRANCH   5   8
ATOM      8  C   UNL     1      -0.712  13.344   6.375  1.00  0.00     0.009 C 
ATOM      9  C   UNL     1      -1.774  14.253   5.745  1.00  0.00     0.012 C 
ATOM     10  C   UNL     1      -1.200  11.892   6.450  1.00  0.00     0.012 C 
ENDBRANCH   5   8
TORSDOF 1
ENDMDL
MODEL 3
REMARK VINA RESULT:    -5.327      1.895      4.091
REMARK INTER + INTRA:          -5.781
REMARK INTER:                  -5.620
REMARK INTRA:                  -0.161
REMARK UNBOUND:                -0.142
REMARK SMILES CC1=CC=C(C(C)C)CC1
REMARK SMILES IDX 1 1 2 2 3 3 4 4 5 5 9 6 10 7 6 8 7 9 8 10
REMARK H PARENT
REMARK Flexibility Score: inf
ROOT
ATOM      1  C   UNL     1       2.526  15.999   0.569  1.00  0.00     0.039 C 
ATOM      2  C   UNL     1       2.259  15.198   1.810  1.00  0.00    -0.073 C 
ATOM      3  C   UNL     1       1.001  14.855   2.124  1.00  0.00    -0.001 C 
ATOM      4  C   UNL     1       0.714  14.064   3.336  1.00  0.00    -0.001 C 
ATOM      5  C   UNL     1       1.707  13.475   4.030  1.00  0.00    -0.067 C 
ATOM      6  C   UNL     1       3.122  13.541   3.491  1.00  0.00     0.035 C 
ATOM      7  C   UNL     1       3.385  14.865   2.760  1.00  0.00     0.035 C 
ENDROOT
BRANCH   5   8
ATOM      8  C   UNL     1       1.424  12.675   5.289  1.00  0.00     0.009 C 
ATOM      9  C   UNL     1       1.858  13.444   6.542  1.00  0.00     0.012 C 
ATOM     10  C   UNL     1      -0.050  12.263   5.374  1.00  0.00     0.012 C 
ENDBRANCH   5   8
TORSDOF 1
ENDMDL
MODEL 4
REMARK VINA RESULT:    -5.160      0.812      4.398
REMARK INTER + INTRA:          -5.604
REMARK INTER:                  -5.466
REMARK INTRA:                  -0.138
REMARK UNBOUND:                -0.142
REMARK SMILES CC1=CC=C(C(C)C)CC1
REMARK SMILES IDX 1 1 2 2 3 3 4 4 5 5 9 6 10 7 6 8 7 9 8 10
REMARK H PARENT
REMARK Flexibility Score: inf
ROOT
ATOM      1  C   UNL     1       3.996  12.960   3.768  1.00  0.00     0.039 C 
ATOM      2  C   UNL     1       2.650  13.258   4.363  1.00  0.00    -0.073 C 
ATOM      3  C   UNL     1       1.597  13.467   3.559  1.00  0.00    -0.001 C 
ATOM      4  C   UNL     1       0.264  13.757   4.121  1.00  0.00    -0.001 C 
ATOM      5  C   UNL     1       0.016  13.595   5.435  1.00  0.00    -0.067 C 
ATOM      6  C   UNL     1       1.094  13.004   6.321  1.00  0.00     0.035 C 
ATOM      7  C   UNL     1       2.497  13.424   5.856  1.00  0.00     0.035 C 
ENDROOT
BRANCH   5   8
ATOM      8  C   UNL     1      -1.347  13.908   6.026  1.00  0.00     0.009 C 
ATOM      9  C   UNL     1      -2.194  14.738   5.054  1.00  0.00     0.012 C 
ATOM     10  C   UNL     1      -2.082  12.631   6.450  1.00  0.00     0.012 C 
ENDBRANCH   5   8
TORSDOF 1
ENDMDL
MODEL 5
REMARK VINA RESULT:    -5.103      1.782      3.918
REMARK INTER + INTRA:          -5.543
REMARK INTER:                  -5.399
REMARK INTRA:                  -0.144
REMARK UNBOUND:                -0.142
REMARK SMILES CC1=CC=C(C(C)C)CC1
REMARK SMILES IDX 1 1 2 2 3 3 4 4 5 5 9 6 10 7 6 8 7 9 8 10
REMARK H PARENT
REMARK Flexibility Score: inf
ROOT
ATOM      1  C   UNL     1       1.845  14.683   0.290  1.00  0.00     0.039 C 
ATOM      2  C   UNL     1       1.526  14.407   1.730  1.00  0.00    -0.073 C 
ATOM      3  C   UNL     1       0.254  14.450   2.152  1.00  0.00    -0.001 C 
ATOM      4  C   UNL     1      -0.084  14.178   3.562  1.00  0.00    -0.001 C 
ATOM      5  C   UNL     1       0.829  13.661   4.406  1.00  0.00    -0.067 C 
ATOM      6  C   UNL     1       2.185  13.255   3.865  1.00  0.00     0.035 C 
ATOM      7  C   UNL     1       2.638  14.183   2.728  1.00  0.00     0.035 C 
ENDROOT
BRANCH   5   8
ATOM      8  C   UNL     1       0.497  13.394   5.863  1.00  0.00     0.009 C 
ATOM      9  C   UNL     1      -0.364  12.134   6.013  1.00  0.00     0.012 C 
ATOM     10  C   UNL     1       1.764  13.304   6.721  1.00  0.00     0.012 C 
ENDBRANCH   5   8
TORSDOF 1
ENDMDL
MODEL 6
REMARK VINA RESULT:    -5.074      1.276      2.354
REMARK INTER + INTRA:          -5.513
REMARK INTER:                  -5.345
REMARK INTRA:                  -0.168
REMARK UNBOUND:                -0.142
REMARK SMILES CC1=CC=C(C(C)C)CC1
REMARK SMILES IDX 1 1 2 2 3 3 4 4 5 5 9 6 10 7 6 8 7 9 8 10
REMARK H PARENT
REMARK Flexibility Score: inf
ROOT
ATOM      1  C   UNL     1      -1.195  12.378   6.182  1.00  0.00     0.039 C 
ATOM      2  C   UNL     1      -0.098  12.928   5.317  1.00  0.00    -0.073 C 
ATOM      3  C   UNL     1       1.179  12.617   5.580  1.00  0.00    -0.001 C 
ATOM      4  C   UNL     1       2.273  13.141   4.740  1.00  0.00    -0.001 C 
ATOM      5  C   UNL     1       2.015  13.750   3.567  1.00  0.00    -0.067 C 
ATOM      6  C   UNL     1       0.588  13.795   3.059  1.00  0.00     0.035 C 
ATOM      7  C   UNL     1      -0.417  13.911   4.215  1.00  0.00     0.035 C 
ENDROOT
BRANCH   5   8
ATOM      8  C   UNL     1       3.132  14.309   2.705  1.00  0.00     0.009 C 
ATOM      9  C   UNL     1       2.694  15.597   1.998  1.00  0.00     0.012 C 
ATOM     10  C   UNL     1       4.412  14.533   3.519  1.00  0.00     0.012 C 
ENDBRANCH   5   8
TORSDOF 1
ENDMDL
MODEL 7
REMARK VINA RESULT:    -5.017      1.545      2.772
REMARK INTER + INTRA:          -5.453
REMARK INTER:                  -5.289
REMARK INTRA:                  -0.164
REMARK UNBOUND:                -0.142
REMARK SMILES CC1=CC=C(C(C)C)CC1
REMARK SMILES IDX 1 1 2 2 3 3 4 4 5 5 9 6 10 7 6 8 7 9 8 10
REMARK H PARENT
REMARK Flexibility Score: inf
ROOT
ATOM      1  C   UNL     1      -1.987  14.978   1.975  1.00  0.00     0.039 C 
ATOM      2  C   UNL     1      -0.746  14.490   2.665  1.00  0.00    -0.073 C 
ATOM      3  C   UNL     1      -0.812  14.065   3.935  1.00  0.00    -0.001 C 
ATOM      4  C   UNL     1       0.393  13.575   4.632  1.00  0.00    -0.001 C 
ATOM      5  C   UNL     1       1.531  13.327   3.956  1.00  0.00    -0.067 C 
ATOM      6  C   UNL     1       1.532  13.451   2.446  1.00  0.00     0.035 C 
ATOM      7  C   UNL     1       0.593  14.570   1.972  1.00  0.00     0.035 C 
ENDROOT
BRANCH   5   8
ATOM      8  C   UNL     1       2.781  12.841   4.667  1.00  0.00     0.009 C 
ATOM      9  C   UNL     1       4.006  12.923   3.748  1.00  0.00     0.012 C 
ATOM     10  C   UNL     1       3.018  13.606   5.974  1.00  0.00     0.012 C 
ENDBRANCH   5   8
TORSDOF 1
ENDMDL
MODEL 8
REMARK VINA RESULT:    -4.967      1.635      2.766
REMARK INTER + INTRA:          -5.400
REMARK INTER:                  -5.262
REMARK INTRA:                  -0.138
REMARK UNBOUND:                -0.142
REMARK SMILES CC1=CC=C(C(C)C)CC1
REMARK SMILES IDX 1 1 2 2 3 3 4 4 5 5 9 6 10 7 6 8 7 9 8 10
REMARK H PARENT
REMARK Flexibility Score: inf
ROOT
ATOM      1  C   UNL     1      -0.786  11.873   6.550  1.00  0.00     0.039 C 
ATOM      2  C   UNL     1      -0.151  12.702   5.472  1.00  0.00    -0.073 C 
ATOM      3  C   UNL     1       1.105  12.442   5.083  1.00  0.00    -0.001 C 
ATOM      4  C   UNL     1       1.749  13.240   4.022  1.00  0.00    -0.001 C 
ATOM      5  C   UNL     1       1.031  14.090   3.263  1.00  0.00    -0.067 C 
ATOM      6  C   UNL     1      -0.474  14.139   3.435  1.00  0.00     0.035 C 
ATOM      7  C   UNL     1      -0.882  13.891   4.895  1.00  0.00     0.035 C 
ENDROOT
BRANCH   5   8
ATOM      8  C   UNL     1       1.686  14.929   2.181  1.00  0.00     0.009 C 
ATOM      9  C   UNL     1       3.201  15.024   2.396  1.00  0.00     0.012 C 
ATOM     10  C   UNL     1       1.358  14.396   0.781  1.00  0.00     0.012 C 
ENDBRANCH   5   8
TORSDOF 1
ENDMDL
MODEL 9
REMARK VINA RESULT:    -4.869      2.234      3.291
REMARK INTER + INTRA:          -5.296
REMARK INTER:                  -5.150
REMARK INTRA:                  -0.145
REMARK UNBOUND:                -0.142
REMARK SMILES CC1=CC=C(C(C)C)CC1
REMARK SMILES IDX 1 1 2 2 3 3 4 4 5 5 9 6 10 7 6 8 7 9 8 10
REMARK H PARENT
REMARK Flexibility Score: inf
ROOT
ATOM      1  C   UNL     1       1.377  13.030   6.507  1.00  0.00     0.039 C 
ATOM      2  C   UNL     1       1.480  13.351   5.044  1.00  0.00    -0.073 C 
ATOM      3  C   UNL     1       0.398  13.781   4.378  1.00  0.00    -0.001 C 
ATOM      4  C   UNL     1       0.476  14.107   2.941  1.00  0.00    -0.001 C 
ATOM      5  C   UNL     1       1.665  14.204   2.316  1.00  0.00    -0.067 C 
ATOM      6  C   UNL     1       2.937  14.082   3.131  1.00  0.00     0.035 C 
ATOM      7  C   UNL     1       2.767  13.096   4.296  1.00  0.00     0.035 C 
ENDROOT
BRANCH   5   8
ATOM      8  C   UNL     1       1.756  14.521   0.834  1.00  0.00     0.009 C 
ATOM      9  C   UNL     1       1.325  13.320  -0.016  1.00  0.00     0.012 C 
ATOM     10  C   UNL     1       0.944  15.772   0.477  1.00  0.00     0.012 C 
ENDBRANCH   5   8
TORSDOF 1
ENDMDL
