MODEL 1
REMARK VINA RESULT:    -7.079      0.000      0.000
REMARK INTER + INTRA:          -7.700
REMARK INTER:                  -7.700
REMARK INTRA:                   0.000
REMARK UNBOUND:                 0.000
REMARK SMILES Cc1cc(O)c2c(c1)C(=O)c1cc(O)cc(O)c1C2=O
REMARK SMILES IDX 1 1 2 2 8 3 7 4 6 5 4 6 3 7 19 8 20 9 18 10 11 11 9 12 10 13
REMARK SMILES IDX 12 14 13 15 15 16 16 17 5 18 17 20 14 22
REMARK H PARENT 5 19 17 21 14 23
REMARK Flexibility Score: inf
ROOT
ATOM      1  C   UNL     1     -13.153  21.273  11.383  1.00  0.00     0.044 C 
ATOM      2  C   UNL     1     -14.538  21.599  11.857  1.00  0.00    -0.047 A 
ATOM      3  C   UNL     1     -14.888  21.402  13.197  1.00  0.00     0.016 A 
ATOM      4  C   UNL     1     -16.175  21.731  13.657  1.00  0.00     0.038 A 
ATOM      5  C   UNL     1     -17.126  22.268  12.761  1.00  0.00     0.076 A 
ATOM      6  C   UNL     1     -16.739  22.544  11.425  1.00  0.00     0.127 A 
ATOM      7  C   UNL     1     -15.460  22.189  10.985  1.00  0.00     0.050 A 
ATOM      8  C   UNL     1     -18.517  22.464  13.247  1.00  0.00     0.201 C 
ATOM      9  O   UNL     1     -19.481  22.375  12.440  1.00  0.00    -0.288 OA
ATOM     10  C   UNL     1     -18.780  22.576  14.705  1.00  0.00     0.076 A 
ATOM     11  C   UNL     1     -17.825  22.041  15.599  1.00  0.00     0.041 A 
ATOM     12  C   UNL     1     -16.535  21.526  15.080  1.00  0.00     0.194 C 
ATOM     13  O   UNL     1     -15.734  20.934  15.855  1.00  0.00    -0.289 OA
ATOM     14  C   UNL     1     -18.100  22.005  16.976  1.00  0.00     0.059 A 
ATOM     15  C   UNL     1     -19.306  22.508  17.472  1.00  0.00     0.120 A 
ATOM     16  C   UNL     1     -20.233  23.073  16.598  1.00  0.00     0.093 A 
ATOM     17  C   UNL     1     -19.974  23.140  15.224  1.00  0.00     0.131 A 
ENDROOT
BRANCH   6  18
ATOM     18  O   UNL     1     -17.574  23.199  10.517  1.00  0.00    -0.507 OA
ATOM     19  H   UNL     1     -17.263  23.540   9.618  1.00  0.00     0.293 HD
ENDBRANCH   6  18
BRANCH  17  20
ATOM     20  O   UNL     1     -20.908  23.802  14.425  1.00  0.00    -0.507 OA
ATOM     21  H   UNL     1     -21.656  23.332  13.933  1.00  0.00     0.293 HD
ENDBRANCH  17  20
BRANCH  15  22
ATOM     22  O   UNL     1     -19.587  22.462  18.836  1.00  0.00    -0.508 OA
ATOM     23  H   UNL     1     -20.059  21.668  19.253  1.00  0.00     0.293 HD
ENDBRANCH  15  22
TORSDOF 3
ENDMDL
MODEL 2
REMARK VINA RESULT:    -7.077      1.717      3.350
REMARK INTER + INTRA:          -7.698
REMARK INTER:                  -7.698
REMARK INTRA:                   0.000
REMARK UNBOUND:                 0.000
REMARK SMILES Cc1cc(O)c2c(c1)C(=O)c1cc(O)cc(O)c1C2=O
REMARK SMILES IDX 1 1 2 2 8 3 7 4 6 5 4 6 3 7 19 8 20 9 18 10 11 11 9 12 10 13
REMARK SMILES IDX 12 14 13 15 15 16 16 17 5 18 17 20 14 22
REMARK H PARENT 5 19 17 21 14 23
REMARK Flexibility Score: inf
ROOT
ATOM      1  C   UNL     1     -18.595  21.967   9.168  1.00  0.00     0.044 C 
ATOM      2  C   UNL     1     -18.193  22.189  10.596  1.00  0.00    -0.047 A 
ATOM      3  C   UNL     1     -19.160  22.200  11.606  1.00  0.00     0.016 A 
ATOM      4  C   UNL     1     -18.791  22.378  12.950  1.00  0.00     0.038 A 
ATOM      5  C   UNL     1     -17.431  22.547  13.289  1.00  0.00     0.076 A 
ATOM      6  C   UNL     1     -16.448  22.450  12.272  1.00  0.00     0.127 A 
ATOM      7  C   UNL     1     -16.840  22.293  10.939  1.00  0.00     0.050 A 
ATOM      8  C   UNL     1     -17.094  22.881  14.698  1.00  0.00     0.201 C 
ATOM      9  O   UNL     1     -16.072  23.575  14.950  1.00  0.00    -0.288 OA
ATOM     10  C   UNL     1     -18.055  22.558  15.783  1.00  0.00     0.076 A 
ATOM     11  C   UNL     1     -19.416  22.387  15.440  1.00  0.00     0.041 A 
ATOM     12  C   UNL     1     -19.823  22.381  14.015  1.00  0.00     0.194 C 
ATOM     13  O   UNL     1     -21.046  22.355  13.708  1.00  0.00    -0.289 OA
ATOM     14  C   UNL     1     -20.375  22.216  16.452  1.00  0.00     0.059 A 
ATOM     15  C   UNL     1     -19.993  22.200  17.796  1.00  0.00     0.120 A 
ATOM     16  C   UNL     1     -18.648  22.329  18.136  1.00  0.00     0.093 A 
ATOM     17  C   UNL     1     -17.670  22.479  17.147  1.00  0.00     0.131 A 
ENDROOT
BRANCH   6  18
ATOM     18  O   UNL     1     -15.077  22.468  12.542  1.00  0.00    -0.507 OA
ATOM     19  H   UNL     1     -14.688  22.334  13.465  1.00  0.00     0.293 HD
ENDBRANCH   6  18
BRANCH  17  20
ATOM     20  O   UNL     1     -16.336  22.509  17.558  1.00  0.00    -0.507 OA
ATOM     21  H   UNL     1     -15.565  22.205  16.979  1.00  0.00     0.293 HD
ENDBRANCH  17  20
BRANCH  15  22
ATOM     22  O   UNL     1     -20.944  22.045  18.803  1.00  0.00    -0.508 OA
ATOM     23  H   UNL     1     -21.596  21.269  18.802  1.00  0.00     0.293 HD
ENDBRANCH  15  22
TORSDOF 3
ENDMDL
MODEL 3
REMARK VINA RESULT:    -6.895      1.751      2.479
REMARK INTER + INTRA:          -7.500
REMARK INTER:                  -7.500
REMARK INTRA:                   0.000
REMARK UNBOUND:                 0.000
REMARK SMILES Cc1cc(O)c2c(c1)C(=O)c1cc(O)cc(O)c1C2=O
REMARK SMILES IDX 1 1 2 2 8 3 7 4 6 5 4 6 3 7 19 8 20 9 18 10 11 11 9 12 10 13
REMARK SMILES IDX 12 14 13 15 15 16 16 17 5 18 17 20 14 22
REMARK H PARENT 5 19 17 21 14 23
REMARK Flexibility Score: inf
ROOT
ATOM      1  C   UNL     1     -16.876  22.128   9.012  1.00  0.00     0.044 C 
ATOM      2  C   UNL     1     -17.555  22.190  10.349  1.00  0.00    -0.047 A 
ATOM      3  C   UNL     1     -16.829  21.947  11.519  1.00  0.00     0.016 A 
ATOM      4  C   UNL     1     -17.449  22.030  12.777  1.00  0.00     0.038 A 
ATOM      5  C   UNL     1     -18.819  22.362  12.865  1.00  0.00     0.076 A 
ATOM      6  C   UNL     1     -19.528  22.690  11.682  1.00  0.00     0.127 A 
ATOM      7  C   UNL     1     -18.896  22.580  10.440  1.00  0.00     0.050 A 
ATOM      8  C   UNL     1     -19.474  22.295  14.198  1.00  0.00     0.201 C 
ATOM      9  O   UNL     1     -20.699  22.013  14.281  1.00  0.00    -0.288 OA
ATOM     10  C   UNL     1     -18.649  22.375  15.431  1.00  0.00     0.076 A 
ATOM     11  C   UNL     1     -17.278  22.043  15.339  1.00  0.00     0.041 A 
ATOM     12  C   UNL     1     -16.670  21.778  14.013  1.00  0.00     0.194 C 
ATOM     13  O   UNL     1     -15.481  21.361  13.936  1.00  0.00    -0.289 OA
ATOM     14  C   UNL     1     -16.495  21.974  16.504  1.00  0.00     0.059 A 
ATOM     15  C   UNL     1     -17.060  22.243  17.754  1.00  0.00     0.120 A 
ATOM     16  C   UNL     1     -18.402  22.609  17.844  1.00  0.00     0.093 A 
ATOM     17  C   UNL     1     -19.196  22.706  16.697  1.00  0.00     0.131 A 
ENDROOT
BRANCH   6  18
ATOM     18  O   UNL     1     -20.843  23.161  11.696  1.00  0.00    -0.507 OA
ATOM     19  H   UNL     1     -21.170  23.888  12.318  1.00  0.00     0.293 HD
ENDBRANCH   6  18
BRANCH  17  20
ATOM     20  O   UNL     1     -20.505  23.167  16.857  1.00  0.00    -0.507 OA
ATOM     21  H   UNL     1     -20.961  23.255  17.755  1.00  0.00     0.293 HD
ENDBRANCH  17  20
BRANCH  15  22
ATOM     22  O   UNL     1     -16.290  22.162  18.912  1.00  0.00    -0.508 OA
ATOM     23  H   UNL     1     -15.378  21.720  18.913  1.00  0.00     0.293 HD
ENDBRANCH  15  22
TORSDOF 3
ENDMDL
MODEL 4
REMARK VINA RESULT:    -6.737      1.660      5.152
REMARK INTER + INTRA:          -7.327
REMARK INTER:                  -7.327
REMARK INTRA:                   0.000
REMARK UNBOUND:                 0.000
REMARK SMILES Cc1cc(O)c2c(c1)C(=O)c1cc(O)cc(O)c1C2=O
REMARK SMILES IDX 1 1 2 2 8 3 7 4 6 5 4 6 3 7 19 8 20 9 18 10 11 11 9 12 10 13
REMARK SMILES IDX 12 14 13 15 15 16 16 17 5 18 17 20 14 22
REMARK H PARENT 5 19 17 21 14 23
REMARK Flexibility Score: inf
ROOT
ATOM      1  C   UNL     1     -15.709  21.625  18.745  1.00  0.00     0.044 C 
ATOM      2  C   UNL     1     -16.580  21.938  17.564  1.00  0.00    -0.047 A 
ATOM      3  C   UNL     1     -16.110  21.719  16.265  1.00  0.00     0.016 A 
ATOM      4  C   UNL     1     -16.929  21.982  15.154  1.00  0.00     0.038 A 
ATOM      5  C   UNL     1     -18.239  22.471  15.346  1.00  0.00     0.076 A 
ATOM      6  C   UNL     1     -18.739  22.611  16.666  1.00  0.00     0.127 A 
ATOM      7  C   UNL     1     -17.899  22.363  17.756  1.00  0.00     0.050 A 
ATOM      8  C   UNL     1     -19.021  22.877  14.148  1.00  0.00     0.201 C 
ATOM      9  O   UNL     1     -19.879  23.795  14.241  1.00  0.00    -0.288 OA
ATOM     10  C   UNL     1     -18.660  22.335  12.813  1.00  0.00     0.076 A 
ATOM     11  C   UNL     1     -17.348  21.843  12.625  1.00  0.00     0.041 A 
ATOM     12  C   UNL     1     -16.426  21.739  13.780  1.00  0.00     0.194 C 
ATOM     13  O   UNL     1     -15.218  21.421  13.598  1.00  0.00    -0.289 OA
ATOM     14  C   UNL     1     -16.926  21.449  11.344  1.00  0.00     0.059 A 
ATOM     15  C   UNL     1     -17.800  21.526  10.255  1.00  0.00     0.120 A 
ATOM     16  C   UNL     1     -19.106  21.973  10.444  1.00  0.00     0.093 A 
ATOM     17  C   UNL     1     -19.557  22.351  11.714  1.00  0.00     0.131 A 
ENDROOT
BRANCH   6  18
ATOM     18  O   UNL     1     -20.064  22.956  16.939  1.00  0.00    -0.507 OA
ATOM     19  H   UNL     1     -20.347  23.493  17.747  1.00  0.00     0.293 HD
ENDBRANCH   6  18
BRANCH  17  20
ATOM     20  O   UNL     1     -20.903  22.700  11.842  1.00  0.00    -0.507 OA
ATOM     21  H   UNL     1     -21.296  23.556  11.476  1.00  0.00     0.293 HD
ENDBRANCH  17  20
BRANCH  15  22
ATOM     22  O   UNL     1     -17.380  21.149   8.981  1.00  0.00    -0.508 OA
ATOM     23  H   UNL     1     -16.420  21.271   8.680  1.00  0.00     0.293 HD
ENDBRANCH  15  22
TORSDOF 3
ENDMDL
MODEL 5
REMARK VINA RESULT:    -6.707      2.086      6.480
REMARK INTER + INTRA:          -7.295
REMARK INTER:                  -7.295
REMARK INTRA:                   0.000
REMARK UNBOUND:                 0.000
REMARK SMILES Cc1cc(O)c2c(c1)C(=O)c1cc(O)cc(O)c1C2=O
REMARK SMILES IDX 1 1 2 2 8 3 7 4 6 5 4 6 3 7 19 8 20 9 18 10 11 11 9 12 10 13
REMARK SMILES IDX 12 14 13 15 15 16 16 17 5 18 17 20 14 22
REMARK H PARENT 5 19 17 21 14 23
REMARK Flexibility Score: inf
ROOT
ATOM      1  C   UNL     1     -20.523  21.927  16.167  1.00  0.00     0.044 C 
ATOM      2  C   UNL     1     -19.413  22.024  15.163  1.00  0.00    -0.047 A 
ATOM      3  C   UNL     1     -19.704  22.219  13.809  1.00  0.00     0.016 A 
ATOM      4  C   UNL     1     -18.671  22.340  12.864  1.00  0.00     0.038 A 
ATOM      5  C   UNL     1     -17.324  22.266  13.282  1.00  0.00     0.076 A 
ATOM      6  C   UNL     1     -17.034  22.154  14.666  1.00  0.00     0.127 A 
ATOM      7  C   UNL     1     -18.079  22.014  15.585  1.00  0.00     0.050 A 
ATOM      8  C   UNL     1     -16.264  22.250  12.240  1.00  0.00     0.201 C 
ATOM      9  O   UNL     1     -15.182  21.640  12.455  1.00  0.00    -0.288 OA
ATOM     10  C   UNL     1     -16.553  22.787  10.886  1.00  0.00     0.076 A 
ATOM     11  C   UNL     1     -17.902  22.862  10.471  1.00  0.00     0.041 A 
ATOM     12  C   UNL     1     -18.988  22.553  11.432  1.00  0.00     0.194 C 
ATOM     13  O   UNL     1     -20.185  22.496  11.035  1.00  0.00    -0.289 OA
ATOM     14  C   UNL     1     -18.209  23.234   9.151  1.00  0.00     0.059 A 
ATOM     15  C   UNL     1     -17.189  23.546   8.248  1.00  0.00     0.120 A 
ATOM     16  C   UNL     1     -15.859  23.512   8.664  1.00  0.00     0.093 A 
ATOM     17  C   UNL     1     -15.529  23.164   9.979  1.00  0.00     0.131 A 
ENDROOT
BRANCH   6  18
ATOM     18  O   UNL     1     -15.734  22.213  15.173  1.00  0.00    -0.507 OA
ATOM     19  H   UNL     1     -14.923  21.881  14.670  1.00  0.00     0.293 HD
ENDBRANCH   6  18
BRANCH  17  20
ATOM     20  O   UNL     1     -14.184  23.242  10.347  1.00  0.00    -0.507 OA
ATOM     21  H   UNL     1     -13.447  23.524   9.716  1.00  0.00     0.293 HD
ENDBRANCH  17  20
BRANCH  15  22
ATOM     22  O   UNL     1     -17.488  23.903   6.935  1.00  0.00    -0.508 OA
ATOM     23  H   UNL     1     -16.973  23.519   6.150  1.00  0.00     0.293 HD
ENDBRANCH  15  22
TORSDOF 3
ENDMDL
MODEL 6
REMARK VINA RESULT:    -6.681      1.933      5.689
REMARK INTER + INTRA:          -7.267
REMARK INTER:                  -7.267
REMARK INTRA:                   0.000
REMARK UNBOUND:                 0.000
REMARK SMILES Cc1cc(O)c2c(c1)C(=O)c1cc(O)cc(O)c1C2=O
REMARK SMILES IDX 1 1 2 2 8 3 7 4 6 5 4 6 3 7 19 8 20 9 18 10 11 11 9 12 10 13
REMARK SMILES IDX 12 14 13 15 15 16 16 17 5 18 17 20 14 22
REMARK H PARENT 5 19 17 21 14 23
REMARK Flexibility Score: inf
ROOT
ATOM      1  C   UNL     1     -18.663  22.387  18.024  1.00  0.00     0.044 C 
ATOM      2  C   UNL     1     -18.900  22.377  16.543  1.00  0.00    -0.047 A 
ATOM      3  C   UNL     1     -17.818  22.368  15.657  1.00  0.00     0.016 A 
ATOM      4  C   UNL     1     -18.029  22.330  14.268  1.00  0.00     0.038 A 
ATOM      5  C   UNL     1     -19.346  22.298  13.758  1.00  0.00     0.076 A 
ATOM      6  C   UNL     1     -20.436  22.221  14.662  1.00  0.00     0.127 A 
ATOM      7  C   UNL     1     -20.202  22.282  16.039  1.00  0.00     0.050 A 
ATOM      8  C   UNL     1     -19.532  22.407  12.288  1.00  0.00     0.201 C 
ATOM      9  O   UNL     1     -20.576  22.942  11.826  1.00  0.00    -0.288 OA
ATOM     10  C   UNL     1     -18.414  22.059  11.374  1.00  0.00     0.076 A 
ATOM     11  C   UNL     1     -17.098  22.090  11.888  1.00  0.00     0.041 A 
ATOM     12  C   UNL     1     -16.876  22.314  13.336  1.00  0.00     0.194 C 
ATOM     13  O   UNL     1     -15.705  22.467  13.779  1.00  0.00    -0.289 OA
ATOM     14  C   UNL     1     -16.006  21.902  11.025  1.00  0.00     0.059 A 
ATOM     15  C   UNL     1     -16.211  21.669   9.662  1.00  0.00     0.120 A 
ATOM     16  C   UNL     1     -17.509  21.599   9.158  1.00  0.00     0.093 A 
ATOM     17  C   UNL     1     -18.613  21.763  10.000  1.00  0.00     0.131 A 
ENDROOT
BRANCH   6  18
ATOM     18  O   UNL     1     -21.756  22.048  14.240  1.00  0.00    -0.507 OA
ATOM     19  H   UNL     1     -22.128  22.448  13.390  1.00  0.00     0.293 HD
ENDBRANCH   6  18
BRANCH  17  20
ATOM     20  O   UNL     1     -19.881  21.587   9.441  1.00  0.00    -0.507 OA
ATOM     21  H   UNL     1     -20.478  22.352   9.158  1.00  0.00     0.293 HD
ENDBRANCH  17  20
BRANCH  15  22
ATOM     22  O   UNL     1     -15.129  21.496   8.800  1.00  0.00    -0.508 OA
ATOM     23  H   UNL     1     -14.248  21.973   8.952  1.00  0.00     0.293 HD
ENDBRANCH  15  22
TORSDOF 3
ENDMDL
MODEL 7
REMARK VINA RESULT:    -6.306      2.018      5.147
REMARK INTER + INTRA:          -6.859
REMARK INTER:                  -6.859
REMARK INTRA:                   0.000
REMARK UNBOUND:                 0.000
REMARK SMILES Cc1cc(O)c2c(c1)C(=O)c1cc(O)cc(O)c1C2=O
REMARK SMILES IDX 1 1 2 2 8 3 7 4 6 5 4 6 3 7 19 8 20 9 18 10 11 11 9 12 10 13
REMARK SMILES IDX 12 14 13 15 15 16 16 17 5 18 17 20 14 22
REMARK H PARENT 5 19 17 21 14 23
REMARK Flexibility Score: inf
ROOT
ATOM      1  C   UNL     1     -16.864  21.321  18.465  1.00  0.00     0.044 C 
ATOM      2  C   UNL     1     -16.878  21.414  16.968  1.00  0.00    -0.047 A 
ATOM      3  C   UNL     1     -18.036  21.824  16.299  1.00  0.00     0.016 A 
ATOM      4  C   UNL     1     -18.051  21.942  14.899  1.00  0.00     0.038 A 
ATOM      5  C   UNL     1     -16.887  21.646  14.156  1.00  0.00     0.076 A 
ATOM      6  C   UNL     1     -15.693  21.312  14.845  1.00  0.00     0.127 A 
ATOM      7  C   UNL     1     -15.708  21.181  16.236  1.00  0.00     0.050 A 
ATOM      8  C   UNL     1     -16.983  21.638  12.673  1.00  0.00     0.201 C 
ATOM      9  O   UNL     1     -16.238  20.875  12.000  1.00  0.00    -0.288 OA
ATOM     10  C   UNL     1     -18.077  22.385  12.000  1.00  0.00     0.076 A 
ATOM     11  C   UNL     1     -19.239  22.682  12.747  1.00  0.00     0.041 A 
ATOM     12  C   UNL     1     -19.280  22.385  14.199  1.00  0.00     0.194 C 
ATOM     13  O   UNL     1     -20.355  22.531  14.843  1.00  0.00    -0.289 OA
ATOM     14  C   UNL     1     -20.349  23.264  12.112  1.00  0.00     0.059 A 
ATOM     15  C   UNL     1     -20.307  23.566  10.747  1.00  0.00     0.120 A 
ATOM     16  C   UNL     1     -19.148  23.310  10.016  1.00  0.00     0.093 A 
ATOM     17  C   UNL     1     -18.023  22.751  10.630  1.00  0.00     0.131 A 
ENDROOT
BRANCH   6  18
ATOM     18  O   UNL     1     -14.469  21.140  14.194  1.00  0.00    -0.507 OA
ATOM     19  H   UNL     1     -14.374  20.702  13.289  1.00  0.00     0.293 HD
ENDBRANCH   6  18
BRANCH  17  20
ATOM     20  O   UNL     1     -16.870  22.609   9.855  1.00  0.00    -0.507 OA
ATOM     21  H   UNL     1     -16.197  23.350   9.715  1.00  0.00     0.293 HD
ENDBRANCH  17  20
BRANCH  15  22
ATOM     22  O   UNL     1     -21.410  24.131  10.111  1.00  0.00    -0.508 OA
ATOM     23  H   UNL     1     -22.350  24.012  10.472  1.00  0.00     0.293 HD
ENDBRANCH  15  22
TORSDOF 3
ENDMDL
MODEL 8
REMARK VINA RESULT:    -6.226      2.199      6.069
REMARK INTER + INTRA:          -6.772
REMARK INTER:                  -6.772
REMARK INTRA:                   0.000
REMARK UNBOUND:                 0.000
REMARK SMILES Cc1cc(O)c2c(c1)C(=O)c1cc(O)cc(O)c1C2=O
REMARK SMILES IDX 1 1 2 2 8 3 7 4 6 5 4 6 3 7 19 8 20 9 18 10 11 11 9 12 10 13
REMARK SMILES IDX 12 14 13 15 15 16 16 17 5 18 17 20 14 22
REMARK H PARENT 5 19 17 21 14 23
REMARK Flexibility Score: inf
ROOT
ATOM      1  C   UNL     1     -19.989  21.824  15.903  1.00  0.00     0.044 C 
ATOM      2  C   UNL     1     -19.478  22.131  14.526  1.00  0.00    -0.047 A 
ATOM      3  C   UNL     1     -18.106  22.084  14.258  1.00  0.00     0.016 A 
ATOM      4  C   UNL     1     -17.620  22.342  12.965  1.00  0.00     0.038 A 
ATOM      5  C   UNL     1     -18.523  22.651  11.923  1.00  0.00     0.076 A 
ATOM      6  C   UNL     1     -19.916  22.614  12.182  1.00  0.00     0.127 A 
ATOM      7  C   UNL     1     -20.375  22.375  13.481  1.00  0.00     0.050 A 
ATOM      8  C   UNL     1     -17.964  23.062  10.609  1.00  0.00     0.201 C 
ATOM      9  O   UNL     1     -18.609  23.859   9.875  1.00  0.00    -0.288 OA
ATOM     10  C   UNL     1     -16.573  22.686  10.248  1.00  0.00     0.076 A 
ATOM     11  C   UNL     1     -15.673  22.375  11.292  1.00  0.00     0.041 A 
ATOM     12  C   UNL     1     -16.165  22.283  12.687  1.00  0.00     0.194 C 
ATOM     13  O   UNL     1     -15.347  22.130  13.636  1.00  0.00    -0.289 OA
ATOM     14  C   UNL     1     -14.317  22.148  11.002  1.00  0.00     0.059 A 
ATOM     15  C   UNL     1     -13.853  22.214   9.686  1.00  0.00     0.120 A 
ATOM     16  C   UNL     1     -14.745  22.481   8.648  1.00  0.00     0.093 A 
ATOM     17  C   UNL     1     -16.104  22.690   8.908  1.00  0.00     0.131 A 
ENDROOT
BRANCH   6  18
ATOM     18  O   UNL     1     -20.875  22.771  11.179  1.00  0.00    -0.507 OA
ATOM     19  H   UNL     1     -21.651  22.138  11.043  1.00  0.00     0.293 HD
ENDBRANCH   6  18
BRANCH  17  20
ATOM     20  O   UNL     1     -16.950  22.860   7.811  1.00  0.00    -0.507 OA
ATOM     21  H   UNL     1     -16.675  22.671   6.857  1.00  0.00     0.293 HD
ENDBRANCH  17  20
BRANCH  15  22
ATOM     22  O   UNL     1     -12.506  22.002   9.396  1.00  0.00    -0.508 OA
ATOM     23  H   UNL     1     -12.070  21.098   9.534  1.00  0.00     0.293 HD
ENDBRANCH  15  22
TORSDOF 3
ENDMDL
MODEL 9
REMARK VINA RESULT:    -6.170      1.783      3.699
REMARK INTER + INTRA:          -6.711
REMARK INTER:                  -6.711
REMARK INTRA:                   0.000
REMARK UNBOUND:                 0.000
REMARK SMILES Cc1cc(O)c2c(c1)C(=O)c1cc(O)cc(O)c1C2=O
REMARK SMILES IDX 1 1 2 2 8 3 7 4 6 5 4 6 3 7 19 8 20 9 18 10 11 11 9 12 10 13
REMARK SMILES IDX 12 14 13 15 15 16 16 17 5 18 17 20 14 22
REMARK H PARENT 5 19 17 21 14 23
REMARK Flexibility Score: inf
ROOT
ATOM      1  C   UNL     1     -14.568  22.756   7.844  1.00  0.00     0.044 C 
ATOM      2  C   UNL     1     -15.036  22.598   9.260  1.00  0.00    -0.047 A 
ATOM      3  C   UNL     1     -16.381  22.808   9.584  1.00  0.00     0.016 A 
ATOM      4  C   UNL     1     -16.836  22.635  10.902  1.00  0.00     0.038 A 
ATOM      5  C   UNL     1     -15.930  22.243  11.912  1.00  0.00     0.076 A 
ATOM      6  C   UNL     1     -14.588  21.949  11.562  1.00  0.00     0.127 A 
ATOM      7  C   UNL     1     -14.153  22.149  10.248  1.00  0.00     0.050 A 
ATOM      8  C   UNL     1     -16.414  22.214  13.317  1.00  0.00     0.201 C 
ATOM      9  O   UNL     1     -15.611  22.442  14.262  1.00  0.00    -0.288 OA
ATOM     10  C   UNL     1     -17.870  22.104  13.594  1.00  0.00     0.076 A 
ATOM     11  C   UNL     1     -18.773  22.494  12.580  1.00  0.00     0.041 A 
ATOM     12  C   UNL     1     -18.264  22.853  11.235  1.00  0.00     0.194 C 
ATOM     13  O   UNL     1     -19.050  23.321  10.366  1.00  0.00    -0.289 OA
ATOM     14  C   UNL     1     -20.151  22.534  12.849  1.00  0.00     0.059 A 
ATOM     15  C   UNL     1     -20.638  22.177  14.110  1.00  0.00     0.120 A 
ATOM     16  C   UNL     1     -19.754  21.754  15.100  1.00  0.00     0.093 A 
ATOM     17  C   UNL     1     -18.379  21.685  14.850  1.00  0.00     0.131 A 
ENDROOT
BRANCH   6  18
ATOM     18  O   UNL     1     -13.667  21.426  12.472  1.00  0.00    -0.507 OA
ATOM     19  H   UNL     1     -13.482  20.437  12.574  1.00  0.00     0.293 HD
ENDBRANCH   6  18
BRANCH  17  20
ATOM     20  O   UNL     1     -17.566  21.164  15.860  1.00  0.00    -0.507 OA
ATOM     21  H   UNL     1     -16.583  21.380  15.953  1.00  0.00     0.293 HD
ENDBRANCH  17  20
BRANCH  15  22
ATOM     22  O   UNL     1     -22.003  22.229  14.385  1.00  0.00    -0.508 OA
ATOM     23  H   UNL     1     -22.351  22.319  15.332  1.00  0.00     0.293 HD
ENDBRANCH  15  22
TORSDOF 3
ENDMDL
