MODEL 1
REMARK VINA RESULT:    -4.424      0.000      0.000
REMARK INTER + INTRA:          -9.800
REMARK INTER:                  -8.045
REMARK INTRA:                  -1.755
REMARK UNBOUND:                -1.755
REMARK SMILES CCCCCCCCCCCCCCCC(=O)[O-]
REMARK SMILES IDX 9 1 10 2 11 3 12 4 13 5 14 6 15 7 16 8 17 9 18 10 8 11 7 12
REMARK SMILES IDX 6 13 5 14 4 15 3 16 2 17 1 18
REMARK H PARENT
REMARK Flexibility Score: inf
ROOT
ATOM      1  C   UNL     1      19.256  10.038   6.212  1.00  0.00     0.000 C 
ENDROOT
BRANCH   1   2
ATOM      2  C   UNL     1      19.899  11.090   7.129  1.00  0.00     0.000 C 
BRANCH   2   3
ATOM      3  C   UNL     1      20.723  10.461   8.264  1.00  0.00     0.000 C 
BRANCH   3   4
ATOM      4  C   UNL     1      20.629   8.929   8.286  1.00  0.00     0.000 C 
BRANCH   4   5
ATOM      5  C   UNL     1      22.026   8.297   8.381  1.00  0.00     0.000 C 
BRANCH   5   6
ATOM      6  C   UNL     1      22.036   6.808   7.989  1.00  0.00     0.006 C 
BRANCH   6   7
ATOM      7  C   UNL     1      21.799   6.545   6.494  1.00  0.00     0.053 C 
BRANCH   7   8
ATOM      8  C   UNL     1      22.992   5.921   5.837  1.00  0.00     0.041 C 
ATOM      9  O   UNL     1      23.076   5.883   4.581  1.00  0.00    -0.550 OA
ATOM     10  O   UNL     1      23.994   5.351   6.611  1.00  0.00    -0.550 OA
ENDBRANCH   7   8
ENDBRANCH   6   7
ENDBRANCH   5   6
ENDBRANCH   4   5
ENDBRANCH   3   4
ENDBRANCH   2   3
ENDBRANCH   1   2
BRANCH   1  11
ATOM     11  C   UNL     1      18.397  10.705   5.129  1.00  0.00     0.000 C 
BRANCH  11  12
ATOM     12  C   UNL     1      18.599  10.020   3.769  1.00  0.00    -0.000 C 
BRANCH  12  13
ATOM     13  C   UNL     1      17.722   8.768   3.605  1.00  0.00    -0.000 C 
BRANCH  13  14
ATOM     14  C   UNL     1      18.530   7.463   3.715  1.00  0.00    -0.000 C 
BRANCH  14  15
ATOM     15  C   UNL     1      17.827   6.415   4.605  1.00  0.00    -0.000 C 
BRANCH  15  16
ATOM     16  C   UNL     1      16.581   6.957   5.331  1.00  0.00    -0.000 C 
BRANCH  16  17
ATOM     17  C   UNL     1      16.725   7.074   6.858  1.00  0.00    -0.003 C 
ATOM     18  C   UNL     1      18.062   6.538   7.369  1.00  0.00     0.004 C 
ENDBRANCH  16  17
ENDBRANCH  15  16
ENDBRANCH  14  15
ENDBRANCH  13  14
ENDBRANCH  12  13
ENDBRANCH  11  12
ENDBRANCH   1  11
TORSDOF 14
ENDMDL
MODEL 2
REMARK VINA RESULT:    -4.370      1.312      2.536
REMARK INTER + INTRA:          -9.702
REMARK INTER:                  -7.505
REMARK INTRA:                  -2.198
REMARK UNBOUND:                -1.755
REMARK SMILES CCCCCCCCCCCCCCCC(=O)[O-]
REMARK SMILES IDX 9 1 10 2 11 3 12 4 13 5 14 6 15 7 16 8 17 9 18 10 8 11 7 12
REMARK SMILES IDX 6 13 5 14 4 15 3 16 2 17 1 18
REMARK H PARENT
REMARK Flexibility Score: inf
ROOT
ATOM      1  C   UNL     1      18.222  10.340   5.045  1.00  0.00     0.000 C 
ENDROOT
BRANCH   1   2
ATOM      2  C   UNL     1      19.222  10.233   6.207  1.00  0.00     0.000 C 
BRANCH   2   3
ATOM      3  C   UNL     1      18.622   9.543   7.442  1.00  0.00     0.000 C 
BRANCH   3   4
ATOM      4  C   UNL     1      19.229   8.156   7.699  1.00  0.00     0.000 C 
BRANCH   4   5
ATOM      5  C   UNL     1      20.740   8.160   7.423  1.00  0.00     0.000 C 
BRANCH   5   6
ATOM      6  C   UNL     1      21.192   6.970   6.556  1.00  0.00     0.006 C 
BRANCH   6   7
ATOM      7  C   UNL     1      22.573   6.407   6.925  1.00  0.00     0.053 C 
BRANCH   7   8
ATOM      8  C   UNL     1      23.109   5.493   5.866  1.00  0.00     0.041 C 
ATOM      9  O   UNL     1      23.113   5.854   4.660  1.00  0.00    -0.550 OA
ATOM     10  O   UNL     1      23.572   4.229   6.207  1.00  0.00    -0.550 OA
ENDBRANCH   7   8
ENDBRANCH   6   7
ENDBRANCH   5   6
ENDBRANCH   4   5
ENDBRANCH   3   4
ENDBRANCH   2   3
ENDBRANCH   1   2
BRANCH   1  11
ATOM     11  C   UNL     1      16.781  10.161   5.542  1.00  0.00     0.000 C 
BRANCH  11  12
ATOM     12  C   UNL     1      16.039   9.107   4.707  1.00  0.00    -0.000 C 
BRANCH  12  13
ATOM     13  C   UNL     1      16.016   7.728   5.385  1.00  0.00    -0.000 C 
BRANCH  13  14
ATOM     14  C   UNL     1      16.631   6.626   4.505  1.00  0.00    -0.000 C 
BRANCH  14  15
ATOM     15  C   UNL     1      18.173   6.604   4.591  1.00  0.00    -0.000 C 
BRANCH  15  16
ATOM     16  C   UNL     1      18.869   6.699   3.220  1.00  0.00    -0.000 C 
BRANCH  16  17
ATOM     17  C   UNL     1      18.003   7.297   2.099  1.00  0.00    -0.003 C 
ATOM     18  C   UNL     1      18.405   8.726   1.736  1.00  0.00     0.004 C 
ENDBRANCH  16  17
ENDBRANCH  15  16
ENDBRANCH  14  15
ENDBRANCH  13  14
ENDBRANCH  12  13
ENDBRANCH  11  12
ENDBRANCH   1  11
TORSDOF 14
ENDMDL
MODEL 3
REMARK VINA RESULT:    -4.330      3.188      5.542
REMARK INTER + INTRA:          -9.629
REMARK INTER:                  -7.748
REMARK INTRA:                  -1.882
REMARK UNBOUND:                -1.755
REMARK SMILES CCCCCCCCCCCCCCCC(=O)[O-]
REMARK SMILES IDX 9 1 10 2 11 3 12 4 13 5 14 6 15 7 16 8 17 9 18 10 8 11 7 12
REMARK SMILES IDX 6 13 5 14 4 15 3 16 2 17 1 18
REMARK H PARENT
REMARK Flexibility Score: inf
ROOT
ATOM      1  C   UNL     1      19.057  10.981   6.762  1.00  0.00     0.000 C 
ENDROOT
BRANCH   1   2
ATOM      2  C   UNL     1      18.507  10.914   5.329  1.00  0.00     0.000 C 
BRANCH   2   3
ATOM      3  C   UNL     1      17.012  10.560   5.286  1.00  0.00     0.000 C 
BRANCH   3   4
ATOM      4  C   UNL     1      16.526  10.209   3.872  1.00  0.00     0.000 C 
BRANCH   4   5
ATOM      5  C   UNL     1      17.565  10.625   2.819  1.00  0.00     0.000 C 
BRANCH   5   6
ATOM      6  C   UNL     1      17.308   9.984   1.442  1.00  0.00     0.006 C 
BRANCH   6   7
ATOM      7  C   UNL     1      18.058   8.663   1.209  1.00  0.00     0.053 C 
BRANCH   7   8
ATOM      8  C   UNL     1      17.190   7.632   0.555  1.00  0.00     0.041 C 
ATOM      9  O   UNL     1      16.050   7.946   0.121  1.00  0.00    -0.550 OA
ATOM     10  O   UNL     1      17.626   6.317   0.456  1.00  0.00    -0.550 OA
ENDBRANCH   7   8
ENDBRANCH   6   7
ENDBRANCH   5   6
ENDBRANCH   4   5
ENDBRANCH   3   4
ENDBRANCH   2   3
ENDBRANCH   1   2
BRANCH   1  11
ATOM     11  C   UNL     1      19.999   9.803   7.044  1.00  0.00     0.000 C 
BRANCH  11  12
ATOM     12  C   UNL     1      19.269   8.685   7.803  1.00  0.00    -0.000 C 
BRANCH  12  13
ATOM     13  C   UNL     1      19.585   7.289   7.244  1.00  0.00    -0.000 C 
BRANCH  13  14
ATOM     14  C   UNL     1      18.356   6.364   7.233  1.00  0.00    -0.000 C 
BRANCH  14  15
ATOM     15  C   UNL     1      17.035   7.148   7.391  1.00  0.00    -0.000 C 
BRANCH  15  16
ATOM     16  C   UNL     1      16.150   7.126   6.130  1.00  0.00    -0.000 C 
BRANCH  16  17
ATOM     17  C   UNL     1      16.794   6.457   4.904  1.00  0.00    -0.003 C 
ATOM     18  C   UNL     1      15.876   6.449   3.682  1.00  0.00     0.004 C 
ENDBRANCH  16  17
ENDBRANCH  15  16
ENDBRANCH  14  15
ENDBRANCH  13  14
ENDBRANCH  12  13
ENDBRANCH  11  12
ENDBRANCH   1  11
TORSDOF 14
ENDMDL
MODEL 4
REMARK VINA RESULT:    -4.324      1.647      2.467
REMARK INTER + INTRA:          -9.618
REMARK INTER:                  -7.506
REMARK INTRA:                  -2.112
REMARK UNBOUND:                -1.755
REMARK SMILES CCCCCCCCCCCCCCCC(=O)[O-]
REMARK SMILES IDX 9 1 10 2 11 3 12 4 13 5 14 6 15 7 16 8 17 9 18 10 8 11 7 12
REMARK SMILES IDX 6 13 5 14 4 15 3 16 2 17 1 18
REMARK H PARENT
REMARK Flexibility Score: inf
ROOT
ATOM      1  C   UNL     1      19.411  10.682   6.511  1.00  0.00     0.000 C 
ENDROOT
BRANCH   1   2
ATOM      2  C   UNL     1      20.027   9.641   7.458  1.00  0.00     0.000 C 
BRANCH   2   3
ATOM      3  C   UNL     1      19.186   8.357   7.553  1.00  0.00     0.000 C 
BRANCH   3   4
ATOM      4  C   UNL     1      20.007   7.090   7.276  1.00  0.00     0.000 C 
BRANCH   4   5
ATOM      5  C   UNL     1      21.508   7.412   7.220  1.00  0.00     0.000 C 
BRANCH   5   6
ATOM      6  C   UNL     1      22.324   6.328   6.491  1.00  0.00     0.006 C 
BRANCH   6   7
ATOM      7  C   UNL     1      23.387   5.642   7.363  1.00  0.00     0.053 C 
BRANCH   7   8
ATOM      8  C   UNL     1      22.887   4.360   7.954  1.00  0.00     0.041 C 
ATOM      9  O   UNL     1      21.942   4.372   8.786  1.00  0.00    -0.550 OA
ATOM     10  O   UNL     1      23.487   3.155   7.613  1.00  0.00    -0.550 OA
ENDBRANCH   7   8
ENDBRANCH   6   7
ENDBRANCH   5   6
ENDBRANCH   4   5
ENDBRANCH   3   4
ENDBRANCH   2   3
ENDBRANCH   1   2
BRANCH   1  11
ATOM     11  C   UNL     1      18.852  10.013   5.248  1.00  0.00     0.000 C 
BRANCH  11  12
ATOM     12  C   UNL     1      17.448  10.544   4.922  1.00  0.00    -0.000 C 
BRANCH  12  13
ATOM     13  C   UNL     1      16.338   9.751   5.631  1.00  0.00    -0.000 C 
BRANCH  13  14
ATOM     14  C   UNL     1      15.958   8.465   4.878  1.00  0.00    -0.000 C 
BRANCH  14  15
ATOM     15  C   UNL     1      16.194   7.199   5.729  1.00  0.00    -0.000 C 
BRANCH  15  16
ATOM     16  C   UNL     1      17.157   6.187   5.078  1.00  0.00    -0.000 C 
BRANCH  16  17
ATOM     17  C   UNL     1      17.687   6.603   3.696  1.00  0.00    -0.003 C 
ATOM     18  C   UNL     1      19.209   6.744   3.662  1.00  0.00     0.004 C 
ENDBRANCH  16  17
ENDBRANCH  15  16
ENDBRANCH  14  15
ENDBRANCH  13  14
ENDBRANCH  12  13
ENDBRANCH  11  12
ENDBRANCH   1  11
TORSDOF 14
ENDMDL
MODEL 5
REMARK VINA RESULT:    -4.190      1.680      2.943
REMARK INTER + INTRA:          -9.375
REMARK INTER:                  -8.154
REMARK INTRA:                  -1.221
REMARK UNBOUND:                -1.755
REMARK SMILES CCCCCCCCCCCCCCCC(=O)[O-]
REMARK SMILES IDX 9 1 10 2 11 3 12 4 13 5 14 6 15 7 16 8 17 9 18 10 8 11 7 12
REMARK SMILES IDX 6 13 5 14 4 15 3 16 2 17 1 18
REMARK H PARENT
REMARK Flexibility Score: inf
ROOT
ATOM      1  C   UNL     1      20.836   9.735   8.171  1.00  0.00     0.000 C 
ENDROOT
BRANCH   1   2
ATOM      2  C   UNL     1      20.603   8.333   7.587  1.00  0.00     0.000 C 
BRANCH   2   3
ATOM      3  C   UNL     1      21.804   7.397   7.796  1.00  0.00     0.000 C 
BRANCH   3   4
ATOM      4  C   UNL     1      21.978   6.392   6.649  1.00  0.00     0.000 C 
BRANCH   4   5
ATOM      5  C   UNL     1      23.375   6.514   6.022  1.00  0.00     0.000 C 
BRANCH   5   6
ATOM      6  C   UNL     1      23.778   5.266   5.214  1.00  0.00     0.006 C 
BRANCH   6   7
ATOM      7  C   UNL     1      23.380   5.317   3.731  1.00  0.00     0.053 C 
BRANCH   7   8
ATOM      8  C   UNL     1      24.551   5.079   2.826  1.00  0.00     0.041 C 
ATOM      9  O   UNL     1      25.715   5.375   3.205  1.00  0.00    -0.550 OA
ATOM     10  O   UNL     1      24.352   4.562   1.553  1.00  0.00    -0.550 OA
ENDBRANCH   7   8
ENDBRANCH   6   7
ENDBRANCH   5   6
ENDBRANCH   4   5
ENDBRANCH   3   4
ENDBRANCH   2   3
ENDBRANCH   1   2
BRANCH   1  11
ATOM     11  C   UNL     1      20.065  10.796   7.376  1.00  0.00     0.000 C 
BRANCH  11  12
ATOM     12  C   UNL     1      18.765  10.214   6.800  1.00  0.00    -0.000 C 
BRANCH  12  13
ATOM     13  C   UNL     1      18.754  10.205   5.263  1.00  0.00    -0.000 C 
BRANCH  13  14
ATOM     14  C   UNL     1      18.122   8.928   4.684  1.00  0.00    -0.000 C 
BRANCH  14  15
ATOM     15  C   UNL     1      16.596   8.877   4.915  1.00  0.00    -0.000 C 
BRANCH  15  16
ATOM     16  C   UNL     1      16.141   7.684   5.778  1.00  0.00    -0.000 C 
BRANCH  16  17
ATOM     17  C   UNL     1      17.286   6.877   6.412  1.00  0.00    -0.003 C 
ATOM     18  C   UNL     1      17.302   6.969   7.938  1.00  0.00     0.004 C 
ENDBRANCH  16  17
ENDBRANCH  15  16
ENDBRANCH  14  15
ENDBRANCH  13  14
ENDBRANCH  12  13
ENDBRANCH  11  12
ENDBRANCH   1  11
TORSDOF 14
ENDMDL
MODEL 6
REMARK VINA RESULT:    -4.151      1.503      3.118
REMARK INTER + INTRA:          -9.303
REMARK INTER:                  -7.586
REMARK INTRA:                  -1.717
REMARK UNBOUND:                -1.755
REMARK SMILES CCCCCCCCCCCCCCCC(=O)[O-]
REMARK SMILES IDX 9 1 10 2 11 3 12 4 13 5 14 6 15 7 16 8 17 9 18 10 8 11 7 12
REMARK SMILES IDX 6 13 5 14 4 15 3 16 2 17 1 18
REMARK H PARENT
REMARK Flexibility Score: inf
ROOT
ATOM      1  C   UNL     1      20.035   9.803   7.828  1.00  0.00     0.000 C 
ENDROOT
BRANCH   1   2
ATOM      2  C   UNL     1      21.071   8.685   8.020  1.00  0.00     0.000 C 
BRANCH   2   3
ATOM      3  C   UNL     1      20.976   7.598   6.938  1.00  0.00     0.000 C 
BRANCH   3   4
ATOM      4  C   UNL     1      21.892   6.398   7.221  1.00  0.00     0.000 C 
BRANCH   4   5
ATOM      5  C   UNL     1      23.247   6.566   6.517  1.00  0.00     0.000 C 
BRANCH   5   6
ATOM      6  C   UNL     1      23.558   5.416   5.540  1.00  0.00     0.006 C 
BRANCH   6   7
ATOM      7  C   UNL     1      22.930   5.582   4.147  1.00  0.00     0.053 C 
BRANCH   7   8
ATOM      8  C   UNL     1      23.794   5.003   3.069  1.00  0.00     0.041 C 
ATOM      9  O   UNL     1      25.009   5.326   2.988  1.00  0.00    -0.550 OA
ATOM     10  O   UNL     1      23.251   4.133   2.133  1.00  0.00    -0.550 OA
ENDBRANCH   7   8
ENDBRANCH   6   7
ENDBRANCH   5   6
ENDBRANCH   4   5
ENDBRANCH   3   4
ENDBRANCH   2   3
ENDBRANCH   1   2
BRANCH   1  11
ATOM     11  C   UNL     1      19.342   9.681   6.464  1.00  0.00     0.000 C 
BRANCH  11  12
ATOM     12  C   UNL     1      17.828   9.484   6.634  1.00  0.00    -0.000 C 
BRANCH  12  13
ATOM     13  C   UNL     1      17.487   8.398   7.667  1.00  0.00    -0.000 C 
BRANCH  13  14
ATOM     14  C   UNL     1      16.939   7.116   7.017  1.00  0.00    -0.000 C 
BRANCH  14  15
ATOM     15  C   UNL     1      16.820   7.244   5.483  1.00  0.00    -0.000 C 
BRANCH  15  16
ATOM     16  C   UNL     1      17.683   6.230   4.709  1.00  0.00    -0.000 C 
BRANCH  16  17
ATOM     17  C   UNL     1      18.904   6.836   3.996  1.00  0.00    -0.003 C 
ATOM     18  C   UNL     1      18.555   8.074   3.171  1.00  0.00     0.004 C 
ENDBRANCH  16  17
ENDBRANCH  15  16
ENDBRANCH  14  15
ENDBRANCH  13  14
ENDBRANCH  12  13
ENDBRANCH  11  12
ENDBRANCH   1  11
TORSDOF 14
ENDMDL
MODEL 7
REMARK VINA RESULT:    -4.143      1.575      2.886
REMARK INTER + INTRA:          -9.289
REMARK INTER:                  -7.774
REMARK INTRA:                  -1.515
REMARK UNBOUND:                -1.755
REMARK SMILES CCCCCCCCCCCCCCCC(=O)[O-]
REMARK SMILES IDX 9 1 10 2 11 3 12 4 13 5 14 6 15 7 16 8 17 9 18 10 8 11 7 12
REMARK SMILES IDX 6 13 5 14 4 15 3 16 2 17 1 18
REMARK H PARENT
REMARK Flexibility Score: inf
ROOT
ATOM      1  C   UNL     1      19.291   8.689   7.858  1.00  0.00     0.000 C 
ENDROOT
BRANCH   1   2
ATOM      2  C   UNL     1      19.574   7.316   7.230  1.00  0.00     0.000 C 
BRANCH   2   3
ATOM      3  C   UNL     1      20.968   7.236   6.587  1.00  0.00     0.000 C 
BRANCH   3   4
ATOM      4  C   UNL     1      22.080   6.977   7.613  1.00  0.00     0.000 C 
BRANCH   4   5
ATOM      5  C   UNL     1      23.346   6.445   6.925  1.00  0.00     0.000 C 
BRANCH   5   6
ATOM      6  C   UNL     1      23.133   6.150   5.428  1.00  0.00     0.006 C 
BRANCH   6   7
ATOM      7  C   UNL     1      24.189   5.221   4.809  1.00  0.00     0.053 C 
BRANCH   7   8
ATOM      8  C   UNL     1      24.038   5.109   3.323  1.00  0.00     0.041 C 
ATOM      9  O   UNL     1      22.892   5.100   2.802  1.00  0.00    -0.550 OA
ATOM     10  O   UNL     1      25.162   4.982   2.517  1.00  0.00    -0.550 OA
ENDBRANCH   7   8
ENDBRANCH   6   7
ENDBRANCH   5   6
ENDBRANCH   4   5
ENDBRANCH   3   4
ENDBRANCH   2   3
ENDBRANCH   1   2
BRANCH   1  11
ATOM     11  C   UNL     1      19.843   9.820   6.980  1.00  0.00     0.000 C 
BRANCH  11  12
ATOM     12  C   UNL     1      18.704  10.598   6.305  1.00  0.00    -0.000 C 
BRANCH  12  13
ATOM     13  C   UNL     1      18.620  10.327   4.794  1.00  0.00    -0.000 C 
BRANCH  13  14
ATOM     14  C   UNL     1      17.769   9.089   4.463  1.00  0.00    -0.000 C 
BRANCH  14  15
ATOM     15  C   UNL     1      16.557   8.943   5.409  1.00  0.00    -0.000 C 
BRANCH  15  16
ATOM     16  C   UNL     1      16.197   7.480   5.731  1.00  0.00    -0.000 C 
BRANCH  16  17
ATOM     17  C   UNL     1      16.756   6.447   4.738  1.00  0.00    -0.003 C 
ATOM     18  C   UNL     1      15.875   6.276   3.501  1.00  0.00     0.004 C 
ENDBRANCH  16  17
ENDBRANCH  15  16
ENDBRANCH  14  15
ENDBRANCH  13  14
ENDBRANCH  12  13
ENDBRANCH  11  12
ENDBRANCH   1  11
TORSDOF 14
ENDMDL
MODEL 8
REMARK VINA RESULT:    -4.105      2.176      5.195
REMARK INTER + INTRA:          -9.221
REMARK INTER:                  -7.736
REMARK INTRA:                  -1.484
REMARK UNBOUND:                -1.755
REMARK SMILES CCCCCCCCCCCCCCCC(=O)[O-]
REMARK SMILES IDX 9 1 10 2 11 3 12 4 13 5 14 6 15 7 16 8 17 9 18 10 8 11 7 12
REMARK SMILES IDX 6 13 5 14 4 15 3 16 2 17 1 18
REMARK H PARENT
REMARK Flexibility Score: inf
ROOT
ATOM      1  C   UNL     1      19.214  10.637   6.379  1.00  0.00     0.000 C 
ENDROOT
BRANCH   1   2
ATOM      2  C   UNL     1      17.916  10.484   5.570  1.00  0.00     0.000 C 
BRANCH   2   3
ATOM      3  C   UNL     1      16.837   9.694   6.327  1.00  0.00     0.000 C 
BRANCH   3   4
ATOM      4  C   UNL     1      16.269   8.529   5.505  1.00  0.00     0.000 C 
BRANCH   4   5
ATOM      5  C   UNL     1      16.595   7.182   6.167  1.00  0.00     0.000 C 
BRANCH   5   6
ATOM      6  C   UNL     1      17.434   6.259   5.263  1.00  0.00     0.006 C 
BRANCH   6   7
ATOM      7  C   UNL     1      18.741   6.888   4.755  1.00  0.00     0.053 C 
BRANCH   7   8
ATOM      8  C   UNL     1      18.758   7.021   3.264  1.00  0.00     0.041 C 
ATOM      9  O   UNL     1      18.605   8.150   2.726  1.00  0.00    -0.550 OA
ATOM     10  O   UNL     1      18.910   5.894   2.466  1.00  0.00    -0.550 OA
ENDBRANCH   7   8
ENDBRANCH   6   7
ENDBRANCH   5   6
ENDBRANCH   4   5
ENDBRANCH   3   4
ENDBRANCH   2   3
ENDBRANCH   1   2
BRANCH   1  11
ATOM     11  C   UNL     1      19.398   9.461   7.348  1.00  0.00     0.000 C 
BRANCH  11  12
ATOM     12  C   UNL     1      20.515   9.754   8.361  1.00  0.00    -0.000 C 
BRANCH  12  13
ATOM     13  C   UNL     1      21.581   8.647   8.399  1.00  0.00    -0.000 C 
BRANCH  13  14
ATOM     14  C   UNL     1      21.252   7.478   7.454  1.00  0.00    -0.000 C 
BRANCH  14  15
ATOM     15  C   UNL     1      22.435   6.497   7.307  1.00  0.00    -0.000 C 
BRANCH  15  16
ATOM     16  C   UNL     1      22.758   6.133   5.845  1.00  0.00    -0.000 C 
BRANCH  16  17
ATOM     17  C   UNL     1      23.970   5.204   5.667  1.00  0.00    -0.003 C 
ATOM     18  C   UNL     1      23.677   3.761   6.078  1.00  0.00     0.004 C 
ENDBRANCH  16  17
ENDBRANCH  15  16
ENDBRANCH  14  15
ENDBRANCH  13  14
ENDBRANCH  12  13
ENDBRANCH  11  12
ENDBRANCH   1  11
TORSDOF 14
ENDMDL
MODEL 9
REMARK VINA RESULT:    -4.012      1.579      3.330
REMARK INTER + INTRA:          -9.050
REMARK INTER:                  -7.230
REMARK INTRA:                  -1.821
REMARK UNBOUND:                -1.755
REMARK SMILES CCCCCCCCCCCCCCCC(=O)[O-]
REMARK SMILES IDX 9 1 10 2 11 3 12 4 13 5 14 6 15 7 16 8 17 9 18 10 8 11 7 12
REMARK SMILES IDX 6 13 5 14 4 15 3 16 2 17 1 18
REMARK H PARENT
REMARK Flexibility Score: inf
ROOT
ATOM      1  C   UNL     1      19.727   7.192   6.813  1.00  0.00     0.000 C 
ENDROOT
BRANCH   1   2
ATOM      2  C   UNL     1      20.643   8.263   7.423  1.00  0.00     0.000 C 
BRANCH   2   3
ATOM      3  C   UNL     1      21.952   7.677   7.977  1.00  0.00     0.000 C 
BRANCH   3   4
ATOM      4  C   UNL     1      22.063   6.162   7.756  1.00  0.00     0.000 C 
BRANCH   4   5
ATOM      5  C   UNL     1      23.450   5.789   7.211  1.00  0.00     0.000 C 
BRANCH   5   6
ATOM      6  C   UNL     1      23.379   4.953   5.919  1.00  0.00     0.006 C 
BRANCH   6   7
ATOM      7  C   UNL     1      23.062   5.767   4.656  1.00  0.00     0.053 C 
BRANCH   7   8
ATOM      8  C   UNL     1      23.673   5.163   3.429  1.00  0.00     0.041 C 
ATOM      9  O   UNL     1      24.925   5.116   3.302  1.00  0.00    -0.550 OA
ATOM     10  O   UNL     1      22.860   4.682   2.411  1.00  0.00    -0.550 OA
ENDBRANCH   7   8
ENDBRANCH   6   7
ENDBRANCH   5   6
ENDBRANCH   4   5
ENDBRANCH   3   4
ENDBRANCH   2   3
ENDBRANCH   1   2
BRANCH   1  11
ATOM     11  C   UNL     1      18.415   7.077   7.601  1.00  0.00     0.000 C 
BRANCH  11  12
ATOM     12  C   UNL     1      17.393   6.217   6.843  1.00  0.00    -0.000 C 
BRANCH  12  13
ATOM     13  C   UNL     1      17.544   6.329   5.318  1.00  0.00    -0.000 C 
BRANCH  13  14
ATOM     14  C   UNL     1      16.309   6.952   4.645  1.00  0.00    -0.000 C 
BRANCH  14  15
ATOM     15  C   UNL     1      16.348   8.496   4.672  1.00  0.00    -0.000 C 
BRANCH  15  16
ATOM     16  C   UNL     1      17.561   9.097   3.937  1.00  0.00    -0.000 C 
BRANCH  16  17
ATOM     17  C   UNL     1      18.476   9.969   4.813  1.00  0.00    -0.003 C 
ATOM     18  C   UNL     1      17.788  10.457   6.088  1.00  0.00     0.004 C 
ENDBRANCH  16  17
ENDBRANCH  15  16
ENDBRANCH  14  15
ENDBRANCH  13  14
ENDBRANCH  12  13
ENDBRANCH  11  12
ENDBRANCH   1  11
TORSDOF 14
ENDMDL
