MODEL 1
REMARK VINA RESULT:    -4.799      0.000      0.000
REMARK INTER + INTRA:          -7.490
REMARK INTER:                  -7.043
REMARK INTRA:                  -0.447
REMARK UNBOUND:                -0.447
REMARK SMILES O=C([O-])CCCCCCCC(=O)[O-]
REMARK SMILES IDX 7 1 6 2 5 3 4 4 2 5 1 6 3 7 8 8 9 9 10 10 11 11 12 12 13 13
REMARK H PARENT
REMARK Flexibility Score: inf
ROOT
ATOM      1  C   UNL     1      10.740 -13.872 -23.231  1.00  0.00     0.000 C 
ENDROOT
BRANCH   1   2
ATOM      2  C   UNL     1       9.607 -13.920 -24.263  1.00  0.00     0.000 C 
BRANCH   2   3
ATOM      3  C   UNL     1       9.005 -12.528 -24.485  1.00  0.00     0.006 C 
BRANCH   3   4
ATOM      4  C   UNL     1       9.880 -11.443 -23.851  1.00  0.00     0.053 C 
BRANCH   4   5
ATOM      5  C   UNL     1       9.752 -10.158 -24.607  1.00  0.00     0.041 C 
ATOM      6  O   UNL     1       9.384  -9.109 -24.016  1.00  0.00    -0.550 OA
ATOM      7  O   UNL     1       9.991 -10.130 -25.975  1.00  0.00    -0.550 OA
ENDBRANCH   4   5
ENDBRANCH   3   4
ENDBRANCH   2   3
ENDBRANCH   1   2
BRANCH   1   8
ATOM      8  C   UNL     1      11.128 -15.284 -22.773  1.00  0.00     0.000 C 
BRANCH   8   9
ATOM      9  C   UNL     1      10.280 -15.725 -21.572  1.00  0.00     0.006 C 
BRANCH   9  10
ATOM     10  C   UNL     1       9.773 -14.533 -20.750  1.00  0.00     0.053 C 
BRANCH  10  11
ATOM     11  C   UNL     1      10.589 -14.323 -19.512  1.00  0.00     0.041 C 
ATOM     12  O   UNL     1      10.876 -13.157 -19.131  1.00  0.00    -0.550 OA
ATOM     13  O   UNL     1      11.059 -15.417 -18.795  1.00  0.00    -0.550 OA
ENDBRANCH  10  11
ENDBRANCH   9  10
ENDBRANCH   8   9
ENDBRANCH   1   8
TORSDOF 8
ENDMDL
MODEL 2
REMARK VINA RESULT:    -4.782      0.389      5.600
REMARK INTER + INTRA:          -7.465
REMARK INTER:                  -6.942
REMARK INTRA:                  -0.523
REMARK UNBOUND:                -0.447
REMARK SMILES O=C([O-])CCCCCCCC(=O)[O-]
REMARK SMILES IDX 7 1 6 2 5 3 4 4 2 5 1 6 3 7 8 8 9 9 10 10 11 11 12 12 13 13
REMARK H PARENT
REMARK Flexibility Score: inf
ROOT
ATOM      1  C   UNL     1      10.981 -14.352 -23.160  1.00  0.00     0.000 C 
ENDROOT
BRANCH   1   2
ATOM      2  C   UNL     1      10.962 -15.744 -22.519  1.00  0.00     0.000 C 
BRANCH   2   3
ATOM      3  C   UNL     1       9.950 -15.808 -21.369  1.00  0.00     0.006 C 
BRANCH   3   4
ATOM      4  C   UNL     1       9.742 -14.427 -20.743  1.00  0.00     0.053 C 
BRANCH   4   5
ATOM      5  C   UNL     1      10.577 -14.280 -19.509  1.00  0.00     0.041 C 
ATOM      6  O   UNL     1      10.889 -13.136 -19.088  1.00  0.00    -0.550 OA
ATOM      7  O   UNL     1      11.051 -15.409 -18.853  1.00  0.00    -0.550 OA
ENDBRANCH   4   5
ENDBRANCH   3   4
ENDBRANCH   2   3
ENDBRANCH   1   2
BRANCH   1   8
ATOM      8  C   UNL     1       9.999 -14.274 -24.335  1.00  0.00     0.000 C 
BRANCH   8   9
ATOM      9  C   UNL     1       9.223 -12.949 -24.317  1.00  0.00     0.006 C 
BRANCH   9  10
ATOM     10  C   UNL     1      10.067 -11.790 -23.769  1.00  0.00     0.053 C 
BRANCH  10  11
ATOM     11  C   UNL     1       9.870 -10.535 -24.561  1.00  0.00     0.041 C 
ATOM     12  O   UNL     1       9.435  -9.494 -24.002  1.00  0.00    -0.550 OA
ATOM     13  O   UNL     1      10.136 -10.523 -25.925  1.00  0.00    -0.550 OA
ENDBRANCH  10  11
ENDBRANCH   9  10
ENDBRANCH   8   9
ENDBRANCH   1   8
TORSDOF 8
ENDMDL
MODEL 3
REMARK VINA RESULT:    -4.780      1.747      5.160
REMARK INTER + INTRA:          -7.462
REMARK INTER:                  -6.836
REMARK INTRA:                  -0.627
REMARK UNBOUND:                -0.447
REMARK SMILES O=C([O-])CCCCCCCC(=O)[O-]
REMARK SMILES IDX 7 1 6 2 5 3 4 4 2 5 1 6 3 7 8 8 9 9 10 10 11 11 12 12 13 13
REMARK H PARENT
REMARK Flexibility Score: inf
ROOT
ATOM      1  C   UNL     1      11.101 -16.343 -23.610  1.00  0.00     0.000 C 
ENDROOT
BRANCH   1   2
ATOM      2  C   UNL     1      10.126 -16.930 -22.582  1.00  0.00     0.000 C 
BRANCH   2   3
ATOM      3  C   UNL     1      10.563 -16.592 -21.152  1.00  0.00     0.006 C 
BRANCH   3   4
ATOM      4  C   UNL     1       9.967 -15.258 -20.696  1.00  0.00     0.053 C 
BRANCH   4   5
ATOM      5  C   UNL     1      10.691 -14.744 -19.491  1.00  0.00     0.041 C 
ATOM      6  O   UNL     1      11.233 -15.548 -18.688  1.00  0.00    -0.550 OA
ATOM      7  O   UNL     1      10.724 -13.381 -19.229  1.00  0.00    -0.550 OA
ENDBRANCH   4   5
ENDBRANCH   3   4
ENDBRANCH   2   3
ENDBRANCH   1   2
BRANCH   1   8
ATOM      8  C   UNL     1      10.353 -15.826 -24.844  1.00  0.00     0.000 C 
BRANCH   8   9
ATOM      9  C   UNL     1       9.604 -14.523 -24.528  1.00  0.00     0.006 C 
BRANCH   9  10
ATOM     10  C   UNL     1      10.503 -13.490 -23.836  1.00  0.00     0.053 C 
BRANCH  10  11
ATOM     11  C   UNL     1       9.702 -12.455 -23.108  1.00  0.00     0.041 C 
ATOM     12  O   UNL     1      10.194 -11.856 -22.115  1.00  0.00    -0.550 OA
ATOM     13  O   UNL     1       8.401 -12.174 -23.506  1.00  0.00    -0.550 OA
ENDBRANCH  10  11
ENDBRANCH   9  10
ENDBRANCH   8   9
ENDBRANCH   1   8
TORSDOF 8
ENDMDL
MODEL 4
REMARK VINA RESULT:    -4.661      1.116      1.626
REMARK INTER + INTRA:          -7.287
REMARK INTER:                  -6.924
REMARK INTRA:                  -0.364
REMARK UNBOUND:                -0.447
REMARK SMILES O=C([O-])CCCCCCCC(=O)[O-]
REMARK SMILES IDX 7 1 6 2 5 3 4 4 2 5 1 6 3 7 8 8 9 9 10 10 11 11 12 12 13 13
REMARK H PARENT
REMARK Flexibility Score: inf
ROOT
ATOM      1  C   UNL     1       9.434 -13.839 -23.882  1.00  0.00     0.000 C 
ENDROOT
BRANCH   1   2
ATOM      2  C   UNL     1      10.138 -12.477 -23.893  1.00  0.00     0.000 C 
BRANCH   2   3
ATOM      3  C   UNL     1       9.151 -11.349 -24.215  1.00  0.00     0.006 C 
BRANCH   3   4
ATOM      4  C   UNL     1       9.737 -10.384 -25.248  1.00  0.00     0.053 C 
BRANCH   4   5
ATOM      5  C   UNL     1       9.397  -8.969 -24.895  1.00  0.00     0.041 C 
ATOM      6  O   UNL     1       8.809  -8.711 -23.813  1.00  0.00    -0.550 OA
ATOM      7  O   UNL     1       9.686  -7.943 -25.785  1.00  0.00    -0.550 OA
ENDBRANCH   4   5
ENDBRANCH   3   4
ENDBRANCH   2   3
ENDBRANCH   1   2
BRANCH   1   8
ATOM      8  C   UNL     1      10.441 -14.978 -23.682  1.00  0.00     0.000 C 
BRANCH   8   9
ATOM      9  C   UNL     1      10.986 -14.985 -22.247  1.00  0.00     0.006 C 
BRANCH   9  10
ATOM     10  C   UNL     1       9.880 -14.770 -21.205  1.00  0.00     0.053 C 
BRANCH  10  11
ATOM     11  C   UNL     1      10.252 -13.718 -20.206  1.00  0.00     0.041 C 
ATOM     12  O   UNL     1      10.784 -14.043 -19.112  1.00  0.00    -0.550 OA
ATOM     13  O   UNL     1       9.983 -12.381 -20.471  1.00  0.00    -0.550 OA
ENDBRANCH  10  11
ENDBRANCH   9  10
ENDBRANCH   8   9
ENDBRANCH   1   8
TORSDOF 8
ENDMDL
MODEL 5
REMARK VINA RESULT:    -4.599      0.826      6.136
REMARK INTER + INTRA:          -7.196
REMARK INTER:                  -6.845
REMARK INTRA:                  -0.351
REMARK UNBOUND:                -0.447
REMARK SMILES O=C([O-])CCCCCCCC(=O)[O-]
REMARK SMILES IDX 7 1 6 2 5 3 4 4 2 5 1 6 3 7 8 8 9 9 10 10 11 11 12 12 13 13
REMARK H PARENT
REMARK Flexibility Score: inf
ROOT
ATOM      1  C   UNL     1       9.652 -14.033 -23.965  1.00  0.00     0.000 C 
ENDROOT
BRANCH   1   2
ATOM      2  C   UNL     1      10.706 -13.757 -22.886  1.00  0.00     0.000 C 
BRANCH   2   3
ATOM      3  C   UNL     1      10.887 -14.971 -21.968  1.00  0.00     0.006 C 
BRANCH   3   4
ATOM      4  C   UNL     1       9.911 -14.919 -20.789  1.00  0.00     0.053 C 
BRANCH   4   5
ATOM      5  C   UNL     1      10.632 -14.562 -19.528  1.00  0.00     0.041 C 
ATOM      6  O   UNL     1      11.059 -15.467 -18.765  1.00  0.00    -0.550 OA
ATOM      7  O   UNL     1      10.790 -13.229 -19.171  1.00  0.00    -0.550 OA
ENDBRANCH   4   5
ENDBRANCH   3   4
ENDBRANCH   2   3
ENDBRANCH   1   2
BRANCH   1   8
ATOM      8  C   UNL     1       8.872 -12.759 -24.312  1.00  0.00     0.000 C 
BRANCH   8   9
ATOM      9  C   UNL     1       9.796 -11.532 -24.313  1.00  0.00     0.006 C 
BRANCH   9  10
ATOM     10  C   UNL     1       9.438 -10.537 -25.424  1.00  0.00     0.053 C 
BRANCH  10  11
ATOM     11  C   UNL     1       9.243  -9.152 -24.889  1.00  0.00     0.041 C 
ATOM     12  O   UNL     1       9.891  -8.188 -25.374  1.00  0.00    -0.550 OA
ATOM     13  O   UNL     1       8.368  -8.930 -23.832  1.00  0.00    -0.550 OA
ENDBRANCH  10  11
ENDBRANCH   9  10
ENDBRANCH   8   9
ENDBRANCH   1   8
TORSDOF 8
ENDMDL
MODEL 6
REMARK VINA RESULT:    -4.541      3.448      5.724
REMARK INTER + INTRA:          -7.112
REMARK INTER:                  -6.562
REMARK INTRA:                  -0.550
REMARK UNBOUND:                -0.447
REMARK SMILES O=C([O-])CCCCCCCC(=O)[O-]
REMARK SMILES IDX 7 1 6 2 5 3 4 4 2 5 1 6 3 7 8 8 9 9 10 10 11 11 12 12 13 13
REMARK H PARENT
REMARK Flexibility Score: inf
ROOT
ATOM      1  C   UNL     1      10.650 -15.213 -24.107  1.00  0.00     0.000 C 
ENDROOT
BRANCH   1   2
ATOM      2  C   UNL     1      11.185 -14.877 -22.710  1.00  0.00     0.000 C 
BRANCH   2   3
ATOM      3  C   UNL     1      10.463 -15.694 -21.632  1.00  0.00     0.006 C 
BRANCH   3   4
ATOM      4  C   UNL     1       9.715 -14.779 -20.658  1.00  0.00     0.053 C 
BRANCH   4   5
ATOM      5  C   UNL     1      10.584 -14.435 -19.490  1.00  0.00     0.041 C 
ATOM      6  O   UNL     1      10.797 -13.230 -19.193  1.00  0.00    -0.550 OA
ATOM      7  O   UNL     1      11.198 -15.444 -18.759  1.00  0.00    -0.550 OA
ENDBRANCH   4   5
ENDBRANCH   3   4
ENDBRANCH   2   3
ENDBRANCH   1   2
BRANCH   1   8
ATOM      8  C   UNL     1       9.543 -16.272 -24.032  1.00  0.00     0.000 C 
BRANCH   8   9
ATOM      9  C   UNL     1       9.910 -17.510 -24.864  1.00  0.00     0.006 C 
BRANCH   9  10
ATOM     10  C   UNL     1       9.794 -18.809 -24.054  1.00  0.00     0.053 C 
BRANCH  10  11
ATOM     11  C   UNL     1      11.132 -19.436 -23.814  1.00  0.00     0.041 C 
ATOM     12  O   UNL     1      11.243 -20.690 -23.759  1.00  0.00    -0.550 OA
ATOM     13  O   UNL     1      12.251 -18.637 -23.620  1.00  0.00    -0.550 OA
ENDBRANCH  10  11
ENDBRANCH   9  10
ENDBRANCH   8   9
ENDBRANCH   1   8
TORSDOF 8
ENDMDL
MODEL 7
REMARK VINA RESULT:    -4.497      3.278      5.409
REMARK INTER + INTRA:          -7.047
REMARK INTER:                  -6.599
REMARK INTRA:                  -0.448
REMARK UNBOUND:                -0.447
REMARK SMILES O=C([O-])CCCCCCCC(=O)[O-]
REMARK SMILES IDX 7 1 6 2 5 3 4 4 2 5 1 6 3 7 8 8 9 9 10 10 11 11 12 12 13 13
REMARK H PARENT
REMARK Flexibility Score: inf
ROOT
ATOM      1  C   UNL     1      10.728 -15.584 -23.225  1.00  0.00     0.000 C 
ENDROOT
BRANCH   1   2
ATOM      2  C   UNL     1      10.630 -16.104 -24.664  1.00  0.00     0.000 C 
BRANCH   2   3
ATOM      3  C   UNL     1       9.718 -17.334 -24.744  1.00  0.00     0.006 C 
BRANCH   3   4
ATOM      4  C   UNL     1      10.007 -18.308 -23.599  1.00  0.00     0.053 C 
BRANCH   4   5
ATOM      5  C   UNL     1      11.181 -19.175 -23.932  1.00  0.00     0.041 C 
ATOM      6  O   UNL     1      12.329 -18.872 -23.515  1.00  0.00    -0.550 OA
ATOM      7  O   UNL     1      11.014 -20.289 -24.744  1.00  0.00    -0.550 OA
ENDBRANCH   4   5
ENDBRANCH   3   4
ENDBRANCH   2   3
ENDBRANCH   1   2
BRANCH   1   8
ATOM      8  C   UNL     1      10.650 -14.053 -23.186  1.00  0.00     0.000 C 
BRANCH   8   9
ATOM      9  C   UNL     1      10.068 -13.566 -21.851  1.00  0.00     0.006 C 
BRANCH   9  10
ATOM     10  C   UNL     1       9.912 -14.705 -20.835  1.00  0.00     0.053 C 
BRANCH  10  11
ATOM     11  C   UNL     1      10.623 -14.407 -19.551  1.00  0.00     0.041 C 
ATOM     12  O   UNL     1      10.771 -13.216 -19.170  1.00  0.00    -0.550 OA
ATOM     13  O   UNL     1      11.151 -15.443 -18.790  1.00  0.00    -0.550 OA
ENDBRANCH  10  11
ENDBRANCH   9  10
ENDBRANCH   8   9
ENDBRANCH   1   8
TORSDOF 8
ENDMDL
MODEL 8
REMARK VINA RESULT:    -4.443      3.391      5.226
REMARK INTER + INTRA:          -6.968
REMARK INTER:                  -6.343
REMARK INTRA:                  -0.625
REMARK UNBOUND:                -0.447
REMARK SMILES O=C([O-])CCCCCCCC(=O)[O-]
REMARK SMILES IDX 7 1 6 2 5 3 4 4 2 5 1 6 3 7 8 8 9 9 10 10 11 11 12 12 13 13
REMARK H PARENT
REMARK Flexibility Score: inf
ROOT
ATOM      1  C   UNL     1      10.806 -15.530 -23.789  1.00  0.00     0.000 C 
ENDROOT
BRANCH   1   2
ATOM      2  C   UNL     1      10.493 -14.038 -23.623  1.00  0.00     0.000 C 
BRANCH   2   3
ATOM      3  C   UNL     1       9.472 -13.810 -22.503  1.00  0.00     0.006 C 
BRANCH   3   4
ATOM      4  C   UNL     1      10.124 -13.136 -21.294  1.00  0.00     0.053 C 
BRANCH   4   5
ATOM      5  C   UNL     1      10.087 -14.043 -20.105  1.00  0.00     0.041 C 
ATOM      6  O   UNL     1      10.788 -13.787 -19.091  1.00  0.00    -0.550 OA
ATOM      7  O   UNL     1       9.317 -15.199 -20.136  1.00  0.00    -0.550 OA
ENDBRANCH   4   5
ENDBRANCH   3   4
ENDBRANCH   2   3
ENDBRANCH   1   2
BRANCH   1   8
ATOM      8  C   UNL     1       9.558 -16.386 -23.535  1.00  0.00     0.000 C 
BRANCH   8   9
ATOM      9  C   UNL     1       9.901 -17.619 -22.687  1.00  0.00     0.006 C 
BRANCH   9  10
ATOM     10  C   UNL     1      11.340 -18.100 -22.915  1.00  0.00     0.053 C 
BRANCH  10  11
ATOM     11  C   UNL     1      11.407 -19.186 -23.943  1.00  0.00     0.041 C 
ATOM     12  O   UNL     1      11.646 -18.906 -25.147  1.00  0.00    -0.550 OA
ATOM     13  O   UNL     1      11.175 -20.507 -23.577  1.00  0.00    -0.550 OA
ENDBRANCH  10  11
ENDBRANCH   9  10
ENDBRANCH   8   9
ENDBRANCH   1   8
TORSDOF 8
ENDMDL
MODEL 9
REMARK VINA RESULT:    -4.333      3.454      5.902
REMARK INTER + INTRA:          -6.806
REMARK INTER:                  -6.340
REMARK INTRA:                  -0.466
REMARK UNBOUND:                -0.447
REMARK SMILES O=C([O-])CCCCCCCC(=O)[O-]
REMARK SMILES IDX 7 1 6 2 5 3 4 4 2 5 1 6 3 7 8 8 9 9 10 10 11 11 12 12 13 13
REMARK H PARENT
REMARK Flexibility Score: inf
ROOT
ATOM      1  C   UNL     1       9.286 -15.540 -23.747  1.00  0.00     0.000 C 
ENDROOT
BRANCH   1   2
ATOM      2  C   UNL     1       8.937 -17.033 -23.749  1.00  0.00     0.000 C 
BRANCH   2   3
ATOM      3  C   UNL     1       9.768 -17.794 -22.709  1.00  0.00     0.006 C 
BRANCH   3   4
ATOM      4  C   UNL     1       9.740 -19.300 -22.979  1.00  0.00     0.053 C 
BRANCH   4   5
ATOM      5  C   UNL     1      11.015 -19.739 -23.630  1.00  0.00     0.041 C 
ATOM      6  O   UNL     1      11.122 -20.906 -24.090  1.00  0.00    -0.550 OA
ATOM      7  O   UNL     1      12.101 -18.875 -23.684  1.00  0.00    -0.550 OA
ENDBRANCH   4   5
ENDBRANCH   3   4
ENDBRANCH   2   3
ENDBRANCH   1   2
BRANCH   1   8
ATOM      8  C   UNL     1      10.796 -15.327 -23.587  1.00  0.00     0.000 C 
BRANCH   8   9
ATOM      9  C   UNL     1      11.096 -14.366 -22.427  1.00  0.00     0.006 C 
BRANCH   9  10
ATOM     10  C   UNL     1       9.982 -14.364 -21.372  1.00  0.00     0.053 C 
BRANCH  10  11
ATOM     11  C   UNL     1      10.318 -13.481 -20.210  1.00  0.00     0.041 C 
ATOM     12  O   UNL     1      10.724 -13.983 -19.129  1.00  0.00    -0.550 OA
ATOM     13  O   UNL     1      10.153 -12.105 -20.311  1.00  0.00    -0.550 OA
ENDBRANCH  10  11
ENDBRANCH   9  10
ENDBRANCH   8   9
ENDBRANCH   1   8
TORSDOF 8
ENDMDL
