MODEL 1
REMARK VINA RESULT:    -3.108      0.000      0.000
REMARK INTER + INTRA:          -4.117
REMARK INTER:                  -4.017
REMARK INTRA:                  -0.100
REMARK UNBOUND:                -0.100
REMARK SMILES CCCCCCC(=O)[O-]
REMARK SMILES IDX 5 1 6 2 7 3 8 4 9 5 4 6 3 7 2 8 1 9
REMARK H PARENT
REMARK Flexibility Score: inf
ROOT
ATOM      1  C   UNL     1      -0.162  -2.859  22.763  1.00  0.00     0.006 C 
ENDROOT
BRANCH   1   2
ATOM      2  C   UNL     1      -0.023  -1.375  22.411  1.00  0.00     0.053 C 
BRANCH   2   3
ATOM      3  C   UNL     1      -0.530  -1.114  21.028  1.00  0.00     0.041 C 
ATOM      4  O   UNL     1       0.273  -1.063  20.059  1.00  0.00    -0.550 OA
ATOM      5  O   UNL     1      -1.893  -0.976  20.801  1.00  0.00    -0.550 OA
ENDBRANCH   2   3
ENDBRANCH   1   2
BRANCH   1   6
ATOM      6  C   UNL     1       0.721  -3.227  23.960  1.00  0.00     0.000 C 
BRANCH   6   7
ATOM      7  C   UNL     1       0.264  -4.542  24.599  1.00  0.00    -0.000 C 
BRANCH   7   8
ATOM      8  C   UNL     1       0.913  -5.745  23.907  1.00  0.00    -0.003 C 
ATOM      9  C   UNL     1       0.475  -7.057  24.553  1.00  0.00     0.004 C 
ENDBRANCH   7   8
ENDBRANCH   6   7
ENDBRANCH   1   6
TORSDOF 5
ENDMDL
MODEL 2
REMARK VINA RESULT:    -3.045     10.422     10.970
REMARK INTER + INTRA:          -4.036
REMARK INTER:                  -3.873
REMARK INTRA:                  -0.163
REMARK UNBOUND:                -0.100
REMARK SMILES CCCCCCC(=O)[O-]
REMARK SMILES IDX 5 1 6 2 7 3 8 4 9 5 4 6 3 7 2 8 1 9
REMARK H PARENT
REMARK Flexibility Score: inf
ROOT
ATOM      1  C   UNL     1       1.169  -5.405  11.731  1.00  0.00     0.006 C 
ENDROOT
BRANCH   1   2
ATOM      2  C   UNL     1       2.559  -4.764  11.779  1.00  0.00     0.053 C 
BRANCH   2   3
ATOM      3  C   UNL     1       2.465  -3.340  12.231  1.00  0.00     0.041 C 
ATOM      4  O   UNL     1       1.433  -2.932  12.828  1.00  0.00    -0.550 OA
ATOM      5  O   UNL     1       3.535  -2.477  12.037  1.00  0.00    -0.550 OA
ENDBRANCH   2   3
ENDBRANCH   1   2
BRANCH   1   6
ATOM      6  C   UNL     1       1.067  -6.573  12.719  1.00  0.00     0.000 C 
BRANCH   6   7
ATOM      7  C   UNL     1       2.452  -6.984  13.230  1.00  0.00    -0.000 C 
BRANCH   7   8
ATOM      8  C   UNL     1       2.980  -8.204  12.469  1.00  0.00    -0.003 C 
ATOM      9  C   UNL     1       4.174  -8.828  13.185  1.00  0.00     0.004 C 
ENDBRANCH   7   8
ENDBRANCH   6   7
ENDBRANCH   1   6
TORSDOF 5
ENDMDL
MODEL 3
REMARK VINA RESULT:    -3.025      3.203      5.172
REMARK INTER + INTRA:          -4.009
REMARK INTER:                  -3.860
REMARK INTRA:                  -0.149
REMARK UNBOUND:                -0.100
REMARK SMILES CCCCCCC(=O)[O-]
REMARK SMILES IDX 5 1 6 2 7 3 8 4 9 5 4 6 3 7 2 8 1 9
REMARK H PARENT
REMARK Flexibility Score: inf
ROOT
ATOM      1  C   UNL     1      -0.113  -3.019  24.012  1.00  0.00     0.006 C 
ENDROOT
BRANCH   1   2
ATOM      2  C   UNL     1       1.086  -3.953  24.202  1.00  0.00     0.053 C 
BRANCH   2   3
ATOM      3  C   UNL     1       0.629  -5.371  24.343  1.00  0.00     0.041 C 
ATOM      4  O   UNL     1       0.941  -6.226  23.472  1.00  0.00    -0.550 OA
ATOM      5  O   UNL     1      -0.099  -5.759  25.460  1.00  0.00    -0.550 OA
ENDBRANCH   2   3
ENDBRANCH   1   2
BRANCH   1   6
ATOM      6  C   UNL     1      -0.189  -2.508  22.569  1.00  0.00     0.000 C 
BRANCH   6   7
ATOM      7  C   UNL     1      -1.483  -1.721  22.331  1.00  0.00    -0.000 C 
BRANCH   7   8
ATOM      8  C   UNL     1      -1.411  -0.927  21.023  1.00  0.00    -0.003 C 
ATOM      9  C   UNL     1       0.007  -0.919  20.459  1.00  0.00     0.004 C 
ENDBRANCH   7   8
ENDBRANCH   6   7
ENDBRANCH   1   6
TORSDOF 5
ENDMDL
MODEL 4
REMARK VINA RESULT:    -2.937     10.726     11.437
REMARK INTER + INTRA:          -3.896
REMARK INTER:                  -3.631
REMARK INTRA:                  -0.266
REMARK UNBOUND:                -0.100
REMARK SMILES CCCCCCC(=O)[O-]
REMARK SMILES IDX 5 1 6 2 7 3 8 4 9 5 4 6 3 7 2 8 1 9
REMARK H PARENT
REMARK Flexibility Score: inf
ROOT
ATOM      1  C   UNL     1       1.369  -1.283  12.133  1.00  0.00     0.006 C 
ENDROOT
BRANCH   1   2
ATOM      2  C   UNL     1       2.591  -0.478  11.682  1.00  0.00     0.053 C 
BRANCH   2   3
ATOM      3  C   UNL     1       3.852  -1.126  12.160  1.00  0.00     0.041 C 
ATOM      4  O   UNL     1       4.879  -1.129  11.430  1.00  0.00    -0.550 OA
ATOM      5  O   UNL     1       3.909  -1.683  13.431  1.00  0.00    -0.550 OA
ENDBRANCH   2   3
ENDBRANCH   1   2
BRANCH   1   6
ATOM      6  C   UNL     1       0.777  -2.084  10.968  1.00  0.00     0.000 C 
BRANCH   6   7
ATOM      7  C   UNL     1       1.428  -3.467  10.863  1.00  0.00    -0.000 C 
BRANCH   7   8
ATOM      8  C   UNL     1       1.573  -4.113  12.245  1.00  0.00    -0.003 C 
ATOM      9  C   UNL     1       1.075  -5.555  12.235  1.00  0.00     0.004 C 
ENDBRANCH   7   8
ENDBRANCH   6   7
ENDBRANCH   1   6
TORSDOF 5
ENDMDL
MODEL 5
REMARK VINA RESULT:    -2.888      1.545      2.077
REMARK INTER + INTRA:          -3.832
REMARK INTER:                  -3.611
REMARK INTRA:                  -0.221
REMARK UNBOUND:                -0.100
REMARK SMILES CCCCCCC(=O)[O-]
REMARK SMILES IDX 5 1 6 2 7 3 8 4 9 5 4 6 3 7 2 8 1 9
REMARK H PARENT
REMARK Flexibility Score: inf
ROOT
ATOM      1  C   UNL     1      -0.857  -1.559  22.176  1.00  0.00     0.006 C 
ENDROOT
BRANCH   1   2
ATOM      2  C   UNL     1      -0.404  -1.252  20.745  1.00  0.00     0.053 C 
BRANCH   2   3
ATOM      3  C   UNL     1       0.596  -0.139  20.739  1.00  0.00     0.041 C 
ATOM      4  O   UNL     1       1.259   0.111  19.698  1.00  0.00    -0.550 OA
ATOM      5  O   UNL     1       0.760   0.654  21.868  1.00  0.00    -0.550 OA
ENDBRANCH   2   3
ENDBRANCH   1   2
BRANCH   1   6
ATOM      6  C   UNL     1      -0.125  -2.785  22.733  1.00  0.00     0.000 C 
BRANCH   6   7
ATOM      7  C   UNL     1       0.738  -2.409  23.943  1.00  0.00    -0.000 C 
BRANCH   7   8
ATOM      8  C   UNL     1       1.482  -3.632  24.490  1.00  0.00    -0.003 C 
ATOM      9  C   UNL     1       0.865  -4.929  23.976  1.00  0.00     0.004 C 
ENDBRANCH   7   8
ENDBRANCH   6   7
ENDBRANCH   1   6
TORSDOF 5
ENDMDL
MODEL 6
REMARK VINA RESULT:    -2.871      8.619      9.155
REMARK INTER + INTRA:          -3.810
REMARK INTER:                  -3.578
REMARK INTRA:                  -0.232
REMARK UNBOUND:                -0.100
REMARK SMILES CCCCCCC(=O)[O-]
REMARK SMILES IDX 5 1 6 2 7 3 8 4 9 5 4 6 3 7 2 8 1 9
REMARK H PARENT
REMARK Flexibility Score: inf
ROOT
ATOM      1  C   UNL     1       9.047  -3.642  19.357  1.00  0.00     0.006 C 
ENDROOT
BRANCH   1   2
ATOM      2  C   UNL     1       8.163  -2.877  20.347  1.00  0.00     0.053 C 
BRANCH   2   3
ATOM      3  C   UNL     1       6.963  -2.315  19.653  1.00  0.00     0.041 C 
ATOM      4  O   UNL     1       6.740  -1.076  19.676  1.00  0.00    -0.550 OA
ATOM      5  O   UNL     1       6.116  -3.154  18.940  1.00  0.00    -0.550 OA
ENDBRANCH   2   3
ENDBRANCH   1   2
BRANCH   1   6
ATOM      6  C   UNL     1       9.709  -4.850  20.029  1.00  0.00     0.000 C 
BRANCH   6   7
ATOM      7  C   UNL     1       9.421  -6.139  19.251  1.00  0.00    -0.000 C 
BRANCH   7   8
ATOM      8  C   UNL     1       8.350  -5.908  18.180  1.00  0.00    -0.003 C 
ATOM      9  C   UNL     1       8.033  -7.198  17.430  1.00  0.00     0.004 C 
ENDBRANCH   7   8
ENDBRANCH   6   7
ENDBRANCH   1   6
TORSDOF 5
ENDMDL
MODEL 7
REMARK VINA RESULT:    -2.864     10.412     11.454
REMARK INTER + INTRA:          -3.802
REMARK INTER:                  -3.479
REMARK INTRA:                  -0.322
REMARK UNBOUND:                -0.100
REMARK SMILES CCCCCCC(=O)[O-]
REMARK SMILES IDX 5 1 6 2 7 3 8 4 9 5 4 6 3 7 2 8 1 9
REMARK H PARENT
REMARK Flexibility Score: inf
ROOT
ATOM      1  C   UNL     1       1.507  -3.469  10.265  1.00  0.00     0.006 C 
ENDROOT
BRANCH   1   2
ATOM      2  C   UNL     1       0.929  -2.318  11.094  1.00  0.00     0.053 C 
BRANCH   2   3
ATOM      3  C   UNL     1       1.814  -2.018  12.263  1.00  0.00     0.041 C 
ATOM      4  O   UNL     1       1.687  -0.933  12.890  1.00  0.00    -0.550 OA
ATOM      5  O   UNL     1       2.744  -2.956  12.689  1.00  0.00    -0.550 OA
ENDBRANCH   2   3
ENDBRANCH   1   2
BRANCH   1   6
ATOM      6  C   UNL     1       0.486  -4.602  10.107  1.00  0.00     0.000 C 
BRANCH   6   7
ATOM      7  C   UNL     1       1.014  -5.908  10.709  1.00  0.00    -0.000 C 
BRANCH   7   8
ATOM      8  C   UNL     1       0.863  -5.912  12.234  1.00  0.00    -0.003 C 
ATOM      9  C   UNL     1       1.994  -6.692  12.898  1.00  0.00     0.004 C 
ENDBRANCH   7   8
ENDBRANCH   6   7
ENDBRANCH   1   6
TORSDOF 5
ENDMDL
MODEL 8
REMARK VINA RESULT:    -2.852      3.159      5.151
REMARK INTER + INTRA:          -3.786
REMARK INTER:                  -3.608
REMARK INTRA:                  -0.178
REMARK UNBOUND:                -0.100
REMARK SMILES CCCCCCC(=O)[O-]
REMARK SMILES IDX 5 1 6 2 7 3 8 4 9 5 4 6 3 7 2 8 1 9
REMARK H PARENT
REMARK Flexibility Score: inf
ROOT
ATOM      1  C   UNL     1      -0.173  -2.614  22.636  1.00  0.00     0.006 C 
ENDROOT
BRANCH   1   2
ATOM      2  C   UNL     1       0.139  -2.770  24.127  1.00  0.00     0.053 C 
BRANCH   2   3
ATOM      3  C   UNL     1       1.323  -3.663  24.325  1.00  0.00     0.041 C 
ATOM      4  O   UNL     1       2.406  -3.191  24.762  1.00  0.00    -0.550 OA
ATOM      5  O   UNL     1       1.216  -5.025  24.074  1.00  0.00    -0.550 OA
ENDBRANCH   2   3
ENDBRANCH   1   2
BRANCH   1   6
ATOM      6  C   UNL     1      -1.389  -1.706  22.420  1.00  0.00     0.000 C 
BRANCH   6   7
ATOM      7  C   UNL     1      -1.064  -0.575  21.438  1.00  0.00    -0.000 C 
BRANCH   7   8
ATOM      8  C   UNL     1       0.031  -0.998  20.453  1.00  0.00    -0.003 C 
ATOM      9  C   UNL     1       0.885   0.193  20.030  1.00  0.00     0.004 C 
ENDBRANCH   7   8
ENDBRANCH   6   7
ENDBRANCH   1   6
TORSDOF 5
ENDMDL
MODEL 9
REMARK VINA RESULT:    -2.831      8.037      8.569
REMARK INTER + INTRA:          -3.758
REMARK INTER:                  -3.532
REMARK INTRA:                  -0.227
REMARK UNBOUND:                -0.100
REMARK SMILES CCCCCCC(=O)[O-]
REMARK SMILES IDX 5 1 6 2 7 3 8 4 9 5 4 6 3 7 2 8 1 9
REMARK H PARENT
REMARK Flexibility Score: inf
ROOT
ATOM      1  C   UNL     1       6.293  -1.486  18.563  1.00  0.00     0.006 C 
ENDROOT
BRANCH   1   2
ATOM      2  C   UNL     1       5.151  -1.636  17.553  1.00  0.00     0.053 C 
BRANCH   2   3
ATOM      3  C   UNL     1       5.689  -1.701  16.158  1.00  0.00     0.041 C 
ATOM      4  O   UNL     1       6.925  -1.847  15.962  1.00  0.00    -0.550 OA
ATOM      5  O   UNL     1       4.821  -1.649  15.076  1.00  0.00    -0.550 OA
ENDBRANCH   2   3
ENDBRANCH   1   2
BRANCH   1   6
ATOM      6  C   UNL     1       6.607  -2.825  19.241  1.00  0.00     0.000 C 
BRANCH   6   7
ATOM      7  C   UNL     1       8.058  -3.245  18.985  1.00  0.00    -0.000 C 
BRANCH   7   8
ATOM      8  C   UNL     1       8.124  -4.442  18.031  1.00  0.00    -0.003 C 
ATOM      9  C   UNL     1       8.868  -5.614  18.665  1.00  0.00     0.004 C 
ENDBRANCH   7   8
ENDBRANCH   6   7
ENDBRANCH   1   6
TORSDOF 5
ENDMDL
