MODEL 1
REMARK VINA RESULT:    -7.339      0.000      0.000
REMARK INTER + INTRA:          -7.339
REMARK INTER:                  -7.339
REMARK INTRA:                   0.000
REMARK UNBOUND:                 0.000
REMARK SMILES C=C1CCC[C@@]2(C)CC(=O)C(=C(C)C)C[C@@H]12
REMARK SMILES IDX 13 1 12 2 11 3 15 4 16 5 2 6 1 7 3 8 4 9 5 10 6 11 8 12 9 13
REMARK SMILES IDX 10 14 7 15 14 16
REMARK H PARENT
REMARK Flexibility Score: inf
ROOT
ATOM      1  C   UNL     1     259.035 262.773 249.648  1.00  0.00     0.039 C 
ATOM      2  C   UNL     1     257.733 262.239 250.205  1.00  0.00    -0.070 C 
ATOM      3  C   UNL     1     256.850 261.565 249.410  1.00  0.00    -0.006 C 
ATOM      4  C   UNL     1     257.157 261.252 247.952  1.00  0.00     0.047 C 
ATOM      5  C   UNL     1     255.874 261.177 247.071  1.00  0.00     0.025 C 
ATOM      6  C   UNL     1     256.160 260.819 245.603  1.00  0.00    -0.073 C 
ATOM      7  C   UNL     1     257.368 260.957 245.017  1.00  0.00     0.008 C 
ATOM      8  C   UNL     1     254.982 260.412 244.748  1.00  0.00     0.031 C 
ATOM      9  C   UNL     1     254.204 259.234 245.358  1.00  0.00     0.005 C 
ATOM     10  C   UNL     1     254.540 258.964 246.836  1.00  0.00     0.008 C 
ATOM     11  C   UNL     1     254.724 260.258 247.680  1.00  0.00    -0.018 C 
ATOM     12  C   UNL     1     255.033 259.810 249.138  1.00  0.00     0.088 C 
ATOM     13  C   UNL     1     255.613 260.936 249.927  1.00  0.00     0.159 C 
ATOM     14  O   UNL     1     255.019 261.349 250.959  1.00  0.00    -0.295 OA
ATOM     15  C   UNL     1     253.386 261.045 247.707  1.00  0.00     0.012 C 
ATOM     16  C   UNL     1     257.478 262.448 251.680  1.00  0.00     0.039 C 
ENDROOT
TORSDOF 0
ENDMDL
MODEL 2
REMARK VINA RESULT:    -7.004      4.922      6.925
REMARK INTER + INTRA:          -7.004
REMARK INTER:                  -7.004
REMARK INTRA:                   0.000
REMARK UNBOUND:                 0.000
REMARK SMILES C=C1CCC[C@@]2(C)CC(=O)C(=C(C)C)C[C@@H]12
REMARK SMILES IDX 13 1 12 2 11 3 15 4 16 5 2 6 1 7 3 8 4 9 5 10 6 11 8 12 9 13
REMARK SMILES IDX 10 14 7 15 14 16
REMARK H PARENT
REMARK Flexibility Score: inf
ROOT
ATOM      1  C   UNL     1     254.140 259.406 246.792  1.00  0.00     0.039 C 
ATOM      2  C   UNL     1     252.675 259.776 246.878  1.00  0.00    -0.070 C 
ATOM      3  C   UNL     1     251.705 258.814 246.892  1.00  0.00    -0.006 C 
ATOM      4  C   UNL     1     252.043 257.330 246.897  1.00  0.00     0.047 C 
ATOM      5  C   UNL     1     250.950 256.463 246.201  1.00  0.00     0.025 C 
ATOM      6  C   UNL     1     251.254 254.956 246.234  1.00  0.00    -0.073 C 
ATOM      7  C   UNL     1     252.482 254.440 246.448  1.00  0.00     0.008 C 
ATOM      8  C   UNL     1     250.125 254.015 245.879  1.00  0.00     0.031 C 
ATOM      9  C   UNL     1     248.882 254.247 246.755  1.00  0.00     0.005 C 
ATOM     10  C   UNL     1     248.902 255.579 247.526  1.00  0.00     0.008 C 
ATOM     11  C   UNL     1     249.468 256.770 246.699  1.00  0.00    -0.018 C 
ATOM     12  C   UNL     1     249.397 258.029 247.609  1.00  0.00     0.088 C 
ATOM     13  C   UNL     1     250.267 259.119 247.076  1.00  0.00     0.159 C 
ATOM     14  O   UNL     1     249.758 260.225 246.753  1.00  0.00    -0.295 OA
ATOM     15  C   UNL     1     248.548 257.025 245.475  1.00  0.00     0.012 C 
ATOM     16  C   UNL     1     252.342 261.246 246.990  1.00  0.00     0.039 C 
ENDROOT
TORSDOF 0
ENDMDL
MODEL 3
REMARK VINA RESULT:    -6.965      4.442      6.575
REMARK INTER + INTRA:          -6.965
REMARK INTER:                  -6.965
REMARK INTRA:                   0.000
REMARK UNBOUND:                 0.000
REMARK SMILES C=C1CCC[C@@]2(C)CC(=O)C(=C(C)C)C[C@@H]12
REMARK SMILES IDX 13 1 12 2 11 3 15 4 16 5 2 6 1 7 3 8 4 9 5 10 6 11 8 12 9 13
REMARK SMILES IDX 10 14 7 15 14 16
REMARK H PARENT
REMARK Flexibility Score: inf
ROOT
ATOM      1  C   UNL     1     253.002 261.249 247.247  1.00  0.00     0.039 C 
ATOM      2  C   UNL     1     251.553 260.862 247.045  1.00  0.00    -0.070 C 
ATOM      3  C   UNL     1     251.166 259.552 247.051  1.00  0.00    -0.006 C 
ATOM      4  C   UNL     1     252.148 258.424 247.331  1.00  0.00     0.047 C 
ATOM      5  C   UNL     1     251.761 257.097 246.611  1.00  0.00     0.025 C 
ATOM      6  C   UNL     1     252.718 255.933 246.917  1.00  0.00    -0.073 C 
ATOM      7  C   UNL     1     253.969 256.094 247.397  1.00  0.00     0.008 C 
ATOM      8  C   UNL     1     252.263 254.544 246.534  1.00  0.00     0.031 C 
ATOM      9  C   UNL     1     250.902 254.188 247.159  1.00  0.00     0.005 C 
ATOM     10  C   UNL     1     250.135 255.402 247.715  1.00  0.00     0.008 C 
ATOM     11  C   UNL     1     250.240 256.670 246.817  1.00  0.00    -0.018 C 
ATOM     12  C   UNL     1     249.399 257.783 247.505  1.00  0.00     0.088 C 
ATOM     13  C   UNL     1     249.750 259.127 246.958  1.00  0.00     0.159 C 
ATOM     14  O   UNL     1     248.864 259.825 246.396  1.00  0.00    -0.295 OA
ATOM     15  C   UNL     1     249.588 256.376 245.440  1.00  0.00     0.012 C 
ATOM     16  C   UNL     1     250.557 261.987 246.881  1.00  0.00     0.039 C 
ENDROOT
TORSDOF 0
ENDMDL
MODEL 4
REMARK VINA RESULT:    -6.873      4.352      7.120
REMARK INTER + INTRA:          -6.873
REMARK INTER:                  -6.873
REMARK INTRA:                   0.000
REMARK UNBOUND:                 0.000
REMARK SMILES C=C1CCC[C@@]2(C)CC(=O)C(=C(C)C)C[C@@H]12
REMARK SMILES IDX 13 1 12 2 11 3 15 4 16 5 2 6 1 7 3 8 4 9 5 10 6 11 8 12 9 13
REMARK SMILES IDX 10 14 7 15 14 16
REMARK H PARENT
REMARK Flexibility Score: inf
ROOT
ATOM      1  C   UNL     1     248.117 260.125 245.754  1.00  0.00     0.039 C 
ATOM      2  C   UNL     1     248.457 258.685 246.070  1.00  0.00    -0.070 C 
ATOM      3  C   UNL     1     249.670 258.347 246.599  1.00  0.00    -0.006 C 
ATOM      4  C   UNL     1     250.709 259.396 246.965  1.00  0.00     0.047 C 
ATOM      5  C   UNL     1     252.169 258.866 246.839  1.00  0.00     0.025 C 
ATOM      6  C   UNL     1     253.232 259.900 247.246  1.00  0.00    -0.073 C 
ATOM      7  C   UNL     1     253.005 261.228 247.307  1.00  0.00     0.008 C 
ATOM      8  C   UNL     1     254.640 259.394 247.464  1.00  0.00     0.031 C 
ATOM      9  C   UNL     1     254.692 258.257 248.500  1.00  0.00     0.005 C 
ATOM     10  C   UNL     1     253.319 257.635 248.812  1.00  0.00     0.008 C 
ATOM     11  C   UNL     1     252.412 257.465 247.559  1.00  0.00    -0.018 C 
ATOM     12  C   UNL     1     251.087 256.809 248.043  1.00  0.00     0.088 C 
ATOM     13  C   UNL     1     250.012 256.968 247.019  1.00  0.00     0.159 C 
ATOM     14  O   UNL     1     249.475 255.948 246.511  1.00  0.00    -0.295 OA
ATOM     15  C   UNL     1     253.088 256.479 246.569  1.00  0.00     0.012 C 
ATOM     16  C   UNL     1     247.382 257.653 245.815  1.00  0.00     0.039 C 
ENDROOT
TORSDOF 0
ENDMDL
MODEL 5
REMARK VINA RESULT:    -6.718      4.107      6.274
REMARK INTER + INTRA:          -6.718
REMARK INTER:                  -6.718
REMARK INTRA:                   0.000
REMARK UNBOUND:                 0.000
REMARK SMILES C=C1CCC[C@@]2(C)CC(=O)C(=C(C)C)C[C@@H]12
REMARK SMILES IDX 13 1 12 2 11 3 15 4 16 5 2 6 1 7 3 8 4 9 5 10 6 11 8 12 9 13
REMARK SMILES IDX 10 14 7 15 14 16
REMARK H PARENT
REMARK Flexibility Score: inf
ROOT
ATOM      1  C   UNL     1     252.017 261.627 247.248  1.00  0.00     0.039 C 
ATOM      2  C   UNL     1     253.013 260.491 247.331  1.00  0.00    -0.070 C 
ATOM      3  C   UNL     1     252.632 259.200 247.095  1.00  0.00    -0.006 C 
ATOM      4  C   UNL     1     251.216 258.845 246.669  1.00  0.00     0.047 C 
ATOM      5  C   UNL     1     250.783 257.426 247.146  1.00  0.00     0.025 C 
ATOM      6  C   UNL     1     249.369 257.031 246.687  1.00  0.00    -0.073 C 
ATOM      7  C   UNL     1     248.434 257.917 246.286  1.00  0.00     0.008 C 
ATOM      8  C   UNL     1     248.980 255.577 246.819  1.00  0.00     0.031 C 
ATOM      9  C   UNL     1     249.968 254.645 246.095  1.00  0.00     0.005 C 
ATOM     10  C   UNL     1     251.299 255.321 245.719  1.00  0.00     0.008 C 
ATOM     11  C   UNL     1     251.842 256.282 246.816  1.00  0.00    -0.018 C 
ATOM     12  C   UNL     1     253.190 256.855 246.291  1.00  0.00     0.088 C 
ATOM     13  C   UNL     1     253.587 258.068 247.065  1.00  0.00     0.159 C 
ATOM     14  O   UNL     1     254.675 258.077 247.701  1.00  0.00    -0.295 OA
ATOM     15  C   UNL     1     252.150 255.469 248.102  1.00  0.00     0.012 C 
ATOM     16  C   UNL     1     254.447 260.855 247.642  1.00  0.00     0.039 C 
ENDROOT
TORSDOF 0
ENDMDL
MODEL 6
REMARK VINA RESULT:    -6.690      3.606      5.473
REMARK INTER + INTRA:          -6.690
REMARK INTER:                  -6.690
REMARK INTRA:                   0.000
REMARK UNBOUND:                 0.000
REMARK SMILES C=C1CCC[C@@]2(C)CC(=O)C(=C(C)C)C[C@@H]12
REMARK SMILES IDX 13 1 12 2 11 3 15 4 16 5 2 6 1 7 3 8 4 9 5 10 6 11 8 12 9 13
REMARK SMILES IDX 10 14 7 15 14 16
REMARK H PARENT
REMARK Flexibility Score: inf
ROOT
ATOM      1  C   UNL     1     255.036 260.878 248.092  1.00  0.00     0.039 C 
ATOM      2  C   UNL     1     253.703 260.303 247.664  1.00  0.00    -0.070 C 
ATOM      3  C   UNL     1     253.475 258.957 247.690  1.00  0.00    -0.006 C 
ATOM      4  C   UNL     1     254.512 257.975 248.215  1.00  0.00     0.047 C 
ATOM      5  C   UNL     1     254.419 256.579 247.529  1.00  0.00     0.025 C 
ATOM      6  C   UNL     1     255.432 255.559 248.077  1.00  0.00    -0.073 C 
ATOM      7  C   UNL     1     256.546 255.898 248.758  1.00  0.00     0.008 C 
ATOM      8  C   UNL     1     255.217 254.108 247.715  1.00  0.00     0.031 C 
ATOM      9  C   UNL     1     253.815 253.613 248.112  1.00  0.00     0.005 C 
ATOM     10  C   UNL     1     252.825 254.745 248.441  1.00  0.00     0.008 C 
ATOM     11  C   UNL     1     252.945 255.974 247.493  1.00  0.00    -0.018 C 
ATOM     12  C   UNL     1     251.870 257.003 247.945  1.00  0.00     0.088 C 
ATOM     13  C   UNL     1     252.158 258.354 247.378  1.00  0.00     0.159 C 
ATOM     14  O   UNL     1     251.316 258.909 246.623  1.00  0.00    -0.295 OA
ATOM     15  C   UNL     1     252.595 255.538 246.045  1.00  0.00     0.012 C 
ATOM     16  C   UNL     1     252.631 261.286 247.251  1.00  0.00     0.039 C 
ENDROOT
TORSDOF 0
ENDMDL
MODEL 7
REMARK VINA RESULT:    -6.622      4.692      6.701
REMARK INTER + INTRA:          -6.622
REMARK INTER:                  -6.622
REMARK INTRA:                   0.000
REMARK UNBOUND:                 0.000
REMARK SMILES C=C1CCC[C@@]2(C)CC(=O)C(=C(C)C)C[C@@H]12
REMARK SMILES IDX 13 1 12 2 11 3 15 4 16 5 2 6 1 7 3 8 4 9 5 10 6 11 8 12 9 13
REMARK SMILES IDX 10 14 7 15 14 16
REMARK H PARENT
REMARK Flexibility Score: inf
ROOT
ATOM      1  C   UNL     1     255.169 258.219 248.611  1.00  0.00     0.039 C 
ATOM      2  C   UNL     1     254.846 256.811 248.161  1.00  0.00    -0.070 C 
ATOM      3  C   UNL     1     253.637 256.510 247.600  1.00  0.00    -0.006 C 
ATOM      4  C   UNL     1     252.586 257.578 247.333  1.00  0.00     0.047 C 
ATOM      5  C   UNL     1     251.132 257.022 247.407  1.00  0.00     0.025 C 
ATOM      6  C   UNL     1     250.057 258.078 247.097  1.00  0.00    -0.073 C 
ATOM      7  C   UNL     1     250.269 259.408 247.161  1.00  0.00     0.008 C 
ATOM      8  C   UNL     1     248.655 257.579 246.829  1.00  0.00     0.031 C 
ATOM      9  C   UNL     1     248.616 256.545 245.691  1.00  0.00     0.005 C 
ATOM     10  C   UNL     1     249.997 255.969 245.324  1.00  0.00     0.008 C 
ATOM     11  C   UNL     1     250.905 255.693 246.558  1.00  0.00    -0.018 C 
ATOM     12  C   UNL     1     252.237 255.100 246.016  1.00  0.00     0.088 C 
ATOM     13  C   UNL     1     253.309 255.174 247.052  1.00  0.00     0.159 C 
ATOM     14  O   UNL     1     253.858 254.116 247.462  1.00  0.00    -0.295 OA
ATOM     15  C   UNL     1     250.239 254.611 247.450  1.00  0.00     0.012 C 
ATOM     16  C   UNL     1     255.932 255.771 248.319  1.00  0.00     0.039 C 
ENDROOT
TORSDOF 0
ENDMDL
MODEL 8
REMARK VINA RESULT:    -6.576      5.231      7.568
REMARK INTER + INTRA:          -6.576
REMARK INTER:                  -6.576
REMARK INTRA:                   0.000
REMARK UNBOUND:                 0.000
REMARK SMILES C=C1CCC[C@@]2(C)CC(=O)C(=C(C)C)C[C@@H]12
REMARK SMILES IDX 13 1 12 2 11 3 15 4 16 5 2 6 1 7 3 8 4 9 5 10 6 11 8 12 9 13
REMARK SMILES IDX 10 14 7 15 14 16
REMARK H PARENT
REMARK Flexibility Score: inf
ROOT
ATOM      1  C   UNL     1     249.581 261.760 246.560  1.00  0.00     0.039 C 
ATOM      2  C   UNL     1     250.738 260.863 246.944  1.00  0.00    -0.070 C 
ATOM      3  C   UNL     1     250.606 259.503 246.941  1.00  0.00    -0.006 C 
ATOM      4  C   UNL     1     249.325 258.820 246.486  1.00  0.00     0.047 C 
ATOM      5  C   UNL     1     249.085 257.456 247.202  1.00  0.00     0.025 C 
ATOM      6  C   UNL     1     247.816 256.730 246.723  1.00  0.00    -0.073 C 
ATOM      7  C   UNL     1     246.797 257.340 246.084  1.00  0.00     0.008 C 
ATOM      8  C   UNL     1     247.663 255.278 247.112  1.00  0.00     0.031 C 
ATOM      9  C   UNL     1     248.866 254.429 246.666  1.00  0.00     0.005 C 
ATOM     10  C   UNL     1     250.100 255.259 246.266  1.00  0.00     0.008 C 
ATOM     11  C   UNL     1     250.350 256.488 247.189  1.00  0.00    -0.018 C 
ATOM     12  C   UNL     1     251.632 257.195 246.665  1.00  0.00     0.088 C 
ATOM     13  C   UNL     1     251.734 258.581 247.210  1.00  0.00     0.159 C 
ATOM     14  O   UNL     1     252.727 258.907 247.914  1.00  0.00    -0.295 OA
ATOM     15  C   UNL     1     250.644 255.994 248.630  1.00  0.00     0.012 C 
ATOM     16  C   UNL     1     252.047 261.537 247.285  1.00  0.00     0.039 C 
ENDROOT
TORSDOF 0
ENDMDL
MODEL 9
REMARK VINA RESULT:    -6.527      3.568      5.706
REMARK INTER + INTRA:          -6.527
REMARK INTER:                  -6.527
REMARK INTRA:                   0.000
REMARK UNBOUND:                 0.000
REMARK SMILES C=C1CCC[C@@]2(C)CC(=O)C(=C(C)C)C[C@@H]12
REMARK SMILES IDX 13 1 12 2 11 3 15 4 16 5 2 6 1 7 3 8 4 9 5 10 6 11 8 12 9 13
REMARK SMILES IDX 10 14 7 15 14 16
REMARK H PARENT
REMARK Flexibility Score: inf
ROOT
ATOM      1  C   UNL     1     255.877 254.559 249.742  1.00  0.00     0.039 C 
ATOM      2  C   UNL     1     254.740 254.582 248.744  1.00  0.00    -0.070 C 
ATOM      3  C   UNL     1     254.334 255.749 248.163  1.00  0.00    -0.006 C 
ATOM      4  C   UNL     1     255.045 257.069 248.429  1.00  0.00     0.047 C 
ATOM      5  C   UNL     1     254.091 258.297 248.320  1.00  0.00     0.025 C 
ATOM      6  C   UNL     1     254.800 259.644 248.543  1.00  0.00    -0.073 C 
ATOM      7  C   UNL     1     255.990 259.773 249.165  1.00  0.00     0.008 C 
ATOM      8  C   UNL     1     254.048 260.894 248.149  1.00  0.00     0.031 C 
ATOM      9  C   UNL     1     253.594 260.859 246.679  1.00  0.00     0.005 C 
ATOM     10  C   UNL     1     253.663 259.460 246.040  1.00  0.00     0.008 C 
ATOM     11  C   UNL     1     253.210 258.315 246.993  1.00  0.00    -0.018 C 
ATOM     12  C   UNL     1     253.318 256.987 246.190  1.00  0.00     0.088 C 
ATOM     13  C   UNL     1     253.296 255.810 247.108  1.00  0.00     0.159 C 
ATOM     14  O   UNL     1     252.385 254.947 246.998  1.00  0.00    -0.295 OA
ATOM     15  C   UNL     1     251.716 258.519 247.360  1.00  0.00     0.012 C 
ATOM     16  C   UNL     1     254.108 253.254 248.392  1.00  0.00     0.039 C 
ENDROOT
TORSDOF 0
ENDMDL
