MODEL 1
REMARK VINA RESULT:    -3.395      0.000      0.000
REMARK INTER + INTRA:          -4.337
REMARK INTER:                  -4.189
REMARK INTRA:                  -0.149
REMARK UNBOUND:                -0.149
REMARK SMILES C=CC[C@@H](C)C(=O)CC
REMARK SMILES IDX 4 1 5 2 6 3 7 4 8 5 9 6 3 7 2 8 1 9
REMARK H PARENT
REMARK Flexibility Score: inf
ROOT
ATOM      1  C   UNL     1      20.369 -24.385  13.286  1.00  0.00     0.057 C 
ATOM      2  C   UNL     1      18.984 -24.897  12.875  1.00  0.00     0.016 C 
ENDROOT
BRANCH   1   3
ATOM      3  C   UNL     1      20.232 -23.331  14.367  1.00  0.00     0.135 C 
ATOM      4  O   UNL     1      20.500 -23.612  15.526  1.00  0.00    -0.299 OA
BRANCH   3   5
ATOM      5  C   UNL     1      19.784 -21.932  14.034  1.00  0.00     0.072 C 
ATOM      6  C   UNL     1      20.228 -20.951  15.114  1.00  0.00     0.012 C 
ENDBRANCH   3   5
ENDBRANCH   1   3
BRANCH   1   7
ATOM      7  C   UNL     1      21.260 -25.552  13.758  1.00  0.00     0.038 C 
BRANCH   7   8
ATOM      8  C   UNL     1      20.868 -26.860  13.119  1.00  0.00    -0.034 C 
ATOM      9  C   UNL     1      21.536 -27.991  13.364  1.00  0.00     0.004 C 
ENDBRANCH   7   8
ENDBRANCH   1   7
TORSDOF 4
ENDMDL
MODEL 2
REMARK VINA RESULT:    -3.283      1.402      5.206
REMARK INTER + INTRA:          -4.199
REMARK INTER:                  -4.038
REMARK INTRA:                  -0.161
REMARK UNBOUND:                -0.149
REMARK SMILES C=CC[C@@H](C)C(=O)CC
REMARK SMILES IDX 4 1 5 2 6 3 7 4 8 5 9 6 3 7 2 8 1 9
REMARK H PARENT
REMARK Flexibility Score: inf
ROOT
ATOM      1  C   UNL     1      19.685 -21.801  14.873  1.00  0.00     0.057 C 
ATOM      2  C   UNL     1      18.503 -21.475  13.953  1.00  0.00     0.016 C 
ENDROOT
BRANCH   1   3
ATOM      3  C   UNL     1      20.473 -22.967  14.310  1.00  0.00     0.135 C 
ATOM      4  O   UNL     1      21.634 -23.136  14.653  1.00  0.00    -0.299 OA
BRANCH   3   5
ATOM      5  C   UNL     1      19.844 -23.935  13.343  1.00  0.00     0.072 C 
ATOM      6  C   UNL     1      20.638 -25.236  13.287  1.00  0.00     0.012 C 
ENDBRANCH   3   5
ENDBRANCH   1   3
BRANCH   1   7
ATOM      7  C   UNL     1      20.583 -20.561  15.060  1.00  0.00     0.038 C 
BRANCH   7   8
ATOM      8  C   UNL     1      19.795 -19.277  15.014  1.00  0.00    -0.034 C 
ATOM      9  C   UNL     1      20.070 -18.253  15.828  1.00  0.00     0.004 C 
ENDBRANCH   7   8
ENDBRANCH   1   7
TORSDOF 4
ENDMDL
MODEL 3
REMARK VINA RESULT:    -3.067     14.993     16.211
REMARK INTER + INTRA:          -3.933
REMARK INTER:                  -3.449
REMARK INTRA:                  -0.484
REMARK UNBOUND:                -0.149
REMARK SMILES C=CC[C@@H](C)C(=O)CC
REMARK SMILES IDX 4 1 5 2 6 3 7 4 8 5 9 6 3 7 2 8 1 9
REMARK H PARENT
REMARK Flexibility Score: inf
ROOT
ATOM      1  C   UNL     1       7.051 -32.868  16.554  1.00  0.00     0.057 C 
ATOM      2  C   UNL     1       7.411 -33.258  17.992  1.00  0.00     0.016 C 
ENDROOT
BRANCH   1   3
ATOM      3  C   UNL     1       8.314 -32.667  15.741  1.00  0.00     0.135 C 
ATOM      4  O   UNL     1       9.273 -32.096  16.239  1.00  0.00    -0.299 OA
BRANCH   3   5
ATOM      5  C   UNL     1       8.415 -33.174  14.326  1.00  0.00     0.072 C 
ATOM      6  C   UNL     1       9.462 -34.278  14.221  1.00  0.00     0.012 C 
ENDBRANCH   3   5
ENDBRANCH   1   3
BRANCH   1   7
ATOM      7  C   UNL     1       6.142 -33.937  15.915  1.00  0.00     0.038 C 
BRANCH   7   8
ATOM      8  C   UNL     1       6.317 -35.289  16.557  1.00  0.00    -0.034 C 
ATOM      9  C   UNL     1       6.669 -36.366  15.848  1.00  0.00     0.004 C 
ENDBRANCH   7   8
ENDBRANCH   1   7
TORSDOF 4
ENDMDL
MODEL 4
REMARK VINA RESULT:    -3.057     14.828     15.933
REMARK INTER + INTRA:          -3.920
REMARK INTER:                  -3.724
REMARK INTRA:                  -0.196
REMARK UNBOUND:                -0.149
REMARK SMILES C=CC[C@@H](C)C(=O)CC
REMARK SMILES IDX 4 1 5 2 6 3 7 4 8 5 9 6 3 7 2 8 1 9
REMARK H PARENT
REMARK Flexibility Score: inf
ROOT
ATOM      1  C   UNL     1       6.831 -33.309  16.597  1.00  0.00     0.057 C 
ATOM      2  C   UNL     1       6.527 -34.811  16.610  1.00  0.00     0.016 C 
ENDROOT
BRANCH   1   3
ATOM      3  C   UNL     1       7.716 -32.949  17.774  1.00  0.00     0.135 C 
ATOM      4  O   UNL     1       7.375 -33.259  18.907  1.00  0.00    -0.299 OA
BRANCH   3   5
ATOM      5  C   UNL     1       9.022 -32.227  17.572  1.00  0.00     0.072 C 
ATOM      6  C   UNL     1       9.431 -31.484  18.839  1.00  0.00     0.012 C 
ENDBRANCH   3   5
ENDBRANCH   1   3
BRANCH   1   7
ATOM      7  C   UNL     1       7.488 -32.900  15.263  1.00  0.00     0.038 C 
BRANCH   7   8
ATOM      8  C   UNL     1       6.949 -33.692  14.099  1.00  0.00    -0.034 C 
ATOM      9  C   UNL     1       6.844 -33.164  12.876  1.00  0.00     0.004 C 
ENDBRANCH   7   8
ENDBRANCH   1   7
TORSDOF 4
ENDMDL
MODEL 5
REMARK VINA RESULT:    -3.056     14.746     15.980
REMARK INTER + INTRA:          -3.919
REMARK INTER:                  -3.591
REMARK INTRA:                  -0.328
REMARK UNBOUND:                -0.149
REMARK SMILES C=CC[C@@H](C)C(=O)CC
REMARK SMILES IDX 4 1 5 2 6 3 7 4 8 5 9 6 3 7 2 8 1 9
REMARK H PARENT
REMARK Flexibility Score: inf
ROOT
ATOM      1  C   UNL     1       7.877 -33.930  17.077  1.00  0.00     0.057 C 
ATOM      2  C   UNL     1       7.374 -35.236  17.703  1.00  0.00     0.016 C 
ENDROOT
BRANCH   1   3
ATOM      3  C   UNL     1       7.074 -33.609  15.832  1.00  0.00     0.135 C 
ATOM      4  O   UNL     1       5.877 -33.857  15.801  1.00  0.00    -0.299 OA
BRANCH   3   5
ATOM      5  C   UNL     1       7.725 -32.974  14.631  1.00  0.00     0.072 C 
ATOM      6  C   UNL     1       9.220 -33.272  14.605  1.00  0.00     0.012 C 
ENDBRANCH   3   5
ENDBRANCH   1   3
BRANCH   1   7
ATOM      7  C   UNL     1       7.803 -32.777  18.098  1.00  0.00     0.038 C 
BRANCH   7   8
ATOM      8  C   UNL     1       9.040 -31.916  18.071  1.00  0.00    -0.034 C 
ATOM      9  C   UNL     1       9.547 -31.376  19.183  1.00  0.00     0.004 C 
ENDBRANCH   7   8
ENDBRANCH   1   7
TORSDOF 4
ENDMDL
MODEL 6
REMARK VINA RESULT:    -3.053     15.404     16.739
REMARK INTER + INTRA:          -3.915
REMARK INTER:                  -3.698
REMARK INTRA:                  -0.217
REMARK UNBOUND:                -0.149
REMARK SMILES C=CC[C@@H](C)C(=O)CC
REMARK SMILES IDX 4 1 5 2 6 3 7 4 8 5 9 6 3 7 2 8 1 9
REMARK H PARENT
REMARK Flexibility Score: inf
ROOT
ATOM      1  C   UNL     1       7.010 -33.215  16.915  1.00  0.00     0.057 C 
ATOM      2  C   UNL     1       7.899 -32.876  15.713  1.00  0.00     0.016 C 
ENDROOT
BRANCH   1   3
ATOM      3  C   UNL     1       6.843 -34.717  17.028  1.00  0.00     0.135 C 
ATOM      4  O   UNL     1       7.373 -35.320  17.951  1.00  0.00    -0.299 OA
BRANCH   3   5
ATOM      5  C   UNL     1       6.020 -35.484  16.027  1.00  0.00     0.072 C 
ATOM      6  C   UNL     1       6.904 -36.401  15.188  1.00  0.00     0.012 C 
ENDBRANCH   3   5
ENDBRANCH   1   3
BRANCH   1   7
ATOM      7  C   UNL     1       7.601 -32.623  18.210  1.00  0.00     0.038 C 
BRANCH   7   8
ATOM      8  C   UNL     1       9.010 -32.125  18.016  1.00  0.00    -0.034 C 
ATOM      9  C   UNL     1       9.623 -31.370  18.932  1.00  0.00     0.004 C 
ENDBRANCH   7   8
ENDBRANCH   1   7
TORSDOF 4
ENDMDL
MODEL 7
REMARK VINA RESULT:    -2.981     15.289     16.574
REMARK INTER + INTRA:          -3.827
REMARK INTER:                  -3.441
REMARK INTRA:                  -0.386
REMARK UNBOUND:                -0.149
REMARK SMILES C=CC[C@@H](C)C(=O)CC
REMARK SMILES IDX 4 1 5 2 6 3 7 4 8 5 9 6 3 7 2 8 1 9
REMARK H PARENT
REMARK Flexibility Score: inf
ROOT
ATOM      1  C   UNL     1       8.070 -33.490  17.073  1.00  0.00     0.057 C 
ATOM      2  C   UNL     1       7.827 -32.539  18.250  1.00  0.00     0.016 C 
ENDROOT
BRANCH   1   3
ATOM      3  C   UNL     1       7.167 -34.701  17.191  1.00  0.00     0.135 C 
ATOM      4  O   UNL     1       7.372 -35.527  18.070  1.00  0.00    -0.299 OA
BRANCH   3   5
ATOM      5  C   UNL     1       6.008 -34.901  16.251  1.00  0.00     0.072 C 
ATOM      6  C   UNL     1       6.238 -36.117  15.360  1.00  0.00     0.012 C 
ENDBRANCH   3   5
ENDBRANCH   1   3
BRANCH   1   7
ATOM      7  C   UNL     1       7.848 -32.760  15.733  1.00  0.00     0.038 C 
BRANCH   7   8
ATOM      8  C   UNL     1       9.078 -32.789  14.861  1.00  0.00    -0.034 C 
ATOM      9  C   UNL     1       9.443 -33.888  14.195  1.00  0.00     0.004 C 
ENDBRANCH   7   8
ENDBRANCH   1   7
TORSDOF 4
ENDMDL
MODEL 8
REMARK VINA RESULT:    -2.981     13.712     14.923
REMARK INTER + INTRA:          -3.826
REMARK INTER:                  -3.510
REMARK INTRA:                  -0.317
REMARK UNBOUND:                -0.149
REMARK SMILES C=CC[C@@H](C)C(=O)CC
REMARK SMILES IDX 4 1 5 2 6 3 7 4 8 5 9 6 3 7 2 8 1 9
REMARK H PARENT
REMARK Flexibility Score: inf
ROOT
ATOM      1  C   UNL     1       8.425 -32.975  14.242  1.00  0.00     0.057 C 
ATOM      2  C   UNL     1       7.068 -33.276  13.598  1.00  0.00     0.016 C 
ENDROOT
BRANCH   1   3
ATOM      3  C   UNL     1       8.248 -32.712  15.724  1.00  0.00     0.135 C 
ATOM      4  O   UNL     1       9.139 -32.158  16.354  1.00  0.00    -0.299 OA
BRANCH   3   5
ATOM      5  C   UNL     1       6.983 -33.110  16.438  1.00  0.00     0.072 C 
ATOM      6  C   UNL     1       7.256 -34.227  17.440  1.00  0.00     0.012 C 
ENDBRANCH   3   5
ENDBRANCH   1   3
BRANCH   1   7
ATOM      7  C   UNL     1       9.411 -34.135  13.997  1.00  0.00     0.038 C 
BRANCH   7   8
ATOM      8  C   UNL     1      10.657 -33.680  13.282  1.00  0.00    -0.034 C 
ATOM      9  C   UNL     1      11.110 -32.427  13.385  1.00  0.00     0.004 C 
ENDBRANCH   7   8
ENDBRANCH   1   7
TORSDOF 4
ENDMDL
