MODEL 1
REMARK VINA RESULT:    -3.952      0.000      0.000
REMARK INTER + INTRA:          -4.067
REMARK INTER:                  -4.067
REMARK INTRA:                   0.000
REMARK UNBOUND:                 0.000
REMARK SMILES Nc1ncnc2nc[nH]c12
REMARK SMILES IDX 8 1 7 2 6 3 5 4 4 5 3 6 2 7 10 8 9 9 1 11
REMARK H PARENT 9 10 1 12 1 13
REMARK Flexibility Score: inf
ROOT
ATOM      1  C   UNL     1     -53.128 -36.206   1.854  1.00  0.00     0.199 A 
ATOM      2  N   UNL     1     -52.796 -34.918   1.562  1.00  0.00    -0.217 NA
ATOM      3  C   UNL     1     -52.407 -35.007   0.280  1.00  0.00     0.182 A 
ATOM      4  N   UNL     1     -51.970 -33.992  -0.505  1.00  0.00    -0.215 NA
ATOM      5  C   UNL     1     -51.616 -34.280  -1.794  1.00  0.00     0.226 A 
ATOM      6  N   UNL     1     -51.705 -35.564  -2.271  1.00  0.00    -0.217 NA
ATOM      7  C   UNL     1     -52.146 -36.589  -1.481  1.00  0.00     0.152 A 
ATOM      8  C   UNL     1     -52.502 -36.279  -0.171  1.00  0.00     0.127 A 
ATOM      9  N   UNL     1     -52.960 -37.062   0.814  1.00  0.00    -0.340 N 
ATOM     10  H   UNL     1     -53.146 -38.088   0.800  1.00  0.00     0.168 HD
ENDROOT
BRANCH   7  11
ATOM     11  N   UNL     1     -52.230 -37.916  -1.999  1.00  0.00    -0.382 N 
ATOM     12  H   UNL     1     -51.422 -38.569  -1.897  1.00  0.00     0.158 HD
ATOM     13  H   UNL     1     -53.089 -38.258  -2.484  1.00  0.00     0.158 HD
ENDBRANCH   7  11
TORSDOF 1
ENDMDL
MODEL 2
REMARK VINA RESULT:    -3.720      1.110      2.946
REMARK INTER + INTRA:          -3.829
REMARK INTER:                  -3.829
REMARK INTRA:                   0.000
REMARK UNBOUND:                 0.000
REMARK SMILES Nc1ncnc2nc[nH]c12
REMARK SMILES IDX 8 1 7 2 6 3 5 4 4 5 3 6 2 7 10 8 9 9 1 11
REMARK H PARENT 9 10 1 12 1 13
REMARK Flexibility Score: inf
ROOT
ATOM      1  C   UNL     1     -52.171 -37.731  -1.757  1.00  0.00     0.199 A 
ATOM      2  N   UNL     1     -51.927 -36.477  -2.227  1.00  0.00    -0.217 NA
ATOM      3  C   UNL     1     -52.224 -35.711  -1.164  1.00  0.00     0.182 A 
ATOM      4  N   UNL     1     -52.151 -34.360  -1.094  1.00  0.00    -0.215 NA
ATOM      5  C   UNL     1     -52.497 -33.754   0.082  1.00  0.00     0.226 A 
ATOM      6  N   UNL     1     -52.904 -34.503   1.157  1.00  0.00    -0.217 NA
ATOM      7  C   UNL     1     -52.978 -35.866   1.089  1.00  0.00     0.152 A 
ATOM      8  C   UNL     1     -52.623 -36.467  -0.115  1.00  0.00     0.127 A 
ATOM      9  N   UNL     1     -52.597 -37.758  -0.469  1.00  0.00    -0.340 N 
ATOM     10  H   UNL     1     -52.845 -38.597   0.100  1.00  0.00     0.168 HD
ENDROOT
BRANCH   7  11
ATOM     11  N   UNL     1     -53.405 -36.625   2.221  1.00  0.00    -0.382 N 
ATOM     12  H   UNL     1     -53.168 -36.302   3.185  1.00  0.00     0.158 HD
ATOM     13  H   UNL     1     -53.954 -37.505   2.111  1.00  0.00     0.158 HD
ENDBRANCH   7  11
TORSDOF 1
ENDMDL
MODEL 3
REMARK VINA RESULT:    -3.717      0.791      2.818
REMARK INTER + INTRA:          -3.825
REMARK INTER:                  -3.825
REMARK INTRA:                   0.000
REMARK UNBOUND:                 0.000
REMARK SMILES Nc1ncnc2nc[nH]c12
REMARK SMILES IDX 8 1 7 2 6 3 5 4 4 5 3 6 2 7 10 8 9 9 1 11
REMARK H PARENT 9 10 1 12 1 13
REMARK Flexibility Score: inf
ROOT
ATOM      1  C   UNL     1     -51.381 -33.847  -1.919  1.00  0.00     0.199 A 
ATOM      2  N   UNL     1     -51.979 -33.602  -0.722  1.00  0.00    -0.217 NA
ATOM      3  C   UNL     1     -52.456 -34.813  -0.388  1.00  0.00     0.182 A 
ATOM      4  N   UNL     1     -53.147 -35.129   0.733  1.00  0.00    -0.215 NA
ATOM      5  C   UNL     1     -53.552 -36.425   0.899  1.00  0.00     0.226 A 
ATOM      6  N   UNL     1     -53.258 -37.372  -0.050  1.00  0.00    -0.217 NA
ATOM      7  C   UNL     1     -52.560 -37.055  -1.182  1.00  0.00     0.152 A 
ATOM      8  C   UNL     1     -52.156 -35.732  -1.335  1.00  0.00     0.127 A 
ATOM      9  N   UNL     1     -51.471 -35.140  -2.321  1.00  0.00    -0.340 N 
ATOM     10  H   UNL     1     -51.092 -35.561  -3.197  1.00  0.00     0.168 HD
ENDROOT
BRANCH   7  11
ATOM     11  N   UNL     1     -52.267 -38.058  -2.155  1.00  0.00    -0.382 N 
ATOM     12  H   UNL     1     -53.044 -38.581  -2.617  1.00  0.00     0.158 HD
ATOM     13  H   UNL     1     -51.284 -38.287  -2.421  1.00  0.00     0.158 HD
ENDBRANCH   7  11
TORSDOF 1
ENDMDL
MODEL 4
REMARK VINA RESULT:    -3.656      1.154      3.025
REMARK INTER + INTRA:          -3.763
REMARK INTER:                  -3.763
REMARK INTRA:                   0.000
REMARK UNBOUND:                 0.000
REMARK SMILES Nc1ncnc2nc[nH]c12
REMARK SMILES IDX 8 1 7 2 6 3 5 4 4 5 3 6 2 7 10 8 9 9 1 11
REMARK H PARENT 9 10 1 12 1 13
REMARK Flexibility Score: inf
ROOT
ATOM      1  C   UNL     1     -51.942 -33.397  -0.655  1.00  0.00     0.199 A 
ATOM      2  N   UNL     1     -51.746 -34.062  -1.827  1.00  0.00    -0.217 NA
ATOM      3  C   UNL     1     -52.065 -35.324  -1.495  1.00  0.00     0.182 A 
ATOM      4  N   UNL     1     -52.041 -36.405  -2.313  1.00  0.00    -0.215 NA
ATOM      5  C   UNL     1     -52.402 -37.616  -1.791  1.00  0.00     0.226 A 
ATOM      6  N   UNL     1     -52.778 -37.724  -0.476  1.00  0.00    -0.217 NA
ATOM      7  C   UNL     1     -52.804 -36.634   0.350  1.00  0.00     0.152 A 
ATOM      8  C   UNL     1     -52.433 -35.409  -0.197  1.00  0.00     0.127 A 
ATOM      9  N   UNL     1     -52.363 -34.193   0.361  1.00  0.00    -0.340 N 
ATOM     10  H   UNL     1     -52.577 -33.911   1.342  1.00  0.00     0.168 HD
ENDROOT
BRANCH   7  11
ATOM     11  N   UNL     1     -53.198 -36.771   1.715  1.00  0.00    -0.382 N 
ATOM     12  H   UNL     1     -52.624 -36.335   2.471  1.00  0.00     0.158 HD
ATOM     13  H   UNL     1     -54.056 -37.301   1.984  1.00  0.00     0.158 HD
ENDBRANCH   7  11
TORSDOF 1
ENDMDL
MODEL 5
REMARK VINA RESULT:    -3.646      1.111      2.802
REMARK INTER + INTRA:          -3.752
REMARK INTER:                  -3.752
REMARK INTRA:                   0.000
REMARK UNBOUND:                 0.000
REMARK SMILES Nc1ncnc2nc[nH]c12
REMARK SMILES IDX 8 1 7 2 6 3 5 4 4 5 3 6 2 7 10 8 9 9 1 11
REMARK H PARENT 9 10 1 12 1 13
REMARK Flexibility Score: inf
ROOT
ATOM      1  C   UNL     1     -52.515 -37.955  -1.558  1.00  0.00     0.199 A 
ATOM      2  N   UNL     1     -53.035 -37.570  -0.360  1.00  0.00    -0.217 NA
ATOM      3  C   UNL     1     -52.713 -36.267  -0.315  1.00  0.00     0.182 A 
ATOM      4  N   UNL     1     -53.001 -35.397   0.683  1.00  0.00    -0.215 NA
ATOM      5  C   UNL     1     -52.588 -34.101   0.549  1.00  0.00     0.226 A 
ATOM      6  N   UNL     1     -51.901 -33.701  -0.570  1.00  0.00    -0.217 NA
ATOM      7  C   UNL     1     -51.610 -34.578  -1.578  1.00  0.00     0.152 A 
ATOM      8  C   UNL     1     -52.038 -35.893  -1.426  1.00  0.00     0.127 A 
ATOM      9  N   UNL     1     -51.900 -36.953  -2.233  1.00  0.00    -0.340 N 
ATOM     10  H   UNL     1     -51.431 -37.007  -3.164  1.00  0.00     0.168 HD
ENDROOT
BRANCH   7  11
ATOM     11  N   UNL     1     -50.894 -34.139  -2.733  1.00  0.00    -0.382 N 
ATOM     12  H   UNL     1     -50.883 -34.728  -3.595  1.00  0.00     0.158 HD
ATOM     13  H   UNL     1     -50.375 -33.234  -2.741  1.00  0.00     0.158 HD
ENDBRANCH   7  11
TORSDOF 1
ENDMDL
MODEL 6
REMARK VINA RESULT:    -3.518      1.047      2.452
REMARK INTER + INTRA:          -3.621
REMARK INTER:                  -3.621
REMARK INTRA:                   0.000
REMARK UNBOUND:                 0.000
REMARK SMILES Nc1ncnc2nc[nH]c12
REMARK SMILES IDX 8 1 7 2 6 3 5 4 4 5 3 6 2 7 10 8 9 9 1 11
REMARK H PARENT 9 10 1 12 1 13
REMARK Flexibility Score: inf
ROOT
ATOM      1  C   UNL     1     -52.364 -34.138   1.457  1.00  0.00     0.199 A 
ATOM      2  N   UNL     1     -52.898 -35.390   1.486  1.00  0.00    -0.217 NA
ATOM      3  C   UNL     1     -52.648 -35.835   0.243  1.00  0.00     0.182 A 
ATOM      4  N   UNL     1     -52.977 -37.048  -0.262  1.00  0.00    -0.215 NA
ATOM      5  C   UNL     1     -52.637 -37.321  -1.558  1.00  0.00     0.226 A 
ATOM      6  N   UNL     1     -51.979 -36.386  -2.317  1.00  0.00    -0.217 NA
ATOM      7  C   UNL     1     -51.645 -35.162  -1.808  1.00  0.00     0.152 A 
ATOM      8  C   UNL     1     -51.999 -34.900  -0.488  1.00  0.00     0.127 A 
ATOM      9  N   UNL     1     -51.807 -33.809   0.265  1.00  0.00    -0.340 N 
ATOM     10  H   UNL     1     -51.341 -32.912   0.007  1.00  0.00     0.168 HD
ENDROOT
BRANCH   7  11
ATOM     11  N   UNL     1     -50.961 -34.205  -2.617  1.00  0.00    -0.382 N 
ATOM     12  H   UNL     1     -51.192 -34.117  -3.631  1.00  0.00     0.158 HD
ATOM     13  H   UNL     1     -50.225 -33.582  -2.218  1.00  0.00     0.158 HD
ENDBRANCH   7  11
TORSDOF 1
ENDMDL
MODEL 7
REMARK VINA RESULT:    -3.457      1.092      3.468
REMARK INTER + INTRA:          -3.558
REMARK INTER:                  -3.558
REMARK INTRA:                   0.000
REMARK UNBOUND:                 0.000
REMARK SMILES Nc1ncnc2nc[nH]c12
REMARK SMILES IDX 8 1 7 2 6 3 5 4 4 5 3 6 2 7 10 8 9 9 1 11
REMARK H PARENT 9 10 1 12 1 13
REMARK Flexibility Score: inf
ROOT
ATOM      1  C   UNL     1     -52.094 -37.634  -1.675  1.00  0.00     0.199 A 
ATOM      2  N   UNL     1     -52.938 -38.046  -0.689  1.00  0.00    -0.217 NA
ATOM      3  C   UNL     1     -53.088 -36.929   0.043  1.00  0.00     0.182 A 
ATOM      4  N   UNL     1     -53.842 -36.790   1.160  1.00  0.00    -0.215 NA
ATOM      5  C   UNL     1     -53.870 -35.567   1.771  1.00  0.00     0.226 A 
ATOM      6  N   UNL     1     -53.151 -34.516   1.259  1.00  0.00    -0.217 NA
ATOM      7  C   UNL     1     -52.390 -34.655   0.132  1.00  0.00     0.152 A 
ATOM      8  C   UNL     1     -52.373 -35.906  -0.478  1.00  0.00     0.127 A 
ATOM      9  N   UNL     1     -51.730 -36.331  -1.573  1.00  0.00    -0.340 N 
ATOM     10  H   UNL     1     -51.097 -35.797  -2.207  1.00  0.00     0.168 HD
ENDROOT
BRANCH   7  11
ATOM     11  N   UNL     1     -51.651 -33.547  -0.382  1.00  0.00    -0.382 N 
ATOM     12  H   UNL     1     -52.105 -32.611  -0.469  1.00  0.00     0.158 HD
ATOM     13  H   UNL     1     -50.655 -33.648  -0.678  1.00  0.00     0.158 HD
ENDBRANCH   7  11
TORSDOF 1
ENDMDL
MODEL 8
REMARK VINA RESULT:    -3.198     13.597     14.128
REMARK INTER + INTRA:          -3.291
REMARK INTER:                  -3.291
REMARK INTRA:                   0.000
REMARK UNBOUND:                 0.000
REMARK SMILES Nc1ncnc2nc[nH]c12
REMARK SMILES IDX 8 1 7 2 6 3 5 4 4 5 3 6 2 7 10 8 9 9 1 11
REMARK H PARENT 9 10 1 12 1 13
REMARK Flexibility Score: inf
ROOT
ATOM      1  C   UNL     1     -41.345 -34.350   5.539  1.00  0.00     0.199 A 
ATOM      2  N   UNL     1     -40.181 -34.278   6.241  1.00  0.00    -0.217 NA
ATOM      3  C   UNL     1     -39.531 -33.284   5.613  1.00  0.00     0.182 A 
ATOM      4  N   UNL     1     -38.302 -32.802   5.921  1.00  0.00    -0.215 NA
ATOM      5  C   UNL     1     -37.803 -31.779   5.162  1.00  0.00     0.226 A 
ATOM      6  N   UNL     1     -38.533 -31.262   4.122  1.00  0.00    -0.217 NA
ATOM      7  C   UNL     1     -39.773 -31.747   3.811  1.00  0.00     0.152 A 
ATOM      8  C   UNL     1     -40.267 -32.788   4.593  1.00  0.00     0.127 A 
ATOM      9  N   UNL     1     -41.428 -33.452   4.525  1.00  0.00    -0.340 N 
ATOM     10  H   UNL     1     -42.217 -33.320   3.856  1.00  0.00     0.168 HD
ENDROOT
BRANCH   7  11
ATOM     11  N   UNL     1     -40.515 -31.194   2.724  1.00  0.00    -0.382 N 
ATOM     12  H   UNL     1     -40.015 -30.722   1.938  1.00  0.00     0.158 HD
ATOM     13  H   UNL     1     -41.556 -31.247   2.693  1.00  0.00     0.158 HD
ENDBRANCH   7  11
TORSDOF 1
ENDMDL
MODEL 9
REMARK VINA RESULT:    -3.150     13.879     15.485
REMARK INTER + INTRA:          -3.242
REMARK INTER:                  -3.242
REMARK INTRA:                   0.000
REMARK UNBOUND:                 0.000
REMARK SMILES Nc1ncnc2nc[nH]c12
REMARK SMILES IDX 8 1 7 2 6 3 5 4 4 5 3 6 2 7 10 8 9 9 1 11
REMARK H PARENT 9 10 1 12 1 13
REMARK Flexibility Score: inf
ROOT
ATOM      1  C   UNL     1     -37.911 -36.283 -10.169  1.00  0.00     0.199 A 
ATOM      2  N   UNL     1     -38.453 -35.151 -10.695  1.00  0.00    -0.217 NA
ATOM      3  C   UNL     1     -39.548 -34.980  -9.937  1.00  0.00     0.182 A 
ATOM      4  N   UNL     1     -40.458 -33.982 -10.044  1.00  0.00    -0.215 NA
ATOM      5  C   UNL     1     -41.514 -33.975  -9.176  1.00  0.00     0.226 A 
ATOM      6  N   UNL     1     -41.640 -34.957  -8.224  1.00  0.00    -0.217 NA
ATOM      7  C   UNL     1     -40.723 -35.964  -8.115  1.00  0.00     0.152 A 
ATOM      8  C   UNL     1     -39.654 -35.956  -9.006  1.00  0.00     0.127 A 
ATOM      9  N   UNL     1     -38.621 -36.799  -9.134  1.00  0.00    -0.340 N 
ATOM     10  H   UNL     1     -38.403 -37.654  -8.578  1.00  0.00     0.168 HD
ENDROOT
BRANCH   7  11
ATOM     11  N   UNL     1     -40.874 -36.975  -7.118  1.00  0.00    -0.382 N 
ATOM     12  H   UNL     1     -40.031 -37.417  -6.690  1.00  0.00     0.158 HD
ATOM     13  H   UNL     1     -41.817 -37.289  -6.800  1.00  0.00     0.158 HD
ENDBRANCH   7  11
TORSDOF 1
ENDMDL
