MODEL 1
REMARK VINA RESULT:    -5.739      0.000      0.000
REMARK INTER + INTRA:          -8.136
REMARK INTER:                  -7.081
REMARK INTRA:                  -1.055
REMARK UNBOUND:                -1.055
REMARK SMILES CC(C)=CCC[C@@H](C)[C@@H]1C=CC(C)=CC1
REMARK SMILES IDX 6 1 7 2 8 3 9 4 13 5 12 6 14 7 11 8 15 9 10 10 5 11 4 12
REMARK SMILES IDX 2 13 1 14 3 15
REMARK H PARENT
REMARK Flexibility Score: inf
ROOT
ATOM      1  C   UNL     1     142.101 142.490 159.889  1.00  0.00     0.008 C 
ENDROOT
BRANCH   1   2
ATOM      2  C   UNL     1     142.821 143.864 159.982  1.00  0.00    -0.007 C 
ATOM      3  C   UNL     1     142.598 144.673 158.685  1.00  0.00     0.008 C 
BRANCH   2   4
ATOM      4  C   UNL     1     142.363 144.702 161.223  1.00  0.00     0.018 C 
ATOM      5  C   UNL     1     140.568 145.835 165.024  1.00  0.00     0.044 C 
ATOM      6  C   UNL     1     141.064 145.306 163.713  1.00  0.00    -0.055 C 
ATOM      7  C   UNL     1     140.435 145.620 162.570  1.00  0.00    -0.023 C 
ATOM      8  C   UNL     1     142.201 144.361 163.681  1.00  0.00    -0.001 C 
ATOM      9  C   UNL     1     140.839 144.983 161.265  1.00  0.00     0.035 C 
ATOM     10  C   UNL     1     142.775 144.025 162.522  1.00  0.00    -0.023 C 
ENDBRANCH   2   4
ENDBRANCH   1   2
BRANCH   1  11
ATOM     11  C   UNL     1     143.056 141.315 159.611  1.00  0.00     0.027 C 
BRANCH  11  12
ATOM     12  C   UNL     1     143.488 140.659 160.898  1.00  0.00    -0.028 C 
ATOM     13  C   UNL     1     144.707 140.813 161.462  1.00  0.00    -0.080 C 
ATOM     14  C   UNL     1     144.985 140.126 162.775  1.00  0.00     0.039 C 
ATOM     15  C   UNL     1     145.794 141.632 160.806  1.00  0.00     0.039 C 
ENDBRANCH  11  12
ENDBRANCH   1  11
TORSDOF 4
ENDMDL
MODEL 2
REMARK VINA RESULT:    -5.713      6.281      8.378
REMARK INTER + INTRA:          -8.104
REMARK INTER:                  -7.048
REMARK INTRA:                  -1.055
REMARK UNBOUND:                -1.055
REMARK SMILES CC(C)=CCC[C@@H](C)[C@@H]1C=CC(C)=CC1
REMARK SMILES IDX 6 1 7 2 8 3 9 4 13 5 12 6 14 7 11 8 15 9 10 10 5 11 4 12
REMARK SMILES IDX 2 13 1 14 3 15
REMARK H PARENT
REMARK Flexibility Score: inf
ROOT
ATOM      1  C   UNL     1     148.599 148.355 159.945  1.00  0.00     0.008 C 
ENDROOT
BRANCH   1   2
ATOM      2  C   UNL     1     147.913 146.962 159.997  1.00  0.00    -0.007 C 
ATOM      3  C   UNL     1     148.192 146.179 158.695  1.00  0.00     0.008 C 
BRANCH   2   4
ATOM      4  C   UNL     1     148.358 146.116 161.237  1.00  0.00     0.018 C 
ATOM      5  C   UNL     1     150.113 144.958 165.050  1.00  0.00     0.044 C 
ATOM      6  C   UNL     1     149.631 145.496 163.737  1.00  0.00    -0.055 C 
ATOM      7  C   UNL     1     150.274 145.193 162.600  1.00  0.00    -0.023 C 
ATOM      8  C   UNL     1     148.491 146.438 163.699  1.00  0.00    -0.001 C 
ATOM      9  C   UNL     1     149.883 145.838 161.295  1.00  0.00     0.035 C 
ATOM     10  C   UNL     1     147.929 146.781 162.536  1.00  0.00    -0.023 C 
ENDBRANCH   2   4
ENDBRANCH   1   2
BRANCH   1  11
ATOM     11  C   UNL     1     147.616 149.513 159.703  1.00  0.00     0.027 C 
BRANCH  11  12
ATOM     12  C   UNL     1     147.199 150.144 161.008  1.00  0.00    -0.028 C 
ATOM     13  C   UNL     1     145.986 149.982 161.582  1.00  0.00    -0.080 C 
ATOM     14  C   UNL     1     145.725 150.643 162.911  1.00  0.00     0.039 C 
ATOM     15  C   UNL     1     144.890 149.179 160.922  1.00  0.00     0.039 C 
ENDBRANCH  11  12
ENDBRANCH   1  11
TORSDOF 4
ENDMDL
MODEL 3
REMARK VINA RESULT:    -5.708      4.381      5.937
REMARK INTER + INTRA:          -8.097
REMARK INTER:                  -7.050
REMARK INTRA:                  -1.047
REMARK UNBOUND:                -1.055
REMARK SMILES CC(C)=CCC[C@@H](C)[C@@H]1C=CC(C)=CC1
REMARK SMILES IDX 6 1 7 2 8 3 9 4 13 5 12 6 14 7 11 8 15 9 10 10 5 11 4 12
REMARK SMILES IDX 2 13 1 14 3 15
REMARK H PARENT
REMARK Flexibility Score: inf
ROOT
ATOM      1  C   UNL     1     142.520 148.615 159.896  1.00  0.00     0.008 C 
ENDROOT
BRANCH   1   2
ATOM      2  C   UNL     1     143.908 147.924 159.995  1.00  0.00    -0.007 C 
ATOM      3  C   UNL     1     144.706 148.138 158.690  1.00  0.00     0.008 C 
BRANCH   2   4
ATOM      4  C   UNL     1     144.744 148.423 161.222  1.00  0.00     0.018 C 
ATOM      5  C   UNL     1     145.865 150.317 164.979  1.00  0.00     0.044 C 
ATOM      6  C   UNL     1     145.338 149.785 163.681  1.00  0.00    -0.055 C 
ATOM      7  C   UNL     1     145.635 150.395 162.524  1.00  0.00    -0.023 C 
ATOM      8  C   UNL     1     144.413 148.630 163.678  1.00  0.00    -0.001 C 
ATOM      9  C   UNL     1     144.999 149.952 161.231  1.00  0.00     0.035 C 
ATOM     10  C   UNL     1     144.081 148.026 162.533  1.00  0.00    -0.023 C 
ENDBRANCH   2   4
ENDBRANCH   1   2
BRANCH   1  11
ATOM     11  C   UNL     1     141.367 147.636 159.616  1.00  0.00     0.027 C 
BRANCH  11  12
ATOM     12  C   UNL     1     140.689 147.224 160.900  1.00  0.00    -0.028 C 
ATOM     13  C   UNL     1     140.874 146.034 161.513  1.00  0.00    -0.080 C 
ATOM     14  C   UNL     1     140.159 145.776 162.814  1.00  0.00     0.039 C 
ATOM     15  C   UNL     1     141.756 144.958 160.923  1.00  0.00     0.039 C 
ENDBRANCH  11  12
ENDBRANCH   1  11
TORSDOF 4
ENDMDL
MODEL 4
REMARK VINA RESULT:    -5.704      6.467      8.495
REMARK INTER + INTRA:          -8.093
REMARK INTER:                  -7.030
REMARK INTRA:                  -1.063
REMARK UNBOUND:                -1.055
REMARK SMILES CC(C)=CCC[C@@H](C)[C@@H]1C=CC(C)=CC1
REMARK SMILES IDX 6 1 7 2 8 3 9 4 13 5 12 6 14 7 11 8 15 9 10 10 5 11 4 12
REMARK SMILES IDX 2 13 1 14 3 15
REMARK H PARENT
REMARK Flexibility Score: inf
ROOT
ATOM      1  C   UNL     1     146.219 148.246 161.220  1.00  0.00     0.008 C 
ENDROOT
BRANCH   1   2
ATOM      2  C   UNL     1     147.536 147.565 160.757  1.00  0.00    -0.007 C 
ATOM      3  C   UNL     1     148.326 148.509 159.824  1.00  0.00     0.008 C 
BRANCH   2   4
ATOM      4  C   UNL     1     148.439 147.118 161.956  1.00  0.00     0.018 C 
ATOM      5  C   UNL     1     150.591 144.655 164.829  1.00  0.00     0.044 C 
ATOM      6  C   UNL     1     149.739 145.356 163.815  1.00  0.00    -0.055 C 
ATOM      7  C   UNL     1     148.579 145.924 164.177  1.00  0.00    -0.023 C 
ATOM      8  C   UNL     1     150.134 145.351 162.390  1.00  0.00    -0.001 C 
ATOM      9  C   UNL     1     147.650 146.509 163.144  1.00  0.00     0.035 C 
ATOM     10  C   UNL     1     149.495 146.121 161.504  1.00  0.00    -0.023 C 
ENDBRANCH   2   4
ENDBRANCH   1   2
BRANCH   1  11
ATOM     11  C   UNL     1     146.373 149.751 161.502  1.00  0.00     0.027 C 
BRANCH  11  12
ATOM     12  C   UNL     1     145.748 150.116 162.825  1.00  0.00    -0.028 C 
ATOM     13  C   UNL     1     146.438 150.286 163.975  1.00  0.00    -0.080 C 
ATOM     14  C   UNL     1     145.682 150.690 165.214  1.00  0.00     0.039 C 
ATOM     15  C   UNL     1     147.931 150.065 164.052  1.00  0.00     0.039 C 
ENDBRANCH  11  12
ENDBRANCH   1  11
TORSDOF 4
ENDMDL
MODEL 5
REMARK VINA RESULT:    -5.687      4.093      6.091
REMARK INTER + INTRA:          -8.071
REMARK INTER:                  -7.037
REMARK INTRA:                  -1.034
REMARK UNBOUND:                -1.055
REMARK SMILES CC(C)=CCC[C@@H](C)[C@@H]1C=CC(C)=CC1
REMARK SMILES IDX 6 1 7 2 8 3 9 4 13 5 12 6 14 7 11 8 15 9 10 10 5 11 4 12
REMARK SMILES IDX 2 13 1 14 3 15
REMARK H PARENT
REMARK Flexibility Score: inf
ROOT
ATOM      1  C   UNL     1     142.486 146.237 161.296  1.00  0.00     0.008 C 
ENDROOT
BRANCH   1   2
ATOM      2  C   UNL     1     143.276 147.514 160.897  1.00  0.00    -0.007 C 
ATOM      3  C   UNL     1     142.447 148.370 159.914  1.00  0.00     0.008 C 
BRANCH   2   4
ATOM      4  C   UNL     1     143.696 148.375 162.137  1.00  0.00     0.018 C 
ATOM      5  C   UNL     1     146.091 150.508 165.082  1.00  0.00     0.044 C 
ATOM      6  C   UNL     1     145.418 149.673 164.034  1.00  0.00    -0.055 C 
ATOM      7  C   UNL     1     144.923 148.464 164.342  1.00  0.00    -0.023 C 
ATOM      8  C   UNL     1     145.374 150.142 162.632  1.00  0.00    -0.001 C 
ATOM      9  C   UNL     1     144.371 147.560 163.270  1.00  0.00     0.035 C 
ATOM     10  C   UNL     1     144.623 149.509 161.726  1.00  0.00    -0.023 C 
ENDBRANCH   2   4
ENDBRANCH   1   2
BRANCH   1  11
ATOM     11  C   UNL     1     140.993 146.498 161.561  1.00  0.00     0.027 C 
BRANCH  11  12
ATOM     12  C   UNL     1     140.557 145.851 162.852  1.00  0.00    -0.028 C 
ATOM     13  C   UNL     1     140.432 146.504 164.029  1.00  0.00    -0.080 C 
ATOM     14  C   UNL     1     139.945 145.734 165.230  1.00  0.00     0.039 C 
ATOM     15  C   UNL     1     140.781 147.966 164.174  1.00  0.00     0.039 C 
ENDBRANCH  11  12
ENDBRANCH   1  11
TORSDOF 4
ENDMDL
MODEL 6
REMARK VINA RESULT:    -5.686      1.185      2.400
REMARK INTER + INTRA:          -8.071
REMARK INTER:                  -7.001
REMARK INTRA:                  -1.070
REMARK UNBOUND:                -1.055
REMARK SMILES CC(C)=CCC[C@@H](C)[C@@H]1C=CC(C)=CC1
REMARK SMILES IDX 6 1 7 2 8 3 9 4 13 5 12 6 14 7 11 8 15 9 10 10 5 11 4 12
REMARK SMILES IDX 2 13 1 14 3 15
REMARK H PARENT
REMARK Flexibility Score: inf
ROOT
ATOM      1  C   UNL     1     144.547 142.424 161.132  1.00  0.00     0.008 C 
ENDROOT
BRANCH   1   2
ATOM      2  C   UNL     1     143.242 143.158 160.718  1.00  0.00    -0.007 C 
ATOM      3  C   UNL     1     142.407 142.269 159.769  1.00  0.00     0.008 C 
BRANCH   2   4
ATOM      4  C   UNL     1     142.375 143.590 161.949  1.00  0.00     0.018 C 
ATOM      5  C   UNL     1     140.300 146.015 164.910  1.00  0.00     0.044 C 
ATOM      6  C   UNL     1     141.124 145.327 163.863  1.00  0.00    -0.055 C 
ATOM      7  C   UNL     1     142.298 144.764 164.183  1.00  0.00    -0.023 C 
ATOM      8  C   UNL     1     140.684 145.342 162.451  1.00  0.00    -0.001 C 
ATOM      9  C   UNL     1     143.197 144.193 163.116  1.00  0.00     0.035 C 
ATOM     10  C   UNL     1     141.299 144.583 161.539  1.00  0.00    -0.023 C 
ENDBRANCH   2   4
ENDBRANCH   1   2
BRANCH   1  11
ATOM     11  C   UNL     1     144.330 140.943 161.491  1.00  0.00     0.027 C 
BRANCH  11  12
ATOM     12  C   UNL     1     144.986 140.609 162.807  1.00  0.00    -0.028 C 
ATOM     13  C   UNL     1     144.322 140.471 163.977  1.00  0.00    -0.080 C 
ATOM     14  C   UNL     1     145.106 140.094 165.208  1.00  0.00     0.039 C 
ATOM     15  C   UNL     1     142.833 140.699 164.084  1.00  0.00     0.039 C 
ENDBRANCH  11  12
ENDBRANCH   1  11
TORSDOF 4
ENDMDL
MODEL 7
REMARK VINA RESULT:    -5.682      4.585      6.432
REMARK INTER + INTRA:          -8.065
REMARK INTER:                  -6.993
REMARK INTRA:                  -1.073
REMARK UNBOUND:                -1.055
REMARK SMILES CC(C)=CCC[C@@H](C)[C@@H]1C=CC(C)=CC1
REMARK SMILES IDX 6 1 7 2 8 3 9 4 13 5 12 6 14 7 11 8 15 9 10 10 5 11 4 12
REMARK SMILES IDX 2 13 1 14 3 15
REMARK H PARENT
REMARK Flexibility Score: inf
ROOT
ATOM      1  C   UNL     1     148.376 144.503 161.110  1.00  0.00     0.008 C 
ENDROOT
BRANCH   1   2
ATOM      2  C   UNL     1     147.600 143.219 160.708  1.00  0.00    -0.007 C 
ATOM      3  C   UNL     1     148.443 142.367 159.734  1.00  0.00     0.008 C 
BRANCH   2   4
ATOM      4  C   UNL     1     147.176 142.358 161.946  1.00  0.00     0.018 C 
ATOM      5  C   UNL     1     144.773 140.322 164.952  1.00  0.00     0.044 C 
ATOM      6  C   UNL     1     145.455 141.135 163.893  1.00  0.00    -0.055 C 
ATOM      7  C   UNL     1     146.048 142.297 164.204  1.00  0.00    -0.023 C 
ATOM      8  C   UNL     1     145.402 140.700 162.481  1.00  0.00    -0.001 C 
ATOM      9  C   UNL     1     146.613 143.188 163.128  1.00  0.00     0.035 C 
ATOM     10  C   UNL     1     146.154 141.302 161.554  1.00  0.00    -0.023 C 
ENDBRANCH   2   4
ENDBRANCH   1   2
BRANCH   1  11
ATOM     11  C   UNL     1     149.838 144.236 161.509  1.00  0.00     0.027 C 
BRANCH  11  12
ATOM     12  C   UNL     1     150.167 144.907 162.820  1.00  0.00    -0.028 C 
ATOM     13  C   UNL     1     150.301 144.257 163.997  1.00  0.00    -0.080 C 
ATOM     14  C   UNL     1     150.673 145.055 165.221  1.00  0.00     0.039 C 
ATOM     15  C   UNL     1     150.071 142.769 164.121  1.00  0.00     0.039 C 
ENDBRANCH  11  12
ENDBRANCH   1  11
TORSDOF 4
ENDMDL
MODEL 8
REMARK VINA RESULT:    -5.628      5.543      6.697
REMARK INTER + INTRA:          -7.998
REMARK INTER:                  -6.960
REMARK INTRA:                  -1.038
REMARK UNBOUND:                -1.055
REMARK SMILES CC(C)=CCC[C@@H](C)[C@@H]1C=CC(C)=CC1
REMARK SMILES IDX 6 1 7 2 8 3 9 4 13 5 12 6 14 7 11 8 15 9 10 10 5 11 4 12
REMARK SMILES IDX 2 13 1 14 3 15
REMARK H PARENT
REMARK Flexibility Score: inf
ROOT
ATOM      1  C   UNL     1     146.996 143.820 165.226  1.00  0.00     0.008 C 
ENDROOT
BRANCH   1   2
ATOM      2  C   UNL     1     146.556 144.879 164.177  1.00  0.00    -0.007 C 
ATOM      3  C   UNL     1     145.218 144.463 163.527  1.00  0.00     0.008 C 
BRANCH   2   4
ATOM      4  C   UNL     1     146.433 146.317 164.786  1.00  0.00     0.018 C 
ATOM      5  C   UNL     1     145.879 150.617 165.180  1.00  0.00     0.044 C 
ATOM      6  C   UNL     1     146.116 149.170 164.868  1.00  0.00    -0.055 C 
ATOM      7  C   UNL     1     147.358 148.664 164.891  1.00  0.00    -0.023 C 
ATOM      8  C   UNL     1     144.988 148.311 164.447  1.00  0.00    -0.001 C 
ATOM      9  C   UNL     1     147.624 147.248 164.445  1.00  0.00     0.035 C 
ATOM     10  C   UNL     1     145.141 146.988 164.346  1.00  0.00    -0.023 C 
ENDBRANCH   2   4
ENDBRANCH   1   2
BRANCH   1  11
ATOM     11  C   UNL     1     148.400 143.247 164.966  1.00  0.00     0.027 C 
BRANCH  11  12
ATOM     12  C   UNL     1     148.980 143.806 163.690  1.00  0.00    -0.028 C 
ATOM     13  C   UNL     1     150.119 144.530 163.623  1.00  0.00    -0.080 C 
ATOM     14  C   UNL     1     150.600 144.990 162.270  1.00  0.00     0.039 C 
ATOM     15  C   UNL     1     150.906 144.901 164.858  1.00  0.00     0.039 C 
ENDBRANCH  11  12
ENDBRANCH   1  11
TORSDOF 4
ENDMDL
MODEL 9
REMARK VINA RESULT:    -5.601      6.408      7.083
REMARK INTER + INTRA:          -7.965
REMARK INTER:                  -7.062
REMARK INTRA:                  -0.903
REMARK UNBOUND:                -1.055
REMARK SMILES CC(C)=CCC[C@@H](C)[C@@H]1C=CC(C)=CC1
REMARK SMILES IDX 6 1 7 2 8 3 9 4 13 5 12 6 14 7 11 8 15 9 10 10 5 11 4 12
REMARK SMILES IDX 2 13 1 14 3 15
REMARK H PARENT
REMARK Flexibility Score: inf
ROOT
ATOM      1  C   UNL     1     148.611 145.337 160.862  1.00  0.00     0.008 C 
ENDROOT
BRANCH   1   2
ATOM      2  C   UNL     1     148.760 146.877 161.008  1.00  0.00    -0.007 C 
ATOM      3  C   UNL     1     148.662 147.557 159.624  1.00  0.00     0.008 C 
BRANCH   2   4
ATOM      4  C   UNL     1     147.703 147.495 161.985  1.00  0.00     0.018 C 
ATOM      5  C   UNL     1     145.807 150.028 164.976  1.00  0.00     0.044 C 
ATOM      6  C   UNL     1     146.621 149.206 164.023  1.00  0.00    -0.055 C 
ATOM      7  C   UNL     1     147.055 147.987 164.376  1.00  0.00    -0.023 C 
ATOM      8  C   UNL     1     147.024 149.772 162.717  1.00  0.00    -0.001 C 
ATOM      9  C   UNL     1     147.989 147.210 163.482  1.00  0.00     0.035 C 
ATOM     10  C   UNL     1     147.584 148.998 161.783  1.00  0.00    -0.023 C 
ENDBRANCH   2   4
ENDBRANCH   1   2
BRANCH   1  11
ATOM     11  C   UNL     1     149.914 144.567 161.138  1.00  0.00     0.027 C 
BRANCH  11  12
ATOM     12  C   UNL     1     150.514 144.985 162.458  1.00  0.00    -0.028 C 
ATOM     13  C   UNL     1     150.327 144.328 163.624  1.00  0.00    -0.080 C 
ATOM     14  C   UNL     1     151.024 144.840 164.858  1.00  0.00     0.039 C 
ATOM     15  C   UNL     1     149.432 143.115 163.724  1.00  0.00     0.039 C 
ENDBRANCH  11  12
ENDBRANCH   1  11
TORSDOF 4
ENDMDL
