MODEL 1
REMARK VINA RESULT:    -5.704      0.000      0.000
REMARK INTER + INTRA:          -9.847
REMARK INTER:                  -8.704
REMARK INTRA:                  -1.142
REMARK UNBOUND:                -1.142
REMARK SMILES OC[C@@H]1O[C@@](CO)(O[C@@H]2O[C@H](CO)[C@H](O)[C@H](O)[C@H]2O)[C@H](O)[C@H]1O
REMARK SMILES IDX 8 1 9 2 11 3 14 4 10 5 16 6 18 7 12 8 13 9 15 11 17 13 19 15
REMARK SMILES IDX 5 17 20 18 4 19 22 20 3 21 6 22 7 23 21 25 23 27 2 29 1 30
REMARK H PARENT 13 10 15 12 17 14 19 16 7 24 21 26 23 28 1 31
REMARK Flexibility Score: inf
ROOT
ATOM      1  O   UNL     1     103.344  97.361  96.988  1.00  0.00    -0.313 OA
ENDROOT
BRANCH   1   2
ATOM      2  C   UNL     1     104.695  98.180  97.028  1.00  0.00     0.285 C 
ATOM      3  C   UNL     1     105.001 100.044  95.518  1.00  0.00     0.178 C 
ATOM      4  C   UNL     1     106.462  99.488  94.984  1.00  0.00     0.177 C 
ATOM      5  O   UNL     1     104.644  99.606  96.810  1.00  0.00    -0.341 OA
ATOM      6  C   UNL     1     106.366  97.962  95.098  1.00  0.00     0.179 C 
ATOM      7  C   UNL     1     106.133  97.596  96.605  1.00  0.00     0.202 C 
BRANCH   3   8
ATOM      8  C   UNL     1     103.703 100.124  94.609  1.00  0.00     0.191 C 
BRANCH   8   9
ATOM      9  O   UNL     1     103.994 100.810  93.406  1.00  0.00    -0.394 OA
ATOM     10  H   UNL     1     104.204 100.148  92.702  1.00  0.00     0.210 HD
ENDBRANCH   8   9
ENDBRANCH   3   8
BRANCH   4  11
ATOM     11  O   UNL     1     106.670  99.781  93.630  1.00  0.00    -0.387 OA
ATOM     12  H   UNL     1     107.599  99.511  93.416  1.00  0.00     0.211 HD
ENDBRANCH   4  11
BRANCH   6  13
ATOM     13  O   UNL     1     105.305  97.515  94.323  1.00  0.00    -0.387 OA
ATOM     14  H   UNL     1     105.138  98.186  93.564  1.00  0.00     0.211 HD
ENDBRANCH   6  13
BRANCH   7  15
ATOM     15  O   UNL     1     107.079  98.288  97.418  1.00  0.00    -0.385 OA
ATOM     16  H   UNL     1     107.494  98.960  96.839  1.00  0.00     0.211 HD
ENDBRANCH   7  15
ENDBRANCH   1   2
BRANCH   1  17
ATOM     17  C   UNL     1     102.288  97.161  98.015  1.00  0.00     0.224 C 
ATOM     18  C   UNL     1     101.634  98.484  98.366  1.00  0.00     0.208 C 
ATOM     19  O   UNL     1     101.106  96.286  97.800  1.00  0.00    -0.337 OA
ATOM     20  C   UNL     1     100.670  98.430  97.030  1.00  0.00     0.180 C 
ATOM     21  C   UNL     1     100.047  97.112  97.346  1.00  0.00     0.179 C 
BRANCH  17  22
ATOM     22  C   UNL     1     102.988  96.416  99.203  1.00  0.00     0.225 C 
BRANCH  22  23
ATOM     23  O   UNL     1     103.042  94.981  99.000  1.00  0.00    -0.391 OA
ATOM     24  H   UNL     1     102.286  94.808  98.393  1.00  0.00     0.210 HD
ENDBRANCH  22  23
ENDBRANCH  17  22
BRANCH  18  25
ATOM     25  O   UNL     1     100.898  98.316  99.608  1.00  0.00    -0.385 OA
ATOM     26  H   UNL     1     101.259  99.044 100.227  1.00  0.00     0.211 HD
ENDBRANCH  18  25
BRANCH  20  27
ATOM     27  O   UNL     1     101.152  98.035  95.708  1.00  0.00    -0.387 OA
ATOM     28  H   UNL     1     101.684  97.131  95.549  1.00  0.00     0.211 HD
ENDBRANCH  20  27
BRANCH  21  29
ATOM     29  C   UNL     1      98.692  97.102  98.102  1.00  0.00     0.191 C 
BRANCH  29  30
ATOM     30  O   UNL     1      98.173  98.414  98.226  1.00  0.00    -0.394 OA
ATOM     31  H   UNL     1      97.917  98.506  99.204  1.00  0.00     0.210 HD
ENDBRANCH  29  30
ENDBRANCH  21  29
ENDBRANCH   1  17
TORSDOF 13
ENDMDL
MODEL 2
REMARK VINA RESULT:    -5.651      1.716      6.462
REMARK INTER + INTRA:          -9.766
REMARK INTER:                  -8.191
REMARK INTRA:                  -1.576
REMARK UNBOUND:                -1.142
REMARK SMILES OC[C@@H]1O[C@@](CO)(O[C@@H]2O[C@H](CO)[C@H](O)[C@H](O)[C@H]2O)[C@H](O)[C@H]1O
REMARK SMILES IDX 8 1 9 2 11 3 14 4 10 5 16 6 18 7 12 8 13 9 15 11 17 13 19 15
REMARK SMILES IDX 5 17 20 18 4 19 22 20 3 21 6 22 7 23 21 25 23 27 2 29 1 30
REMARK H PARENT 13 10 15 12 17 14 19 16 7 24 21 26 23 28 1 31
REMARK Flexibility Score: inf
ROOT
ATOM      1  O   UNL     1     102.682  98.424  95.837  1.00  0.00    -0.313 OA
ENDROOT
BRANCH   1   2
ATOM      2  C   UNL     1     101.598  98.658  96.962  1.00  0.00     0.285 C 
ATOM      3  C   UNL     1      99.565  97.347  96.945  1.00  0.00     0.178 C 
ATOM      4  C   UNL     1      98.598  98.680  97.066  1.00  0.00     0.177 C 
ATOM      5  O   UNL     1     100.866  97.518  97.462  1.00  0.00    -0.341 OA
ATOM      6  C   UNL     1      99.382  99.798  96.368  1.00  0.00     0.179 C 
ATOM      7  C   UNL     1     100.734 100.003  97.135  1.00  0.00     0.202 C 
BRANCH   3   8
ATOM      8  C   UNL     1      99.624  96.414  95.664  1.00  0.00     0.191 C 
BRANCH   8   9
ATOM      9  O   UNL     1      98.587  96.757  94.765  1.00  0.00    -0.394 OA
ATOM     10  H   UNL     1      98.586  96.113  94.015  1.00  0.00     0.210 HD
ENDBRANCH   8   9
ENDBRANCH   3   8
BRANCH   4  11
ATOM     11  O   UNL     1      97.400  98.523  96.358  1.00  0.00    -0.387 OA
ATOM     12  H   UNL     1      97.119  99.425  96.061  1.00  0.00     0.211 HD
ENDBRANCH   4  11
BRANCH   6  13
ATOM     13  O   UNL     1      99.626  99.428  95.052  1.00  0.00    -0.387 OA
ATOM     14  H   UNL     1      98.962  98.692  94.782  1.00  0.00     0.211 HD
ENDBRANCH   6  13
BRANCH   7  15
ATOM     15  O   UNL     1     100.478 100.114  98.535  1.00  0.00    -0.385 OA
ATOM     16  H   UNL     1     100.865  99.312  98.945  1.00  0.00     0.211 HD
ENDBRANCH   7  15
ENDBRANCH   1   2
BRANCH   1  17
ATOM     17  C   UNL     1     103.776  99.297  95.333  1.00  0.00     0.224 C 
ATOM     18  C   UNL     1     104.453 100.014  96.486  1.00  0.00     0.208 C 
ATOM     19  O   UNL     1     104.942  98.774  94.575  1.00  0.00    -0.337 OA
ATOM     20  C   UNL     1     105.364  98.692  96.854  1.00  0.00     0.180 C 
ATOM     21  C   UNL     1     105.989  98.558  95.506  1.00  0.00     0.179 C 
BRANCH  17  22
ATOM     22  C   UNL     1     103.118 100.221  94.252  1.00  0.00     0.225 C 
BRANCH  22  23
ATOM     23  O   UNL     1     104.100 100.846  93.388  1.00  0.00    -0.391 OA
ATOM     24  H   UNL     1     103.569 101.126  92.606  1.00  0.00     0.210 HD
ENDBRANCH  22  23
ENDBRANCH  17  22
BRANCH  18  25
ATOM     25  O   UNL     1     105.235 101.114  95.944  1.00  0.00    -0.385 OA
ATOM     26  H   UNL     1     104.735 101.399  95.100  1.00  0.00     0.211 HD
ENDBRANCH  18  25
BRANCH  20  27
ATOM     27  O   UNL     1     104.828  97.332  96.886  1.00  0.00    -0.387 OA
ATOM     28  H   UNL     1     104.266  96.929  96.083  1.00  0.00     0.211 HD
ENDBRANCH  20  27
BRANCH  21  29
ATOM     29  C   UNL     1     107.373  99.220  95.269  1.00  0.00     0.191 C 
BRANCH  29  30
ATOM     30  O   UNL     1     107.355 100.024  94.104  1.00  0.00    -0.394 OA
ATOM     31  H   UNL     1     108.303 100.377  94.012  1.00  0.00     0.210 HD
ENDBRANCH  29  30
ENDBRANCH  21  29
ENDBRANCH   1  17
TORSDOF 13
ENDMDL
MODEL 3
REMARK VINA RESULT:    -5.534      1.650      6.642
REMARK INTER + INTRA:          -9.588
REMARK INTER:                  -8.083
REMARK INTRA:                  -1.505
REMARK UNBOUND:                -1.142
REMARK SMILES OC[C@@H]1O[C@@](CO)(O[C@@H]2O[C@H](CO)[C@H](O)[C@H](O)[C@H]2O)[C@H](O)[C@H]1O
REMARK SMILES IDX 8 1 9 2 11 3 14 4 10 5 16 6 18 7 12 8 13 9 15 11 17 13 19 15
REMARK SMILES IDX 5 17 20 18 4 19 22 20 3 21 6 22 7 23 21 25 23 27 2 29 1 30
REMARK H PARENT 13 10 15 12 17 14 19 16 7 24 21 26 23 28 1 31
REMARK Flexibility Score: inf
ROOT
ATOM      1  O   UNL     1     102.351  98.608  95.802  1.00  0.00    -0.313 OA
ENDROOT
BRANCH   1   2
ATOM      2  C   UNL     1     101.018  99.103  96.493  1.00  0.00     0.285 C 
ATOM      3  C   UNL     1      99.848  97.628  98.012  1.00  0.00     0.178 C 
ATOM      4  C   UNL     1      98.402  97.836  97.241  1.00  0.00     0.177 C 
ATOM      5  O   UNL     1     100.755  98.696  97.854  1.00  0.00    -0.341 OA
ATOM      6  C   UNL     1      98.772  98.100  95.777  1.00  0.00     0.179 C 
ATOM      7  C   UNL     1      99.642  99.403  95.717  1.00  0.00     0.202 C 
BRANCH   3   8
ATOM      8  C   UNL     1     100.645  96.257  98.035  1.00  0.00     0.191 C 
BRANCH   8   9
ATOM      9  O   UNL     1      99.776  95.184  97.728  1.00  0.00    -0.394 OA
ATOM     10  H   UNL     1     100.311  94.359  97.617  1.00  0.00     0.210 HD
ENDBRANCH   8   9
ENDBRANCH   3   8
BRANCH   4  11
ATOM     11  O   UNL     1      97.628  96.668  97.259  1.00  0.00    -0.387 OA
ATOM     12  H   UNL     1      97.634  96.333  98.190  1.00  0.00     0.211 HD
ENDBRANCH   4  11
BRANCH   6  13
ATOM     13  O   UNL     1      99.492  97.018  95.288  1.00  0.00    -0.387 OA
ATOM     14  H   UNL     1     100.410  97.344  94.965  1.00  0.00     0.211 HD
ENDBRANCH   6  13
BRANCH   7  15
ATOM     15  O   UNL     1      99.004 100.439  96.463  1.00  0.00    -0.385 OA
ATOM     16  H   UNL     1      98.661 100.016  97.277  1.00  0.00     0.211 HD
ENDBRANCH   7  15
ENDBRANCH   1   2
BRANCH   1  17
ATOM     17  C   UNL     1     103.547  99.356  95.332  1.00  0.00     0.224 C 
ATOM     18  C   UNL     1     104.226 100.052  96.497  1.00  0.00     0.208 C 
ATOM     19  O   UNL     1     104.698  98.699  94.659  1.00  0.00    -0.337 OA
ATOM     20  C   UNL     1     104.987  98.666  96.960  1.00  0.00     0.180 C 
ATOM     21  C   UNL     1     105.668  98.422  95.656  1.00  0.00     0.179 C 
BRANCH  17  22
ATOM     22  C   UNL     1     103.038 100.294  94.185  1.00  0.00     0.225 C 
BRANCH  22  23
ATOM     23  O   UNL     1     104.121 100.813  93.374  1.00  0.00    -0.391 OA
ATOM     24  H   UNL     1     103.955 101.784  93.366  1.00  0.00     0.210 HD
ENDBRANCH  22  23
ENDBRANCH  17  22
BRANCH  18  25
ATOM     25  O   UNL     1     105.137 101.052  95.963  1.00  0.00    -0.385 OA
ATOM     26  H   UNL     1     105.156 101.791  96.669  1.00  0.00     0.211 HD
ENDBRANCH  18  25
BRANCH  20  27
ATOM     27  O   UNL     1     104.325  97.364  97.008  1.00  0.00    -0.387 OA
ATOM     28  H   UNL     1     104.372  96.678  96.200  1.00  0.00     0.211 HD
ENDBRANCH  20  27
BRANCH  21  29
ATOM     29  C   UNL     1     107.119  98.944  95.476  1.00  0.00     0.191 C 
BRANCH  29  30
ATOM     30  O   UNL     1     107.251  99.660  94.261  1.00  0.00    -0.394 OA
ATOM     31  H   UNL     1     108.247  99.662  94.063  1.00  0.00     0.210 HD
ENDBRANCH  29  30
ENDBRANCH  21  29
ENDBRANCH   1  17
TORSDOF 13
ENDMDL
MODEL 4
REMARK VINA RESULT:    -5.239      1.625      6.520
REMARK INTER + INTRA:          -9.138
REMARK INTER:                  -7.651
REMARK INTRA:                  -1.488
REMARK UNBOUND:                -1.142
REMARK SMILES OC[C@@H]1O[C@@](CO)(O[C@@H]2O[C@H](CO)[C@H](O)[C@H](O)[C@H]2O)[C@H](O)[C@H]1O
REMARK SMILES IDX 8 1 9 2 11 3 14 4 10 5 16 6 18 7 12 8 13 9 15 11 17 13 19 15
REMARK SMILES IDX 5 17 20 18 4 19 22 20 3 21 6 22 7 23 21 25 23 27 2 29 1 30
REMARK H PARENT 13 10 15 12 17 14 19 16 7 24 21 26 23 28 1 31
REMARK Flexibility Score: inf
ROOT
ATOM      1  O   UNL     1     102.964  98.505  96.134  1.00  0.00    -0.313 OA
ENDROOT
BRANCH   1   2
ATOM      2  C   UNL     1     101.390  98.640  96.104  1.00  0.00     0.285 C 
ATOM      3  C   UNL     1     100.248  99.664  97.975  1.00  0.00     0.178 C 
ATOM      4  C   UNL     1      99.187  98.408  98.130  1.00  0.00     0.177 C 
ATOM      5  O   UNL     1     100.788  99.819  96.681  1.00  0.00    -0.341 OA
ATOM      6  C   UNL     1      99.964  97.176  97.649  1.00  0.00     0.179 C 
ATOM      7  C   UNL     1     100.364  97.402  96.150  1.00  0.00     0.202 C 
BRANCH   3   8
ATOM      8  C   UNL     1     101.354 100.022  99.054  1.00  0.00     0.191 C 
BRANCH   8   9
ATOM      9  O   UNL     1     101.172  99.235 100.216  1.00  0.00    -0.394 OA
ATOM     10  H   UNL     1     101.469  99.753 101.005  1.00  0.00     0.210 HD
ENDBRANCH   8   9
ENDBRANCH   3   8
BRANCH   4  11
ATOM     11  O   UNL     1      98.845  98.174  99.468  1.00  0.00    -0.387 OA
ATOM     12  H   UNL     1      98.231  98.902  99.739  1.00  0.00     0.211 HD
ENDBRANCH   4  11
BRANCH   6  13
ATOM     13  O   UNL     1     101.099  97.021  98.433  1.00  0.00    -0.387 OA
ATOM     14  H   UNL     1     100.821  96.686  99.363  1.00  0.00     0.211 HD
ENDBRANCH   6  13
BRANCH   7  15
ATOM     15  O   UNL     1      99.222  97.827  95.408  1.00  0.00    -0.385 OA
ATOM     16  H   UNL     1      98.836  97.016  95.017  1.00  0.00     0.211 HD
ENDBRANCH   7  15
ENDBRANCH   1   2
BRANCH   1  17
ATOM     17  C   UNL     1     104.032  99.338  95.519  1.00  0.00     0.224 C 
ATOM     18  C   UNL     1     104.730 100.169  96.580  1.00  0.00     0.208 C 
ATOM     19  O   UNL     1     105.184  98.760  94.781  1.00  0.00    -0.337 OA
ATOM     20  C   UNL     1     105.668  98.897  97.044  1.00  0.00     0.180 C 
ATOM     21  C   UNL     1     106.259  98.643  95.698  1.00  0.00     0.179 C 
BRANCH  17  22
ATOM     22  C   UNL     1     103.331 100.149  94.376  1.00  0.00     0.225 C 
BRANCH  22  23
ATOM     23  O   UNL     1     104.284 100.788  93.489  1.00  0.00    -0.391 OA
ATOM     24  H   UNL     1     104.656 100.035  92.974  1.00  0.00     0.210 HD
ENDBRANCH  22  23
ENDBRANCH  17  22
BRANCH  18  25
ATOM     25  O   UNL     1     105.482 101.221  95.915  1.00  0.00    -0.385 OA
ATOM     26  H   UNL     1     105.200 102.082  96.387  1.00  0.00     0.211 HD
ENDBRANCH  18  25
BRANCH  20  27
ATOM     27  O   UNL     1     105.153  97.540  97.219  1.00  0.00    -0.387 OA
ATOM     28  H   UNL     1     105.738  96.766  97.647  1.00  0.00     0.211 HD
ENDBRANCH  20  27
BRANCH  21  29
ATOM     29  C   UNL     1     107.626  99.295  95.361  1.00  0.00     0.191 C 
BRANCH  29  30
ATOM     30  O   UNL     1     107.521 100.127  94.219  1.00  0.00    -0.394 OA
ATOM     31  H   UNL     1     107.469 101.073  94.585  1.00  0.00     0.210 HD
ENDBRANCH  29  30
ENDBRANCH  21  29
ENDBRANCH   1  17
TORSDOF 13
ENDMDL
MODEL 5
REMARK VINA RESULT:    -5.117      2.221      6.076
REMARK INTER + INTRA:          -8.951
REMARK INTER:                  -7.556
REMARK INTRA:                  -1.395
REMARK UNBOUND:                -1.142
REMARK SMILES OC[C@@H]1O[C@@](CO)(O[C@@H]2O[C@H](CO)[C@H](O)[C@H](O)[C@H]2O)[C@H](O)[C@H]1O
REMARK SMILES IDX 8 1 9 2 11 3 14 4 10 5 16 6 18 7 12 8 13 9 15 11 17 13 19 15
REMARK SMILES IDX 5 17 20 18 4 19 22 20 3 21 6 22 7 23 21 25 23 27 2 29 1 30
REMARK H PARENT 13 10 15 12 17 14 19 16 7 24 21 26 23 28 1 31
REMARK Flexibility Score: inf
ROOT
ATOM      1  O   UNL     1     102.561  99.239  96.743  1.00  0.00    -0.313 OA
ENDROOT
BRANCH   1   2
ATOM      2  C   UNL     1     101.195  99.306  95.952  1.00  0.00     0.285 C 
ATOM      3  C   UNL     1     100.107 101.444  95.638  1.00  0.00     0.178 C 
ATOM      4  C   UNL     1      98.658 100.890  96.204  1.00  0.00     0.177 C 
ATOM      5  O   UNL     1     100.946 100.446  95.101  1.00  0.00    -0.341 OA
ATOM      6  C   UNL     1      99.022  99.800  97.218  1.00  0.00     0.179 C 
ATOM      7  C   UNL     1      99.808  98.671  96.465  1.00  0.00     0.202 C 
BRANCH   3   8
ATOM      8  C   UNL     1     100.989 102.529  96.387  1.00  0.00     0.191 C 
BRANCH   8   9
ATOM      9  O   UNL     1     101.766 103.253  95.453  1.00  0.00    -0.394 OA
ATOM     10  H   UNL     1     102.545 103.646  95.919  1.00  0.00     0.210 HD
ENDBRANCH   8   9
ENDBRANCH   3   8
BRANCH   4  11
ATOM     11  O   UNL     1      97.958 101.880  96.907  1.00  0.00    -0.387 OA
ATOM     12  H   UNL     1      98.631 102.518  97.253  1.00  0.00     0.211 HD
ENDBRANCH   4  11
BRANCH   6  13
ATOM     13  O   UNL     1      99.813 100.354  98.215  1.00  0.00    -0.387 OA
ATOM     14  H   UNL     1      99.478 101.303  98.420  1.00  0.00     0.211 HD
ENDBRANCH   6  13
BRANCH   7  15
ATOM     15  O   UNL     1      99.100  98.301  95.283  1.00  0.00    -0.385 OA
ATOM     16  H   UNL     1      99.753  98.337  94.553  1.00  0.00     0.211 HD
ENDBRANCH   7  15
ENDBRANCH   1   2
BRANCH   1  17
ATOM     17  C   UNL     1     103.849  98.567  96.421  1.00  0.00     0.224 C 
ATOM     18  C   UNL     1     104.033  98.473  94.918  1.00  0.00     0.208 C 
ATOM     19  O   UNL     1     105.167  99.095  96.856  1.00  0.00    -0.337 OA
ATOM     20  C   UNL     1     104.557 100.032  94.824  1.00  0.00     0.180 C 
ATOM     21  C   UNL     1     105.684  99.873  95.789  1.00  0.00     0.179 C 
BRANCH  17  22
ATOM     22  C   UNL     1     103.816  97.200  97.186  1.00  0.00     0.225 C 
BRANCH  22  23
ATOM     23  O   UNL     1     105.099  96.524  97.165  1.00  0.00    -0.391 OA
ATOM     24  H   UNL     1     105.708  97.204  96.794  1.00  0.00     0.210 HD
ENDBRANCH  22  23
ENDBRANCH  17  22
BRANCH  18  25
ATOM     25  O   UNL     1     105.081  97.501  94.646  1.00  0.00    -0.385 OA
ATOM     26  H   UNL     1     105.006  96.818  95.402  1.00  0.00     0.211 HD
ENDBRANCH  18  25
BRANCH  20  27
ATOM     27  O   UNL     1     103.924 101.137  95.543  1.00  0.00    -0.387 OA
ATOM     28  H   UNL     1     103.423 100.994  96.466  1.00  0.00     0.211 HD
ENDBRANCH  20  27
BRANCH  21  29
ATOM     29  C   UNL     1     107.094  99.555  95.225  1.00  0.00     0.191 C 
BRANCH  29  30
ATOM     30  O   UNL     1     107.119  99.695  93.816  1.00  0.00    -0.394 OA
ATOM     31  H   UNL     1     106.724 100.614  93.635  1.00  0.00     0.210 HD
ENDBRANCH  29  30
ENDBRANCH  21  29
ENDBRANCH   1  17
TORSDOF 13
ENDMDL
MODEL 6
REMARK VINA RESULT:    -5.102      1.364      2.408
REMARK INTER + INTRA:          -8.928
REMARK INTER:                  -7.874
REMARK INTRA:                  -1.054
REMARK UNBOUND:                -1.142
REMARK SMILES OC[C@@H]1O[C@@](CO)(O[C@@H]2O[C@H](CO)[C@H](O)[C@H](O)[C@H]2O)[C@H](O)[C@H]1O
REMARK SMILES IDX 8 1 9 2 11 3 14 4 10 5 16 6 18 7 12 8 13 9 15 11 17 13 19 15
REMARK SMILES IDX 5 17 20 18 4 19 22 20 3 21 6 22 7 23 21 25 23 27 2 29 1 30
REMARK H PARENT 13 10 15 12 17 14 19 16 7 24 21 26 23 28 1 31
REMARK Flexibility Score: inf
ROOT
ATOM      1  O   UNL     1     103.699  97.565  97.283  1.00  0.00    -0.313 OA
ENDROOT
BRANCH   1   2
ATOM      2  C   UNL     1     105.041  98.389  97.151  1.00  0.00     0.285 C 
ATOM      3  C   UNL     1     105.181 100.181  95.533  1.00  0.00     0.178 C 
ATOM      4  C   UNL     1     106.586  99.606  94.884  1.00  0.00     0.177 C 
ATOM      5  O   UNL     1     104.956  99.804  96.873  1.00  0.00    -0.341 OA
ATOM      6  C   UNL     1     106.515  98.087  95.078  1.00  0.00     0.179 C 
ATOM      7  C   UNL     1     106.434  97.791  96.616  1.00  0.00     0.202 C 
BRANCH   3   8
ATOM      8  C   UNL     1     103.799 100.213  94.754  1.00  0.00     0.191 C 
BRANCH   8   9
ATOM      9  O   UNL     1     103.963 100.847  93.500  1.00  0.00    -0.394 OA
ATOM     10  H   UNL     1     104.804 101.368  93.511  1.00  0.00     0.210 HD
ENDBRANCH   8   9
ENDBRANCH   3   8
BRANCH   4  11
ATOM     11  O   UNL     1     106.658  99.835  93.504  1.00  0.00    -0.387 OA
ATOM     12  H   UNL     1     106.692  98.948  93.066  1.00  0.00     0.211 HD
ENDBRANCH   4  11
BRANCH   6  13
ATOM     13  O   UNL     1     105.386  97.599  94.433  1.00  0.00    -0.387 OA
ATOM     14  H   UNL     1     105.454  96.577  94.365  1.00  0.00     0.211 HD
ENDBRANCH   6  13
BRANCH   7  15
ATOM     15  O   UNL     1     107.450  98.524  97.299  1.00  0.00    -0.385 OA
ATOM     16  H   UNL     1     107.539  98.107  98.181  1.00  0.00     0.211 HD
ENDBRANCH   7  15
ENDBRANCH   1   2
BRANCH   1  17
ATOM     17  C   UNL     1     102.293  98.005  97.485  1.00  0.00     0.224 C 
ATOM     18  C   UNL     1     101.646  97.208  98.602  1.00  0.00     0.208 C 
ATOM     19  O   UNL     1     101.927  99.397  97.854  1.00  0.00    -0.337 OA
ATOM     20  C   UNL     1     102.350  98.145  99.760  1.00  0.00     0.180 C 
ATOM     21  C   UNL     1     101.797  99.440  99.265  1.00  0.00     0.179 C 
BRANCH  17  22
ATOM     22  C   UNL     1     101.606  97.887  96.082  1.00  0.00     0.225 C 
BRANCH  22  23
ATOM     23  O   UNL     1     100.543  98.857  95.903  1.00  0.00    -0.391 OA
ATOM     24  H   UNL     1     100.001  98.754  96.719  1.00  0.00     0.210 HD
ENDBRANCH  22  23
ENDBRANCH  17  22
BRANCH  18  25
ATOM     25  O   UNL     1     100.205  97.390  98.518  1.00  0.00    -0.385 OA
ATOM     26  H   UNL     1     100.075  98.129  97.824  1.00  0.00     0.211 HD
ENDBRANCH  18  25
BRANCH  20  27
ATOM     27  O   UNL     1     103.747  98.571  99.709  1.00  0.00    -0.387 OA
ATOM     28  H   UNL     1     104.175  99.192 100.454  1.00  0.00     0.211 HD
ENDBRANCH  20  27
BRANCH  21  29
ATOM     29  C   UNL     1     100.481  99.966  99.897  1.00  0.00     0.191 C 
BRANCH  29  30
ATOM     30  O   UNL     1     100.084  99.154 100.987  1.00  0.00    -0.394 OA
ATOM     31  H   UNL     1      99.512  98.422 100.577  1.00  0.00     0.210 HD
ENDBRANCH  29  30
ENDBRANCH  21  29
ENDBRANCH   1  17
TORSDOF 13
ENDMDL
MODEL 7
REMARK VINA RESULT:    -5.005      2.438      6.689
REMARK INTER + INTRA:          -8.781
REMARK INTER:                  -6.907
REMARK INTRA:                  -1.874
REMARK UNBOUND:                -1.142
REMARK SMILES OC[C@@H]1O[C@@](CO)(O[C@@H]2O[C@H](CO)[C@H](O)[C@H](O)[C@H]2O)[C@H](O)[C@H]1O
REMARK SMILES IDX 8 1 9 2 11 3 14 4 10 5 16 6 18 7 12 8 13 9 15 11 17 13 19 15
REMARK SMILES IDX 5 17 20 18 4 19 22 20 3 21 6 22 7 23 21 25 23 27 2 29 1 30
REMARK H PARENT 13 10 15 12 17 14 19 16 7 24 21 26 23 28 1 31
REMARK Flexibility Score: inf
ROOT
ATOM      1  O   UNL     1     100.868 100.580  97.781  1.00  0.00    -0.313 OA
ENDROOT
BRANCH   1   2
ATOM      2  C   UNL     1      99.337 100.254  97.563  1.00  0.00     0.285 C 
ATOM      3  C   UNL     1      98.535  98.004  97.947  1.00  0.00     0.178 C 
ATOM      4  C   UNL     1      97.784  97.926  96.478  1.00  0.00     0.177 C 
ATOM      5  O   UNL     1      98.700  99.311  98.452  1.00  0.00    -0.341 OA
ATOM      6  C   UNL     1      98.620  98.826  95.561  1.00  0.00     0.179 C 
ATOM      7  C   UNL     1      98.589 100.282  96.140  1.00  0.00     0.202 C 
BRANCH   3   8
ATOM      8  C   UNL     1      99.794  97.123  98.341  1.00  0.00     0.191 C 
BRANCH   8   9
ATOM      9  O   UNL     1     100.159  96.287  97.259  1.00  0.00    -0.394 OA
ATOM     10  H   UNL     1     100.644  95.500  97.611  1.00  0.00     0.210 HD
ENDBRANCH   8   9
ENDBRANCH   3   8
BRANCH   4  11
ATOM     11  O   UNL     1      97.831  96.636  95.934  1.00  0.00    -0.387 OA
ATOM     12  H   UNL     1      97.896  96.005  96.694  1.00  0.00     0.211 HD
ENDBRANCH   4  11
BRANCH   6  13
ATOM     13  O   UNL     1      99.924  98.349  95.524  1.00  0.00    -0.387 OA
ATOM     14  H   UNL     1     100.301  98.477  94.578  1.00  0.00     0.211 HD
ENDBRANCH   6  13
BRANCH   7  15
ATOM     15  O   UNL     1      97.242 100.655  96.425  1.00  0.00    -0.385 OA
ATOM     16  H   UNL     1      96.767  99.822  96.625  1.00  0.00     0.211 HD
ENDBRANCH   7  15
ENDBRANCH   1   2
BRANCH   1  17
ATOM     17  C   UNL     1     101.873 101.214  96.887  1.00  0.00     0.224 C 
ATOM     18  C   UNL     1     103.266 101.063  97.468  1.00  0.00     0.208 C 
ATOM     19  O   UNL     1     102.084 100.788  95.479  1.00  0.00    -0.337 OA
ATOM     20  C   UNL     1     103.399  99.519  96.907  1.00  0.00     0.180 C 
ATOM     21  C   UNL     1     103.153  99.856  95.475  1.00  0.00     0.179 C 
BRANCH  17  22
ATOM     22  C   UNL     1     101.383 102.687  96.674  1.00  0.00     0.225 C 
BRANCH  22  23
ATOM     23  O   UNL     1     101.797 103.227  95.394  1.00  0.00    -0.391 OA
ATOM     24  H   UNL     1     101.393 102.607  94.744  1.00  0.00     0.210 HD
ENDBRANCH  22  23
ENDBRANCH  17  22
BRANCH  18  25
ATOM     25  O   UNL     1     104.150 101.996  96.786  1.00  0.00    -0.385 OA
ATOM     26  H   UNL     1     103.537 102.747  96.464  1.00  0.00     0.211 HD
ENDBRANCH  18  25
BRANCH  20  27
ATOM     27  O   UNL     1     102.321  98.536  96.999  1.00  0.00    -0.387 OA
ATOM     28  H   UNL     1     101.688  98.316  96.177  1.00  0.00     0.211 HD
ENDBRANCH  20  27
BRANCH  21  29
ATOM     29  C   UNL     1     104.379 100.102  94.557  1.00  0.00     0.191 C 
BRANCH  29  30
ATOM     30  O   UNL     1     104.015 100.868  93.423  1.00  0.00    -0.394 OA
ATOM     31  H   UNL     1     104.869 100.958  92.880  1.00  0.00     0.210 HD
ENDBRANCH  29  30
ENDBRANCH  21  29
ENDBRANCH   1  17
TORSDOF 13
ENDMDL
MODEL 8
REMARK VINA RESULT:    -4.970      2.383      3.718
REMARK INTER + INTRA:          -8.727
REMARK INTER:                  -6.960
REMARK INTRA:                  -1.767
REMARK UNBOUND:                -1.142
REMARK SMILES OC[C@@H]1O[C@@](CO)(O[C@@H]2O[C@H](CO)[C@H](O)[C@H](O)[C@H]2O)[C@H](O)[C@H]1O
REMARK SMILES IDX 8 1 9 2 11 3 14 4 10 5 16 6 18 7 12 8 13 9 15 11 17 13 19 15
REMARK SMILES IDX 5 17 20 18 4 19 22 20 3 21 6 22 7 23 21 25 23 27 2 29 1 30
REMARK H PARENT 13 10 15 12 17 14 19 16 7 24 21 26 23 28 1 31
REMARK Flexibility Score: inf
ROOT
ATOM      1  O   UNL     1     103.636  99.276  97.215  1.00  0.00    -0.313 OA
ENDROOT
BRANCH   1   2
ATOM      2  C   UNL     1     104.770  98.498  96.436  1.00  0.00     0.285 C 
ATOM      3  C   UNL     1     107.089  98.913  96.986  1.00  0.00     0.178 C 
ATOM      4  C   UNL     1     107.508  99.178  95.410  1.00  0.00     0.177 C 
ATOM      5  O   UNL     1     105.952  98.096  97.160  1.00  0.00    -0.341 OA
ATOM      6  C   UNL     1     106.245  99.755  94.760  1.00  0.00     0.179 C 
ATOM      7  C   UNL     1     105.102  98.687  94.874  1.00  0.00     0.202 C 
BRANCH   3   8
ATOM      8  C   UNL     1     107.107 100.039  98.104  1.00  0.00     0.191 C 
BRANCH   8   9
ATOM      9  O   UNL     1     105.855 100.695  98.153  1.00  0.00    -0.394 OA
ATOM     10  H   UNL     1     105.966 101.624  97.829  1.00  0.00     0.210 HD
ENDBRANCH   8   9
ENDBRANCH   3   8
BRANCH   4  11
ATOM     11  O   UNL     1     108.506 100.153  95.292  1.00  0.00    -0.387 OA
ATOM     12  H   UNL     1     108.878 100.297  96.198  1.00  0.00     0.211 HD
ENDBRANCH   4  11
BRANCH   6  13
ATOM     13  O   UNL     1     105.884 100.920  95.424  1.00  0.00    -0.387 OA
ATOM     14  H   UNL     1     106.111 101.727  94.831  1.00  0.00     0.211 HD
ENDBRANCH   6  13
BRANCH   7  15
ATOM     15  O   UNL     1     105.585  97.420  94.432  1.00  0.00    -0.385 OA
ATOM     16  H   UNL     1     104.859  97.020  93.909  1.00  0.00     0.211 HD
ENDBRANCH   7  15
ENDBRANCH   1   2
BRANCH   1  17
ATOM     17  C   UNL     1     102.224  99.573  96.853  1.00  0.00     0.224 C 
ATOM     18  C   UNL     1     101.587 100.465  97.901  1.00  0.00     0.208 C 
ATOM     19  O   UNL     1     101.840 100.262  95.594  1.00  0.00    -0.337 OA
ATOM     20  C   UNL     1     102.279 101.816  97.259  1.00  0.00     0.180 C 
ATOM     21  C   UNL     1     101.710 101.642  95.891  1.00  0.00     0.179 C 
BRANCH  17  22
ATOM     22  C   UNL     1     101.538  98.180  96.642  1.00  0.00     0.225 C 
BRANCH  22  23
ATOM     23  O   UNL     1     100.408  98.252  95.737  1.00  0.00    -0.391 OA
ATOM     24  H   UNL     1     100.014  97.350  95.793  1.00  0.00     0.210 HD
ENDBRANCH  22  23
ENDBRANCH  17  22
BRANCH  18  25
ATOM     25  O   UNL     1     100.144 100.422  97.723  1.00  0.00    -0.385 OA
ATOM     26  H   UNL     1      99.981  99.627  97.103  1.00  0.00     0.211 HD
ENDBRANCH  18  25
BRANCH  20  27
ATOM     27  O   UNL     1     103.671 101.872  96.816  1.00  0.00    -0.387 OA
ATOM     28  H   UNL     1     103.958 101.614  95.829  1.00  0.00     0.211 HD
ENDBRANCH  20  27
BRANCH  21  29
ATOM     29  C   UNL     1     100.387 102.376  95.547  1.00  0.00     0.191 C 
BRANCH  29  30
ATOM     30  O   UNL     1     100.059 103.322  96.549  1.00  0.00    -0.394 OA
ATOM     31  H   UNL     1      99.494 104.023  96.076  1.00  0.00     0.210 HD
ENDBRANCH  29  30
ENDBRANCH  21  29
ENDBRANCH   1  17
TORSDOF 13
ENDMDL
MODEL 9
REMARK VINA RESULT:    -4.904      2.097      6.015
REMARK INTER + INTRA:          -8.626
REMARK INTER:                  -6.594
REMARK INTRA:                  -2.032
REMARK UNBOUND:                -1.142
REMARK SMILES OC[C@@H]1O[C@@](CO)(O[C@@H]2O[C@H](CO)[C@H](O)[C@H](O)[C@H]2O)[C@H](O)[C@H]1O
REMARK SMILES IDX 8 1 9 2 11 3 14 4 10 5 16 6 18 7 12 8 13 9 15 11 17 13 19 15
REMARK SMILES IDX 5 17 20 18 4 19 22 20 3 21 6 22 7 23 21 25 23 27 2 29 1 30
REMARK H PARENT 13 10 15 12 17 14 19 16 7 24 21 26 23 28 1 31
REMARK Flexibility Score: inf
ROOT
ATOM      1  O   UNL     1     104.215  99.342  95.154  1.00  0.00    -0.313 OA
ENDROOT
BRANCH   1   2
ATOM      2  C   UNL     1     102.796  98.923  95.709  1.00  0.00     0.285 C 
ATOM      3  C   UNL     1     101.204 100.639  96.318  1.00  0.00     0.178 C 
ATOM      4  C   UNL     1     100.926  99.979  97.806  1.00  0.00     0.177 C 
ATOM      5  O   UNL     1     101.650  99.722  95.344  1.00  0.00    -0.341 OA
ATOM      6  C   UNL     1     102.244  99.292  98.183  1.00  0.00     0.179 C 
ATOM      7  C   UNL     1     102.544  98.184  97.115  1.00  0.00     0.202 C 
BRANCH   3   8
ATOM      8  C   UNL     1     101.919 102.037  96.094  1.00  0.00     0.191 C 
BRANCH   8   9
ATOM      9  O   UNL     1     102.273 102.607  97.339  1.00  0.00    -0.394 OA
ATOM     10  H   UNL     1     102.973 102.049  97.761  1.00  0.00     0.210 HD
ENDBRANCH   8   9
ENDBRANCH   3   8
BRANCH   4  11
ATOM     11  O   UNL     1     100.687 100.960  98.777  1.00  0.00    -0.387 OA
ATOM     12  H   UNL     1     101.019 101.817  98.409  1.00  0.00     0.211 HD
ENDBRANCH   4  11
BRANCH   6  13
ATOM     13  O   UNL     1     103.260 100.238  98.196  1.00  0.00    -0.387 OA
ATOM     14  H   UNL     1     102.918 101.104  97.764  1.00  0.00     0.211 HD
ENDBRANCH   6  13
BRANCH   7  15
ATOM     15  O   UNL     1     101.382  97.380  96.919  1.00  0.00    -0.385 OA
ATOM     16  H   UNL     1     101.498  96.943  96.050  1.00  0.00     0.211 HD
ENDBRANCH   7  15
ENDBRANCH   1   2
BRANCH   1  17
ATOM     17  C   UNL     1     105.588  98.970  95.591  1.00  0.00     0.224 C 
ATOM     18  C   UNL     1     106.617  99.838  94.891  1.00  0.00     0.208 C 
ATOM     19  O   UNL     1     106.035  99.050  97.006  1.00  0.00    -0.337 OA
ATOM     20  C   UNL     1     106.370 101.083  95.941  1.00  0.00     0.180 C 
ATOM     21  C   UNL     1     106.675 100.304  97.177  1.00  0.00     0.179 C 
BRANCH  17  22
ATOM     22  C   UNL     1     105.712  97.430  95.334  1.00  0.00     0.225 C 
BRANCH  22  23
ATOM     23  O   UNL     1     105.918  97.119  93.932  1.00  0.00    -0.391 OA
ATOM     24  H   UNL     1     105.593  97.926  93.470  1.00  0.00     0.210 HD
ENDBRANCH  22  23
ENDBRANCH  17  22
BRANCH  18  25
ATOM     25  O   UNL     1     107.921  99.212  95.044  1.00  0.00    -0.385 OA
ATOM     26  H   UNL     1     108.189  99.399  96.012  1.00  0.00     0.211 HD
ENDBRANCH  18  25
BRANCH  20  27
ATOM     27  O   UNL     1     105.043 101.512  96.380  1.00  0.00    -0.387 OA
ATOM     28  H   UNL     1     104.160 101.221  95.871  1.00  0.00     0.211 HD
ENDBRANCH  20  27
BRANCH  21  29
ATOM     29  C   UNL     1     108.120 100.354  97.739  1.00  0.00     0.191 C 
BRANCH  29  30
ATOM     30  O   UNL     1     108.645  99.050  97.902  1.00  0.00    -0.394 OA
ATOM     31  H   UNL     1     107.836  98.457  98.062  1.00  0.00     0.210 HD
ENDBRANCH  29  30
ENDBRANCH  21  29
ENDBRANCH   1  17
TORSDOF 13
ENDMDL
