MODEL 1
REMARK VINA RESULT:    -4.883      0.000      0.000
REMARK INTER + INTRA:          -8.083
REMARK INTER:                  -7.452
REMARK INTRA:                  -0.631
REMARK UNBOUND:                -0.631
REMARK SMILES O=C([O-])CCCCCCCCC(=O)[O-]
REMARK SMILES IDX 7 1 6 2 5 3 4 4 2 5 1 6 3 7 8 8 9 9 10 10 11 11 12 12 13 13
REMARK SMILES IDX 14 14
REMARK H PARENT
REMARK Flexibility Score: inf
ROOT
ATOM      1  C   UNL     1       0.316   7.544  -7.499  1.00  0.00     0.000 C 
ENDROOT
BRANCH   1   2
ATOM      2  C   UNL     1       0.171   7.019  -8.938  1.00  0.00     0.000 C 
BRANCH   2   3
ATOM      3  C   UNL     1       0.470   5.515  -9.051  1.00  0.00     0.006 C 
BRANCH   3   4
ATOM      4  C   UNL     1       1.216   4.971  -7.826  1.00  0.00     0.053 C 
BRANCH   4   5
ATOM      5  C   UNL     1       0.312   4.101  -7.009  1.00  0.00     0.041 C 
ATOM      6  O   UNL     1      -0.340   3.175  -7.556  1.00  0.00    -0.550 OA
ATOM      7  O   UNL     1       0.229   4.284  -5.635  1.00  0.00    -0.550 OA
ENDBRANCH   4   5
ENDBRANCH   3   4
ENDBRANCH   2   3
ENDBRANCH   1   2
BRANCH   1   8
ATOM      8  C   UNL     1       1.168   8.821  -7.416  1.00  0.00     0.000 C 
BRANCH   8   9
ATOM      9  C   UNL     1       2.664   8.549  -7.651  1.00  0.00     0.000 C 
BRANCH   9  10
ATOM     10  C   UNL     1       3.474   8.540  -6.345  1.00  0.00     0.006 C 
BRANCH  10  11
ATOM     11  C   UNL     1       2.595   8.722  -5.102  1.00  0.00     0.053 C 
BRANCH  11  12
ATOM     12  C   UNL     1       2.493   7.438  -4.341  1.00  0.00     0.041 C 
ATOM     13  O   UNL     1       2.621   6.336  -4.938  1.00  0.00    -0.550 OA
ATOM     14  O   UNL     1       2.308   7.458  -2.965  1.00  0.00    -0.550 OA
ENDBRANCH  11  12
ENDBRANCH  10  11
ENDBRANCH   9  10
ENDBRANCH   8   9
ENDBRANCH   1   8
TORSDOF 9
ENDMDL
MODEL 2
REMARK VINA RESULT:    -4.713      0.788      4.405
REMARK INTER + INTRA:          -7.823
REMARK INTER:                  -7.204
REMARK INTRA:                  -0.619
REMARK UNBOUND:                -0.631
REMARK SMILES O=C([O-])CCCCCCCCC(=O)[O-]
REMARK SMILES IDX 7 1 6 2 5 3 4 4 2 5 1 6 3 7 8 8 9 9 10 10 11 11 12 12 13 13
REMARK SMILES IDX 14 14
REMARK H PARENT
REMARK Flexibility Score: inf
ROOT
ATOM      1  C   UNL     1       0.885   8.535  -8.982  1.00  0.00     0.000 C 
ENDROOT
BRANCH   1   2
ATOM      2  C   UNL     1       0.734   8.421  -7.455  1.00  0.00     0.000 C 
BRANCH   2   3
ATOM      3  C   UNL     1       2.011   8.831  -6.704  1.00  0.00     0.006 C 
BRANCH   3   4
ATOM      4  C   UNL     1       1.829   8.817  -5.181  1.00  0.00     0.053 C 
BRANCH   4   5
ATOM      5  C   UNL     1       2.475   7.604  -4.590  1.00  0.00     0.041 C 
ATOM      6  O   UNL     1       2.586   7.490  -3.341  1.00  0.00    -0.550 OA
ATOM      7  O   UNL     1       2.911   6.576  -5.416  1.00  0.00    -0.550 OA
ENDBRANCH   4   5
ENDBRANCH   3   4
ENDBRANCH   2   3
ENDBRANCH   1   2
BRANCH   1   8
ATOM      8  C   UNL     1       0.127   7.432  -9.738  1.00  0.00     0.000 C 
BRANCH   8   9
ATOM      9  C   UNL     1       1.017   6.218 -10.060  1.00  0.00     0.000 C 
BRANCH   9  10
ATOM     10  C   UNL     1       0.594   4.956  -9.293  1.00  0.00     0.006 C 
BRANCH  10  11
ATOM     11  C   UNL     1       1.282   4.834  -7.928  1.00  0.00     0.053 C 
BRANCH  11  12
ATOM     12  C   UNL     1       0.376   4.164  -6.943  1.00  0.00     0.041 C 
ATOM     13  O   UNL     1      -0.363   3.212  -7.308  1.00  0.00    -0.550 OA
ATOM     14  O   UNL     1       0.385   4.557  -5.611  1.00  0.00    -0.550 OA
ENDBRANCH  11  12
ENDBRANCH  10  11
ENDBRANCH   9  10
ENDBRANCH   8   9
ENDBRANCH   1   8
TORSDOF 9
ENDMDL
MODEL 3
REMARK VINA RESULT:    -4.702      0.459      4.532
REMARK INTER + INTRA:          -7.807
REMARK INTER:                  -7.154
REMARK INTRA:                  -0.653
REMARK UNBOUND:                -0.631
REMARK SMILES O=C([O-])CCCCCCCCC(=O)[O-]
REMARK SMILES IDX 7 1 6 2 5 3 4 4 2 5 1 6 3 7 8 8 9 9 10 10 11 11 12 12 13 13
REMARK SMILES IDX 14 14
REMARK H PARENT
REMARK Flexibility Score: inf
ROOT
ATOM      1  C   UNL     1       1.227   8.662  -7.436  1.00  0.00     0.000 C 
ENDROOT
BRANCH   1   2
ATOM      2  C   UNL     1       2.750   8.874  -7.472  1.00  0.00     0.000 C 
BRANCH   2   3
ATOM      3  C   UNL     1       3.375   8.908  -6.068  1.00  0.00     0.006 C 
BRANCH   3   4
ATOM      4  C   UNL     1       2.326   8.796  -4.955  1.00  0.00     0.053 C 
BRANCH   4   5
ATOM      5  C   UNL     1       2.475   7.497  -4.227  1.00  0.00     0.041 C 
ATOM      6  O   UNL     1       2.368   7.457  -2.974  1.00  0.00    -0.550 OA
ATOM      7  O   UNL     1       2.682   6.323  -4.938  1.00  0.00    -0.550 OA
ENDBRANCH   4   5
ENDBRANCH   3   4
ENDBRANCH   2   3
ENDBRANCH   1   2
BRANCH   1   8
ATOM      8  C   UNL     1       0.673   8.103  -8.757  1.00  0.00     0.000 C 
BRANCH   8   9
ATOM      9  C   UNL     1      -0.044   6.753  -8.572  1.00  0.00     0.000 C 
BRANCH   9  10
ATOM     10  C   UNL     1       0.838   5.559  -8.968  1.00  0.00     0.006 C 
BRANCH  10  11
ATOM     11  C   UNL     1       1.475   4.866  -7.757  1.00  0.00     0.053 C 
BRANCH  11  12
ATOM     12  C   UNL     1       0.438   4.125  -6.973  1.00  0.00     0.041 C 
ATOM     13  O   UNL     1       0.253   4.392  -5.756  1.00  0.00    -0.550 OA
ATOM     14  O   UNL     1      -0.360   3.176  -7.599  1.00  0.00    -0.550 OA
ENDBRANCH  11  12
ENDBRANCH  10  11
ENDBRANCH   9  10
ENDBRANCH   8   9
ENDBRANCH   1   8
TORSDOF 9
ENDMDL
MODEL 4
REMARK VINA RESULT:    -4.582      1.115      1.596
REMARK INTER + INTRA:          -7.623
REMARK INTER:                  -6.818
REMARK INTRA:                  -0.805
REMARK UNBOUND:                -0.631
REMARK SMILES O=C([O-])CCCCCCCCC(=O)[O-]
REMARK SMILES IDX 7 1 6 2 5 3 4 4 2 5 1 6 3 7 8 8 9 9 10 10 11 11 12 12 13 13
REMARK SMILES IDX 14 14
REMARK H PARENT
REMARK Flexibility Score: inf
ROOT
ATOM      1  C   UNL     1       1.326   8.005  -9.264  1.00  0.00     0.000 C 
ENDROOT
BRANCH   1   2
ATOM      2  C   UNL     1       2.156   6.737  -9.531  1.00  0.00     0.000 C 
BRANCH   2   3
ATOM      3  C   UNL     1       1.942   5.656  -8.459  1.00  0.00     0.006 C 
BRANCH   3   4
ATOM      4  C   UNL     1       0.469   5.504  -8.063  1.00  0.00     0.053 C 
BRANCH   4   5
ATOM      5  C   UNL     1       0.321   4.466  -6.994  1.00  0.00     0.041 C 
ATOM      6  O   UNL     1       0.706   4.705  -5.821  1.00  0.00    -0.550 OA
ATOM      7  O   UNL     1      -0.286   3.251  -7.285  1.00  0.00    -0.550 OA
ENDBRANCH   4   5
ENDBRANCH   3   4
ENDBRANCH   2   3
ENDBRANCH   1   2
BRANCH   1   8
ATOM      8  C   UNL     1       2.180   9.178  -8.755  1.00  0.00     0.000 C 
BRANCH   8   9
ATOM      9  C   UNL     1       1.599   9.822  -7.484  1.00  0.00     0.000 C 
BRANCH   9  10
ATOM     10  C   UNL     1       1.188   8.781  -6.430  1.00  0.00     0.006 C 
BRANCH  10  11
ATOM     11  C   UNL     1       1.878   9.003  -5.078  1.00  0.00     0.053 C 
BRANCH  11  12
ATOM     12  C   UNL     1       2.520   7.737  -4.606  1.00  0.00     0.041 C 
ATOM     13  O   UNL     1       3.147   7.004  -5.415  1.00  0.00    -0.550 OA
ATOM     14  O   UNL     1       2.471   7.392  -3.261  1.00  0.00    -0.550 OA
ENDBRANCH  11  12
ENDBRANCH  10  11
ENDBRANCH   9  10
ENDBRANCH   8   9
ENDBRANCH   1   8
TORSDOF 9
ENDMDL
MODEL 5
REMARK VINA RESULT:    -4.416      1.531      2.111
REMARK INTER + INTRA:          -7.369
REMARK INTER:                  -6.602
REMARK INTRA:                  -0.767
REMARK UNBOUND:                -0.631
REMARK SMILES O=C([O-])CCCCCCCCC(=O)[O-]
REMARK SMILES IDX 7 1 6 2 5 3 4 4 2 5 1 6 3 7 8 8 9 9 10 10 11 11 12 12 13 13
REMARK SMILES IDX 14 14
REMARK H PARENT
REMARK Flexibility Score: inf
ROOT
ATOM      1  C   UNL     1       2.726   6.336  -9.977  1.00  0.00     0.000 C 
ENDROOT
BRANCH   1   2
ATOM      2  C   UNL     1       1.942   5.333  -9.112  1.00  0.00     0.000 C 
BRANCH   2   3
ATOM      3  C   UNL     1       0.466   5.727  -8.944  1.00  0.00     0.006 C 
BRANCH   3   4
ATOM      4  C   UNL     1       0.078   5.947  -7.477  1.00  0.00     0.053 C 
BRANCH   4   5
ATOM      5  C   UNL     1       0.356   4.714  -6.674  1.00  0.00     0.041 C 
ATOM      6  O   UNL     1       1.055   4.782  -5.630  1.00  0.00    -0.550 OA
ATOM      7  O   UNL     1      -0.199   3.499  -7.053  1.00  0.00    -0.550 OA
ENDBRANCH   4   5
ENDBRANCH   3   4
ENDBRANCH   2   3
ENDBRANCH   1   2
BRANCH   1   8
ATOM      8  C   UNL     1       3.101   7.615  -9.210  1.00  0.00     0.000 C 
BRANCH   8   9
ATOM      9  C   UNL     1       4.304   7.409  -8.272  1.00  0.00     0.000 C 
BRANCH   9  10
ATOM     10  C   UNL     1       4.158   8.176  -6.949  1.00  0.00     0.006 C 
BRANCH  10  11
ATOM     11  C   UNL     1       3.196   7.491  -5.970  1.00  0.00     0.053 C 
BRANCH  11  12
ATOM     12  C   UNL     1       2.996   8.339  -4.754  1.00  0.00     0.041 C 
ATOM     13  O   UNL     1       3.109   9.591  -4.829  1.00  0.00    -0.550 OA
ATOM     14  O   UNL     1       2.637   7.751  -3.548  1.00  0.00    -0.550 OA
ENDBRANCH  11  12
ENDBRANCH  10  11
ENDBRANCH   9  10
ENDBRANCH   8   9
ENDBRANCH   1   8
TORSDOF 9
ENDMDL
MODEL 6
REMARK VINA RESULT:    -4.402      1.440      4.718
REMARK INTER + INTRA:          -7.348
REMARK INTER:                  -6.630
REMARK INTRA:                  -0.718
REMARK UNBOUND:                -0.631
REMARK SMILES O=C([O-])CCCCCCCCC(=O)[O-]
REMARK SMILES IDX 7 1 6 2 5 3 4 4 2 5 1 6 3 7 8 8 9 9 10 10 11 11 12 12 13 13
REMARK SMILES IDX 14 14
REMARK H PARENT
REMARK Flexibility Score: inf
ROOT
ATOM      1  C   UNL     1       1.125   9.286  -7.109  1.00  0.00     0.000 C 
ENDROOT
BRANCH   1   2
ATOM      2  C   UNL     1       1.466   9.293  -5.608  1.00  0.00     0.000 C 
BRANCH   2   3
ATOM      3  C   UNL     1       2.966   9.503  -5.345  1.00  0.00     0.006 C 
BRANCH   3   4
ATOM      4  C   UNL     1       3.832   9.151  -6.561  1.00  0.00     0.053 C 
BRANCH   4   5
ATOM      5  C   UNL     1       4.402   7.776  -6.414  1.00  0.00     0.041 C 
ATOM      6  O   UNL     1       3.638   6.782  -6.297  1.00  0.00    -0.550 OA
ATOM      7  O   UNL     1       5.777   7.586  -6.456  1.00  0.00    -0.550 OA
ENDBRANCH   4   5
ENDBRANCH   3   4
ENDBRANCH   2   3
ENDBRANCH   1   2
BRANCH   1   8
ATOM      8  C   UNL     1       0.423   7.992  -7.553  1.00  0.00     0.000 C 
BRANCH   8   9
ATOM      9  C   UNL     1       1.129   7.315  -8.742  1.00  0.00     0.000 C 
BRANCH   9  10
ATOM     10  C   UNL     1       0.622   5.887  -8.993  1.00  0.00     0.006 C 
BRANCH  10  11
ATOM     11  C   UNL     1       1.425   4.830  -8.224  1.00  0.00     0.053 C 
BRANCH  11  12
ATOM     12  C   UNL     1       0.630   4.309  -7.068  1.00  0.00     0.041 C 
ATOM     13  O   UNL     1       0.770   4.815  -5.923  1.00  0.00    -0.550 OA
ATOM     14  O   UNL     1      -0.302   3.298  -7.264  1.00  0.00    -0.550 OA
ENDBRANCH  11  12
ENDBRANCH  10  11
ENDBRANCH   9  10
ENDBRANCH   8   9
ENDBRANCH   1   8
TORSDOF 9
ENDMDL
MODEL 7
REMARK VINA RESULT:    -4.356      1.662      2.385
REMARK INTER + INTRA:          -7.279
REMARK INTER:                  -6.396
REMARK INTRA:                  -0.882
REMARK UNBOUND:                -0.631
REMARK SMILES O=C([O-])CCCCCCCCC(=O)[O-]
REMARK SMILES IDX 7 1 6 2 5 3 4 4 2 5 1 6 3 7 8 8 9 9 10 10 11 11 12 12 13 13
REMARK SMILES IDX 14 14
REMARK H PARENT
REMARK Flexibility Score: inf
ROOT
ATOM      1  C   UNL     1      -0.045   7.282  -9.165  1.00  0.00     0.000 C 
ENDROOT
BRANCH   1   2
ATOM      2  C   UNL     1       0.795   6.256  -9.946  1.00  0.00     0.000 C 
BRANCH   2   3
ATOM      3  C   UNL     1       0.738   4.852  -9.324  1.00  0.00     0.006 C 
BRANCH   3   4
ATOM      4  C   UNL     1       1.385   4.797  -7.935  1.00  0.00     0.053 C 
BRANCH   4   5
ATOM      5  C   UNL     1       0.445   4.181  -6.946  1.00  0.00     0.041 C 
ATOM      6  O   UNL     1      -0.337   3.262  -7.303  1.00  0.00    -0.550 OA
ATOM      7  O   UNL     1       0.468   4.589  -5.619  1.00  0.00    -0.550 OA
ENDBRANCH   4   5
ENDBRANCH   3   4
ENDBRANCH   2   3
ENDBRANCH   1   2
BRANCH   1   8
ATOM      8  C   UNL     1       0.813   8.381  -8.516  1.00  0.00     0.000 C 
BRANCH   8   9
ATOM      9  C   UNL     1       0.764   8.336  -6.978  1.00  0.00     0.000 C 
BRANCH   9  10
ATOM     10  C   UNL     1       2.126   7.993  -6.355  1.00  0.00     0.006 C 
BRANCH  10  11
ATOM     11  C   UNL     1       3.297   8.664  -7.084  1.00  0.00     0.053 C 
BRANCH  11  12
ATOM     12  C   UNL     1       4.302   7.641  -7.510  1.00  0.00     0.041 C 
ATOM     13  O   UNL     1       5.185   7.245  -6.703  1.00  0.00    -0.550 OA
ATOM     14  O   UNL     1       4.235   7.087  -8.782  1.00  0.00    -0.550 OA
ENDBRANCH  11  12
ENDBRANCH  10  11
ENDBRANCH   9  10
ENDBRANCH   8   9
ENDBRANCH   1   8
TORSDOF 9
ENDMDL
MODEL 8
REMARK VINA RESULT:    -4.143      2.586      3.482
REMARK INTER + INTRA:          -6.954
REMARK INTER:                  -6.128
REMARK INTRA:                  -0.825
REMARK UNBOUND:                -0.631
REMARK SMILES O=C([O-])CCCCCCCCC(=O)[O-]
REMARK SMILES IDX 7 1 6 2 5 3 4 4 2 5 1 6 3 7 8 8 9 9 10 10 11 11 12 12 13 13
REMARK SMILES IDX 14 14
REMARK H PARENT
REMARK Flexibility Score: inf
ROOT
ATOM      1  C   UNL     1       0.514   4.491  -6.147  1.00  0.00     0.000 C 
ENDROOT
BRANCH   1   2
ATOM      2  C   UNL     1       0.133   4.058  -7.573  1.00  0.00     0.000 C 
BRANCH   2   3
ATOM      3  C   UNL     1       1.149   4.530  -8.625  1.00  0.00     0.006 C 
BRANCH   3   4
ATOM      4  C   UNL     1       0.484   5.246  -9.807  1.00  0.00     0.053 C 
BRANCH   4   5
ATOM      5  C   UNL     1       0.598   6.730  -9.648  1.00  0.00     0.041 C 
ATOM      6  O   UNL     1      -0.373   7.397  -9.207  1.00  0.00    -0.550 OA
ATOM      7  O   UNL     1       1.796   7.370  -9.942  1.00  0.00    -0.550 OA
ENDBRANCH   4   5
ENDBRANCH   3   4
ENDBRANCH   2   3
ENDBRANCH   1   2
BRANCH   1   8
ATOM      8  C   UNL     1       1.828   5.287  -6.099  1.00  0.00     0.000 C 
BRANCH   8   9
ATOM      9  C   UNL     1       1.901   6.234  -4.888  1.00  0.00     0.000 C 
BRANCH   9  10
ATOM     10  C   UNL     1       2.677   7.524  -5.194  1.00  0.00     0.006 C 
BRANCH  10  11
ATOM     11  C   UNL     1       2.381   8.075  -6.595  1.00  0.00     0.053 C 
BRANCH  11  12
ATOM     12  C   UNL     1       1.575   9.331  -6.503  1.00  0.00     0.041 C 
ATOM     13  O   UNL     1       1.070   9.838  -7.540  1.00  0.00    -0.550 OA
ATOM     14  O   UNL     1       1.337   9.917  -5.266  1.00  0.00    -0.550 OA
ENDBRANCH  11  12
ENDBRANCH  10  11
ENDBRANCH   9  10
ENDBRANCH   8   9
ENDBRANCH   1   8
TORSDOF 9
ENDMDL
MODEL 9
REMARK VINA RESULT:    -4.135     18.263     19.942
REMARK INTER + INTRA:          -6.941
REMARK INTER:                  -5.971
REMARK INTRA:                  -0.969
REMARK UNBOUND:                -0.631
REMARK SMILES O=C([O-])CCCCCCCCC(=O)[O-]
REMARK SMILES IDX 7 1 6 2 5 3 4 4 2 5 1 6 3 7 8 8 9 9 10 10 11 11 12 12 13 13
REMARK SMILES IDX 14 14
REMARK H PARENT
REMARK Flexibility Score: inf
ROOT
ATOM      1  C   UNL     1      -4.165  -4.532   5.630  1.00  0.00     0.000 C 
ENDROOT
BRANCH   1   2
ATOM      2  C   UNL     1      -5.163  -5.591   5.132  1.00  0.00     0.000 C 
BRANCH   2   3
ATOM      3  C   UNL     1      -5.137  -6.872   5.981  1.00  0.00     0.006 C 
BRANCH   3   4
ATOM      4  C   UNL     1      -6.537  -7.313   6.426  1.00  0.00     0.053 C 
BRANCH   4   5
ATOM      5  C   UNL     1      -6.685  -8.795   6.287  1.00  0.00     0.041 C 
ATOM      6  O   UNL     1      -7.830  -9.318   6.269  1.00  0.00    -0.550 OA
ATOM      7  O   UNL     1      -5.560  -9.594   6.127  1.00  0.00    -0.550 OA
ENDBRANCH   4   5
ENDBRANCH   3   4
ENDBRANCH   2   3
ENDBRANCH   1   2
BRANCH   1   8
ATOM      8  C   UNL     1      -4.839  -3.190   5.962  1.00  0.00     0.000 C 
BRANCH   8   9
ATOM      9  C   UNL     1      -5.848  -3.308   7.118  1.00  0.00     0.000 C 
BRANCH   9  10
ATOM     10  C   UNL     1      -5.166  -3.528   8.477  1.00  0.00     0.006 C 
BRANCH  10  11
ATOM     11  C   UNL     1      -5.558  -4.860   9.128  1.00  0.00     0.053 C 
BRANCH  11  12
ATOM     12  C   UNL     1      -4.372  -5.769   9.213  1.00  0.00     0.041 C 
ATOM     13  O   UNL     1      -4.521  -6.976   9.538  1.00  0.00    -0.550 OA
ATOM     14  O   UNL     1      -3.108  -5.295   8.884  1.00  0.00    -0.550 OA
ENDBRANCH  11  12
ENDBRANCH  10  11
ENDBRANCH   9  10
ENDBRANCH   8   9
ENDBRANCH   1   8
TORSDOF 9
ENDMDL
