MODEL 1
REMARK VINA RESULT:    -5.133      0.000      0.000
REMARK INTER + INTRA:          -5.239
REMARK INTER:                  -5.583
REMARK INTRA:                   0.344
REMARK UNBOUND:                 0.344
REMARK SMILES C[C@@H]1[C@H]2C3=CC[C@@H]4[C@@]5(C)CC[C@@H](O)C(C)(C)[C@H]5CC[C@@]4(C)[C@@]3(C)CC[C@]2(C(=O)[O-])CC[C@@H]1C
REMARK SMILES IDX 26 1 30 2 25 3 3 4 31 5 24 6 4 7 2 8 32 9 22 10 5 11 1 12
REMARK SMILES IDX 33 13 23 14 20 15 6 16 7 17 19 18 21 19 8 20 18 21 17 22
REMARK SMILES IDX 10 23 9 24 14 25 11 26 12 27 15 28 16 29 27 30 28 31 29 32
REMARK SMILES IDX 13 33
REMARK H PARENT 13 34
REMARK Flexibility Score: inf
ROOT
ATOM      1  C   UNL     1      -5.041  21.619  -8.561  1.00  0.00     0.017 C 
ATOM      2  C   UNL     1      -4.229  20.282  -8.746  1.00  0.00     0.014 C 
ATOM      3  C   UNL     1      -6.180  21.633  -9.626  1.00  0.00     0.014 C 
ATOM      4  C   UNL     1      -5.663  21.682  -7.122  1.00  0.00     0.030 C 
ATOM      5  C   UNL     1      -3.714  19.652  -7.439  1.00  0.00     0.004 C 
ATOM      6  C   UNL     1      -7.209  22.767  -9.448  1.00  0.00     0.013 C 
ATOM      7  C   UNL     1      -6.677  22.852  -7.011  1.00  0.00    -0.063 C 
ATOM      8  C   UNL     1      -4.580  21.561  -5.978  1.00  0.00    -0.003 C 
ATOM      9  C   UNL     1      -3.330  20.731  -6.426  1.00  0.00    -0.011 C 
ATOM     10  C   UNL     1      -7.859  22.838  -8.018  1.00  0.00    -0.006 C 
ATOM     11  C   UNL     1      -6.425  23.935  -6.221  1.00  0.00    -0.027 C 
ATOM     12  C   UNL     1      -5.254  21.016  -4.699  1.00  0.00     0.008 C 
ATOM     13  C   UNL     1      -2.509  20.134  -5.270  1.00  0.00     0.008 C 
ATOM     14  C   UNL     1      -8.702  21.535  -7.796  1.00  0.00     0.017 C 
ATOM     15  C   UNL     1      -8.819  24.133  -7.842  1.00  0.00    -0.020 C 
ATOM     16  C   UNL     1      -7.141  25.257  -6.303  1.00  0.00     0.032 C 
ATOM     17  C   UNL     1      -7.910  25.400  -7.631  1.00  0.00     0.006 C 
ATOM     18  C   UNL     1      -9.754  24.342  -9.076  1.00  0.00     0.008 C 
ATOM     19  C   UNL     1      -9.749  23.924  -6.597  1.00  0.00     0.012 C 
ATOM     20  C   UNL     1      -8.509  26.857  -7.948  1.00  0.00    -0.025 C 
ATOM     21  C   UNL     1      -9.297  25.461 -10.022  1.00  0.00     0.005 C 
ATOM     22  C   UNL     1      -9.377  26.838  -9.304  1.00  0.00     0.003 C 
ATOM     23  C   UNL     1      -7.271  27.827  -8.009  1.00  0.00     0.010 C 
ATOM     24  C   UNL     1      -9.412  27.373  -6.787  1.00  0.00     0.012 C 
ATOM     25  C   UNL     1      -9.298  28.114 -10.272  1.00  0.00    -0.006 C 
ATOM     26  C   UNL     1      -7.488  29.124  -8.771  1.00  0.00     0.033 C 
ATOM     27  C   UNL     1      -7.922  28.849 -10.206  1.00  0.00     0.120 C 
ATOM     28  C   UNL     1     -10.418  29.125  -9.882  1.00  0.00     0.014 C 
ATOM     29  C   UNL     1      -9.570  27.771 -11.767  1.00  0.00     0.014 C 
ENDROOT
BRANCH   1  30
ATOM     30  C   UNL     1      -4.120  22.803  -8.849  1.00  0.00     0.048 C 
ATOM     31  O   UNL     1      -4.541  23.987  -8.834  1.00  0.00    -0.550 OA
ATOM     32  O   UNL     1      -2.788  22.578  -9.180  1.00  0.00    -0.550 OA
ENDBRANCH   1  30
BRANCH  27  33
ATOM     33  O   UNL     1      -6.902  28.180 -10.913  1.00  0.00    -0.393 OA
ATOM     34  H   UNL     1      -6.338  28.857 -11.369  1.00  0.00     0.210 HD
ENDBRANCH  27  33
TORSDOF 2
ENDMDL
MODEL 2
REMARK VINA RESULT:    -5.123      3.365      6.324
REMARK INTER + INTRA:          -5.228
REMARK INTER:                  -5.603
REMARK INTRA:                   0.376
REMARK UNBOUND:                 0.344
REMARK SMILES C[C@@H]1[C@H]2C3=CC[C@@H]4[C@@]5(C)CC[C@@H](O)C(C)(C)[C@H]5CC[C@@]4(C)[C@@]3(C)CC[C@]2(C(=O)[O-])CC[C@@H]1C
REMARK SMILES IDX 26 1 30 2 25 3 3 4 31 5 24 6 4 7 2 8 32 9 22 10 5 11 1 12
REMARK SMILES IDX 33 13 23 14 20 15 6 16 7 17 19 18 21 19 8 20 18 21 17 22
REMARK SMILES IDX 10 23 9 24 14 25 11 26 12 27 15 28 16 29 27 30 28 31 29 32
REMARK SMILES IDX 13 33
REMARK H PARENT 13 34
REMARK Flexibility Score: inf
ROOT
ATOM      1  C   UNL     1      -2.079  26.053  -9.056  1.00  0.00     0.017 C 
ATOM      2  C   UNL     1      -0.594  26.577  -9.046  1.00  0.00     0.014 C 
ATOM      3  C   UNL     1      -2.479  25.731  -7.584  1.00  0.00     0.014 C 
ATOM      4  C   UNL     1      -3.039  27.151  -9.636  1.00  0.00     0.030 C 
ATOM      5  C   UNL     1      -0.292  27.684 -10.071  1.00  0.00     0.004 C 
ATOM      6  C   UNL     1      -3.973  25.414  -7.382  1.00  0.00     0.013 C 
ATOM      7  C   UNL     1      -4.524  26.759  -9.410  1.00  0.00    -0.063 C 
ATOM      8  C   UNL     1      -2.634  27.615 -11.091  1.00  0.00    -0.003 C 
ATOM      9  C   UNL     1      -1.097  27.476 -11.354  1.00  0.00    -0.011 C 
ATOM     10  C   UNL     1      -4.954  26.509  -7.939  1.00  0.00    -0.006 C 
ATOM     11  C   UNL     1      -5.342  26.448 -10.455  1.00  0.00    -0.027 C 
ATOM     12  C   UNL     1      -3.173  29.042 -11.334  1.00  0.00     0.008 C 
ATOM     13  C   UNL     1      -0.559  28.363 -12.492  1.00  0.00     0.008 C 
ATOM     14  C   UNL     1      -4.740  27.825  -7.114  1.00  0.00     0.017 C 
ATOM     15  C   UNL     1      -6.507  26.057  -7.832  1.00  0.00    -0.020 C 
ATOM     16  C   UNL     1      -6.660  25.728 -10.345  1.00  0.00     0.032 C 
ATOM     17  C   UNL     1      -6.805  25.024  -8.981  1.00  0.00     0.006 C 
ATOM     18  C   UNL     1      -6.840  25.424  -6.442  1.00  0.00     0.008 C 
ATOM     19  C   UNL     1      -7.427  27.318  -7.989  1.00  0.00     0.012 C 
ATOM     20  C   UNL     1      -8.051  24.022  -8.833  1.00  0.00    -0.025 C 
ATOM     21  C   UNL     1      -6.939  23.892  -6.463  1.00  0.00     0.005 C 
ATOM     22  C   UNL     1      -8.147  23.443  -7.333  1.00  0.00     0.003 C 
ATOM     23  C   UNL     1      -7.839  22.906  -9.923  1.00  0.00     0.010 C 
ATOM     24  C   UNL     1      -9.399  24.722  -9.182  1.00  0.00     0.012 C 
ATOM     25  C   UNL     1      -8.594  21.916  -7.137  1.00  0.00    -0.006 C 
ATOM     26  C   UNL     1      -8.569  21.596  -9.676  1.00  0.00     0.033 C 
ATOM     27  C   UNL     1      -8.179  20.998  -8.330  1.00  0.00     0.120 C 
ATOM     28  C   UNL     1     -10.142  21.850  -6.978  1.00  0.00     0.014 C 
ATOM     29  C   UNL     1      -8.029  21.270  -5.836  1.00  0.00     0.014 C 
ENDROOT
BRANCH   1  30
ATOM     30  C   UNL     1      -2.140  24.749  -9.851  1.00  0.00     0.048 C 
ATOM     31  O   UNL     1      -3.151  24.003  -9.821  1.00  0.00    -0.550 OA
ATOM     32  O   UNL     1      -1.038  24.343 -10.597  1.00  0.00    -0.550 OA
ENDBRANCH   1  30
BRANCH  27  33
ATOM     33  O   UNL     1      -6.811  20.657  -8.317  1.00  0.00    -0.393 OA
ATOM     34  H   UNL     1      -6.700  19.815  -7.804  1.00  0.00     0.210 HD
ENDBRANCH  27  33
TORSDOF 2
ENDMDL
MODEL 3
REMARK VINA RESULT:    -4.851      2.969      7.143
REMARK INTER + INTRA:          -4.932
REMARK INTER:                  -5.291
REMARK INTRA:                   0.359
REMARK UNBOUND:                 0.344
REMARK SMILES C[C@@H]1[C@H]2C3=CC[C@@H]4[C@@]5(C)CC[C@@H](O)C(C)(C)[C@H]5CC[C@@]4(C)[C@@]3(C)CC[C@]2(C(=O)[O-])CC[C@@H]1C
REMARK SMILES IDX 26 1 30 2 25 3 3 4 31 5 24 6 4 7 2 8 32 9 22 10 5 11 1 12
REMARK SMILES IDX 33 13 23 14 20 15 6 16 7 17 19 18 21 19 8 20 18 21 17 22
REMARK SMILES IDX 10 23 9 24 14 25 11 26 12 27 15 28 16 29 27 30 28 31 29 32
REMARK SMILES IDX 13 33
REMARK H PARENT 13 34
REMARK Flexibility Score: inf
ROOT
ATOM      1  C   UNL     1      -6.528  22.441  -9.852  1.00  0.00     0.017 C 
ATOM      2  C   UNL     1      -7.492  22.059 -11.037  1.00  0.00     0.014 C 
ATOM      3  C   UNL     1      -5.186  22.935 -10.472  1.00  0.00     0.014 C 
ATOM      4  C   UNL     1      -7.161  23.585  -8.984  1.00  0.00     0.030 C 
ATOM      5  C   UNL     1      -8.977  22.381 -10.793  1.00  0.00     0.004 C 
ATOM      6  C   UNL     1      -4.204  23.557  -9.461  1.00  0.00     0.013 C 
ATOM      7  C   UNL     1      -6.122  24.154  -7.980  1.00  0.00    -0.063 C 
ATOM      8  C   UNL     1      -8.581  23.204  -8.406  1.00  0.00    -0.003 C 
ATOM      9  C   UNL     1      -9.343  22.187  -9.321  1.00  0.00    -0.011 C 
ATOM     10  C   UNL     1      -4.811  24.719  -8.592  1.00  0.00    -0.006 C 
ATOM     11  C   UNL     1      -6.263  23.973  -6.637  1.00  0.00    -0.027 C 
ATOM     12  C   UNL     1      -9.378  24.499  -8.129  1.00  0.00     0.008 C 
ATOM     13  C   UNL     1     -10.871  22.173  -9.130  1.00  0.00     0.008 C 
ATOM     14  C   UNL     1      -5.166  25.911  -9.546  1.00  0.00     0.017 C 
ATOM     15  C   UNL     1      -3.784  25.235  -7.448  1.00  0.00    -0.020 C 
ATOM     16  C   UNL     1      -5.173  24.160  -5.614  1.00  0.00     0.032 C 
ATOM     17  C   UNL     1      -3.780  24.187  -6.274  1.00  0.00     0.006 C 
ATOM     18  C   UNL     1      -2.335  25.424  -8.003  1.00  0.00     0.008 C 
ATOM     19  C   UNL     1      -4.256  26.634  -6.920  1.00  0.00     0.012 C 
ATOM     20  C   UNL     1      -2.524  24.132  -5.275  1.00  0.00    -0.025 C 
ATOM     21  C   UNL     1      -1.369  24.294  -7.623  1.00  0.00     0.005 C 
ATOM     22  C   UNL     1      -1.140  24.277  -6.085  1.00  0.00     0.003 C 
ATOM     23  C   UNL     1      -2.653  22.771  -4.495  1.00  0.00     0.010 C 
ATOM     24  C   UNL     1      -2.592  25.259  -4.201  1.00  0.00     0.012 C 
ATOM     25  C   UNL     1       0.119  23.412  -5.596  1.00  0.00    -0.006 C 
ATOM     26  C   UNL     1      -1.370  22.241  -3.875  1.00  0.00     0.033 C 
ATOM     27  C   UNL     1      -0.288  22.059  -4.932  1.00  0.00     0.120 C 
ATOM     28  C   UNL     1       0.942  24.241  -4.565  1.00  0.00     0.014 C 
ATOM     29  C   UNL     1       1.123  23.084  -6.741  1.00  0.00     0.014 C 
ENDROOT
BRANCH   1  30
ATOM     30  C   UNL     1      -6.228  21.188  -9.032  1.00  0.00     0.048 C 
ATOM     31  O   UNL     1      -5.588  21.241  -7.952  1.00  0.00    -0.550 OA
ATOM     32  O   UNL     1      -6.631  19.942  -9.503  1.00  0.00    -0.550 OA
ENDBRANCH   1  30
BRANCH  27  33
ATOM     33  O   UNL     1      -0.671  21.076  -5.868  1.00  0.00    -0.393 OA
ATOM     34  H   UNL     1      -1.193  21.513  -6.590  1.00  0.00     0.210 HD
ENDBRANCH  27  33
TORSDOF 2
ENDMDL
MODEL 4
REMARK VINA RESULT:    -4.830      3.096      6.393
REMARK INTER + INTRA:          -4.909
REMARK INTER:                  -5.264
REMARK INTRA:                   0.355
REMARK UNBOUND:                 0.344
REMARK SMILES C[C@@H]1[C@H]2C3=CC[C@@H]4[C@@]5(C)CC[C@@H](O)C(C)(C)[C@H]5CC[C@@]4(C)[C@@]3(C)CC[C@]2(C(=O)[O-])CC[C@@H]1C
REMARK SMILES IDX 26 1 30 2 25 3 3 4 31 5 24 6 4 7 2 8 32 9 22 10 5 11 1 12
REMARK SMILES IDX 33 13 23 14 20 15 6 16 7 17 19 18 21 19 8 20 18 21 17 22
REMARK SMILES IDX 10 23 9 24 14 25 11 26 12 27 15 28 16 29 27 30 28 31 29 32
REMARK SMILES IDX 13 33
REMARK H PARENT 13 34
REMARK Flexibility Score: inf
ROOT
ATOM      1  C   UNL     1      -7.534  22.771  -9.559  1.00  0.00     0.017 C 
ATOM      2  C   UNL     1      -8.896  22.235 -10.142  1.00  0.00     0.014 C 
ATOM      3  C   UNL     1      -6.858  23.645 -10.659  1.00  0.00     0.014 C 
ATOM      4  C   UNL     1      -7.796  23.641  -8.279  1.00  0.00     0.030 C 
ATOM      5  C   UNL     1     -10.042  22.135  -9.120  1.00  0.00     0.004 C 
ATOM      6  C   UNL     1      -5.620  24.429 -10.182  1.00  0.00     0.013 C 
ATOM      7  C   UNL     1      -6.505  24.389  -7.849  1.00  0.00    -0.063 C 
ATOM      8  C   UNL     1      -8.579  22.857  -7.153  1.00  0.00    -0.003 C 
ATOM      9  C   UNL     1      -9.512  21.745  -7.740  1.00  0.00    -0.011 C 
ATOM     10  C   UNL     1      -5.864  25.323  -8.911  1.00  0.00    -0.006 C 
ATOM     11  C   UNL     1      -5.862  24.080  -6.688  1.00  0.00    -0.027 C 
ATOM     12  C   UNL     1      -9.322  23.872  -6.256  1.00  0.00     0.008 C 
ATOM     13  C   UNL     1     -10.660  21.314  -6.810  1.00  0.00     0.008 C 
ATOM     14  C   UNL     1      -6.890  26.446  -9.290  1.00  0.00     0.017 C 
ATOM     15  C   UNL     1      -4.498  26.007  -8.368  1.00  0.00    -0.020 C 
ATOM     16  C   UNL     1      -4.449  24.473  -6.345  1.00  0.00     0.032 C 
ATOM     17  C   UNL     1      -3.667  24.914  -7.598  1.00  0.00     0.006 C 
ATOM     18  C   UNL     1      -3.643  26.611  -9.528  1.00  0.00     0.008 C 
ATOM     19  C   UNL     1      -4.857  27.189  -7.403  1.00  0.00     0.012 C 
ATOM     20  C   UNL     1      -2.085  25.121  -7.407  1.00  0.00    -0.025 C 
ATOM     21  C   UNL     1      -2.436  25.752  -9.928  1.00  0.00     0.005 C 
ATOM     22  C   UNL     1      -1.414  25.685  -8.758  1.00  0.00     0.003 C 
ATOM     23  C   UNL     1      -1.519  23.721  -6.963  1.00  0.00     0.010 C 
ATOM     24  C   UNL     1      -1.769  26.108  -6.245  1.00  0.00     0.012 C 
ATOM     25  C   UNL     1       0.044  25.149  -9.160  1.00  0.00    -0.006 C 
ATOM     26  C   UNL     1      -0.034  23.505  -7.201  1.00  0.00     0.033 C 
ATOM     27  C   UNL     1       0.318  23.692  -8.672  1.00  0.00     0.120 C 
ATOM     28  C   UNL     1       1.124  26.088  -8.545  1.00  0.00     0.014 C 
ATOM     29  C   UNL     1       0.310  25.182 -10.695  1.00  0.00     0.014 C 
ENDROOT
BRANCH   1  30
ATOM     30  C   UNL     1      -6.614  21.585  -9.277  1.00  0.00     0.048 C 
ATOM     31  O   UNL     1      -5.420  21.744  -8.921  1.00  0.00    -0.550 OA
ATOM     32  O   UNL     1      -7.084  20.287  -9.457  1.00  0.00    -0.550 OA
ENDBRANCH   1  30
BRANCH  27  33
ATOM     33  O   UNL     1      -0.321  22.714  -9.462  1.00  0.00    -0.393 OA
ATOM     34  H   UNL     1      -0.951  22.206  -8.887  1.00  0.00     0.210 HD
ENDBRANCH  27  33
TORSDOF 2
ENDMDL
MODEL 5
REMARK VINA RESULT:    -4.828      3.250      6.370
REMARK INTER + INTRA:          -4.907
REMARK INTER:                  -5.328
REMARK INTRA:                   0.421
REMARK UNBOUND:                 0.344
REMARK SMILES C[C@@H]1[C@H]2C3=CC[C@@H]4[C@@]5(C)CC[C@@H](O)C(C)(C)[C@H]5CC[C@@]4(C)[C@@]3(C)CC[C@]2(C(=O)[O-])CC[C@@H]1C
REMARK SMILES IDX 26 1 30 2 25 3 3 4 31 5 24 6 4 7 2 8 32 9 22 10 5 11 1 12
REMARK SMILES IDX 33 13 23 14 20 15 6 16 7 17 19 18 21 19 8 20 18 21 17 22
REMARK SMILES IDX 10 23 9 24 14 25 11 26 12 27 15 28 16 29 27 30 28 31 29 32
REMARK SMILES IDX 13 33
REMARK H PARENT 13 34
REMARK Flexibility Score: inf
ROOT
ATOM      1  C   UNL     1      -7.746  23.597  -9.585  1.00  0.00     0.017 C 
ATOM      2  C   UNL     1      -9.248  23.266  -9.923  1.00  0.00     0.014 C 
ATOM      3  C   UNL     1      -7.301  24.774 -10.505  1.00  0.00     0.014 C 
ATOM      4  C   UNL     1      -7.608  24.021  -8.080  1.00  0.00     0.030 C 
ATOM      5  C   UNL     1     -10.105  22.847  -8.716  1.00  0.00     0.004 C 
ATOM      6  C   UNL     1      -5.925  25.374 -10.156  1.00  0.00     0.013 C 
ATOM      7  C   UNL     1      -6.196  24.602  -7.799  1.00  0.00    -0.063 C 
ATOM      8  C   UNL     1      -8.143  22.921  -7.080  1.00  0.00    -0.003 C 
ATOM      9  C   UNL     1      -9.278  22.045  -7.710  1.00  0.00    -0.011 C 
ATOM     10  C   UNL     1      -5.770  25.823  -8.657  1.00  0.00    -0.006 C 
ATOM     11  C   UNL     1      -5.308  23.946  -6.998  1.00  0.00    -0.027 C 
ATOM     12  C   UNL     1      -8.555  23.601  -5.755  1.00  0.00     0.008 C 
ATOM     13  C   UNL     1     -10.187  21.341  -6.686  1.00  0.00     0.008 C 
ATOM     14  C   UNL     1      -6.766  27.004  -8.393  1.00  0.00     0.017 C 
ATOM     15  C   UNL     1      -4.262  26.307  -8.312  1.00  0.00    -0.020 C 
ATOM     16  C   UNL     1      -3.828  24.217  -6.937  1.00  0.00     0.032 C 
ATOM     17  C   UNL     1      -3.353  25.031  -8.157  1.00  0.00     0.006 C 
ATOM     18  C   UNL     1      -3.680  27.248  -9.416  1.00  0.00     0.008 C 
ATOM     19  C   UNL     1      -4.272  27.127  -6.975  1.00  0.00     0.012 C 
ATOM     20  C   UNL     1      -1.763  25.173  -8.336  1.00  0.00    -0.025 C 
ATOM     21  C   UNL     1      -2.684  26.561 -10.360  1.00  0.00     0.005 C 
ATOM     22  C   UNL     1      -1.409  26.135  -9.579  1.00  0.00     0.003 C 
ATOM     23  C   UNL     1      -1.216  23.707  -8.503  1.00  0.00     0.010 C 
ATOM     24  C   UNL     1      -1.088  25.748  -7.055  1.00  0.00     0.012 C 
ATOM     25  C   UNL     1      -0.147  25.758 -10.493  1.00  0.00    -0.006 C 
ATOM     26  C   UNL     1       0.140  23.582  -9.177  1.00  0.00     0.033 C 
ATOM     27  C   UNL     1       0.125  24.222 -10.560  1.00  0.00     0.120 C 
ATOM     28  C   UNL     1       1.124  26.461  -9.929  1.00  0.00     0.014 C 
ATOM     29  C   UNL     1      -0.273  26.271 -11.959  1.00  0.00     0.014 C 
ENDROOT
BRANCH   1  30
ATOM     30  C   UNL     1      -6.881  22.385  -9.929  1.00  0.00     0.048 C 
ATOM     31  O   UNL     1      -6.430  21.621  -9.040  1.00  0.00    -0.550 OA
ATOM     32  O   UNL     1      -6.539  22.135 -11.254  1.00  0.00    -0.550 OA
ENDBRANCH   1  30
BRANCH  27  33
ATOM     33  O   UNL     1      -0.767  23.538 -11.412  1.00  0.00    -0.393 OA
ATOM     34  H   UNL     1      -0.661  23.895 -12.331  1.00  0.00     0.210 HD
ENDBRANCH  27  33
TORSDOF 2
ENDMDL
MODEL 6
REMARK VINA RESULT:    -4.743      3.260      6.603
REMARK INTER + INTRA:          -4.815
REMARK INTER:                  -5.167
REMARK INTRA:                   0.352
REMARK UNBOUND:                 0.344
REMARK SMILES C[C@@H]1[C@H]2C3=CC[C@@H]4[C@@]5(C)CC[C@@H](O)C(C)(C)[C@H]5CC[C@@]4(C)[C@@]3(C)CC[C@]2(C(=O)[O-])CC[C@@H]1C
REMARK SMILES IDX 26 1 30 2 25 3 3 4 31 5 24 6 4 7 2 8 32 9 22 10 5 11 1 12
REMARK SMILES IDX 33 13 23 14 20 15 6 16 7 17 19 18 21 19 8 20 18 21 17 22
REMARK SMILES IDX 10 23 9 24 14 25 11 26 12 27 15 28 16 29 27 30 28 31 29 32
REMARK SMILES IDX 13 33
REMARK H PARENT 13 34
REMARK Flexibility Score: inf
ROOT
ATOM      1  C   UNL     1      -7.913  24.359  -8.114  1.00  0.00     0.017 C 
ATOM      2  C   UNL     1      -9.468  24.299  -7.872  1.00  0.00     0.014 C 
ATOM      3  C   UNL     1      -7.267  25.062  -6.882  1.00  0.00     0.014 C 
ATOM      4  C   UNL     1      -7.329  22.909  -8.261  1.00  0.00     0.030 C 
ATOM      5  C   UNL     1     -10.155  23.026  -8.398  1.00  0.00     0.004 C 
ATOM      6  C   UNL     1      -5.728  25.010  -6.849  1.00  0.00     0.013 C 
ATOM      7  C   UNL     1      -5.777  22.935  -8.234  1.00  0.00    -0.063 C 
ATOM      8  C   UNL     1      -8.012  22.087  -9.424  1.00  0.00    -0.003 C 
ATOM      9  C   UNL     1      -9.489  22.536  -9.684  1.00  0.00    -0.011 C 
ATOM     10  C   UNL     1      -5.120  23.565  -6.976  1.00  0.00    -0.006 C 
ATOM     11  C   UNL     1      -5.044  22.618  -9.339  1.00  0.00    -0.027 C 
ATOM     12  C   UNL     1      -7.872  20.577  -9.125  1.00  0.00     0.008 C 
ATOM     13  C   UNL     1     -10.364  21.485 -10.391  1.00  0.00     0.008 C 
ATOM     14  C   UNL     1      -5.545  22.741  -5.712  1.00  0.00     0.017 C 
ATOM     15  C   UNL     1      -3.503  23.584  -7.084  1.00  0.00    -0.020 C 
ATOM     16  C   UNL     1      -3.587  22.942  -9.539  1.00  0.00     0.032 C 
ATOM     17  C   UNL     1      -3.107  24.017  -8.545  1.00  0.00     0.006 C 
ATOM     18  C   UNL     1      -2.856  24.555  -6.043  1.00  0.00     0.008 C 
ATOM     19  C   UNL     1      -2.945  22.151  -6.777  1.00  0.00     0.012 C 
ATOM     20  C   UNL     1      -1.645  24.626  -8.814  1.00  0.00    -0.025 C 
ATOM     21  C   UNL     1      -2.390  25.889  -6.641  1.00  0.00     0.005 C 
ATOM     22  C   UNL     1      -1.227  25.652  -7.644  1.00  0.00     0.003 C 
ATOM     23  C   UNL     1      -1.713  25.294 -10.238  1.00  0.00     0.010 C 
ATOM     24  C   UNL     1      -0.563  23.509  -8.906  1.00  0.00     0.012 C 
ATOM     25  C   UNL     1      -0.400  26.965  -8.048  1.00  0.00    -0.006 C 
ATOM     26  C   UNL     1      -0.661  26.353 -10.520  1.00  0.00     0.033 C 
ATOM     27  C   UNL     1      -0.723  27.474  -9.489  1.00  0.00     0.120 C 
ATOM     28  C   UNL     1       1.125  26.658  -7.963  1.00  0.00     0.014 C 
ATOM     29  C   UNL     1      -0.625  28.159  -7.073  1.00  0.00     0.014 C 
ENDROOT
BRANCH   1  30
ATOM     30  C   UNL     1      -7.634  25.224  -9.342  1.00  0.00     0.048 C 
ATOM     31  O   UNL     1      -6.467  25.551  -9.670  1.00  0.00    -0.550 OA
ATOM     32  O   UNL     1      -8.696  25.707 -10.102  1.00  0.00    -0.550 OA
ENDBRANCH   1  30
BRANCH  27  33
ATOM     33  O   UNL     1      -1.955  28.156  -9.572  1.00  0.00    -0.393 OA
ATOM     34  H   UNL     1      -1.939  28.915  -8.934  1.00  0.00     0.210 HD
ENDBRANCH  27  33
TORSDOF 2
ENDMDL
MODEL 7
REMARK VINA RESULT:    -4.556      3.175      5.316
REMARK INTER + INTRA:          -4.612
REMARK INTER:                  -4.968
REMARK INTRA:                   0.357
REMARK UNBOUND:                 0.344
REMARK SMILES C[C@@H]1[C@H]2C3=CC[C@@H]4[C@@]5(C)CC[C@@H](O)C(C)(C)[C@H]5CC[C@@]4(C)[C@@]3(C)CC[C@]2(C(=O)[O-])CC[C@@H]1C
REMARK SMILES IDX 26 1 30 2 25 3 3 4 31 5 24 6 4 7 2 8 32 9 22 10 5 11 1 12
REMARK SMILES IDX 33 13 23 14 20 15 6 16 7 17 19 18 21 19 8 20 18 21 17 22
REMARK SMILES IDX 10 23 9 24 14 25 11 26 12 27 15 28 16 29 27 30 28 31 29 32
REMARK SMILES IDX 13 33
REMARK H PARENT 13 34
REMARK Flexibility Score: inf
ROOT
ATOM      1  C   UNL     1      -2.181  25.281  -9.294  1.00  0.00     0.017 C 
ATOM      2  C   UNL     1      -0.786  25.605  -9.948  1.00  0.00     0.014 C 
ATOM      3  C   UNL     1      -2.574  23.831  -9.708  1.00  0.00     0.014 C 
ATOM      4  C   UNL     1      -2.082  25.376  -7.730  1.00  0.00     0.030 C 
ATOM      5  C   UNL     1       0.146  26.476  -9.087  1.00  0.00     0.004 C 
ATOM      6  C   UNL     1      -3.809  23.269  -8.977  1.00  0.00     0.013 C 
ATOM      7  C   UNL     1      -3.363  24.806  -7.063  1.00  0.00    -0.063 C 
ATOM      8  C   UNL     1      -1.582  26.788  -7.230  1.00  0.00    -0.003 C 
ATOM      9  C   UNL     1      -0.654  27.495  -8.274  1.00  0.00    -0.011 C 
ATOM     10  C   UNL     1      -3.725  23.336  -7.408  1.00  0.00    -0.006 C 
ATOM     11  C   UNL     1      -4.228  25.614  -6.386  1.00  0.00    -0.027 C 
ATOM     12  C   UNL     1      -0.931  26.629  -5.838  1.00  0.00     0.008 C 
ATOM     13  C   UNL     1       0.270  28.576  -7.684  1.00  0.00     0.008 C 
ATOM     14  C   UNL     1      -2.558  22.400  -6.939  1.00  0.00     0.017 C 
ATOM     15  C   UNL     1      -5.105  22.870  -6.697  1.00  0.00    -0.020 C 
ATOM     16  C   UNL     1      -5.643  25.255  -6.013  1.00  0.00     0.032 C 
ATOM     17  C   UNL     1      -6.148  24.042  -6.819  1.00  0.00     0.006 C 
ATOM     18  C   UNL     1      -5.685  21.568  -7.338  1.00  0.00     0.008 C 
ATOM     19  C   UNL     1      -4.829  22.549  -5.187  1.00  0.00     0.012 C 
ATOM     20  C   UNL     1      -7.716  23.715  -6.695  1.00  0.00    -0.025 C 
ATOM     21  C   UNL     1      -6.867  21.812  -8.286  1.00  0.00     0.005 C 
ATOM     22  C   UNL     1      -8.085  22.366  -7.494  1.00  0.00     0.003 C 
ATOM     23  C   UNL     1      -8.466  24.989  -7.235  1.00  0.00     0.010 C 
ATOM     24  C   UNL     1      -8.153  23.547  -5.209  1.00  0.00     0.012 C 
ATOM     25  C   UNL     1      -9.485  22.307  -8.274  1.00  0.00    -0.006 C 
ATOM     26  C   UNL     1      -9.897  24.766  -7.695  1.00  0.00     0.033 C 
ATOM     27  C   UNL     1      -9.962  23.703  -8.785  1.00  0.00     0.120 C 
ATOM     28  C   UNL     1     -10.577  21.729  -7.325  1.00  0.00     0.014 C 
ATOM     29  C   UNL     1      -9.468  21.345  -9.499  1.00  0.00     0.014 C 
ENDROOT
BRANCH   1  30
ATOM     30  C   UNL     1      -3.231  26.230  -9.868  1.00  0.00     0.048 C 
ATOM     31  O   UNL     1      -4.456  26.079  -9.635  1.00  0.00    -0.550 OA
ATOM     32  O   UNL     1      -2.839  27.267 -10.709  1.00  0.00    -0.550 OA
ENDBRANCH   1  30
BRANCH  27  33
ATOM     33  O   UNL     1      -9.274  24.135  -9.938  1.00  0.00    -0.393 OA
ATOM     34  H   UNL     1      -8.343  24.363  -9.683  1.00  0.00     0.210 HD
ENDBRANCH  27  33
TORSDOF 2
ENDMDL
MODEL 8
REMARK VINA RESULT:    -4.513      3.455      5.586
REMARK INTER + INTRA:          -4.564
REMARK INTER:                  -4.911
REMARK INTRA:                   0.347
REMARK UNBOUND:                 0.344
REMARK SMILES C[C@@H]1[C@H]2C3=CC[C@@H]4[C@@]5(C)CC[C@@H](O)C(C)(C)[C@H]5CC[C@@]4(C)[C@@]3(C)CC[C@]2(C(=O)[O-])CC[C@@H]1C
REMARK SMILES IDX 26 1 30 2 25 3 3 4 31 5 24 6 4 7 2 8 32 9 22 10 5 11 1 12
REMARK SMILES IDX 33 13 23 14 20 15 6 16 7 17 19 18 21 19 8 20 18 21 17 22
REMARK SMILES IDX 10 23 9 24 14 25 11 26 12 27 15 28 16 29 27 30 28 31 29 32
REMARK SMILES IDX 13 33
REMARK H PARENT 13 34
REMARK Flexibility Score: inf
ROOT
ATOM      1  C   UNL     1      -2.495  26.815  -8.210  1.00  0.00     0.017 C 
ATOM      2  C   UNL     1      -1.266  27.783  -8.392  1.00  0.00     0.014 C 
ATOM      3  C   UNL     1      -2.706  26.057  -9.556  1.00  0.00     0.014 C 
ATOM      4  C   UNL     1      -2.208  25.783  -7.062  1.00  0.00     0.030 C 
ATOM      5  C   UNL     1      -0.378  27.941  -7.145  1.00  0.00     0.004 C 
ATOM      6  C   UNL     1      -3.730  24.908  -9.490  1.00  0.00     0.013 C 
ATOM      7  C   UNL     1      -3.285  24.664  -7.047  1.00  0.00    -0.063 C 
ATOM      8  C   UNL     1      -1.874  26.475  -5.682  1.00  0.00    -0.003 C 
ATOM      9  C   UNL     1      -1.214  27.883  -5.867  1.00  0.00    -0.011 C 
ATOM     10  C   UNL     1      -3.453  23.851  -8.359  1.00  0.00    -0.006 C 
ATOM     11  C   UNL     1      -4.170  24.547  -6.016  1.00  0.00    -0.027 C 
ATOM     12  C   UNL     1      -1.030  25.508  -4.823  1.00  0.00     0.008 C 
ATOM     13  C   UNL     1      -0.403  28.374  -4.654  1.00  0.00     0.008 C 
ATOM     14  C   UNL     1      -2.103  23.125  -8.686  1.00  0.00     0.017 C 
ATOM     15  C   UNL     1      -4.637  22.751  -8.240  1.00  0.00    -0.020 C 
ATOM     16  C   UNL     1      -5.449  23.753  -6.054  1.00  0.00     0.032 C 
ATOM     17  C   UNL     1      -5.858  23.412  -7.500  1.00  0.00     0.006 C 
ATOM     18  C   UNL     1      -5.085  22.217  -9.640  1.00  0.00     0.008 C 
ATOM     19  C   UNL     1      -4.119  21.515  -7.427  1.00  0.00     0.012 C 
ATOM     20  C   UNL     1      -7.325  22.785  -7.689  1.00  0.00    -0.025 C 
ATOM     21  C   UNL     1      -6.404  22.816 -10.144  1.00  0.00     0.005 C 
ATOM     22  C   UNL     1      -7.580  22.376  -9.226  1.00  0.00     0.003 C 
ATOM     23  C   UNL     1      -8.330  23.872  -7.156  1.00  0.00     0.010 C 
ATOM     24  C   UNL     1      -7.532  21.524  -6.798  1.00  0.00     0.012 C 
ATOM     25  C   UNL     1      -9.043  22.607  -9.839  1.00  0.00    -0.006 C 
ATOM     26  C   UNL     1      -9.757  23.760  -7.668  1.00  0.00     0.033 C 
ATOM     27  C   UNL     1      -9.796  23.812  -9.191  1.00  0.00     0.120 C 
ATOM     28  C   UNL     1      -9.897  21.321  -9.631  1.00  0.00     0.014 C 
ATOM     29  C   UNL     1      -9.036  22.840 -11.380  1.00  0.00     0.014 C 
ENDROOT
BRANCH   1  30
ATOM     30  C   UNL     1      -3.748  27.647  -7.943  1.00  0.00     0.048 C 
ATOM     31  O   UNL     1      -4.882  27.119  -7.833  1.00  0.00    -0.550 OA
ATOM     32  O   UNL     1      -3.651  29.033  -7.861  1.00  0.00    -0.550 OA
ENDBRANCH   1  30
BRANCH  27  33
ATOM     33  O   UNL     1      -9.342  25.064  -9.655  1.00  0.00    -0.393 OA
ATOM     34  H   UNL     1      -8.355  25.028  -9.744  1.00  0.00     0.210 HD
ENDBRANCH  27  33
TORSDOF 2
ENDMDL
MODEL 9
REMARK VINA RESULT:    -4.482      3.330      5.977
REMARK INTER + INTRA:          -4.530
REMARK INTER:                  -4.880
REMARK INTRA:                   0.350
REMARK UNBOUND:                 0.344
REMARK SMILES C[C@@H]1[C@H]2C3=CC[C@@H]4[C@@]5(C)CC[C@@H](O)C(C)(C)[C@H]5CC[C@@]4(C)[C@@]3(C)CC[C@]2(C(=O)[O-])CC[C@@H]1C
REMARK SMILES IDX 26 1 30 2 25 3 3 4 31 5 24 6 4 7 2 8 32 9 22 10 5 11 1 12
REMARK SMILES IDX 33 13 23 14 20 15 6 16 7 17 19 18 21 19 8 20 18 21 17 22
REMARK SMILES IDX 10 23 9 24 14 25 11 26 12 27 15 28 16 29 27 30 28 31 29 32
REMARK SMILES IDX 13 33
REMARK H PARENT 13 34
REMARK Flexibility Score: inf
ROOT
ATOM      1  C   UNL     1      -3.627  26.458  -5.244  1.00  0.00     0.017 C 
ATOM      2  C   UNL     1      -2.631  27.075  -4.191  1.00  0.00     0.014 C 
ATOM      3  C   UNL     1      -5.003  26.263  -4.537  1.00  0.00     0.014 C 
ATOM      4  C   UNL     1      -3.795  27.428  -6.466  1.00  0.00     0.030 C 
ATOM      5  C   UNL     1      -1.628  28.089  -4.768  1.00  0.00     0.004 C 
ATOM      6  C   UNL     1      -6.158  25.873  -5.479  1.00  0.00     0.013 C 
ATOM      7  C   UNL     1      -4.964  26.968  -7.378  1.00  0.00    -0.063 C 
ATOM      8  C   UNL     1      -2.424  27.767  -7.175  1.00  0.00    -0.003 C 
ATOM      9  C   UNL     1      -1.211  27.700  -6.187  1.00  0.00    -0.011 C 
ATOM     10  C   UNL     1      -6.357  26.842  -6.702  1.00  0.00    -0.006 C 
ATOM     11  C   UNL     1      -4.737  26.500  -8.638  1.00  0.00    -0.027 C 
ATOM     12  C   UNL     1      -2.553  29.125  -7.900  1.00  0.00     0.008 C 
ATOM     13  C   UNL     1       0.026  28.499  -6.636  1.00  0.00     0.008 C 
ATOM     14  C   UNL     1      -6.785  28.246  -6.152  1.00  0.00     0.017 C 
ATOM     15  C   UNL     1      -7.484  26.305  -7.737  1.00  0.00    -0.020 C 
ATOM     16  C   UNL     1      -5.720  25.712  -9.464  1.00  0.00     0.032 C 
ATOM     17  C   UNL     1      -6.858  25.143  -8.595  1.00  0.00     0.006 C 
ATOM     18  C   UNL     1      -8.764  25.796  -6.998  1.00  0.00     0.008 C 
ATOM     19  C   UNL     1      -7.935  27.481  -8.670  1.00  0.00     0.012 C 
ATOM     20  C   UNL     1      -7.831  24.084  -9.310  1.00  0.00    -0.025 C 
ATOM     21  C   UNL     1      -8.866  24.268  -6.908  1.00  0.00     0.005 C 
ATOM     22  C   UNL     1      -9.034  23.656  -8.328  1.00  0.00     0.003 C 
ATOM     23  C   UNL     1      -6.914  22.878  -9.739  1.00  0.00     0.010 C 
ATOM     24  C   UNL     1      -8.442  24.657 -10.623  1.00  0.00     0.012 C 
ATOM     25  C   UNL     1      -9.529  22.131  -8.356  1.00  0.00    -0.006 C 
ATOM     26  C   UNL     1      -7.627  21.557  -9.970  1.00  0.00     0.033 C 
ATOM     27  C   UNL     1      -8.394  21.124  -8.725  1.00  0.00     0.120 C 
ATOM     28  C   UNL     1     -10.678  21.983  -9.397  1.00  0.00     0.014 C 
ATOM     29  C   UNL     1     -10.146  21.659  -7.005  1.00  0.00     0.014 C 
ENDROOT
BRANCH   1  30
ATOM     30  C   UNL     1      -3.119  25.080  -5.661  1.00  0.00     0.048 C 
ATOM     31  O   UNL     1      -3.730  24.377  -6.505  1.00  0.00    -0.550 OA
ATOM     32  O   UNL     1      -1.974  24.557  -5.067  1.00  0.00    -0.550 OA
ENDBRANCH   1  30
BRANCH  27  33
ATOM     33  O   UNL     1      -7.505  20.875  -7.659  1.00  0.00    -0.393 OA
ATOM     34  H   UNL     1      -7.157  21.744  -7.329  1.00  0.00     0.210 HD
ENDBRANCH  27  33
TORSDOF 2
ENDMDL
