MODEL 1
REMARK VINA RESULT:     0.109      0.000      0.000
REMARK INTER + INTRA:          -0.068
REMARK INTER:                   0.144
REMARK INTRA:                  -0.212
REMARK UNBOUND:                -0.212
REMARK SMILES CCCCC=CC=CCO
REMARK SMILES IDX 5 1 6 2 4 3 3 4 2 5 1 6 7 7 8 8 9 9 10 10
REMARK H PARENT 10 11
REMARK Flexibility Score: inf
ROOT
ATOM      1  C   UNL     1      20.097  14.914  52.947  1.00  0.00    -0.027 C 
ATOM      2  C   UNL     1      18.782  14.988  52.718  1.00  0.00    -0.005 C 
ENDROOT
BRANCH   1   3
ATOM      3  C   UNL     1      21.090  14.875  51.821  1.00  0.00     0.027 C 
BRANCH   3   4
ATOM      4  C   UNL     1      22.273  15.818  52.092  1.00  0.00     0.004 C 
BRANCH   4   5
ATOM      5  C   UNL     1      22.112  17.180  51.401  1.00  0.00    -0.003 C 
ATOM      6  C   UNL     1      22.996  18.263  52.017  1.00  0.00     0.004 C 
ENDBRANCH   4   5
ENDBRANCH   3   4
ENDBRANCH   1   3
BRANCH   2   7
ATOM      7  C   UNL     1      17.821  15.037  53.839  1.00  0.00    -0.002 C 
ATOM      8  C   UNL     1      16.524  15.335  53.694  1.00  0.00     0.001 C 
BRANCH   8   9
ATOM      9  C   UNL     1      15.876  15.659  52.380  1.00  0.00     0.183 C 
BRANCH   9  10
ATOM     10  O   UNL     1      16.063  17.014  52.078  1.00  0.00    -0.392 OA
ATOM     11  H   UNL     1      17.014  17.107  51.810  1.00  0.00     0.210 HD
ENDBRANCH   9  10
ENDBRANCH   8   9
ENDBRANCH   2   7
TORSDOF 6
ENDMDL
