MODEL 1
REMARK VINA RESULT:    -4.004      0.000      0.000
REMARK INTER + INTRA:          -4.742
REMARK INTER:                  -4.707
REMARK INTRA:                  -0.035
REMARK UNBOUND:                -0.035
REMARK SMILES CCCCC(=O)[O-]
REMARK SMILES IDX 4 1 5 2 6 3 7 4 3 5 2 6 1 7
REMARK H PARENT
REMARK Flexibility Score: inf
ROOT
ATOM      1  C   UNL     1      94.274 123.330 123.837  1.00  0.00     0.053 C 
ENDROOT
BRANCH   1   2
ATOM      2  C   UNL     1      95.747 123.548 123.980  1.00  0.00     0.041 C 
ATOM      3  O   UNL     1      96.228 124.707 123.887  1.00  0.00    -0.550 OA
ATOM      4  O   UNL     1      96.594 122.463 124.165  1.00  0.00    -0.550 OA
ENDBRANCH   1   2
BRANCH   1   5
ATOM      5  C   UNL     1      93.993 122.005 123.123  1.00  0.00     0.006 C 
BRANCH   5   6
ATOM      6  C   UNL     1      93.119 122.222 121.883  1.00  0.00    -0.003 C 
ATOM      7  C   UNL     1      93.819 121.726 120.621  1.00  0.00     0.004 C 
ENDBRANCH   5   6
ENDBRANCH   1   5
TORSDOF 3
ENDMDL
MODEL 2
REMARK VINA RESULT:    -3.957      1.581      2.501
REMARK INTER + INTRA:          -4.686
REMARK INTER:                  -4.646
REMARK INTRA:                  -0.040
REMARK UNBOUND:                -0.035
REMARK SMILES CCCCC(=O)[O-]
REMARK SMILES IDX 4 1 5 2 6 3 7 4 3 5 2 6 1 7
REMARK H PARENT
REMARK Flexibility Score: inf
ROOT
ATOM      1  C   UNL     1      96.144 124.568 124.039  1.00  0.00     0.053 C 
ENDROOT
BRANCH   1   2
ATOM      2  C   UNL     1      97.244 124.627 125.050  1.00  0.00     0.041 C 
ATOM      3  O   UNL     1      97.478 123.637 125.791  1.00  0.00    -0.550 OA
ATOM      4  O   UNL     1      97.980 125.795 125.209  1.00  0.00    -0.550 OA
ENDBRANCH   1   2
BRANCH   1   5
ATOM      5  C   UNL     1      95.802 123.114 123.701  1.00  0.00     0.006 C 
BRANCH   5   6
ATOM      6  C   UNL     1      94.288 122.882 123.736  1.00  0.00    -0.003 C 
ATOM      7  C   UNL     1      93.813 122.146 122.486  1.00  0.00     0.004 C 
ENDBRANCH   5   6
ENDBRANCH   1   5
TORSDOF 3
ENDMDL
MODEL 3
REMARK VINA RESULT:    -3.949     14.547     15.418
REMARK INTER + INTRA:          -4.676
REMARK INTER:                  -4.653
REMARK INTRA:                  -0.023
REMARK UNBOUND:                -0.035
REMARK SMILES CCCCC(=O)[O-]
REMARK SMILES IDX 4 1 5 2 6 3 7 4 3 5 2 6 1 7
REMARK H PARENT
REMARK Flexibility Score: inf
ROOT
ATOM      1  C   UNL     1      96.879 137.039 119.347  1.00  0.00     0.053 C 
ENDROOT
BRANCH   1   2
ATOM      2  C   UNL     1      97.603 136.427 120.504  1.00  0.00     0.041 C 
ATOM      3  O   UNL     1      97.481 135.199 120.751  1.00  0.00    -0.550 OA
ATOM      4  O   UNL     1      98.375 137.224 121.340  1.00  0.00    -0.550 OA
ENDBRANCH   1   2
BRANCH   1   5
ATOM      5  C   UNL     1      96.584 138.516 119.618  1.00  0.00     0.006 C 
BRANCH   5   6
ATOM      6  C   UNL     1      95.743 139.125 118.490  1.00  0.00    -0.003 C 
ATOM      7  C   UNL     1      96.503 139.114 117.167  1.00  0.00     0.004 C 
ENDBRANCH   5   6
ENDBRANCH   1   5
TORSDOF 3
ENDMDL
MODEL 4
REMARK VINA RESULT:    -3.857      2.279      4.221
REMARK INTER + INTRA:          -4.569
REMARK INTER:                  -4.522
REMARK INTRA:                  -0.047
REMARK UNBOUND:                -0.035
REMARK SMILES CCCCC(=O)[O-]
REMARK SMILES IDX 4 1 5 2 6 3 7 4 3 5 2 6 1 7
REMARK H PARENT
REMARK Flexibility Score: inf
ROOT
ATOM      1  C   UNL     1      95.868 123.121 123.389  1.00  0.00     0.053 C 
ENDROOT
BRANCH   1   2
ATOM      2  C   UNL     1      94.430 122.721 123.483  1.00  0.00     0.041 C 
ATOM      3  O   UNL     1      93.805 122.853 124.568  1.00  0.00    -0.550 OA
ATOM      4  O   UNL     1      93.792 122.157 122.386  1.00  0.00    -0.550 OA
ENDBRANCH   1   2
BRANCH   1   5
ATOM      5  C   UNL     1      96.115 124.424 124.153  1.00  0.00     0.006 C 
BRANCH   5   6
ATOM      6  C   UNL     1      97.173 124.230 125.245  1.00  0.00    -0.003 C 
ATOM      7  C   UNL     1      97.950 125.520 125.496  1.00  0.00     0.004 C 
ENDBRANCH   5   6
ENDBRANCH   1   5
TORSDOF 3
ENDMDL
MODEL 5
REMARK VINA RESULT:    -3.854      5.243      6.505
REMARK INTER + INTRA:          -4.565
REMARK INTER:                  -4.529
REMARK INTRA:                  -0.037
REMARK UNBOUND:                -0.035
REMARK SMILES CCCCC(=O)[O-]
REMARK SMILES IDX 4 1 5 2 6 3 7 4 3 5 2 6 1 7
REMARK H PARENT
REMARK Flexibility Score: inf
ROOT
ATOM      1  C   UNL     1      98.778 121.584 126.084  1.00  0.00     0.053 C 
ENDROOT
BRANCH   1   2
ATOM      2  C   UNL     1      98.819 123.066 126.284  1.00  0.00     0.041 C 
ATOM      3  O   UNL     1      99.873 123.622 126.688  1.00  0.00    -0.550 OA
ATOM      4  O   UNL     1      97.676 123.827 126.073  1.00  0.00    -0.550 OA
ENDBRANCH   1   2
BRANCH   1   5
ATOM      5  C   UNL     1     100.062 120.936 126.607  1.00  0.00     0.006 C 
BRANCH   5   6
ATOM      6  C   UNL     1     100.603 119.903 125.612  1.00  0.00    -0.003 C 
ATOM      7  C   UNL     1     102.124 119.805 125.691  1.00  0.00     0.004 C 
ENDBRANCH   5   6
ENDBRANCH   1   5
TORSDOF 3
ENDMDL
MODEL 6
REMARK VINA RESULT:    -3.461      2.535      3.877
REMARK INTER + INTRA:          -4.103
REMARK INTER:                  -4.054
REMARK INTRA:                  -0.049
REMARK UNBOUND:                -0.035
REMARK SMILES CCCCC(=O)[O-]
REMARK SMILES IDX 4 1 5 2 6 3 7 4 3 5 2 6 1 7
REMARK H PARENT
REMARK Flexibility Score: inf
ROOT
ATOM      1  C   UNL     1      93.940 121.934 123.279  1.00  0.00     0.053 C 
ENDROOT
BRANCH   1   2
ATOM      2  C   UNL     1      93.449 121.895 121.867  1.00  0.00     0.041 C 
ATOM      3  O   UNL     1      92.214 121.908 121.624  1.00  0.00    -0.550 OA
ATOM      4  O   UNL     1      94.355 121.796 120.819  1.00  0.00    -0.550 OA
ENDBRANCH   1   2
BRANCH   1   5
ATOM      5  C   UNL     1      94.486 123.322 123.621  1.00  0.00     0.006 C 
BRANCH   5   6
ATOM      6  C   UNL     1      96.019 123.326 123.623  1.00  0.00    -0.003 C 
ATOM      7  C   UNL     1      96.567 124.499 124.432  1.00  0.00     0.004 C 
ENDBRANCH   5   6
ENDBRANCH   1   5
TORSDOF 3
ENDMDL
MODEL 7
REMARK VINA RESULT:    -3.460      3.135      4.127
REMARK INTER + INTRA:          -4.102
REMARK INTER:                  -4.074
REMARK INTRA:                  -0.028
REMARK UNBOUND:                -0.035
REMARK SMILES CCCCC(=O)[O-]
REMARK SMILES IDX 4 1 5 2 6 3 7 4 3 5 2 6 1 7
REMARK H PARENT
REMARK Flexibility Score: inf
ROOT
ATOM      1  C   UNL     1      92.759 122.316 121.454  1.00  0.00     0.053 C 
ENDROOT
BRANCH   1   2
ATOM      2  C   UNL     1      93.205 122.135 120.038  1.00  0.00     0.041 C 
ATOM      3  O   UNL     1      92.545 122.645 119.096  1.00  0.00    -0.550 OA
ATOM      4  O   UNL     1      94.323 121.361 119.756  1.00  0.00    -0.550 OA
ENDBRANCH   1   2
BRANCH   1   5
ATOM      5  C   UNL     1      93.875 121.919 122.424  1.00  0.00     0.006 C 
BRANCH   5   6
ATOM      6  C   UNL     1      93.991 122.927 123.572  1.00  0.00    -0.003 C 
ATOM      7  C   UNL     1      95.418 123.453 123.704  1.00  0.00     0.004 C 
ENDBRANCH   5   6
ENDBRANCH   1   5
TORSDOF 3
ENDMDL
MODEL 8
REMARK VINA RESULT:    -3.412      9.831     10.370
REMARK INTER + INTRA:          -4.046
REMARK INTER:                  -3.937
REMARK INTRA:                  -0.109
REMARK UNBOUND:                -0.035
REMARK SMILES CCCCC(=O)[O-]
REMARK SMILES IDX 4 1 5 2 6 3 7 4 3 5 2 6 1 7
REMARK H PARENT
REMARK Flexibility Score: inf
ROOT
ATOM      1  C   UNL     1      87.744 122.374 131.552  1.00  0.00     0.053 C 
ENDROOT
BRANCH   1   2
ATOM      2  C   UNL     1      88.807 121.583 130.858  1.00  0.00     0.041 C 
ATOM      3  O   UNL     1      88.642 121.208 129.668  1.00  0.00    -0.550 OA
ATOM      4  O   UNL     1      89.959 121.217 131.543  1.00  0.00    -0.550 OA
ENDBRANCH   1   2
BRANCH   1   5
ATOM      5  C   UNL     1      87.914 123.868 131.268  1.00  0.00     0.006 C 
BRANCH   5   6
ATOM      6  C   UNL     1      86.746 124.407 130.436  1.00  0.00    -0.003 C 
ATOM      7  C   UNL     1      87.076 124.392 128.946  1.00  0.00     0.004 C 
ENDBRANCH   5   6
ENDBRANCH   1   5
TORSDOF 3
ENDMDL
MODEL 9
REMARK VINA RESULT:    -3.364     10.000     10.867
REMARK INTER + INTRA:          -3.989
REMARK INTER:                  -3.956
REMARK INTRA:                  -0.033
REMARK UNBOUND:                -0.035
REMARK SMILES CCCCC(=O)[O-]
REMARK SMILES IDX 4 1 5 2 6 3 7 4 3 5 2 6 1 7
REMARK H PARENT
REMARK Flexibility Score: inf
ROOT
ATOM      1  C   UNL     1      87.977 122.851 129.751  1.00  0.00     0.053 C 
ENDROOT
BRANCH   1   2
ATOM      2  C   UNL     1      88.445 121.483 130.135  1.00  0.00     0.041 C 
ATOM      3  O   UNL     1      89.245 121.334 131.096  1.00  0.00    -0.550 OA
ATOM      4  O   UNL     1      88.038 120.377 129.401  1.00  0.00    -0.550 OA
ENDBRANCH   1   2
BRANCH   1   5
ATOM      5  C   UNL     1      88.119 123.819 130.928  1.00  0.00     0.006 C 
BRANCH   5   6
ATOM      6  C   UNL     1      86.776 124.471 131.271  1.00  0.00    -0.003 C 
ATOM      7  C   UNL     1      86.725 124.895 132.736  1.00  0.00     0.004 C 
ENDBRANCH   5   6
ENDBRANCH   1   5
TORSDOF 3
ENDMDL
