MODEL 1
REMARK VINA RESULT:    -7.153      0.000      0.000
REMARK INTER + INTRA:          -8.690
REMARK INTER:                  -8.407
REMARK INTRA:                  -0.283
REMARK UNBOUND:                -0.283
REMARK SMILES O=c1cc(-c2ccc(O)c(O)c2)oc2cc(O)cc(O)c12
REMARK SMILES IDX 4 1 3 2 2 3 1 4 21 5 19 6 18 7 16 8 15 9 14 10 13 11 5 12
REMARK SMILES IDX 6 13 7 14 8 15 12 16 10 17 9 18 11 20 20 22 17 24
REMARK H PARENT 9 19 11 21 20 23 17 25
REMARK Flexibility Score: inf
ROOT
ATOM      1  C   UNL     1      -9.678   7.811   6.788  1.00  0.00     0.138 A 
ATOM      2  C   UNL     1     -10.403   8.794   6.100  1.00  0.00     0.100 A 
ATOM      3  C   UNL     1      -9.742   9.915   5.598  1.00  0.00     0.197 A 
ATOM      4  O   UNL     1     -10.429  10.810   5.040  1.00  0.00    -0.289 OA
ATOM      5  C   UNL     1      -8.341  10.036   5.759  1.00  0.00     0.107 A 
ATOM      6  C   UNL     1      -7.555  11.115   5.254  1.00  0.00     0.134 A 
ATOM      7  C   UNL     1      -6.194  11.186   5.575  1.00  0.00     0.093 A 
ATOM      8  C   UNL     1      -5.578  10.189   6.331  1.00  0.00     0.123 A 
ATOM      9  C   UNL     1      -6.325   9.102   6.785  1.00  0.00     0.094 A 
ATOM     10  C   UNL     1      -7.693   9.019   6.510  1.00  0.00     0.146 A 
ATOM     11  O   UNL     1      -8.372   7.975   6.973  1.00  0.00    -0.456 OA
ENDROOT
BRANCH   1  12
ATOM     12  C   UNL     1     -10.332   6.598   7.342  1.00  0.00     0.021 A 
ATOM     13  C   UNL     1      -9.913   6.093   8.584  1.00  0.00     0.016 A 
ATOM     14  C   UNL     1     -10.506   4.949   9.124  1.00  0.00     0.051 A 
ATOM     15  C   UNL     1     -11.522   4.284   8.426  1.00  0.00     0.157 A 
ATOM     16  C   UNL     1     -11.344   5.917   6.638  1.00  0.00     0.062 A 
ATOM     17  C   UNL     1     -11.939   4.769   7.175  1.00  0.00     0.158 A 
BRANCH  15  18
ATOM     18  O   UNL     1     -12.113   3.143   8.967  1.00  0.00    -0.504 OA
ATOM     19  H   UNL     1     -12.355   3.086   9.950  1.00  0.00     0.293 HD
ENDBRANCH  15  18
BRANCH  17  20
ATOM     20  O   UNL     1     -12.940   4.123   6.451  1.00  0.00    -0.504 OA
ATOM     21  H   UNL     1     -12.743   3.609   5.600  1.00  0.00     0.293 HD
ENDBRANCH  17  20
ENDBRANCH   1  12
BRANCH   6  22
ATOM     22  O   UNL     1      -8.052  12.119   4.418  1.00  0.00    -0.507 OA
ATOM     23  H   UNL     1      -7.600  12.449   3.579  1.00  0.00     0.293 HD
ENDBRANCH   6  22
BRANCH   8  24
ATOM     24  O   UNL     1      -4.218  10.285   6.619  1.00  0.00    -0.508 OA
ATOM     25  H   UNL     1      -3.844   9.996   7.514  1.00  0.00     0.293 HD
ENDBRANCH   8  24
TORSDOF 5
ENDMDL
MODEL 2
REMARK VINA RESULT:    -6.514      1.765      7.306
REMARK INTER + INTRA:          -7.940
REMARK INTER:                  -7.663
REMARK INTRA:                  -0.276
REMARK UNBOUND:                -0.283
REMARK SMILES O=c1cc(-c2ccc(O)c(O)c2)oc2cc(O)cc(O)c12
REMARK SMILES IDX 4 1 3 2 2 3 1 4 21 5 19 6 18 7 16 8 15 9 14 10 13 11 5 12
REMARK SMILES IDX 6 13 7 14 8 15 12 16 10 17 9 18 11 20 20 22 17 24
REMARK H PARENT 9 19 11 21 20 23 17 25
REMARK Flexibility Score: inf
ROOT
ATOM      1  C   UNL     1      -9.155   7.787   6.596  1.00  0.00     0.138 A 
ATOM      2  C   UNL     1      -9.002   6.770   7.550  1.00  0.00     0.100 A 
ATOM      3  C   UNL     1      -9.973   5.774   7.658  1.00  0.00     0.197 A 
ATOM      4  O   UNL     1      -9.839   4.911   8.564  1.00  0.00    -0.289 OA
ATOM      5  C   UNL     1     -11.086   5.778   6.784  1.00  0.00     0.107 A 
ATOM      6  C   UNL     1     -12.116   4.790   6.775  1.00  0.00     0.134 A 
ATOM      7  C   UNL     1     -13.228   4.961   5.943  1.00  0.00     0.093 A 
ATOM      8  C   UNL     1     -13.321   6.050   5.077  1.00  0.00     0.123 A 
ATOM      9  C   UNL     1     -12.294   6.995   5.039  1.00  0.00     0.094 A 
ATOM     10  C   UNL     1     -11.186   6.870   5.881  1.00  0.00     0.146 A 
ATOM     11  O   UNL     1     -10.237   7.798   5.825  1.00  0.00    -0.456 OA
ENDROOT
BRANCH   1  12
ATOM     12  C   UNL     1      -8.152   8.871   6.438  1.00  0.00     0.021 A 
ATOM     13  C   UNL     1      -7.712   9.221   5.151  1.00  0.00     0.016 A 
ATOM     14  C   UNL     1      -6.763  10.232   4.975  1.00  0.00     0.051 A 
ATOM     15  C   UNL     1      -6.231  10.903   6.083  1.00  0.00     0.157 A 
ATOM     16  C   UNL     1      -7.604   9.539   7.550  1.00  0.00     0.062 A 
ATOM     17  C   UNL     1      -6.652  10.551   7.377  1.00  0.00     0.158 A 
BRANCH  15  18
ATOM     18  O   UNL     1      -5.287  11.912   5.905  1.00  0.00    -0.504 OA
ATOM     19  H   UNL     1      -4.394  11.895   6.385  1.00  0.00     0.293 HD
ENDBRANCH  15  18
BRANCH  17  20
ATOM     20  O   UNL     1      -6.134  11.192   8.501  1.00  0.00    -0.504 OA
ATOM     21  H   UNL     1      -6.727  11.535   9.248  1.00  0.00     0.293 HD
ENDBRANCH  17  20
ENDBRANCH   1  12
BRANCH   6  22
ATOM     22  O   UNL     1     -12.081   3.619   7.539  1.00  0.00    -0.507 OA
ATOM     23  H   UNL     1     -12.711   3.407   8.298  1.00  0.00     0.293 HD
ENDBRANCH   6  22
BRANCH   8  24
ATOM     24  O   UNL     1     -14.436   6.181   4.252  1.00  0.00    -0.508 OA
ATOM     25  H   UNL     1     -15.097   6.940   4.369  1.00  0.00     0.293 HD
ENDBRANCH   8  24
TORSDOF 5
ENDMDL
MODEL 3
REMARK VINA RESULT:    -6.509      1.967      6.865
REMARK INTER + INTRA:          -7.933
REMARK INTER:                  -7.669
REMARK INTRA:                  -0.264
REMARK UNBOUND:                -0.283
REMARK SMILES O=c1cc(-c2ccc(O)c(O)c2)oc2cc(O)cc(O)c12
REMARK SMILES IDX 4 1 3 2 2 3 1 4 21 5 19 6 18 7 16 8 15 9 14 10 13 11 5 12
REMARK SMILES IDX 6 13 7 14 8 15 12 16 10 17 9 18 11 20 20 22 17 24
REMARK H PARENT 9 19 11 21 20 23 17 25
REMARK Flexibility Score: inf
ROOT
ATOM      1  C   UNL     1      -9.579   8.626   6.000  1.00  0.00     0.138 A 
ATOM      2  C   UNL     1     -10.846   9.174   5.756  1.00  0.00     0.100 A 
ATOM      3  C   UNL     1     -11.957   8.334   5.672  1.00  0.00     0.197 A 
ATOM      4  O   UNL     1     -13.070   8.848   5.390  1.00  0.00    -0.289 OA
ATOM      5  C   UNL     1     -11.802   6.941   5.868  1.00  0.00     0.107 A 
ATOM      6  C   UNL     1     -12.869   5.994   5.847  1.00  0.00     0.134 A 
ATOM      7  C   UNL     1     -12.579   4.627   5.938  1.00  0.00     0.093 A 
ATOM      8  C   UNL     1     -11.271   4.176   6.108  1.00  0.00     0.123 A 
ATOM      9  C   UNL     1     -10.225   5.097   6.184  1.00  0.00     0.094 A 
ATOM     10  C   UNL     1     -10.477   6.466   6.063  1.00  0.00     0.146 A 
ATOM     11  O   UNL     1      -9.452   7.309   6.126  1.00  0.00    -0.456 OA
ENDROOT
BRANCH   1  12
ATOM     12  C   UNL     1      -8.364   9.475   6.099  1.00  0.00     0.021 A 
ATOM     13  C   UNL     1      -7.642   9.784   4.935  1.00  0.00     0.016 A 
ATOM     14  C   UNL     1      -6.491  10.574   5.001  1.00  0.00     0.051 A 
ATOM     15  C   UNL     1      -6.036  11.059   6.234  1.00  0.00     0.157 A 
ATOM     16  C   UNL     1      -7.895   9.954   7.337  1.00  0.00     0.062 A 
ATOM     17  C   UNL     1      -6.741  10.744   7.407  1.00  0.00     0.158 A 
BRANCH  15  18
ATOM     18  O   UNL     1      -4.889  11.848   6.297  1.00  0.00    -0.504 OA
ATOM     19  H   UNL     1      -4.450  12.077   7.181  1.00  0.00     0.293 HD
ENDBRANCH  15  18
BRANCH  17  20
ATOM     20  O   UNL     1      -6.308  11.202   8.651  1.00  0.00    -0.504 OA
ATOM     21  H   UNL     1      -6.889  11.142   9.479  1.00  0.00     0.293 HD
ENDBRANCH  17  20
ENDBRANCH   1  12
BRANCH   6  22
ATOM     22  O   UNL     1     -14.220   6.341   5.766  1.00  0.00    -0.507 OA
ATOM     23  H   UNL     1     -14.728   6.490   4.907  1.00  0.00     0.293 HD
ENDBRANCH   6  22
BRANCH   8  24
ATOM     24  O   UNL     1     -11.021   2.809   6.211  1.00  0.00    -0.508 OA
ATOM     25  H   UNL     1     -11.617   2.201   6.759  1.00  0.00     0.293 HD
ENDBRANCH   8  24
TORSDOF 5
ENDMDL
MODEL 4
REMARK VINA RESULT:    -6.043      1.804      3.476
REMARK INTER + INTRA:          -7.386
REMARK INTER:                  -7.114
REMARK INTRA:                  -0.272
REMARK UNBOUND:                -0.283
REMARK SMILES O=c1cc(-c2ccc(O)c(O)c2)oc2cc(O)cc(O)c12
REMARK SMILES IDX 4 1 3 2 2 3 1 4 21 5 19 6 18 7 16 8 15 9 14 10 13 11 5 12
REMARK SMILES IDX 6 13 7 14 8 15 12 16 10 17 9 18 11 20 20 22 17 24
REMARK H PARENT 9 19 11 21 20 23 17 25
REMARK Flexibility Score: inf
ROOT
ATOM      1  C   UNL     1     -10.096   7.612   6.479  1.00  0.00     0.138 A 
ATOM      2  C   UNL     1      -8.800   8.083   6.227  1.00  0.00     0.100 A 
ATOM      3  C   UNL     1      -8.624   9.325   5.614  1.00  0.00     0.197 A 
ATOM      4  O   UNL     1      -7.452   9.693   5.345  1.00  0.00    -0.289 OA
ATOM      5  C   UNL     1      -9.753  10.112   5.283  1.00  0.00     0.107 A 
ATOM      6  C   UNL     1      -9.693  11.410   4.693  1.00  0.00     0.134 A 
ATOM      7  C   UNL     1     -10.878  12.045   4.303  1.00  0.00     0.093 A 
ATOM      8  C   UNL     1     -12.122  11.457   4.533  1.00  0.00     0.123 A 
ATOM      9  C   UNL     1     -12.195  10.211   5.158  1.00  0.00     0.094 A 
ATOM     10  C   UNL     1     -11.028   9.537   5.530  1.00  0.00     0.146 A 
ATOM     11  O   UNL     1     -11.140   8.346   6.108  1.00  0.00    -0.456 OA
ENDROOT
BRANCH   1  12
ATOM     12  C   UNL     1     -10.340   6.299   7.129  1.00  0.00     0.021 A 
ATOM     13  C   UNL     1     -10.035   6.135   8.491  1.00  0.00     0.016 A 
ATOM     14  C   UNL     1     -10.248   4.908   9.125  1.00  0.00     0.051 A 
ATOM     15  C   UNL     1     -10.759   3.821   8.406  1.00  0.00     0.157 A 
ATOM     16  C   UNL     1     -10.840   5.198   6.408  1.00  0.00     0.062 A 
ATOM     17  C   UNL     1     -11.052   3.967   7.040  1.00  0.00     0.158 A 
BRANCH  15  18
ATOM     18  O   UNL     1     -10.971   2.598   9.041  1.00  0.00    -0.504 OA
ATOM     19  H   UNL     1     -10.200   1.998   9.309  1.00  0.00     0.293 HD
ENDBRANCH  15  18
BRANCH  17  20
ATOM     20  O   UNL     1     -11.551   2.900   6.293  1.00  0.00    -0.504 OA
ATOM     21  H   UNL     1     -12.503   2.884   5.945  1.00  0.00     0.293 HD
ENDBRANCH  17  20
ENDBRANCH   1  12
BRANCH   6  22
ATOM     22  O   UNL     1      -8.508  12.124   4.495  1.00  0.00    -0.507 OA
ATOM     23  H   UNL     1      -7.717  11.793   3.964  1.00  0.00     0.293 HD
ENDBRANCH   6  22
BRANCH   8  24
ATOM     24  O   UNL     1     -13.281  12.125   4.145  1.00  0.00    -0.508 OA
ATOM     25  H   UNL     1     -13.876  12.592   4.819  1.00  0.00     0.293 HD
ENDBRANCH   8  24
TORSDOF 5
ENDMDL
MODEL 5
REMARK VINA RESULT:    -5.815     18.307     20.653
REMARK INTER + INTRA:          -7.117
REMARK INTER:                  -6.821
REMARK INTRA:                  -0.296
REMARK UNBOUND:                -0.283
REMARK SMILES O=c1cc(-c2ccc(O)c(O)c2)oc2cc(O)cc(O)c12
REMARK SMILES IDX 4 1 3 2 2 3 1 4 21 5 19 6 18 7 16 8 15 9 14 10 13 11 5 12
REMARK SMILES IDX 6 13 7 14 8 15 12 16 10 17 9 18 11 20 20 22 17 24
REMARK H PARENT 9 19 11 21 20 23 17 25
REMARK Flexibility Score: inf
ROOT
ATOM      1  C   UNL     1     -11.922  -2.025  -9.540  1.00  0.00     0.138 A 
ATOM      2  C   UNL     1     -10.539  -2.202  -9.392  1.00  0.00     0.100 A 
ATOM      3  C   UNL     1     -10.015  -3.490  -9.280  1.00  0.00     0.197 A 
ATOM      4  O   UNL     1      -8.778  -3.614  -9.086  1.00  0.00    -0.289 OA
ATOM      5  C   UNL     1     -10.879  -4.609  -9.350  1.00  0.00     0.107 A 
ATOM      6  C   UNL     1     -10.454  -5.969  -9.289  1.00  0.00     0.134 A 
ATOM      7  C   UNL     1     -11.410  -6.991  -9.251  1.00  0.00     0.093 A 
ATOM      8  C   UNL     1     -12.773  -6.706  -9.332  1.00  0.00     0.123 A 
ATOM      9  C   UNL     1     -13.199  -5.382  -9.446  1.00  0.00     0.094 A 
ATOM     10  C   UNL     1     -12.270  -4.338  -9.453  1.00  0.00     0.146 A 
ATOM     11  O   UNL     1     -12.717  -3.090  -9.547  1.00  0.00    -0.456 OA
ENDROOT
BRANCH   1  12
ATOM     12  C   UNL     1     -12.531  -0.676  -9.664  1.00  0.00     0.021 A 
ATOM     13  C   UNL     1     -13.886  -0.561 -10.015  1.00  0.00     0.016 A 
ATOM     14  C   UNL     1     -14.482   0.696 -10.146  1.00  0.00     0.051 A 
ATOM     15  C   UNL     1     -13.731   1.860  -9.938  1.00  0.00     0.157 A 
ATOM     16  C   UNL     1     -11.777   0.497  -9.469  1.00  0.00     0.062 A 
ATOM     17  C   UNL     1     -12.371   1.758  -9.602  1.00  0.00     0.158 A 
BRANCH  15  18
ATOM     18  O   UNL     1     -14.328   3.112 -10.068  1.00  0.00    -0.504 OA
ATOM     19  H   UNL     1     -15.253   3.220 -10.467  1.00  0.00     0.293 HD
ENDBRANCH  15  18
BRANCH  17  20
ATOM     20  O   UNL     1     -11.593   2.897  -9.399  1.00  0.00    -0.504 OA
ATOM     21  H   UNL     1     -10.690   3.019  -9.843  1.00  0.00     0.293 HD
ENDBRANCH  17  20
ENDBRANCH   1  12
BRANCH   6  22
ATOM     22  O   UNL     1      -9.114  -6.369  -9.290  1.00  0.00    -0.507 OA
ATOM     23  H   UNL     1      -8.486  -6.281 -10.075  1.00  0.00     0.293 HD
ENDBRANCH   6  22
BRANCH   8  24
ATOM     24  O   UNL     1     -13.697  -7.748  -9.307  1.00  0.00    -0.508 OA
ATOM     25  H   UNL     1     -14.610  -7.659  -9.737  1.00  0.00     0.293 HD
ENDBRANCH   8  24
TORSDOF 5
ENDMDL
MODEL 6
REMARK VINA RESULT:    -5.769     17.366     19.332
REMARK INTER + INTRA:          -7.064
REMARK INTER:                  -6.748
REMARK INTRA:                  -0.316
REMARK UNBOUND:                -0.283
REMARK SMILES O=c1cc(-c2ccc(O)c(O)c2)oc2cc(O)cc(O)c12
REMARK SMILES IDX 4 1 3 2 2 3 1 4 21 5 19 6 18 7 16 8 15 9 14 10 13 11 5 12
REMARK SMILES IDX 6 13 7 14 8 15 12 16 10 17 9 18 11 20 20 22 17 24
REMARK H PARENT 9 19 11 21 20 23 17 25
REMARK Flexibility Score: inf
ROOT
ATOM      1  C   UNL     1     -12.021  -0.267  -9.430  1.00  0.00     0.138 A 
ATOM      2  C   UNL     1     -12.950  -1.083 -10.090  1.00  0.00     0.100 A 
ATOM      3  C   UNL     1     -12.706  -2.452 -10.208  1.00  0.00     0.197 A 
ATOM      4  O   UNL     1     -13.527  -3.148 -10.859  1.00  0.00    -0.289 OA
ATOM      5  C   UNL     1     -11.540  -3.010  -9.633  1.00  0.00     0.107 A 
ATOM      6  C   UNL     1     -11.207  -4.398  -9.655  1.00  0.00     0.134 A 
ATOM      7  C   UNL     1      -9.969  -4.819  -9.155  1.00  0.00     0.093 A 
ATOM      8  C   UNL     1      -9.078  -3.913  -8.580  1.00  0.00     0.123 A 
ATOM      9  C   UNL     1      -9.415  -2.561  -8.504  1.00  0.00     0.094 A 
ATOM     10  C   UNL     1     -10.629  -2.105  -9.025  1.00  0.00     0.146 A 
ATOM     11  O   UNL     1     -10.906  -0.808  -8.947  1.00  0.00    -0.456 OA
ENDROOT
BRANCH   1  12
ATOM     12  C   UNL     1     -12.231   1.195  -9.276  1.00  0.00     0.021 A 
ATOM     13  C   UNL     1     -13.497   1.742  -9.546  1.00  0.00     0.016 A 
ATOM     14  C   UNL     1     -13.720   3.116  -9.416  1.00  0.00     0.051 A 
ATOM     15  C   UNL     1     -12.679   3.967  -9.024  1.00  0.00     0.157 A 
ATOM     16  C   UNL     1     -11.185   2.057  -8.895  1.00  0.00     0.062 A 
ATOM     17  C   UNL     1     -11.405   3.434  -8.766  1.00  0.00     0.158 A 
BRANCH  15  18
ATOM     18  O   UNL     1     -12.904   5.336  -8.894  1.00  0.00    -0.504 OA
ATOM     19  H   UNL     1     -13.066   5.927  -9.701  1.00  0.00     0.293 HD
ENDBRANCH  15  18
BRANCH  17  20
ATOM     20  O   UNL     1     -10.345   4.256  -8.385  1.00  0.00    -0.504 OA
ATOM     21  H   UNL     1     -10.063   4.357  -7.417  1.00  0.00     0.293 HD
ENDBRANCH  17  20
ENDBRANCH   1  12
BRANCH   6  22
ATOM     22  O   UNL     1     -12.061  -5.398 -10.129  1.00  0.00    -0.507 OA
ATOM     23  H   UNL     1     -13.068  -5.367 -10.083  1.00  0.00     0.293 HD
ENDBRANCH   6  22
BRANCH   8  24
ATOM     24  O   UNL     1      -7.861  -4.370  -8.078  1.00  0.00    -0.508 OA
ATOM     25  H   UNL     1      -7.139  -3.728  -7.772  1.00  0.00     0.293 HD
ENDBRANCH   8  24
TORSDOF 5
ENDMDL
MODEL 7
REMARK VINA RESULT:    -5.477      1.946      2.676
REMARK INTER + INTRA:          -6.720
REMARK INTER:                  -6.455
REMARK INTRA:                  -0.265
REMARK UNBOUND:                -0.283
REMARK SMILES O=c1cc(-c2ccc(O)c(O)c2)oc2cc(O)cc(O)c12
REMARK SMILES IDX 4 1 3 2 2 3 1 4 21 5 19 6 18 7 16 8 15 9 14 10 13 11 5 12
REMARK SMILES IDX 6 13 7 14 8 15 12 16 10 17 9 18 11 20 20 22 17 24
REMARK H PARENT 9 19 11 21 20 23 17 25
REMARK Flexibility Score: inf
ROOT
ATOM      1  C   UNL     1     -11.300   7.696   6.447  1.00  0.00     0.138 A 
ATOM      2  C   UNL     1     -12.529   8.259   6.075  1.00  0.00     0.100 A 
ATOM      3  C   UNL     1     -12.557   9.515   5.468  1.00  0.00     0.197 A 
ATOM      4  O   UNL     1     -13.678  10.021   5.203  1.00  0.00    -0.289 OA
ATOM      5  C   UNL     1     -11.344  10.195   5.202  1.00  0.00     0.107 A 
ATOM      6  C   UNL     1     -11.249  11.461   4.551  1.00  0.00     0.134 A 
ATOM      7  C   UNL     1     -10.003  12.091   4.446  1.00  0.00     0.093 A 
ATOM      8  C   UNL     1      -8.842  11.476   4.915  1.00  0.00     0.123 A 
ATOM      9  C   UNL     1      -8.916  10.213   5.505  1.00  0.00     0.094 A 
ATOM     10  C   UNL     1     -10.150   9.574   5.655  1.00  0.00     0.146 A 
ATOM     11  O   UNL     1     -10.180   8.379   6.236  1.00  0.00    -0.456 OA
ENDROOT
BRANCH   1  12
ATOM     12  C   UNL     1     -11.213   6.363   7.096  1.00  0.00     0.021 A 
ATOM     13  C   UNL     1     -11.060   6.282   8.490  1.00  0.00     0.016 A 
ATOM     14  C   UNL     1     -10.968   5.040   9.125  1.00  0.00     0.051 A 
ATOM     15  C   UNL     1     -11.017   3.858   8.375  1.00  0.00     0.157 A 
ATOM     16  C   UNL     1     -11.249   5.171   6.346  1.00  0.00     0.062 A 
ATOM     17  C   UNL     1     -11.155   3.926   6.978  1.00  0.00     0.158 A 
BRANCH  15  18
ATOM     18  O   UNL     1     -10.927   2.621   9.010  1.00  0.00    -0.504 OA
ATOM     19  H   UNL     1     -10.165   1.980   8.819  1.00  0.00     0.293 HD
ENDBRANCH  15  18
BRANCH  17  20
ATOM     20  O   UNL     1     -11.196   2.768   6.203  1.00  0.00    -0.504 OA
ATOM     21  H   UNL     1     -11.735   1.955   6.477  1.00  0.00     0.293 HD
ENDBRANCH  17  20
ENDBRANCH   1  12
BRANCH   6  22
ATOM     22  O   UNL     1     -12.334  12.125   3.971  1.00  0.00    -0.507 OA
ATOM     23  H   UNL     1     -13.289  11.802   3.997  1.00  0.00     0.293 HD
ENDBRANCH   6  22
BRANCH   8  24
ATOM     24  O   UNL     1      -7.617  12.125   4.780  1.00  0.00    -0.508 OA
ATOM     25  H   UNL     1      -7.544  13.035   4.342  1.00  0.00     0.293 HD
ENDBRANCH   8  24
TORSDOF 5
ENDMDL
MODEL 8
REMARK VINA RESULT:    -5.382     18.641     21.048
REMARK INTER + INTRA:          -6.609
REMARK INTER:                  -6.317
REMARK INTRA:                  -0.292
REMARK UNBOUND:                -0.283
REMARK SMILES O=c1cc(-c2ccc(O)c(O)c2)oc2cc(O)cc(O)c12
REMARK SMILES IDX 4 1 3 2 2 3 1 4 21 5 19 6 18 7 16 8 15 9 14 10 13 11 5 12
REMARK SMILES IDX 6 13 7 14 8 15 12 16 10 17 9 18 11 20 20 22 17 24
REMARK H PARENT 9 19 11 21 20 23 17 25
REMARK Flexibility Score: inf
ROOT
ATOM      1  C   UNL     1     -12.830  -2.743  -9.751  1.00  0.00     0.138 A 
ATOM      2  C   UNL     1     -13.997  -3.364 -10.219  1.00  0.00     0.100 A 
ATOM      3  C   UNL     1     -14.085  -4.757 -10.219  1.00  0.00     0.197 A 
ATOM      4  O   UNL     1     -15.119  -5.286 -10.703  1.00  0.00    -0.289 OA
ATOM      5  C   UNL     1     -13.011  -5.530  -9.717  1.00  0.00     0.107 A 
ATOM      6  C   UNL     1     -13.006  -6.954  -9.630  1.00  0.00     0.134 A 
ATOM      7  C   UNL     1     -11.842  -7.616  -9.224  1.00  0.00     0.093 A 
ATOM      8  C   UNL     1     -10.703  -6.906  -8.845  1.00  0.00     0.123 A 
ATOM      9  C   UNL     1     -10.714  -5.511  -8.874  1.00  0.00     0.094 A 
ATOM     10  C   UNL     1     -11.850  -4.821  -9.307  1.00  0.00     0.146 A 
ATOM     11  O   UNL     1     -11.815  -3.494  -9.336  1.00  0.00    -0.456 OA
ENDROOT
BRANCH   1  12
ATOM     12  C   UNL     1     -12.684  -1.265  -9.727  1.00  0.00     0.021 A 
ATOM     13  C   UNL     1     -11.399  -0.699  -9.704  1.00  0.00     0.016 A 
ATOM     14  C   UNL     1     -11.233   0.688  -9.674  1.00  0.00     0.051 A 
ATOM     15  C   UNL     1     -12.350   1.533  -9.656  1.00  0.00     0.157 A 
ATOM     16  C   UNL     1     -13.803  -0.411  -9.695  1.00  0.00     0.062 A 
ATOM     17  C   UNL     1     -13.641   0.979  -9.663  1.00  0.00     0.158 A 
BRANCH  15  18
ATOM     18  O   UNL     1     -12.182   2.916  -9.628  1.00  0.00    -0.504 OA
ATOM     19  H   UNL     1     -11.782   3.418 -10.412  1.00  0.00     0.293 HD
ENDBRANCH  15  18
BRANCH  17  20
ATOM     20  O   UNL     1     -14.773   1.792  -9.635  1.00  0.00    -0.504 OA
ATOM     21  H   UNL     1     -15.442   1.758  -8.874  1.00  0.00     0.293 HD
ENDBRANCH  17  20
ENDBRANCH   1  12
BRANCH   6  22
ATOM     22  O   UNL     1     -14.117  -7.757  -9.904  1.00  0.00    -0.507 OA
ATOM     23  H   UNL     1     -14.096  -8.761  -9.996  1.00  0.00     0.293 HD
ENDBRANCH   6  22
BRANCH   8  24
ATOM     24  O   UNL     1      -9.567  -7.598  -8.431  1.00  0.00    -0.508 OA
ATOM     25  H   UNL     1      -9.536  -8.086  -7.544  1.00  0.00     0.293 HD
ENDBRANCH   8  24
TORSDOF 5
ENDMDL
MODEL 9
REMARK VINA RESULT:    -4.730      2.351      7.148
REMARK INTER + INTRA:          -5.842
REMARK INTER:                  -5.571
REMARK INTRA:                  -0.271
REMARK UNBOUND:                -0.283
REMARK SMILES O=c1cc(-c2ccc(O)c(O)c2)oc2cc(O)cc(O)c12
REMARK SMILES IDX 4 1 3 2 2 3 1 4 21 5 19 6 18 7 16 8 15 9 14 10 13 11 5 12
REMARK SMILES IDX 6 13 7 14 8 15 12 16 10 17 9 18 11 20 20 22 17 24
REMARK H PARENT 9 19 11 21 20 23 17 25
REMARK Flexibility Score: inf
ROOT
ATOM      1  C   UNL     1      -9.258   8.481   5.957  1.00  0.00     0.138 A 
ATOM      2  C   UNL     1      -9.062   7.096   6.037  1.00  0.00     0.100 A 
ATOM      3  C   UNL     1     -10.134   6.233   5.805  1.00  0.00     0.197 A 
ATOM      4  O   UNL     1      -9.942   4.997   5.946  1.00  0.00    -0.289 OA
ATOM      5  C   UNL     1     -11.400   6.761   5.459  1.00  0.00     0.107 A 
ATOM      6  C   UNL     1     -12.554   5.976   5.160  1.00  0.00     0.134 A 
ATOM      7  C   UNL     1     -13.783   6.610   4.944  1.00  0.00     0.093 A 
ATOM      8  C   UNL     1     -13.889   8.001   4.957  1.00  0.00     0.123 A 
ATOM      9  C   UNL     1     -12.756   8.780   5.194  1.00  0.00     0.094 A 
ATOM     10  C   UNL     1     -11.521   8.176   5.447  1.00  0.00     0.146 A 
ATOM     11  O   UNL     1     -10.470   8.953   5.684  1.00  0.00    -0.456 OA
ENDROOT
BRANCH   1  12
ATOM     12  C   UNL     1      -8.152   9.444   6.193  1.00  0.00     0.021 A 
ATOM     13  C   UNL     1      -7.082   9.503   5.285  1.00  0.00     0.016 A 
ATOM     14  C   UNL     1      -6.025  10.395   5.488  1.00  0.00     0.051 A 
ATOM     15  C   UNL     1      -6.015  11.235   6.609  1.00  0.00     0.157 A 
ATOM     16  C   UNL     1      -8.130  10.282   7.325  1.00  0.00     0.062 A 
ATOM     17  C   UNL     1      -7.072  11.175   7.532  1.00  0.00     0.158 A 
BRANCH  15  18
ATOM     18  O   UNL     1      -4.961  12.125   6.808  1.00  0.00    -0.504 OA
ATOM     19  H   UNL     1      -4.896  12.995   6.293  1.00  0.00     0.293 HD
ENDBRANCH  15  18
BRANCH  17  20
ATOM     20  O   UNL     1      -7.086  11.990   8.664  1.00  0.00    -0.504 OA
ATOM     21  H   UNL     1      -7.018  11.612   9.601  1.00  0.00     0.293 HD
ENDBRANCH  17  20
ENDBRANCH   1  12
BRANCH   6  22
ATOM     22  O   UNL     1     -12.541   4.583   5.040  1.00  0.00    -0.507 OA
ATOM     23  H   UNL     1     -13.337   3.983   5.192  1.00  0.00     0.293 HD
ENDBRANCH   6  22
BRANCH   8  24
ATOM     24  O   UNL     1     -15.125   8.599   4.722  1.00  0.00    -0.508 OA
ATOM     25  H   UNL     1     -15.787   8.209   4.062  1.00  0.00     0.293 HD
ENDBRANCH   8  24
TORSDOF 5
ENDMDL
