MODEL 1
REMARK VINA RESULT:    -2.943      0.000      0.000
REMARK INTER + INTRA:          -4.294
REMARK INTER:                  -3.975
REMARK INTRA:                  -0.319
REMARK UNBOUND:                -0.319
REMARK SMILES CCCCCCCC(=O)[O-]
REMARK SMILES IDX 5 1 6 2 7 3 8 4 9 5 10 6 4 7 3 8 2 9 1 10
REMARK H PARENT
REMARK Flexibility Score: inf
ROOT
ATOM      1  C   UNL     1      -9.810 -20.100  -3.696  1.00  0.00     0.000 C 
ENDROOT
BRANCH   1   2
ATOM      2  C   UNL     1      -9.389 -19.423  -2.383  1.00  0.00     0.006 C 
BRANCH   2   3
ATOM      3  C   UNL     1      -9.742 -17.930  -2.360  1.00  0.00     0.053 C 
BRANCH   3   4
ATOM      4  C   UNL     1      -8.699 -17.121  -1.653  1.00  0.00     0.041 C 
ATOM      5  O   UNL     1      -8.327 -17.442  -0.492  1.00  0.00    -0.550 OA
ATOM      6  O   UNL     1      -8.160 -15.995  -2.261  1.00  0.00    -0.550 OA
ENDBRANCH   3   4
ENDBRANCH   2   3
ENDBRANCH   1   2
BRANCH   1   7
ATOM      7  C   UNL     1      -9.910 -21.620  -3.523  1.00  0.00     0.000 C 
BRANCH   7   8
ATOM      8  C   UNL     1     -10.683 -21.980  -2.249  1.00  0.00    -0.000 C 
BRANCH   8   9
ATOM      9  C   UNL     1      -9.999 -23.125  -1.495  1.00  0.00    -0.003 C 
ATOM     10  C   UNL     1      -9.008 -22.592  -0.464  1.00  0.00     0.004 C 
ENDBRANCH   8   9
ENDBRANCH   7   8
ENDBRANCH   1   7
TORSDOF 6
ENDMDL
MODEL 2
REMARK VINA RESULT:    -2.941     13.900     15.176
REMARK INTER + INTRA:          -4.292
REMARK INTER:                  -3.828
REMARK INTRA:                  -0.464
REMARK UNBOUND:                -0.319
REMARK SMILES CCCCCCCC(=O)[O-]
REMARK SMILES IDX 5 1 6 2 7 3 8 4 9 5 10 6 4 7 3 8 2 9 1 10
REMARK H PARENT
REMARK Flexibility Score: inf
ROOT
ATOM      1  C   UNL     1      -9.217 -19.093  13.237  1.00  0.00     0.000 C 
ENDROOT
BRANCH   1   2
ATOM      2  C   UNL     1      -8.622 -17.681  13.347  1.00  0.00     0.006 C 
BRANCH   2   3
ATOM      3  C   UNL     1      -9.301 -16.849  14.443  1.00  0.00     0.053 C 
BRANCH   3   4
ATOM      4  C   UNL     1     -10.783 -16.768  14.243  1.00  0.00     0.041 C 
ATOM      5  O   UNL     1     -11.253 -16.367  13.145  1.00  0.00    -0.550 OA
ATOM      6  O   UNL     1     -11.645 -17.103  15.279  1.00  0.00    -0.550 OA
ENDBRANCH   3   4
ENDBRANCH   2   3
ENDBRANCH   1   2
BRANCH   1   7
ATOM      7  C   UNL     1      -9.061 -19.645  11.815  1.00  0.00     0.000 C 
BRANCH   7   8
ATOM      8  C   UNL     1     -10.065 -18.992  10.858  1.00  0.00    -0.000 C 
BRANCH   8   9
ATOM      9  C   UNL     1      -9.348 -18.338   9.672  1.00  0.00    -0.003 C 
ATOM     10  C   UNL     1      -9.464 -16.818   9.728  1.00  0.00     0.004 C 
ENDBRANCH   8   9
ENDBRANCH   7   8
ENDBRANCH   1   7
TORSDOF 6
ENDMDL
MODEL 3
REMARK VINA RESULT:    -2.768     23.050     23.597
REMARK INTER + INTRA:          -4.058
REMARK INTER:                  -3.645
REMARK INTRA:                  -0.413
REMARK UNBOUND:                -0.319
REMARK SMILES CCCCCCCC(=O)[O-]
REMARK SMILES IDX 5 1 6 2 7 3 8 4 9 5 10 6 4 7 3 8 2 9 1 10
REMARK H PARENT
REMARK Flexibility Score: inf
ROOT
ATOM      1  C   UNL     1     -27.036 -18.765  12.795  1.00  0.00     0.000 C 
ENDROOT
BRANCH   1   2
ATOM      2  C   UNL     1     -28.118 -18.195  11.866  1.00  0.00     0.006 C 
BRANCH   2   3
ATOM      3  C   UNL     1     -28.125 -16.661  11.855  1.00  0.00     0.053 C 
BRANCH   3   4
ATOM      4  C   UNL     1     -26.965 -16.104  11.089  1.00  0.00     0.041 C 
ATOM      5  O   UNL     1     -25.939 -15.701  11.698  1.00  0.00    -0.550 OA
ATOM      6  O   UNL     1     -27.031 -15.999   9.705  1.00  0.00    -0.550 OA
ENDBRANCH   3   4
ENDBRANCH   2   3
ENDBRANCH   1   2
BRANCH   1   7
ATOM      7  C   UNL     1     -27.642 -19.740  13.811  1.00  0.00     0.000 C 
BRANCH   7   8
ATOM      8  C   UNL     1     -27.547 -19.181  15.236  1.00  0.00    -0.000 C 
BRANCH   8   9
ATOM      9  C   UNL     1     -26.644 -17.944  15.281  1.00  0.00    -0.003 C 
ATOM     10  C   UNL     1     -27.313 -16.801  16.039  1.00  0.00     0.004 C 
ENDBRANCH   8   9
ENDBRANCH   7   8
ENDBRANCH   1   7
TORSDOF 6
ENDMDL
MODEL 4
REMARK VINA RESULT:    -2.730      2.838      4.731
REMARK INTER + INTRA:          -4.007
REMARK INTER:                  -3.613
REMARK INTRA:                  -0.394
REMARK UNBOUND:                -0.319
REMARK SMILES CCCCCCCC(=O)[O-]
REMARK SMILES IDX 5 1 6 2 7 3 8 4 9 5 10 6 4 7 3 8 2 9 1 10
REMARK H PARENT
REMARK Flexibility Score: inf
ROOT
ATOM      1  C   UNL     1      -9.378 -18.670  -3.839  1.00  0.00     0.000 C 
ENDROOT
BRANCH   1   2
ATOM      2  C   UNL     1      -9.743 -20.160  -3.771  1.00  0.00     0.006 C 
BRANCH   2   3
ATOM      3  C   UNL     1      -8.967 -20.898  -2.671  1.00  0.00     0.053 C 
BRANCH   3   4
ATOM      4  C   UNL     1      -9.858 -21.795  -1.868  1.00  0.00     0.041 C 
ATOM      5  O   UNL     1     -11.034 -22.031  -2.254  1.00  0.00    -0.550 OA
ATOM      6  O   UNL     1      -9.401 -22.344  -0.676  1.00  0.00    -0.550 OA
ENDBRANCH   3   4
ENDBRANCH   2   3
ENDBRANCH   1   2
BRANCH   1   7
ATOM      7  C   UNL     1      -9.611 -17.985  -2.487  1.00  0.00     0.000 C 
BRANCH   7   8
ATOM      8  C   UNL     1      -8.690 -16.771  -2.319  1.00  0.00    -0.000 C 
BRANCH   8   9
ATOM      9  C   UNL     1      -8.003 -16.788  -0.949  1.00  0.00    -0.003 C 
ATOM     10  C   UNL     1      -7.903 -18.207  -0.399  1.00  0.00     0.004 C 
ENDBRANCH   8   9
ENDBRANCH   7   8
ENDBRANCH   1   7
TORSDOF 6
ENDMDL
MODEL 5
REMARK VINA RESULT:    -2.728      2.939      5.604
REMARK INTER + INTRA:          -4.004
REMARK INTER:                  -3.768
REMARK INTRA:                  -0.236
REMARK UNBOUND:                -0.319
REMARK SMILES CCCCCCCC(=O)[O-]
REMARK SMILES IDX 5 1 6 2 7 3 8 4 9 5 10 6 4 7 3 8 2 9 1 10
REMARK H PARENT
REMARK Flexibility Score: inf
ROOT
ATOM      1  C   UNL     1      -9.823 -18.084  -1.512  1.00  0.00     0.000 C 
ENDROOT
BRANCH   1   2
ATOM      2  C   UNL     1      -9.762 -19.290  -2.461  1.00  0.00     0.006 C 
BRANCH   2   3
ATOM      3  C   UNL     1      -9.560 -20.612  -1.707  1.00  0.00     0.053 C 
BRANCH   3   4
ATOM      4  C   UNL     1     -10.156 -21.770  -2.445  1.00  0.00     0.041 C 
ATOM      5  O   UNL     1     -10.380 -21.686  -3.682  1.00  0.00    -0.550 OA
ATOM      6  O   UNL     1     -10.496 -22.931  -1.762  1.00  0.00    -0.550 OA
ENDBRANCH   3   4
ENDBRANCH   2   3
ENDBRANCH   1   2
BRANCH   1   7
ATOM      7  C   UNL     1      -8.488 -17.890  -0.783  1.00  0.00     0.000 C 
BRANCH   7   8
ATOM      8  C   UNL     1      -7.925 -16.485  -1.030  1.00  0.00    -0.000 C 
BRANCH   8   9
ATOM      9  C   UNL     1      -8.026 -16.105  -2.511  1.00  0.00    -0.003 C 
ATOM     10  C   UNL     1      -8.068 -14.590  -2.689  1.00  0.00     0.004 C 
ENDBRANCH   8   9
ENDBRANCH   7   8
ENDBRANCH   1   7
TORSDOF 6
ENDMDL
MODEL 6
REMARK VINA RESULT:    -2.686     23.769     24.502
REMARK INTER + INTRA:          -3.947
REMARK INTER:                  -3.692
REMARK INTRA:                  -0.255
REMARK UNBOUND:                -0.319
REMARK SMILES CCCCCCCC(=O)[O-]
REMARK SMILES IDX 5 1 6 2 7 3 8 4 9 5 10 6 4 7 3 8 2 9 1 10
REMARK H PARENT
REMARK Flexibility Score: inf
ROOT
ATOM      1  C   UNL     1     -26.416 -17.297  14.283  1.00  0.00     0.000 C 
ENDROOT
BRANCH   1   2
ATOM      2  C   UNL     1     -27.800 -17.477  14.924  1.00  0.00     0.006 C 
BRANCH   2   3
ATOM      3  C   UNL     1     -27.814 -18.599  15.971  1.00  0.00     0.053 C 
BRANCH   3   4
ATOM      4  C   UNL     1     -27.842 -19.955  15.335  1.00  0.00     0.041 C 
ATOM      5  O   UNL     1     -27.580 -20.980  16.018  1.00  0.00    -0.550 OA
ATOM      6  O   UNL     1     -28.125 -20.083  13.981  1.00  0.00    -0.550 OA
ENDBRANCH   3   4
ENDBRANCH   2   3
ENDBRANCH   1   2
BRANCH   1   7
ATOM      7  C   UNL     1     -26.530 -17.153  12.761  1.00  0.00     0.000 C 
BRANCH   7   8
ATOM      8  C   UNL     1     -27.997 -17.141  12.317  1.00  0.00    -0.000 C 
BRANCH   8   9
ATOM      9  C   UNL     1     -28.109 -17.075  10.790  1.00  0.00    -0.003 C 
ATOM     10  C   UNL     1     -27.055 -16.143  10.200  1.00  0.00     0.004 C 
ENDBRANCH   8   9
ENDBRANCH   7   8
ENDBRANCH   1   7
TORSDOF 6
ENDMDL
MODEL 7
REMARK VINA RESULT:    -2.607     13.740     15.073
REMARK INTER + INTRA:          -3.841
REMARK INTER:                  -3.368
REMARK INTRA:                  -0.473
REMARK UNBOUND:                -0.319
REMARK SMILES CCCCCCCC(=O)[O-]
REMARK SMILES IDX 5 1 6 2 7 3 8 4 9 5 10 6 4 7 3 8 2 9 1 10
REMARK H PARENT
REMARK Flexibility Score: inf
ROOT
ATOM      1  C   UNL     1      -8.424 -18.697  13.396  1.00  0.00     0.000 C 
ENDROOT
BRANCH   1   2
ATOM      2  C   UNL     1      -8.824 -19.132  11.979  1.00  0.00     0.006 C 
BRANCH   2   3
ATOM      3  C   UNL     1      -9.851 -18.182  11.348  1.00  0.00     0.053 C 
BRANCH   3   4
ATOM      4  C   UNL     1      -9.499 -17.841   9.933  1.00  0.00     0.041 C 
ATOM      5  O   UNL     1      -9.611 -16.655   9.521  1.00  0.00    -0.550 OA
ATOM      6  O   UNL     1      -9.078 -18.836   9.061  1.00  0.00    -0.550 OA
ENDBRANCH   3   4
ENDBRANCH   2   3
ENDBRANCH   1   2
BRANCH   1   7
ATOM      7  C   UNL     1      -8.066 -17.206  13.434  1.00  0.00     0.000 C 
BRANCH   7   8
ATOM      8  C   UNL     1      -8.705 -16.517  14.645  1.00  0.00    -0.000 C 
BRANCH   8   9
ATOM      9  C   UNL     1      -9.955 -17.271  15.111  1.00  0.00    -0.003 C 
ATOM     10  C   UNL     1     -11.225 -16.622  14.569  1.00  0.00     0.004 C 
ENDBRANCH   8   9
ENDBRANCH   7   8
ENDBRANCH   1   7
TORSDOF 6
ENDMDL
MODEL 8
REMARK VINA RESULT:    -2.552      1.375      2.442
REMARK INTER + INTRA:          -3.766
REMARK INTER:                  -3.573
REMARK INTRA:                  -0.193
REMARK UNBOUND:                -0.319
REMARK SMILES CCCCCCCC(=O)[O-]
REMARK SMILES IDX 5 1 6 2 7 3 8 4 9 5 10 6 4 7 3 8 2 9 1 10
REMARK H PARENT
REMARK Flexibility Score: inf
ROOT
ATOM      1  C   UNL     1      -9.887 -18.410  -1.885  1.00  0.00     0.000 C 
ENDROOT
BRANCH   1   2
ATOM      2  C   UNL     1      -8.574 -17.656  -1.630  1.00  0.00     0.006 C 
BRANCH   2   3
ATOM      3  C   UNL     1      -8.093 -16.891  -2.871  1.00  0.00     0.053 C 
BRANCH   3   4
ATOM      4  C   UNL     1      -8.029 -15.415  -2.626  1.00  0.00     0.041 C 
ATOM      5  O   UNL     1      -7.966 -14.614  -3.596  1.00  0.00    -0.550 OA
ATOM      6  O   UNL     1      -8.004 -14.926  -1.326  1.00  0.00    -0.550 OA
ENDBRANCH   3   4
ENDBRANCH   2   3
ENDBRANCH   1   2
BRANCH   1   7
ATOM      7  C   UNL     1      -9.639 -19.686  -2.699  1.00  0.00     0.000 C 
BRANCH   7   8
ATOM      8  C   UNL     1      -9.405 -20.890  -1.779  1.00  0.00    -0.000 C 
BRANCH   8   9
ATOM      9  C   UNL     1     -10.433 -21.994  -2.048  1.00  0.00    -0.003 C 
ATOM     10  C   UNL     1     -10.486 -22.349  -3.531  1.00  0.00     0.004 C 
ENDBRANCH   8   9
ENDBRANCH   7   8
ENDBRANCH   1   7
TORSDOF 6
ENDMDL
