MODEL 1
REMARK VINA RESULT:    46.780      0.000      0.000
REMARK INTER + INTRA:          56.019
REMARK INTER:                  56.352
REMARK INTRA:                  -0.333
REMARK UNBOUND:                -0.333
REMARK SMILES Oc1cc(O)c2c(c1)O[C@@H](c1ccc(O)c(O)c1)[C@H](O)C2
REMARK SMILES IDX 21 1 19 2 10 3 9 4 7 5 8 6 2 7 3 8 4 9 6 10 20 11 11 13
REMARK SMILES IDX 18 14 12 15 16 16 13 17 14 18 17 19 15 21 5 23 1 25
REMARK H PARENT 20 12 17 20 15 22 5 24 1 26
REMARK Flexibility Score: inf
ROOT
ATOM      1  C   UNL     1      18.952  21.590  12.852  1.00  0.00     0.079 C 
ATOM      2  C   UNL     1      19.081  21.748  11.325  1.00  0.00     0.164 C 
ATOM      3  C   UNL     1      17.797  21.250  10.638  1.00  0.00     0.232 C 
ATOM      4  O   UNL     1      16.669  21.957  11.151  1.00  0.00    -0.482 OA
ATOM      5  C   UNL     1      16.551  22.297  12.502  1.00  0.00     0.131 A 
ATOM      6  C   UNL     1      15.341  22.819  12.968  1.00  0.00     0.093 A 
ATOM      7  C   UNL     1      15.189  23.152  14.315  1.00  0.00     0.122 A 
ATOM      8  C   UNL     1      16.250  22.955  15.204  1.00  0.00     0.092 A 
ATOM      9  C   UNL     1      17.469  22.433  14.757  1.00  0.00     0.126 A 
ATOM     10  C   UNL     1      17.642  22.134  13.383  1.00  0.00     0.039 A 
ENDROOT
BRANCH   2  11
ATOM     11  O   UNL     1      20.183  21.010  10.863  1.00  0.00    -0.389 OA
ATOM     12  H   UNL     1      20.634  21.569  10.178  1.00  0.00     0.211 HD
ENDBRANCH   2  11
BRANCH   3  13
ATOM     13  C   UNL     1      17.873  21.433   9.140  1.00  0.00    -0.001 A 
ATOM     14  C   UNL     1      17.780  22.716   8.572  1.00  0.00     0.057 A 
ATOM     15  C   UNL     1      18.087  20.326   8.302  1.00  0.00     0.012 A 
ATOM     16  C   UNL     1      17.878  22.888   7.183  1.00  0.00     0.157 A 
ATOM     17  C   UNL     1      18.184  20.497   6.919  1.00  0.00     0.050 A 
ATOM     18  C   UNL     1      18.079  21.772   6.354  1.00  0.00     0.157 A 
BRANCH  16  19
ATOM     19  O   UNL     1      17.779  24.163   6.628  1.00  0.00    -0.504 OA
ATOM     20  H   UNL     1      17.439  24.951   7.166  1.00  0.00     0.293 HD
ENDBRANCH  16  19
BRANCH  18  21
ATOM     21  O   UNL     1      18.179  21.910   4.970  1.00  0.00    -0.504 OA
ATOM     22  H   UNL     1      18.478  21.148   4.374  1.00  0.00     0.293 HD
ENDBRANCH  18  21
ENDBRANCH   3  13
BRANCH   9  23
ATOM     23  O   UNL     1      18.476  22.214  15.699  1.00  0.00    -0.507 OA
ATOM     24  H   UNL     1      18.325  21.719  16.569  1.00  0.00     0.293 HD
ENDBRANCH   9  23
BRANCH   7  25
ATOM     25  O   UNL     1      13.976  23.673  14.760  1.00  0.00    -0.508 OA
ATOM     26  H   UNL     1      13.162  23.084  14.892  1.00  0.00     0.293 HD
ENDBRANCH   7  25
TORSDOF 6
ENDMDL
MODEL 2
REMARK VINA RESULT:    47.993      3.347      7.122
REMARK INTER + INTRA:          57.480
REMARK INTER:                  57.804
REMARK INTRA:                  -0.323
REMARK UNBOUND:                -0.333
REMARK SMILES Oc1cc(O)c2c(c1)O[C@@H](c1ccc(O)c(O)c1)[C@H](O)C2
REMARK SMILES IDX 21 1 19 2 10 3 9 4 7 5 8 6 2 7 3 8 4 9 6 10 20 11 11 13
REMARK SMILES IDX 18 14 12 15 16 16 13 17 14 18 17 19 15 21 5 23 1 25
REMARK H PARENT 20 12 17 20 15 22 5 24 1 26
REMARK Flexibility Score: inf
ROOT
ATOM      1  C   UNL     1      19.960  22.023  11.325  1.00  0.00     0.079 C 
ATOM      2  C   UNL     1      20.899  21.873  12.538  1.00  0.00     0.164 C 
ATOM      3  C   UNL     1      20.490  22.865  13.641  1.00  0.00     0.232 C 
ATOM      4  O   UNL     1      19.124  22.655  13.998  1.00  0.00    -0.482 OA
ATOM      5  C   UNL     1      18.142  22.350  13.051  1.00  0.00     0.131 A 
ATOM      6  C   UNL     1      16.800  22.345  13.441  1.00  0.00     0.093 A 
ATOM      7  C   UNL     1      15.797  22.060  12.514  1.00  0.00     0.122 A 
ATOM      8  C   UNL     1      16.137  21.788  11.184  1.00  0.00     0.092 A 
ATOM      9  C   UNL     1      17.474  21.790  10.774  1.00  0.00     0.126 A 
ATOM     10  C   UNL     1      18.498  22.035  11.721  1.00  0.00     0.039 A 
ENDROOT
BRANCH   2  11
ATOM     11  O   UNL     1      22.224  22.119  12.146  1.00  0.00    -0.389 OA
ATOM     12  H   UNL     1      22.368  21.622  11.299  1.00  0.00     0.211 HD
ENDBRANCH   2  11
BRANCH   3  13
ATOM     13  C   UNL     1      21.364  22.712  14.864  1.00  0.00    -0.001 A 
ATOM     14  C   UNL     1      21.612  21.440  15.411  1.00  0.00     0.057 A 
ATOM     15  C   UNL     1      21.978  23.836  15.440  1.00  0.00     0.012 A 
ATOM     16  C   UNL     1      22.444  21.296  16.530  1.00  0.00     0.157 A 
ATOM     17  C   UNL     1      22.808  23.693  16.555  1.00  0.00     0.050 A 
ATOM     18  C   UNL     1      23.044  22.430  17.104  1.00  0.00     0.157 A 
BRANCH  16  19
ATOM     19  O   UNL     1      22.680  20.032  17.069  1.00  0.00    -0.504 OA
ATOM     20  H   UNL     1      22.277  19.197  16.660  1.00  0.00     0.293 HD
ENDBRANCH  16  19
BRANCH  18  21
ATOM     21  O   UNL     1      23.875  22.319  18.218  1.00  0.00    -0.504 OA
ATOM     22  H   UNL     1      24.497  21.530  18.349  1.00  0.00     0.293 HD
ENDBRANCH  18  21
ENDBRANCH   3  13
BRANCH   9  23
ATOM     23  O   UNL     1      17.748  21.557   9.425  1.00  0.00    -0.507 OA
ATOM     24  H   UNL     1      18.524  21.982   8.933  1.00  0.00     0.293 HD
ENDBRANCH   9  23
BRANCH   7  25
ATOM     25  O   UNL     1      14.465  22.057  12.922  1.00  0.00    -0.508 OA
ATOM     26  H   UNL     1      14.186  22.425  13.824  1.00  0.00     0.293 HD
ENDBRANCH   7  25
TORSDOF 6
ENDMDL
MODEL 3
REMARK VINA RESULT:    48.302      2.309      6.733
REMARK INTER + INTRA:          57.852
REMARK INTER:                  57.904
REMARK INTRA:                  -0.053
REMARK UNBOUND:                -0.333
REMARK SMILES Oc1cc(O)c2c(c1)O[C@@H](c1ccc(O)c(O)c1)[C@H](O)C2
REMARK SMILES IDX 21 1 19 2 10 3 9 4 7 5 8 6 2 7 3 8 4 9 6 10 20 11 11 13
REMARK SMILES IDX 18 14 12 15 16 16 13 17 14 18 17 19 15 21 5 23 1 25
REMARK H PARENT 20 12 17 20 15 22 5 24 1 26
REMARK Flexibility Score: inf
ROOT
ATOM      1  C   UNL     1      19.136  20.991   9.159  1.00  0.00     0.079 C 
ATOM      2  C   UNL     1      18.093  21.719  10.029  1.00  0.00     0.164 C 
ATOM      3  C   UNL     1      18.067  21.103  11.439  1.00  0.00     0.232 C 
ATOM      4  O   UNL     1      19.372  21.159  12.015  1.00  0.00    -0.482 OA
ATOM      5  C   UNL     1      20.530  20.931  11.266  1.00  0.00     0.131 A 
ATOM      6  C   UNL     1      21.755  20.814  11.929  1.00  0.00     0.093 A 
ATOM      7  C   UNL     1      22.926  20.571  11.209  1.00  0.00     0.122 A 
ATOM      8  C   UNL     1      22.870  20.433   9.818  1.00  0.00     0.092 A 
ATOM      9  C   UNL     1      21.653  20.546   9.137  1.00  0.00     0.126 A 
ATOM     10  C   UNL     1      20.470  20.837   9.859  1.00  0.00     0.039 A 
ENDROOT
BRANCH   2  11
ATOM     11  O   UNL     1      16.823  21.610   9.440  1.00  0.00    -0.389 OA
ATOM     12  H   UNL     1      16.194  22.106  10.026  1.00  0.00     0.211 HD
ENDBRANCH   2  11
BRANCH   3  13
ATOM     13  C   UNL     1      17.086  21.826  12.333  1.00  0.00    -0.001 A 
ATOM     14  C   UNL     1      15.707  21.568  12.235  1.00  0.00     0.057 A 
ATOM     15  C   UNL     1      17.547  22.728  13.305  1.00  0.00     0.012 A 
ATOM     16  C   UNL     1      14.800  22.220  13.083  1.00  0.00     0.157 A 
ATOM     17  C   UNL     1      16.643  23.377  14.150  1.00  0.00     0.050 A 
ATOM     18  C   UNL     1      15.271  23.129  14.044  1.00  0.00     0.157 A 
BRANCH  16  19
ATOM     19  O   UNL     1      13.433  21.963  12.975  1.00  0.00    -0.504 OA
ATOM     20  H   UNL     1      12.778  22.273  13.683  1.00  0.00     0.293 HD
ENDBRANCH  16  19
BRANCH  18  21
ATOM     21  O   UNL     1      14.394  23.793  14.901  1.00  0.00    -0.504 OA
ATOM     22  H   UNL     1      14.712  24.250  15.747  1.00  0.00     0.293 HD
ENDBRANCH  18  21
ENDBRANCH   3  13
BRANCH   9  23
ATOM     23  O   UNL     1      21.654  20.353   7.754  1.00  0.00    -0.507 OA
ATOM     24  H   UNL     1      20.914  19.871   7.259  1.00  0.00     0.293 HD
ENDBRANCH   9  23
BRANCH   7  25
ATOM     25  O   UNL     1      24.138  20.460  11.886  1.00  0.00    -0.508 OA
ATOM     26  H   UNL     1      24.985  20.889  11.531  1.00  0.00     0.293 HD
ENDBRANCH   7  25
TORSDOF 6
ENDMDL
MODEL 4
REMARK VINA RESULT:    48.488      1.598      7.034
REMARK INTER + INTRA:          58.075
REMARK INTER:                  58.349
REMARK INTRA:                  -0.273
REMARK UNBOUND:                -0.333
REMARK SMILES Oc1cc(O)c2c(c1)O[C@@H](c1ccc(O)c(O)c1)[C@H](O)C2
REMARK SMILES IDX 21 1 19 2 10 3 9 4 7 5 8 6 2 7 3 8 4 9 6 10 20 11 11 13
REMARK SMILES IDX 18 14 12 15 16 16 13 17 14 18 17 19 15 21 5 23 1 25
REMARK H PARENT 20 12 17 20 15 22 5 24 1 26
REMARK Flexibility Score: inf
ROOT
ATOM      1  C   UNL     1      18.429  20.787   7.401  1.00  0.00     0.079 C 
ATOM      2  C   UNL     1      17.957  20.822   8.868  1.00  0.00     0.164 C 
ATOM      3  C   UNL     1      18.393  22.143   9.525  1.00  0.00     0.232 C 
ATOM      4  O   UNL     1      17.885  23.247   8.778  1.00  0.00    -0.482 OA
ATOM      5  C   UNL     1      17.835  23.244   7.381  1.00  0.00     0.131 A 
ATOM      6  C   UNL     1      17.504  24.424   6.710  1.00  0.00     0.093 A 
ATOM      7  C   UNL     1      17.462  24.456   5.316  1.00  0.00     0.122 A 
ATOM      8  C   UNL     1      17.761  23.301   4.585  1.00  0.00     0.092 A 
ATOM      9  C   UNL     1      18.095  22.109   5.238  1.00  0.00     0.126 A 
ATOM     10  C   UNL     1      18.097  22.062   6.654  1.00  0.00     0.039 A 
ENDROOT
BRANCH   2  11
ATOM     11  O   UNL     1      18.506  19.737   9.569  1.00  0.00    -0.389 OA
ATOM     12  H   UNL     1      19.442  19.984   9.788  1.00  0.00     0.211 HD
ENDBRANCH   2  11
BRANCH   3  13
ATOM     13  C   UNL     1      17.906  22.229  10.953  1.00  0.00    -0.001 A 
ATOM     14  C   UNL     1      16.607  21.807  11.291  1.00  0.00     0.057 A 
ATOM     15  C   UNL     1      18.763  22.685  11.967  1.00  0.00     0.012 A 
ATOM     16  C   UNL     1      16.164  21.862  12.620  1.00  0.00     0.157 A 
ATOM     17  C   UNL     1      18.322  22.740  13.292  1.00  0.00     0.050 A 
ATOM     18  C   UNL     1      17.027  22.332  13.625  1.00  0.00     0.157 A 
BRANCH  16  19
ATOM     19  O   UNL     1      14.873  21.448  12.946  1.00  0.00    -0.504 OA
ATOM     20  H   UNL     1      14.063  21.802  12.451  1.00  0.00     0.293 HD
ENDBRANCH  16  19
BRANCH  18  21
ATOM     21  O   UNL     1      16.616  22.400  14.955  1.00  0.00    -0.504 OA
ATOM     22  H   UNL     1      16.881  21.699  15.636  1.00  0.00     0.293 HD
ENDBRANCH  18  21
ENDBRANCH   3  13
BRANCH   9  23
ATOM     23  O   UNL     1      18.429  21.002   4.456  1.00  0.00    -0.507 OA
ATOM     24  H   UNL     1      17.779  20.550   3.826  1.00  0.00     0.293 HD
ENDBRANCH   9  23
BRANCH   7  25
ATOM     25  O   UNL     1      17.128  25.642   4.665  1.00  0.00    -0.508 OA
ATOM     26  H   UNL     1      17.028  25.683   3.657  1.00  0.00     0.293 HD
ENDBRANCH   7  25
TORSDOF 6
ENDMDL
