MODEL 1
REMARK VINA RESULT:    -4.723      0.000      0.000
REMARK INTER + INTRA:          -5.384
REMARK INTER:                  -5.000
REMARK INTRA:                  -0.384
REMARK UNBOUND:                -0.384
REMARK SMILES CC1=CC[C@]23[C@@H]([C@@H](C(C)C)CC[C@H]2C)[C@@H]13
REMARK SMILES IDX 14 1 13 2 12 3 11 4 7 5 6 6 5 7 15 8 2 9 3 10 4 11 1 12 8 13
REMARK SMILES IDX 9 14 10 15
REMARK H PARENT
REMARK Flexibility Score: inf
ROOT
ATOM      1  C   UNL     1      19.303  62.650  13.943  1.00  0.00     0.008 C 
ATOM      2  C   UNL     1      19.969  64.002  14.256  1.00  0.00    -0.007 C 
ATOM      3  C   UNL     1      21.208  64.292  13.354  1.00  0.00     0.004 C 
ATOM      4  C   UNL     1      22.554  63.668  13.840  1.00  0.00     0.004 C 
ATOM      5  C   UNL     1      22.769  63.695  15.386  1.00  0.00    -0.004 C 
ATOM      6  C   UNL     1      21.472  63.123  15.970  1.00  0.00     0.007 C 
ATOM      7  C   UNL     1      20.371  64.218  15.731  1.00  0.00    -0.013 C 
ATOM      8  C   UNL     1      20.479  63.448  17.042  1.00  0.00     0.025 C 
ATOM      9  C   UNL     1      20.919  64.446  18.056  1.00  0.00    -0.073 C 
ATOM     10  C   UNL     1      20.986  65.671  17.564  1.00  0.00    -0.027 C 
ATOM     11  C   UNL     1      20.611  65.702  16.126  1.00  0.00     0.035 C 
ATOM     12  C   UNL     1      21.234  64.105  19.478  1.00  0.00     0.039 C 
ENDROOT
BRANCH   5  13
ATOM     13  C   UNL     1      23.980  62.821  15.822  1.00  0.00    -0.014 C 
ATOM     14  C   UNL     1      24.359  61.814  14.721  1.00  0.00     0.007 C 
ATOM     15  C   UNL     1      23.694  62.056  17.125  1.00  0.00     0.007 C 
ENDBRANCH   5  13
TORSDOF 1
ENDMDL
MODEL 2
REMARK VINA RESULT:    -4.713      1.939      4.297
REMARK INTER + INTRA:          -5.372
REMARK INTER:                  -4.987
REMARK INTRA:                  -0.386
REMARK UNBOUND:                -0.384
REMARK SMILES CC1=CC[C@]23[C@@H]([C@@H](C(C)C)CC[C@H]2C)[C@@H]13
REMARK SMILES IDX 14 1 13 2 12 3 11 4 7 5 6 6 5 7 15 8 2 9 3 10 4 11 1 12 8 13
REMARK SMILES IDX 9 14 10 15
REMARK H PARENT
REMARK Flexibility Score: inf
ROOT
ATOM      1  C   UNL     1      21.891  64.537  13.660  1.00  0.00     0.008 C 
ATOM      2  C   UNL     1      21.299  63.515  14.648  1.00  0.00    -0.007 C 
ATOM      3  C   UNL     1      20.048  62.775  14.080  1.00  0.00     0.004 C 
ATOM      4  C   UNL     1      18.689  63.525  14.249  1.00  0.00     0.004 C 
ATOM      5  C   UNL     1      18.522  64.283  15.604  1.00  0.00    -0.004 C 
ATOM      6  C   UNL     1      19.808  65.105  15.752  1.00  0.00     0.007 C 
ATOM      7  C   UNL     1      20.951  64.069  16.046  1.00  0.00    -0.013 C 
ATOM      8  C   UNL     1      20.847  65.396  16.790  1.00  0.00     0.025 C 
ATOM      9  C   UNL     1      20.485  65.041  18.190  1.00  0.00    -0.073 C 
ATOM     10  C   UNL     1      20.461  63.735  18.391  1.00  0.00    -0.027 C 
ATOM     11  C   UNL     1      20.793  62.987  17.151  1.00  0.00     0.035 C 
ATOM     12  C   UNL     1      20.197  66.050  19.257  1.00  0.00     0.039 C 
ENDROOT
BRANCH   5  13
ATOM     13  C   UNL     1      17.285  65.227  15.596  1.00  0.00    -0.014 C 
ATOM     14  C   UNL     1      16.716  65.404  17.015  1.00  0.00     0.007 C 
ATOM     15  C   UNL     1      16.174  64.705  14.670  1.00  0.00     0.007 C 
ENDBRANCH   5  13
TORSDOF 1
ENDMDL
MODEL 3
REMARK VINA RESULT:    -4.708      1.410      3.582
REMARK INTER + INTRA:          -5.368
REMARK INTER:                  -4.840
REMARK INTRA:                  -0.528
REMARK UNBOUND:                -0.384
REMARK SMILES CC1=CC[C@]23[C@@H]([C@@H](C(C)C)CC[C@H]2C)[C@@H]13
REMARK SMILES IDX 14 1 13 2 12 3 11 4 7 5 6 6 5 7 15 8 2 9 3 10 4 11 1 12 8 13
REMARK SMILES IDX 9 14 10 15
REMARK H PARENT
REMARK Flexibility Score: inf
ROOT
ATOM      1  C   UNL     1      24.445  65.308  16.259  1.00  0.00     0.008 C 
ATOM      2  C   UNL     1      23.771  64.012  16.744  1.00  0.00    -0.007 C 
ATOM      3  C   UNL     1      24.010  62.805  15.784  1.00  0.00     0.004 C 
ATOM      4  C   UNL     1      23.028  62.704  14.575  1.00  0.00     0.004 C 
ATOM      5  C   UNL     1      21.548  63.083  14.899  1.00  0.00    -0.004 C 
ATOM      6  C   UNL     1      21.640  64.430  15.625  1.00  0.00     0.007 C 
ATOM      7  C   UNL     1      22.259  64.118  17.035  1.00  0.00    -0.013 C 
ATOM      8  C   UNL     1      21.095  65.087  16.855  1.00  0.00     0.025 C 
ATOM      9  C   UNL     1      19.921  64.420  17.483  1.00  0.00    -0.073 C 
ATOM     10  C   UNL     1      20.241  63.282  18.074  1.00  0.00    -0.027 C 
ATOM     11  C   UNL     1      21.690  62.984  17.932  1.00  0.00     0.035 C 
ATOM     12  C   UNL     1      18.535  64.984  17.464  1.00  0.00     0.039 C 
ENDROOT
BRANCH   5  13
ATOM     13  C   UNL     1      20.688  63.231  13.610  1.00  0.00    -0.014 C 
ATOM     14  C   UNL     1      20.747  64.671  13.069  1.00  0.00     0.007 C 
ATOM     15  C   UNL     1      19.220  62.845  13.854  1.00  0.00     0.007 C 
ENDBRANCH   5  13
TORSDOF 1
ENDMDL
MODEL 4
REMARK VINA RESULT:    -4.624      1.207      3.710
REMARK INTER + INTRA:          -5.278
REMARK INTER:                  -4.891
REMARK INTRA:                  -0.387
REMARK UNBOUND:                -0.384
REMARK SMILES CC1=CC[C@]23[C@@H]([C@@H](C(C)C)CC[C@H]2C)[C@@H]13
REMARK SMILES IDX 14 1 13 2 12 3 11 4 7 5 6 6 5 7 15 8 2 9 3 10 4 11 1 12 8 13
REMARK SMILES IDX 9 14 10 15
REMARK H PARENT
REMARK Flexibility Score: inf
ROOT
ATOM      1  C   UNL     1      25.040  64.662  14.912  1.00  0.00     0.008 C 
ATOM      2  C   UNL     1      24.426  63.383  15.509  1.00  0.00    -0.007 C 
ATOM      3  C   UNL     1      23.812  62.441  14.429  1.00  0.00     0.004 C 
ATOM      4  C   UNL     1      22.350  62.779  13.994  1.00  0.00     0.004 C 
ATOM      5  C   UNL     1      21.415  63.251  15.152  1.00  0.00    -0.004 C 
ATOM      6  C   UNL     1      22.210  64.345  15.874  1.00  0.00     0.007 C 
ATOM      7  C   UNL     1      23.378  63.607  16.621  1.00  0.00    -0.013 C 
ATOM      8  C   UNL     1      22.581  64.732  17.272  1.00  0.00     0.025 C 
ATOM      9  C   UNL     1      21.792  64.086  18.357  1.00  0.00    -0.073 C 
ATOM     10  C   UNL     1      22.079  62.803  18.496  1.00  0.00    -0.027 C 
ATOM     11  C   UNL     1      23.106  62.366  17.515  1.00  0.00     0.035 C 
ATOM     12  C   UNL     1      20.798  64.810  19.208  1.00  0.00     0.039 C 
ENDROOT
BRANCH   5  13
ATOM     13  C   UNL     1      20.074  63.833  14.617  1.00  0.00    -0.014 C 
ATOM     14  C   UNL     1      19.235  64.428  15.762  1.00  0.00     0.007 C 
ATOM     15  C   UNL     1      19.241  62.768  13.884  1.00  0.00     0.007 C 
ENDBRANCH   5  13
TORSDOF 1
ENDMDL
MODEL 5
REMARK VINA RESULT:    -4.514      1.748      3.238
REMARK INTER + INTRA:          -5.162
REMARK INTER:                  -4.622
REMARK INTRA:                  -0.540
REMARK UNBOUND:                -0.384
REMARK SMILES CC1=CC[C@]23[C@@H]([C@@H](C(C)C)CC[C@H]2C)[C@@H]13
REMARK SMILES IDX 14 1 13 2 12 3 11 4 7 5 6 6 5 7 15 8 2 9 3 10 4 11 1 12 8 13
REMARK SMILES IDX 9 14 10 15
REMARK H PARENT
REMARK Flexibility Score: inf
ROOT
ATOM      1  C   UNL     1      16.795  64.432  17.444  1.00  0.00     0.008 C 
ATOM      2  C   UNL     1      17.990  65.394  17.313  1.00  0.00    -0.007 C 
ATOM      3  C   UNL     1      18.034  66.124  15.935  1.00  0.00     0.004 C 
ATOM      4  C   UNL     1      18.717  65.332  14.776  1.00  0.00     0.004 C 
ATOM      5  C   UNL     1      19.978  64.512  15.196  1.00  0.00    -0.004 C 
ATOM      6  C   UNL     1      19.534  63.719  16.430  1.00  0.00     0.007 C 
ATOM      7  C   UNL     1      19.376  64.771  17.586  1.00  0.00    -0.013 C 
ATOM      8  C   UNL     1      20.028  63.411  17.810  1.00  0.00     0.025 C 
ATOM      9  C   UNL     1      21.467  63.695  18.065  1.00  0.00    -0.073 C 
ATOM     10  C   UNL     1      21.725  64.991  18.119  1.00  0.00    -0.027 C 
ATOM     11  C   UNL     1      20.498  65.800  17.898  1.00  0.00     0.035 C 
ATOM     12  C   UNL     1      22.504  62.635  18.256  1.00  0.00     0.039 C 
ENDROOT
BRANCH   5  13
ATOM     13  C   UNL     1      20.440  63.537  14.074  1.00  0.00    -0.014 C 
ATOM     14  C   UNL     1      19.476  62.343  13.949  1.00  0.00     0.007 C 
ATOM     15  C   UNL     1      21.863  63.011  14.324  1.00  0.00     0.007 C 
ENDBRANCH   5  13
TORSDOF 1
ENDMDL
MODEL 6
REMARK VINA RESULT:    -4.426      1.142      3.628
REMARK INTER + INTRA:          -5.069
REMARK INTER:                  -4.665
REMARK INTRA:                  -0.405
REMARK UNBOUND:                -0.384
REMARK SMILES CC1=CC[C@]23[C@@H]([C@@H](C(C)C)CC[C@H]2C)[C@@H]13
REMARK SMILES IDX 14 1 13 2 12 3 11 4 7 5 6 6 5 7 15 8 2 9 3 10 4 11 1 12 8 13
REMARK SMILES IDX 9 14 10 15
REMARK H PARENT
REMARK Flexibility Score: inf
ROOT
ATOM      1  C   UNL     1      22.028  65.632  18.627  1.00  0.00     0.008 C 
ATOM      2  C   UNL     1      21.219  64.442  18.081  1.00  0.00    -0.007 C 
ATOM      3  C   UNL     1      21.784  63.061  18.538  1.00  0.00     0.004 C 
ATOM      4  C   UNL     1      22.951  62.493  17.670  1.00  0.00     0.004 C 
ATOM      5  C   UNL     1      22.806  62.738  16.134  1.00  0.00    -0.004 C 
ATOM      6  C   UNL     1      22.492  64.233  16.007  1.00  0.00     0.007 C 
ATOM      7  C   UNL     1      21.029  64.415  16.550  1.00  0.00    -0.013 C 
ATOM      8  C   UNL     1      21.523  65.124  15.293  1.00  0.00     0.025 C 
ATOM      9  C   UNL     1      20.777  64.502  14.165  1.00  0.00    -0.073 C 
ATOM     10  C   UNL     1      19.873  63.629  14.576  1.00  0.00    -0.027 C 
ATOM     11  C   UNL     1      19.868  63.507  16.056  1.00  0.00     0.035 C 
ATOM     12  C   UNL     1      21.009  64.840  12.726  1.00  0.00     0.039 C 
ENDROOT
BRANCH   5  13
ATOM     13  C   UNL     1      24.116  62.401  15.364  1.00  0.00    -0.014 C 
ATOM     14  C   UNL     1      23.833  62.170  13.869  1.00  0.00     0.007 C 
ATOM     15  C   UNL     1      24.816  61.160  15.942  1.00  0.00     0.007 C 
ENDBRANCH   5  13
TORSDOF 1
ENDMDL
MODEL 7
REMARK VINA RESULT:    -4.400      1.342      3.971
REMARK INTER + INTRA:          -5.041
REMARK INTER:                  -4.511
REMARK INTRA:                  -0.530
REMARK UNBOUND:                -0.384
REMARK SMILES CC1=CC[C@]23[C@@H]([C@@H](C(C)C)CC[C@H]2C)[C@@H]13
REMARK SMILES IDX 14 1 13 2 12 3 11 4 7 5 6 6 5 7 15 8 2 9 3 10 4 11 1 12 8 13
REMARK SMILES IDX 9 14 10 15
REMARK H PARENT
REMARK Flexibility Score: inf
ROOT
ATOM      1  C   UNL     1      25.121  62.391  14.578  1.00  0.00     0.008 C 
ATOM      2  C   UNL     1      24.391  63.722  14.327  1.00  0.00    -0.007 C 
ATOM      3  C   UNL     1      24.682  64.792  15.425  1.00  0.00     0.004 C 
ATOM      4  C   UNL     1      23.793  64.701  16.705  1.00  0.00     0.004 C 
ATOM      5  C   UNL     1      22.299  64.330  16.441  1.00  0.00    -0.004 C 
ATOM      6  C   UNL     1      22.359  63.098  15.530  1.00  0.00     0.007 C 
ATOM      7  C   UNL     1      22.863  63.615  14.135  1.00  0.00    -0.013 C 
ATOM      8  C   UNL     1      21.733  62.600  14.264  1.00  0.00     0.025 C 
ATOM      9  C   UNL     1      20.503  63.314  13.822  1.00  0.00    -0.073 C 
ATOM     10  C   UNL     1      20.758  64.531  13.373  1.00  0.00    -0.027 C 
ATOM     11  C   UNL     1      22.208  64.846  13.448  1.00  0.00     0.035 C 
ATOM     12  C   UNL     1      19.132  62.716  13.864  1.00  0.00     0.039 C 
ENDROOT
BRANCH   5  13
ATOM     13  C   UNL     1      21.543  63.984  17.756  1.00  0.00    -0.014 C 
ATOM     14  C   UNL     1      22.186  62.777  18.462  1.00  0.00     0.007 C 
ATOM     15  C   UNL     1      20.057  63.683  17.499  1.00  0.00     0.007 C 
ENDBRANCH   5  13
TORSDOF 1
ENDMDL
MODEL 8
REMARK VINA RESULT:    -4.290      1.498      4.489
REMARK INTER + INTRA:          -4.925
REMARK INTER:                  -4.498
REMARK INTRA:                  -0.427
REMARK UNBOUND:                -0.384
REMARK SMILES CC1=CC[C@]23[C@@H]([C@@H](C(C)C)CC[C@H]2C)[C@@H]13
REMARK SMILES IDX 14 1 13 2 12 3 11 4 7 5 6 6 5 7 15 8 2 9 3 10 4 11 1 12 8 13
REMARK SMILES IDX 9 14 10 15
REMARK H PARENT
REMARK Flexibility Score: inf
ROOT
ATOM      1  C   UNL     1      24.066  61.319  16.865  1.00  0.00     0.008 C 
ATOM      2  C   UNL     1      23.792  62.802  17.172  1.00  0.00    -0.007 C 
ATOM      3  C   UNL     1      22.596  63.010  18.154  1.00  0.00     0.004 C 
ATOM      4  C   UNL     1      21.181  63.022  17.495  1.00  0.00     0.004 C 
ATOM      5  C   UNL     1      21.108  63.743  16.111  1.00  0.00    -0.004 C 
ATOM      6  C   UNL     1      22.261  63.143  15.299  1.00  0.00     0.007 C 
ATOM      7  C   UNL     1      23.580  63.707  15.940  1.00  0.00    -0.013 C 
ATOM      8  C   UNL     1      23.389  63.608  14.430  1.00  0.00     0.025 C 
ATOM      9  C   UNL     1      23.301  65.013  13.946  1.00  0.00    -0.073 C 
ATOM     10  C   UNL     1      23.506  65.894  14.910  1.00  0.00    -0.027 C 
ATOM     11  C   UNL     1      23.757  65.227  16.213  1.00  0.00     0.035 C 
ATOM     12  C   UNL     1      23.029  65.388  12.523  1.00  0.00     0.039 C 
ENDROOT
BRANCH   5  13
ATOM     13  C   UNL     1      19.755  63.481  15.388  1.00  0.00    -0.014 C 
ATOM     14  C   UNL     1      19.967  62.674  14.095  1.00  0.00     0.007 C 
ATOM     15  C   UNL     1      19.025  64.791  15.050  1.00  0.00     0.007 C 
ENDBRANCH   5  13
TORSDOF 1
ENDMDL
MODEL 9
REMARK VINA RESULT:    -4.234      1.340      4.273
REMARK INTER + INTRA:          -4.866
REMARK INTER:                  -4.510
REMARK INTRA:                  -0.356
REMARK UNBOUND:                -0.384
REMARK SMILES CC1=CC[C@]23[C@@H]([C@@H](C(C)C)CC[C@H]2C)[C@@H]13
REMARK SMILES IDX 14 1 13 2 12 3 11 4 7 5 6 6 5 7 15 8 2 9 3 10 4 11 1 12 8 13
REMARK SMILES IDX 9 14 10 15
REMARK H PARENT
REMARK Flexibility Score: inf
ROOT
ATOM      1  C   UNL     1      21.023  64.527  20.220  1.00  0.00     0.008 C 
ATOM      2  C   UNL     1      21.880  65.162  19.111  1.00  0.00    -0.007 C 
ATOM      3  C   UNL     1      21.059  66.090  18.163  1.00  0.00     0.004 C 
ATOM      4  C   UNL     1      20.318  65.370  16.993  1.00  0.00     0.004 C 
ATOM      5  C   UNL     1      21.113  64.196  16.337  1.00  0.00    -0.004 C 
ATOM      6  C   UNL     1      21.580  63.335  17.517  1.00  0.00     0.007 C 
ATOM      7  C   UNL     1      22.691  64.171  18.249  1.00  0.00    -0.013 C 
ATOM      8  C   UNL     1      22.831  62.672  18.003  1.00  0.00     0.025 C 
ATOM      9  C   UNL     1      23.924  62.533  17.002  1.00  0.00    -0.073 C 
ATOM     10  C   UNL     1      24.494  63.690  16.710  1.00  0.00    -0.027 C 
ATOM     11  C   UNL     1      23.868  64.809  17.461  1.00  0.00     0.035 C 
ATOM     12  C   UNL     1      24.346  61.228  16.405  1.00  0.00     0.039 C 
ENDROOT
BRANCH   5  13
ATOM     13  C   UNL     1      20.222  63.351  15.381  1.00  0.00    -0.014 C 
ATOM     14  C   UNL     1      21.011  62.916  14.133  1.00  0.00     0.007 C 
ATOM     15  C   UNL     1      18.967  64.122  14.939  1.00  0.00     0.007 C 
ENDBRANCH   5  13
TORSDOF 1
ENDMDL
