MODEL 1
REMARK VINA RESULT:    -4.438      0.000      0.000
REMARK INTER + INTRA:          -4.568
REMARK INTER:                  -4.568
REMARK INTRA:                   0.000
REMARK UNBOUND:                 0.000
REMARK SMILES Oc1ccc2[nH]ccc2c1
REMARK SMILES IDX 3 1 4 2 5 3 9 4 8 5 7 6 6 7 10 8 2 9 1 11
REMARK H PARENT 6 10 1 12
REMARK Flexibility Score: inf
ROOT
ATOM      1  C   UNL     1     116.694 116.332  99.477  1.00  0.00     0.048 A 
ATOM      2  C   UNL     1     117.727 117.281  99.359  1.00  0.00     0.030 A 
ATOM      3  C   UNL     1     117.365 118.622  99.239  1.00  0.00     0.046 A 
ATOM      4  C   UNL     1     116.055 119.017  99.233  1.00  0.00     0.003 A 
ATOM      5  C   UNL     1     116.038 120.389  99.100  1.00  0.00     0.028 A 
ATOM      6  C   UNL     1     117.376 120.763  99.031  1.00  0.00     0.083 A 
ATOM      7  N   UNL     1     118.184 119.681  99.117  1.00  0.00    -0.361 N 
ATOM      8  C   UNL     1     115.009 118.104  99.346  1.00  0.00     0.056 A 
ATOM      9  C   UNL     1     115.337 116.739  99.470  1.00  0.00     0.116 A 
ATOM     10  H   UNL     1     119.227 119.673  99.092  1.00  0.00     0.166 HD
ENDROOT
BRANCH   9  11
ATOM     11  O   UNL     1     114.317 115.798  99.586  1.00  0.00    -0.508 OA
ATOM     12  H   UNL     1     114.452 114.835  99.303  1.00  0.00     0.293 HD
ENDBRANCH   9  11
TORSDOF 1
ENDMDL
MODEL 2
REMARK VINA RESULT:    -4.304      0.816      2.155
REMARK INTER + INTRA:          -4.430
REMARK INTER:                  -4.430
REMARK INTRA:                   0.000
REMARK UNBOUND:                 0.000
REMARK SMILES Oc1ccc2[nH]ccc2c1
REMARK SMILES IDX 3 1 4 2 5 3 9 4 8 5 7 6 6 7 10 8 2 9 1 11
REMARK H PARENT 6 10 1 12
REMARK Flexibility Score: inf
ROOT
ATOM      1  C   UNL     1     114.708 118.055  99.135  1.00  0.00     0.048 A 
ATOM      2  C   UNL     1     115.631 119.113  99.031  1.00  0.00     0.030 A 
ATOM      3  C   UNL     1     116.982 118.815  99.202  1.00  0.00     0.046 A 
ATOM      4  C   UNL     1     117.411 117.542  99.462  1.00  0.00     0.003 A 
ATOM      5  C   UNL     1     118.785 117.585  99.575  1.00  0.00     0.028 A 
ATOM      6  C   UNL     1     119.124 118.918  99.372  1.00  0.00     0.083 A 
ATOM      7  N   UNL     1     118.020 119.667  99.143  1.00  0.00    -0.361 N 
ATOM      8  C   UNL     1     116.525 116.473  99.572  1.00  0.00     0.056 A 
ATOM      9  C   UNL     1     115.151 116.737  99.405  1.00  0.00     0.116 A 
ATOM     10  H   UNL     1     117.985 120.693  98.960  1.00  0.00     0.166 HD
ENDROOT
BRANCH   9  11
ATOM     11  O   UNL     1     114.236 115.692  99.508  1.00  0.00    -0.508 OA
ATOM     12  H   UNL     1     113.988 115.127  98.704  1.00  0.00     0.293 HD
ENDBRANCH   9  11
TORSDOF 1
ENDMDL
MODEL 3
REMARK VINA RESULT:    -4.294      1.625      2.252
REMARK INTER + INTRA:          -4.420
REMARK INTER:                  -4.420
REMARK INTRA:                   0.000
REMARK UNBOUND:                 0.000
REMARK SMILES Oc1ccc2[nH]ccc2c1
REMARK SMILES IDX 3 1 4 2 5 3 9 4 8 5 7 6 6 7 10 8 2 9 1 11
REMARK H PARENT 6 10 1 12
REMARK Flexibility Score: inf
ROOT
ATOM      1  C   UNL     1     115.536 117.130  99.809  1.00  0.00     0.048 A 
ATOM      2  C   UNL     1     114.959 118.314  99.311  1.00  0.00     0.030 A 
ATOM      3  C   UNL     1     115.736 119.470  99.326  1.00  0.00     0.046 A 
ATOM      4  C   UNL     1     117.018 119.471  99.806  1.00  0.00     0.003 A 
ATOM      5  C   UNL     1     117.505 120.755  99.683  1.00  0.00     0.028 A 
ATOM      6  C   UNL     1     116.463 121.485  99.119  1.00  0.00     0.083 A 
ATOM      7  N   UNL     1     115.385 120.696  98.902  1.00  0.00    -0.361 N 
ATOM      8  C   UNL     1     117.618 118.317 100.306  1.00  0.00     0.056 A 
ATOM      9  C   UNL     1     116.862 117.128 100.306  1.00  0.00     0.116 A 
ATOM     10  H   UNL     1     114.470 120.984  98.491  1.00  0.00     0.166 HD
ENDROOT
BRANCH   9  11
ATOM     11  O   UNL     1     117.431 115.956 100.798  1.00  0.00    -0.508 OA
ATOM     12  H   UNL     1     118.303 115.969 101.314  1.00  0.00     0.293 HD
ENDBRANCH   9  11
TORSDOF 1
ENDMDL
MODEL 4
REMARK VINA RESULT:    -4.279      7.777      8.701
REMARK INTER + INTRA:          -4.404
REMARK INTER:                  -4.404
REMARK INTRA:                   0.000
REMARK UNBOUND:                 0.000
REMARK SMILES Oc1ccc2[nH]ccc2c1
REMARK SMILES IDX 3 1 4 2 5 3 9 4 8 5 7 6 6 7 10 8 2 9 1 11
REMARK H PARENT 6 10 1 12
REMARK Flexibility Score: inf
ROOT
ATOM      1  C   UNL     1     111.458 119.820 105.227  1.00  0.00     0.048 A 
ATOM      2  C   UNL     1     112.710 119.212 105.440  1.00  0.00     0.030 A 
ATOM      3  C   UNL     1     112.723 117.914 105.945  1.00  0.00     0.046 A 
ATOM      4  C   UNL     1     111.567 117.239 106.229  1.00  0.00     0.003 A 
ATOM      5  C   UNL     1     111.921 115.995 106.706  1.00  0.00     0.028 A 
ATOM      6  C   UNL     1     113.312 115.981 106.685  1.00  0.00     0.083 A 
ATOM      7  N   UNL     1     113.798 117.155 106.219  1.00  0.00    -0.361 N 
ATOM      8  C   UNL     1     110.312 117.811 106.031  1.00  0.00     0.056 A 
ATOM      9  C   UNL     1     110.260 119.124 105.522  1.00  0.00     0.116 A 
ATOM     10  H   UNL     1     114.802 117.414 106.098  1.00  0.00     0.166 HD
ENDROOT
BRANCH   9  11
ATOM     11  O   UNL     1     109.022 119.726 105.311  1.00  0.00    -0.508 OA
ATOM     12  H   UNL     1     108.197 119.177 105.100  1.00  0.00     0.293 HD
ENDBRANCH   9  11
TORSDOF 1
ENDMDL
MODEL 5
REMARK VINA RESULT:    -4.179      8.336      8.907
REMARK INTER + INTRA:          -4.301
REMARK INTER:                  -4.301
REMARK INTRA:                   0.000
REMARK UNBOUND:                 0.000
REMARK SMILES Oc1ccc2[nH]ccc2c1
REMARK SMILES IDX 3 1 4 2 5 3 9 4 8 5 7 6 6 7 10 8 2 9 1 11
REMARK H PARENT 6 10 1 12
REMARK Flexibility Score: inf
ROOT
ATOM      1  C   UNL     1     113.642 116.463 106.644  1.00  0.00     0.048 A 
ATOM      2  C   UNL     1     113.657 117.840 106.937  1.00  0.00     0.030 A 
ATOM      3  C   UNL     1     112.431 118.494 107.041  1.00  0.00     0.046 A 
ATOM      4  C   UNL     1     111.245 117.834 106.867  1.00  0.00     0.003 A 
ATOM      5  C   UNL     1     110.232 118.754 107.034  1.00  0.00     0.028 A 
ATOM      6  C   UNL     1     110.876 119.957 107.307  1.00  0.00     0.083 A 
ATOM      7  N   UNL     1     112.219 119.794 107.311  1.00  0.00    -0.361 N 
ATOM      8  C   UNL     1     111.194 116.473 106.577  1.00  0.00     0.056 A 
ATOM      9  C   UNL     1     112.415 115.778 106.463  1.00  0.00     0.116 A 
ATOM     10  H   UNL     1     112.939 120.528 107.487  1.00  0.00     0.166 HD
ENDROOT
BRANCH   9  11
ATOM     11  O   UNL     1     112.402 114.416 106.174  1.00  0.00    -0.508 OA
ATOM     12  H   UNL     1     112.324 114.079 105.222  1.00  0.00     0.293 HD
ENDBRANCH   9  11
TORSDOF 1
ENDMDL
MODEL 6
REMARK VINA RESULT:    -4.167     20.916     21.989
REMARK INTER + INTRA:          -4.289
REMARK INTER:                  -4.289
REMARK INTRA:                   0.000
REMARK UNBOUND:                 0.000
REMARK SMILES Oc1ccc2[nH]ccc2c1
REMARK SMILES IDX 3 1 4 2 5 3 9 4 8 5 7 6 6 7 10 8 2 9 1 11
REMARK H PARENT 6 10 1 12
REMARK Flexibility Score: inf
ROOT
ATOM      1  C   UNL     1      99.518 107.131 110.800  1.00  0.00     0.048 A 
ATOM      2  C   UNL     1      99.004 108.128 109.949  1.00  0.00     0.030 A 
ATOM      3  C   UNL     1      99.597 109.387 109.991  1.00  0.00     0.046 A 
ATOM      4  C   UNL     1     100.646 109.662 110.826  1.00  0.00     0.003 A 
ATOM      5  C   UNL     1     100.997 110.981 110.628  1.00  0.00     0.028 A 
ATOM      6  C   UNL     1     100.119 111.448 109.656  1.00  0.00     0.083 A 
ATOM      7  N   UNL     1      99.265 110.471 109.269  1.00  0.00    -0.361 N 
ATOM      8  C   UNL     1     101.179 108.701 111.682  1.00  0.00     0.056 A 
ATOM      9  C   UNL     1     100.603 107.414 111.667  1.00  0.00     0.116 A 
ATOM     10  H   UNL     1      98.507 110.548 108.556  1.00  0.00     0.166 HD
ENDROOT
BRANCH   9  11
ATOM     11  O   UNL     1     101.111 106.428 112.508  1.00  0.00    -0.508 OA
ATOM     12  H   UNL     1     101.340 105.504 112.161  1.00  0.00     0.293 HD
ENDBRANCH   9  11
TORSDOF 1
ENDMDL
MODEL 7
REMARK VINA RESULT:    -4.145      8.615      9.309
REMARK INTER + INTRA:          -4.266
REMARK INTER:                  -4.266
REMARK INTRA:                   0.000
REMARK UNBOUND:                 0.000
REMARK SMILES Oc1ccc2[nH]ccc2c1
REMARK SMILES IDX 3 1 4 2 5 3 9 4 8 5 7 6 6 7 10 8 2 9 1 11
REMARK H PARENT 6 10 1 12
REMARK Flexibility Score: inf
ROOT
ATOM      1  C   UNL     1     111.743 118.989 104.594  1.00  0.00     0.048 A 
ATOM      2  C   UNL     1     112.462 119.269 105.771  1.00  0.00     0.030 A 
ATOM      3  C   UNL     1     111.740 119.414 106.954  1.00  0.00     0.046 A 
ATOM      4  C   UNL     1     110.377 119.290 106.986  1.00  0.00     0.003 A 
ATOM      5  C   UNL     1     109.975 119.486 108.290  1.00  0.00     0.028 A 
ATOM      6  C   UNL     1     111.147 119.726 108.999  1.00  0.00     0.083 A 
ATOM      7  N   UNL     1     112.223 119.680 108.179  1.00  0.00    -0.361 N 
ATOM      8  C   UNL     1     109.635 119.013 105.840  1.00  0.00     0.056 A 
ATOM      9  C   UNL     1     110.332 118.861 104.624  1.00  0.00     0.116 A 
ATOM     10  H   UNL     1     113.222 119.823 108.447  1.00  0.00     0.166 HD
ENDROOT
BRANCH   9  11
ATOM     11  O   UNL     1     109.622 118.584 103.459  1.00  0.00    -0.508 OA
ATOM     12  H   UNL     1     110.087 118.240 102.627  1.00  0.00     0.293 HD
ENDBRANCH   9  11
TORSDOF 1
ENDMDL
MODEL 8
REMARK VINA RESULT:    -4.111     20.913     21.876
REMARK INTER + INTRA:          -4.231
REMARK INTER:                  -4.231
REMARK INTRA:                   0.000
REMARK UNBOUND:                 0.000
REMARK SMILES Oc1ccc2[nH]ccc2c1
REMARK SMILES IDX 3 1 4 2 5 3 9 4 8 5 7 6 6 7 10 8 2 9 1 11
REMARK H PARENT 6 10 1 12
REMARK Flexibility Score: inf
ROOT
ATOM      1  C   UNL     1      99.011 108.320 109.908  1.00  0.00     0.048 A 
ATOM      2  C   UNL     1      99.511 109.548 110.380  1.00  0.00     0.030 A 
ATOM      3  C   UNL     1     100.747 109.542 111.023  1.00  0.00     0.046 A 
ATOM      4  C   UNL     1     101.463 108.388 111.196  1.00  0.00     0.003 A 
ATOM      5  C   UNL     1     102.626 108.719 111.858  1.00  0.00     0.028 A 
ATOM      6  C   UNL     1     102.552 110.093 112.057  1.00  0.00     0.083 A 
ATOM      7  N   UNL     1     101.403 110.592 111.545  1.00  0.00    -0.361 N 
ATOM      8  C   UNL     1     100.997 107.156 110.741  1.00  0.00     0.056 A 
ATOM      9  C   UNL     1      99.750 107.125 110.086  1.00  0.00     0.116 A 
ATOM     10  H   UNL     1     101.092 111.588 111.555  1.00  0.00     0.166 HD
ENDROOT
BRANCH   9  11
ATOM     11  O   UNL     1      99.254 105.911 109.618  1.00  0.00    -0.508 OA
ATOM     12  H   UNL     1      98.826 105.239 110.244  1.00  0.00     0.293 HD
ENDBRANCH   9  11
TORSDOF 1
ENDMDL
MODEL 9
REMARK VINA RESULT:    -4.099     21.642     21.986
REMARK INTER + INTRA:          -4.219
REMARK INTER:                  -4.219
REMARK INTRA:                   0.000
REMARK UNBOUND:                 0.000
REMARK SMILES Oc1ccc2[nH]ccc2c1
REMARK SMILES IDX 3 1 4 2 5 3 9 4 8 5 7 6 6 7 10 8 2 9 1 11
REMARK H PARENT 6 10 1 12
REMARK Flexibility Score: inf
ROOT
ATOM      1  C   UNL     1     100.378 106.948 110.367  1.00  0.00     0.048 A 
ATOM      2  C   UNL     1     101.140 107.343 111.483  1.00  0.00     0.030 A 
ATOM      3  C   UNL     1     101.128 108.692 111.833  1.00  0.00     0.046 A 
ATOM      4  C   UNL     1     100.404 109.613 111.125  1.00  0.00     0.003 A 
ATOM      5  C   UNL     1     100.603 110.840 111.721  1.00  0.00     0.028 A 
ATOM      6  C   UNL     1     101.460 110.591 112.788  1.00  0.00     0.083 A 
ATOM      7  N   UNL     1     101.778 109.277 112.853  1.00  0.00    -0.361 N 
ATOM      8  C   UNL     1      99.640 109.257 110.016  1.00  0.00     0.056 A 
ATOM      9  C   UNL     1      99.629 107.901 109.633  1.00  0.00     0.116 A 
ATOM     10  H   UNL     1     102.400 108.817 113.552  1.00  0.00     0.166 HD
ENDROOT
BRANCH   9  11
ATOM     11  O   UNL     1      98.875 107.509 108.529  1.00  0.00    -0.508 OA
ATOM     12  H   UNL     1      98.933 108.004 107.647  1.00  0.00     0.293 HD
ENDBRANCH   9  11
TORSDOF 1
ENDMDL
