MODEL 1
REMARK VINA RESULT:    -4.669      0.000      0.000
REMARK INTER + INTRA:          -6.861
REMARK INTER:                  -6.307
REMARK INTRA:                  -0.554
REMARK UNBOUND:                -0.554
REMARK SMILES COc1ccc(-c2cc(=O)c3c(OC)c(OC)c(OC)cc3o2)cc1OC
REMARK SMILES IDX 7 1 8 2 9 3 10 4 11 5 12 6 15 7 18 8 21 9 22 10 23 11 6 12
REMARK SMILES IDX 3 13 25 14 4 15 24 16 5 17 2 18 1 19 26 20 27 21 13 22 14 23
REMARK SMILES IDX 19 24 20 25 16 26 17 27
REMARK H PARENT
REMARK Flexibility Score: inf
ROOT
ATOM      1  C   UNL     1     124.259 120.963 144.410  1.00  0.00     0.138 A 
ATOM      2  C   UNL     1     125.364 120.542 145.165  1.00  0.00     0.100 A 
ATOM      3  C   UNL     1     126.590 120.339 144.532  1.00  0.00     0.197 A 
ATOM      4  O   UNL     1     127.572 119.962 145.228  1.00  0.00    -0.289 OA
ATOM      5  C   UNL     1     126.706 120.550 143.138  1.00  0.00     0.111 A 
ATOM      6  C   UNL     1     127.920 120.375 142.424  1.00  0.00     0.179 A 
ATOM      7  C   UNL     1     127.949 120.594 141.017  1.00  0.00     0.204 A 
ATOM      8  C   UNL     1     126.761 120.992 140.345  1.00  0.00     0.168 A 
ATOM      9  C   UNL     1     125.578 121.170 141.079  1.00  0.00     0.098 A 
ATOM     10  C   UNL     1     125.544 120.956 142.450  1.00  0.00     0.146 A 
ATOM     11  O   UNL     1     124.398 121.140 143.099  1.00  0.00    -0.456 OA
ENDROOT
BRANCH   1  12
ATOM     12  C   UNL     1     122.930 121.206 145.028  1.00  0.00     0.021 A 
ATOM     13  C   UNL     1     120.411 121.617 146.238  1.00  0.00     0.160 A 
ATOM     14  C   UNL     1     120.651 122.100 144.943  1.00  0.00     0.161 A 
ATOM     15  C   UNL     1     121.427 120.922 146.919  1.00  0.00     0.051 A 
ATOM     16  C   UNL     1     121.908 121.888 144.340  1.00  0.00     0.062 A 
ATOM     17  C   UNL     1     122.669 120.717 146.317  1.00  0.00     0.016 A 
BRANCH  13  18
ATOM     18  O   UNL     1     119.150 121.845 146.812  1.00  0.00    -0.493 OA
ATOM     19  C   UNL     1     118.073 120.912 146.793  1.00  0.00     0.278 C 
ENDBRANCH  13  18
BRANCH  14  20
ATOM     20  O   UNL     1     119.615 122.782 144.285  1.00  0.00    -0.493 OA
ATOM     21  C   UNL     1     119.704 124.120 143.803  1.00  0.00     0.278 C 
ENDBRANCH  14  20
ENDBRANCH   1  12
BRANCH   6  22
ATOM     22  O   UNL     1     129.060 119.988 143.161  1.00  0.00    -0.492 OA
ATOM     23  C   UNL     1     130.168 120.798 143.541  1.00  0.00     0.278 C 
ENDBRANCH   6  22
BRANCH   8  24
ATOM     24  O   UNL     1     126.775 121.203 138.957  1.00  0.00    -0.493 OA
ATOM     25  C   UNL     1     125.632 121.168 138.108  1.00  0.00     0.278 C 
ENDBRANCH   8  24
BRANCH   7  26
ATOM     26  O   UNL     1     129.168 120.406 140.338  1.00  0.00    -0.490 OA
ATOM     27  C   UNL     1     130.115 121.403 139.964  1.00  0.00     0.278 C 
ENDBRANCH   7  26
TORSDOF 6
ENDMDL
MODEL 2
REMARK VINA RESULT:    -4.660      2.021      8.378
REMARK INTER + INTRA:          -6.849
REMARK INTER:                  -6.344
REMARK INTRA:                  -0.505
REMARK UNBOUND:                -0.554
REMARK SMILES COc1ccc(-c2cc(=O)c3c(OC)c(OC)c(OC)cc3o2)cc1OC
REMARK SMILES IDX 7 1 8 2 9 3 10 4 11 5 12 6 15 7 18 8 21 9 22 10 23 11 6 12
REMARK SMILES IDX 3 13 25 14 4 15 24 16 5 17 2 18 1 19 26 20 27 21 13 22 14 23
REMARK SMILES IDX 19 24 20 25 16 26 17 27
REMARK H PARENT
REMARK Flexibility Score: inf
ROOT
ATOM      1  C   UNL     1     123.795 121.845 142.402  1.00  0.00     0.138 A 
ATOM      2  C   UNL     1     124.220 121.032 143.462  1.00  0.00     0.100 A 
ATOM      3  C   UNL     1     123.381 120.842 144.560  1.00  0.00     0.197 A 
ATOM      4  O   UNL     1     123.780 120.106 145.503  1.00  0.00    -0.289 OA
ATOM      5  C   UNL     1     122.116 121.475 144.597  1.00  0.00     0.111 A 
ATOM      6  C   UNL     1     121.203 121.324 145.672  1.00  0.00     0.179 A 
ATOM      7  C   UNL     1     119.955 122.009 145.639  1.00  0.00     0.204 A 
ATOM      8  C   UNL     1     119.637 122.833 144.525  1.00  0.00     0.168 A 
ATOM      9  C   UNL     1     120.554 122.954 143.470  1.00  0.00     0.098 A 
ATOM     10  C   UNL     1     121.773 122.289 143.499  1.00  0.00     0.146 A 
ATOM     11  O   UNL     1     122.606 122.437 142.473  1.00  0.00    -0.456 OA
ENDROOT
BRANCH   1  12
ATOM     12  C   UNL     1     124.639 122.077 141.201  1.00  0.00     0.021 A 
ATOM     13  C   UNL     1     126.196 122.551 138.892  1.00  0.00     0.160 A 
ATOM     14  C   UNL     1     126.415 121.396 139.658  1.00  0.00     0.161 A 
ATOM     15  C   UNL     1     125.193 123.459 139.278  1.00  0.00     0.051 A 
ATOM     16  C   UNL     1     125.632 121.160 140.806  1.00  0.00     0.062 A 
ATOM     17  C   UNL     1     124.423 123.220 140.416  1.00  0.00     0.016 A 
BRANCH  13  18
ATOM     18  O   UNL     1     126.992 122.759 137.755  1.00  0.00    -0.493 OA
ATOM     19  C   UNL     1     127.180 124.021 137.119  1.00  0.00     0.278 C 
ENDBRANCH  13  18
BRANCH  14  20
ATOM     20  O   UNL     1     127.417 120.504 139.242  1.00  0.00    -0.493 OA
ATOM     21  C   UNL     1     128.249 119.754 140.123  1.00  0.00     0.278 C 
ENDBRANCH  14  20
ENDBRANCH   1  12
BRANCH   6  22
ATOM     22  O   UNL     1     121.585 120.482 146.739  1.00  0.00    -0.492 OA
ATOM     23  C   UNL     1     121.017 119.229 147.106  1.00  0.00     0.278 C 
ENDBRANCH   6  22
BRANCH   8  24
ATOM     24  O   UNL     1     118.413 123.520 144.485  1.00  0.00    -0.493 OA
ATOM     25  C   UNL     1     118.246 124.882 144.104  1.00  0.00     0.278 C 
ENDBRANCH   8  24
BRANCH   7  26
ATOM     26  O   UNL     1     119.074 121.842 146.724  1.00  0.00    -0.490 OA
ATOM     27  C   UNL     1     117.875 121.071 146.758  1.00  0.00     0.278 C 
ENDBRANCH   7  26
TORSDOF 6
ENDMDL
MODEL 3
REMARK VINA RESULT:    -4.546      1.456      8.003
REMARK INTER + INTRA:          -6.695
REMARK INTER:                  -6.123
REMARK INTRA:                  -0.571
REMARK UNBOUND:                -0.554
REMARK SMILES COc1ccc(-c2cc(=O)c3c(OC)c(OC)c(OC)cc3o2)cc1OC
REMARK SMILES IDX 7 1 8 2 9 3 10 4 11 5 12 6 15 7 18 8 21 9 22 10 23 11 6 12
REMARK SMILES IDX 3 13 25 14 4 15 24 16 5 17 2 18 1 19 26 20 27 21 13 22 14 23
REMARK SMILES IDX 19 24 20 25 16 26 17 27
REMARK H PARENT
REMARK Flexibility Score: inf
ROOT
ATOM      1  C   UNL     1     125.366 120.627 143.529  1.00  0.00     0.138 A 
ATOM      2  C   UNL     1     125.220 119.933 144.739  1.00  0.00     0.100 A 
ATOM      3  C   UNL     1     124.052 120.092 145.485  1.00  0.00     0.197 A 
ATOM      4  O   UNL     1     123.939 119.458 146.569  1.00  0.00    -0.289 OA
ATOM      5  C   UNL     1     123.033 120.956 145.020  1.00  0.00     0.111 A 
ATOM      6  C   UNL     1     121.814 121.164 145.716  1.00  0.00     0.179 A 
ATOM      7  C   UNL     1     120.844 122.062 145.186  1.00  0.00     0.204 A 
ATOM      8  C   UNL     1     121.108 122.738 143.964  1.00  0.00     0.168 A 
ATOM      9  C   UNL     1     122.316 122.504 143.291  1.00  0.00     0.098 A 
ATOM     10  C   UNL     1     123.266 121.629 143.804  1.00  0.00     0.146 A 
ATOM     11  O   UNL     1     124.395 121.442 143.126  1.00  0.00    -0.456 OA
ENDROOT
BRANCH   1  12
ATOM     12  C   UNL     1     126.581 120.490 142.685  1.00  0.00     0.021 A 
ATOM     13  C   UNL     1     128.927 120.245 141.131  1.00  0.00     0.160 A 
ATOM     14  C   UNL     1     127.719 120.615 140.520  1.00  0.00     0.161 A 
ATOM     15  C   UNL     1     128.959 120.008 142.517  1.00  0.00     0.051 A 
ATOM     16  C   UNL     1     126.552 120.742 141.300  1.00  0.00     0.062 A 
ATOM     17  C   UNL     1     127.799 120.134 143.283  1.00  0.00     0.016 A 
BRANCH  13  18
ATOM     18  O   UNL     1     130.072 120.125 140.328  1.00  0.00    -0.493 OA
ATOM     19  C   UNL     1     131.401 120.384 140.771  1.00  0.00     0.278 C 
ENDBRANCH  13  18
BRANCH  14  20
ATOM     20  O   UNL     1     127.721 120.853 139.136  1.00  0.00    -0.493 OA
ATOM     21  C   UNL     1     126.607 121.350 138.399  1.00  0.00     0.278 C 
ENDBRANCH  14  20
ENDBRANCH   1  12
BRANCH   6  22
ATOM     22  O   UNL     1     121.619 120.450 146.919  1.00  0.00    -0.492 OA
ATOM     23  C   UNL     1     120.815 119.294 147.125  1.00  0.00     0.278 C 
ENDBRANCH   6  22
BRANCH   8  24
ATOM     24  O   UNL     1     120.163 123.633 143.437  1.00  0.00    -0.493 OA
ATOM     25  C   UNL     1     119.308 123.367 142.329  1.00  0.00     0.278 C 
ENDBRANCH   8  24
BRANCH   7  26
ATOM     26  O   UNL     1     119.647 122.250 145.904  1.00  0.00    -0.490 OA
ATOM     27  C   UNL     1     118.366 121.696 145.615  1.00  0.00     0.278 C 
ENDBRANCH   7  26
TORSDOF 6
ENDMDL
MODEL 4
REMARK VINA RESULT:    -4.465     19.564     22.488
REMARK INTER + INTRA:          -6.585
REMARK INTER:                  -6.048
REMARK INTRA:                  -0.538
REMARK UNBOUND:                -0.554
REMARK SMILES COc1ccc(-c2cc(=O)c3c(OC)c(OC)c(OC)cc3o2)cc1OC
REMARK SMILES IDX 7 1 8 2 9 3 10 4 11 5 12 6 15 7 18 8 21 9 22 10 23 11 6 12
REMARK SMILES IDX 3 13 25 14 4 15 24 16 5 17 2 18 1 19 26 20 27 21 13 22 14 23
REMARK SMILES IDX 19 24 20 25 16 26 17 27
REMARK H PARENT
REMARK Flexibility Score: inf
ROOT
ATOM      1  C   UNL     1     136.452 137.020 134.161  1.00  0.00     0.138 A 
ATOM      2  C   UNL     1     137.460 136.772 135.104  1.00  0.00     0.100 A 
ATOM      3  C   UNL     1     137.207 137.003 136.456  1.00  0.00     0.197 A 
ATOM      4  O   UNL     1     138.125 136.771 137.289  1.00  0.00    -0.289 OA
ATOM      5  C   UNL     1     135.943 137.492 136.861  1.00  0.00     0.111 A 
ATOM      6  C   UNL     1     135.605 137.743 138.216  1.00  0.00     0.179 A 
ATOM      7  C   UNL     1     134.314 138.250 138.539  1.00  0.00     0.204 A 
ATOM      8  C   UNL     1     133.376 138.494 137.499  1.00  0.00     0.168 A 
ATOM      9  C   UNL     1     133.733 138.225 136.169  1.00  0.00     0.098 A 
ATOM     10  C   UNL     1     134.992 137.732 135.849  1.00  0.00     0.146 A 
ATOM     11  O   UNL     1     135.279 137.492 134.573  1.00  0.00    -0.456 OA
ENDROOT
BRANCH   1  12
ATOM     12  C   UNL     1     136.658 136.783 132.708  1.00  0.00     0.021 A 
ATOM     13  C   UNL     1     137.065 136.394 129.940  1.00  0.00     0.160 A 
ATOM     14  C   UNL     1     136.157 135.580 130.634  1.00  0.00     0.161 A 
ATOM     15  C   UNL     1     137.759 137.405 130.630  1.00  0.00     0.051 A 
ATOM     16  C   UNL     1     135.952 135.782 132.015  1.00  0.00     0.062 A 
ATOM     17  C   UNL     1     137.552 137.597 131.997  1.00  0.00     0.016 A 
BRANCH  13  18
ATOM     18  O   UNL     1     137.248 136.169 128.567  1.00  0.00    -0.493 OA
ATOM     19  C   UNL     1     136.529 136.839 127.535  1.00  0.00     0.278 C 
ENDBRANCH  13  18
BRANCH  14  20
ATOM     20  O   UNL     1     135.473 134.586 129.917  1.00  0.00    -0.493 OA
ATOM     21  C   UNL     1     134.115 134.680 129.495  1.00  0.00     0.278 C 
ENDBRANCH  14  20
ENDBRANCH   1  12
BRANCH   6  22
ATOM     22  O   UNL     1     136.585 137.467 139.195  1.00  0.00    -0.492 OA
ATOM     23  C   UNL     1     136.629 136.367 140.097  1.00  0.00     0.278 C 
ENDBRANCH   6  22
BRANCH   8  24
ATOM     24  O   UNL     1     132.103 139.001 137.804  1.00  0.00    -0.493 OA
ATOM     25  C   UNL     1     130.882 138.567 137.215  1.00  0.00     0.278 C 
ENDBRANCH   8  24
BRANCH   7  26
ATOM     26  O   UNL     1     134.013 138.493 139.893  1.00  0.00    -0.490 OA
ATOM     27  C   UNL     1     133.273 137.659 140.781  1.00  0.00     0.278 C 
ENDBRANCH   7  26
TORSDOF 6
ENDMDL
MODEL 5
REMARK VINA RESULT:    -4.455      8.334     12.342
REMARK INTER + INTRA:          -6.571
REMARK INTER:                  -5.922
REMARK INTRA:                  -0.649
REMARK UNBOUND:                -0.554
REMARK SMILES COc1ccc(-c2cc(=O)c3c(OC)c(OC)c(OC)cc3o2)cc1OC
REMARK SMILES IDX 7 1 8 2 9 3 10 4 11 5 12 6 15 7 18 8 21 9 22 10 23 11 6 12
REMARK SMILES IDX 3 13 25 14 4 15 24 16 5 17 2 18 1 19 26 20 27 21 13 22 14 23
REMARK SMILES IDX 19 24 20 25 16 26 17 27
REMARK H PARENT
REMARK Flexibility Score: inf
ROOT
ATOM      1  C   UNL     1     122.224 124.552 134.006  1.00  0.00     0.138 A 
ATOM      2  C   UNL     1     120.919 124.858 133.593  1.00  0.00     0.100 A 
ATOM      3  C   UNL     1     120.690 125.234 132.270  1.00  0.00     0.197 A 
ATOM      4  O   UNL     1     119.509 125.504 131.917  1.00  0.00    -0.289 OA
ATOM      5  C   UNL     1     121.772 125.312 131.362  1.00  0.00     0.111 A 
ATOM      6  C   UNL     1     121.618 125.677 130.000  1.00  0.00     0.179 A 
ATOM      7  C   UNL     1     122.763 125.746 129.155  1.00  0.00     0.204 A 
ATOM      8  C   UNL     1     124.046 125.442 129.686  1.00  0.00     0.168 A 
ATOM      9  C   UNL     1     124.166 125.072 131.034  1.00  0.00     0.098 A 
ATOM     10  C   UNL     1     123.054 125.005 131.863  1.00  0.00     0.146 A 
ATOM     11  O   UNL     1     123.222 124.647 133.132  1.00  0.00    -0.456 OA
ENDROOT
BRANCH   1  12
ATOM     12  C   UNL     1     122.531 124.134 135.399  1.00  0.00     0.021 A 
ATOM     13  C   UNL     1     123.066 123.376 138.067  1.00  0.00     0.160 A 
ATOM     14  C   UNL     1     124.108 123.410 137.128  1.00  0.00     0.161 A 
ATOM     15  C   UNL     1     121.763 123.730 137.671  1.00  0.00     0.051 A 
ATOM     16  C   UNL     1     123.837 123.795 135.799  1.00  0.00     0.062 A 
ATOM     17  C   UNL     1     121.503 124.108 136.353  1.00  0.00     0.016 A 
BRANCH  13  18
ATOM     18  O   UNL     1     123.365 122.988 139.383  1.00  0.00    -0.493 OA
ATOM     19  C   UNL     1     122.436 123.012 140.464  1.00  0.00     0.278 C 
ENDBRANCH  13  18
BRANCH  14  20
ATOM     20  O   UNL     1     125.399 123.060 137.555  1.00  0.00    -0.493 OA
ATOM     21  C   UNL     1     126.115 121.911 137.110  1.00  0.00     0.278 C 
ENDBRANCH  14  20
ENDBRANCH   1  12
BRANCH   6  22
ATOM     22  O   UNL     1     120.312 125.955 129.542  1.00  0.00    -0.492 OA
ATOM     23  C   UNL     1     119.544 125.215 128.598  1.00  0.00     0.278 C 
ENDBRANCH   6  22
BRANCH   8  24
ATOM     24  O   UNL     1     125.182 125.515 128.864  1.00  0.00    -0.493 OA
ATOM     25  C   UNL     1     126.123 126.583 128.856  1.00  0.00     0.278 C 
ENDBRANCH   8  24
BRANCH   7  26
ATOM     26  O   UNL     1     122.576 126.117 127.809  1.00  0.00    -0.490 OA
ATOM     27  C   UNL     1     122.634 127.429 127.255  1.00  0.00     0.278 C 
ENDBRANCH   7  26
TORSDOF 6
ENDMDL
MODEL 6
REMARK VINA RESULT:    -4.451      2.040      7.919
REMARK INTER + INTRA:          -6.566
REMARK INTER:                  -6.016
REMARK INTRA:                  -0.550
REMARK UNBOUND:                -0.554
REMARK SMILES COc1ccc(-c2cc(=O)c3c(OC)c(OC)c(OC)cc3o2)cc1OC
REMARK SMILES IDX 7 1 8 2 9 3 10 4 11 5 12 6 15 7 18 8 21 9 22 10 23 11 6 12
REMARK SMILES IDX 3 13 25 14 4 15 24 16 5 17 2 18 1 19 26 20 27 21 13 22 14 23
REMARK SMILES IDX 19 24 20 25 16 26 17 27
REMARK H PARENT
REMARK Flexibility Score: inf
ROOT
ATOM      1  C   UNL     1     124.684 121.499 141.920  1.00  0.00     0.138 A 
ATOM      2  C   UNL     1     125.267 120.776 142.971  1.00  0.00     0.100 A 
ATOM      3  C   UNL     1     124.589 120.665 144.185  1.00  0.00     0.197 A 
ATOM      4  O   UNL     1     125.128 120.008 145.117  1.00  0.00    -0.289 OA
ATOM      5  C   UNL     1     123.329 121.287 144.348  1.00  0.00     0.111 A 
ATOM      6  C   UNL     1     122.575 121.212 145.547  1.00  0.00     0.179 A 
ATOM      7  C   UNL     1     121.320 121.881 145.634  1.00  0.00     0.204 A 
ATOM      8  C   UNL     1     120.837 122.612 144.515  1.00  0.00     0.168 A 
ATOM      9  C   UNL     1     121.598 122.659 143.338  1.00  0.00     0.098 A 
ATOM     10  C   UNL     1     122.823 122.010 143.248  1.00  0.00     0.146 A 
ATOM     11  O   UNL     1     123.504 122.084 142.109  1.00  0.00    -0.456 OA
ENDROOT
BRANCH   1  12
ATOM     12  C   UNL     1     125.351 121.644 140.600  1.00  0.00     0.021 A 
ATOM     13  C   UNL     1     126.674 121.930 138.120  1.00  0.00     0.160 A 
ATOM     14  C   UNL     1     125.313 122.254 138.228  1.00  0.00     0.161 A 
ATOM     15  C   UNL     1     127.370 121.473 139.255  1.00  0.00     0.051 A 
ATOM     16  C   UNL     1     124.658 122.116 139.469  1.00  0.00     0.062 A 
ATOM     17  C   UNL     1     126.715 121.338 140.479  1.00  0.00     0.016 A 
BRANCH  13  18
ATOM     18  O   UNL     1     127.299 122.076 136.872  1.00  0.00    -0.493 OA
ATOM     19  C   UNL     1     128.332 123.017 136.590  1.00  0.00     0.278 C 
ENDBRANCH  13  18
BRANCH  14  20
ATOM     20  O   UNL     1     124.648 122.714 137.080  1.00  0.00    -0.493 OA
ATOM     21  C   UNL     1     123.276 123.096 137.039  1.00  0.00     0.278 C 
ENDBRANCH  14  20
ENDBRANCH   1  12
BRANCH   6  22
ATOM     22  O   UNL     1     123.116 120.460 146.612  1.00  0.00    -0.492 OA
ATOM     23  C   UNL     1     122.649 119.216 147.124  1.00  0.00     0.278 C 
ENDBRANCH   6  22
BRANCH   8  24
ATOM     24  O   UNL     1     119.605 123.282 144.592  1.00  0.00    -0.493 OA
ATOM     25  C   UNL     1     119.121 124.224 143.640  1.00  0.00     0.278 C 
ENDBRANCH   8  24
BRANCH   7  26
ATOM     26  O   UNL     1     120.600 121.791 146.840  1.00  0.00    -0.490 OA
ATOM     27  C   UNL     1     119.432 121.015 147.098  1.00  0.00     0.278 C 
ENDBRANCH   7  26
TORSDOF 6
ENDMDL
MODEL 7
REMARK VINA RESULT:    -4.415      6.907     10.919
REMARK INTER + INTRA:          -6.518
REMARK INTER:                  -5.984
REMARK INTRA:                  -0.534
REMARK UNBOUND:                -0.554
REMARK SMILES COc1ccc(-c2cc(=O)c3c(OC)c(OC)c(OC)cc3o2)cc1OC
REMARK SMILES IDX 7 1 8 2 9 3 10 4 11 5 12 6 15 7 18 8 21 9 22 10 23 11 6 12
REMARK SMILES IDX 3 13 25 14 4 15 24 16 5 17 2 18 1 19 26 20 27 21 13 22 14 23
REMARK SMILES IDX 19 24 20 25 16 26 17 27
REMARK H PARENT
REMARK Flexibility Score: inf
ROOT
ATOM      1  C   UNL     1     122.749 123.592 136.010  1.00  0.00     0.138 A 
ATOM      2  C   UNL     1     121.379 123.769 136.254  1.00  0.00     0.100 A 
ATOM      3  C   UNL     1     120.572 124.325 135.262  1.00  0.00     0.197 A 
ATOM      4  O   UNL     1     119.342 124.474 135.500  1.00  0.00    -0.289 OA
ATOM      5  C   UNL     1     121.141 124.712 134.026  1.00  0.00     0.111 A 
ATOM      6  C   UNL     1     120.385 125.275 132.965  1.00  0.00     0.179 A 
ATOM      7  C   UNL     1     121.038 125.652 131.757  1.00  0.00     0.204 A 
ATOM      8  C   UNL     1     122.440 125.454 131.627  1.00  0.00     0.168 A 
ATOM      9  C   UNL     1     123.159 124.884 132.687  1.00  0.00     0.098 A 
ATOM     10  C   UNL     1     122.528 124.516 133.868  1.00  0.00     0.146 A 
ATOM     11  O   UNL     1     123.256 123.978 134.842  1.00  0.00    -0.456 OA
ENDROOT
BRANCH   1  12
ATOM     12  C   UNL     1     123.658 122.995 137.022  1.00  0.00     0.021 A 
ATOM     13  C   UNL     1     125.391 121.808 138.911  1.00  0.00     0.160 A 
ATOM     14  C   UNL     1     124.455 122.768 139.327  1.00  0.00     0.161 A 
ATOM     15  C   UNL     1     125.450 121.440 137.555  1.00  0.00     0.051 A 
ATOM     16  C   UNL     1     123.588 123.353 138.382  1.00  0.00     0.062 A 
ATOM     17  C   UNL     1     124.590 122.025 136.625  1.00  0.00     0.016 A 
BRANCH  13  18
ATOM     18  O   UNL     1     126.242 121.244 139.875  1.00  0.00    -0.493 OA
ATOM     19  C   UNL     1     127.335 120.379 139.580  1.00  0.00     0.278 C 
ENDBRANCH  13  18
BRANCH  14  20
ATOM     20  O   UNL     1     124.414 123.109 140.689  1.00  0.00    -0.493 OA
ATOM     21  C   UNL     1     123.421 122.660 141.606  1.00  0.00     0.278 C 
ENDBRANCH  14  20
ENDBRANCH   1  12
BRANCH   6  22
ATOM     22  O   UNL     1     118.997 125.432 133.165  1.00  0.00    -0.492 OA
ATOM     23  C   UNL     1     118.261 126.648 133.251  1.00  0.00     0.278 C 
ENDBRANCH   6  22
BRANCH   8  24
ATOM     24  O   UNL     1     123.096 125.830 130.443  1.00  0.00    -0.493 OA
ATOM     25  C   UNL     1     124.263 125.206 129.917  1.00  0.00     0.278 C 
ENDBRANCH   8  24
BRANCH   7  26
ATOM     26  O   UNL     1     120.260 126.213 130.726  1.00  0.00    -0.490 OA
ATOM     27  C   UNL     1     119.615 125.528 129.655  1.00  0.00     0.278 C 
ENDBRANCH   7  26
TORSDOF 6
ENDMDL
MODEL 8
REMARK VINA RESULT:    -4.396      2.876      6.846
REMARK INTER + INTRA:          -6.492
REMARK INTER:                  -5.851
REMARK INTRA:                  -0.640
REMARK UNBOUND:                -0.554
REMARK SMILES COc1ccc(-c2cc(=O)c3c(OC)c(OC)c(OC)cc3o2)cc1OC
REMARK SMILES IDX 7 1 8 2 9 3 10 4 11 5 12 6 15 7 18 8 21 9 22 10 23 11 6 12
REMARK SMILES IDX 3 13 25 14 4 15 24 16 5 17 2 18 1 19 26 20 27 21 13 22 14 23
REMARK SMILES IDX 19 24 20 25 16 26 17 27
REMARK H PARENT
REMARK Flexibility Score: inf
ROOT
ATOM      1  C   UNL     1     125.265 121.832 139.868  1.00  0.00     0.138 A 
ATOM      2  C   UNL     1     126.557 121.291 139.799  1.00  0.00     0.100 A 
ATOM      3  C   UNL     1     127.168 120.825 140.963  1.00  0.00     0.197 A 
ATOM      4  O   UNL     1     128.330 120.340 140.880  1.00  0.00    -0.289 OA
ATOM      5  C   UNL     1     126.486 120.910 142.199  1.00  0.00     0.111 A 
ATOM      6  C   UNL     1     127.036 120.450 143.423  1.00  0.00     0.179 A 
ATOM      7  C   UNL     1     126.289 120.586 144.628  1.00  0.00     0.204 A 
ATOM      8  C   UNL     1     124.996 121.177 144.588  1.00  0.00     0.168 A 
ATOM      9  C   UNL     1     124.473 121.611 143.361  1.00  0.00     0.098 A 
ATOM     10  C   UNL     1     125.198 121.483 142.184  1.00  0.00     0.146 A 
ATOM     11  O   UNL     1     124.655 121.909 141.048  1.00  0.00    -0.456 OA
ENDROOT
BRANCH   1  12
ATOM     12  C   UNL     1     124.556 122.334 138.662  1.00  0.00     0.021 A 
ATOM     13  C   UNL     1     123.261 123.274 136.335  1.00  0.00     0.160 A 
ATOM     14  C   UNL     1     122.921 123.807 137.588  1.00  0.00     0.161 A 
ATOM     15  C   UNL     1     124.253 122.281 136.250  1.00  0.00     0.051 A 
ATOM     16  C   UNL     1     123.574 123.339 138.746  1.00  0.00     0.062 A 
ATOM     17  C   UNL     1     124.894 121.821 137.401  1.00  0.00     0.016 A 
BRANCH  13  18
ATOM     18  O   UNL     1     122.592 123.759 135.200  1.00  0.00    -0.493 OA
ATOM     19  C   UNL     1     123.127 124.725 134.298  1.00  0.00     0.278 C 
ENDBRANCH  13  18
BRANCH  14  20
ATOM     20  O   UNL     1     121.933 124.803 137.640  1.00  0.00    -0.493 OA
ATOM     21  C   UNL     1     122.185 126.182 137.897  1.00  0.00     0.278 C 
ENDBRANCH  14  20
ENDBRANCH   1  12
BRANCH   6  22
ATOM     22  O   UNL     1     128.321 119.865 143.383  1.00  0.00    -0.492 OA
ATOM     23  C   UNL     1     129.528 120.376 143.939  1.00  0.00     0.278 C 
ENDBRANCH   6  22
BRANCH   8  24
ATOM     24  O   UNL     1     124.254 121.324 145.770  1.00  0.00    -0.493 OA
ATOM     25  C   UNL     1     123.069 120.602 146.092  1.00  0.00     0.278 C 
ENDBRANCH   8  24
BRANCH   7  26
ATOM     26  O   UNL     1     126.866 120.124 145.826  1.00  0.00    -0.490 OA
ATOM     27  C   UNL     1     126.638 118.875 146.474  1.00  0.00     0.278 C 
ENDBRANCH   7  26
TORSDOF 6
ENDMDL
