MODEL 1
REMARK VINA RESULT:    -5.447      0.000      0.000
REMARK INTER + INTRA:          -8.055
REMARK INTER:                  -8.313
REMARK INTRA:                   0.258
REMARK UNBOUND:                 0.258
REMARK SMILES CC1=CCC[C@@H](C)C(=O)C[C@@H](C(C)C)C(=O)C1
REMARK SMILES IDX 8 1 9 2 6 3 7 4 5 5 4 6 3 7 2 8 1 9 10 11 11 12 15 13 16 14
REMARK SMILES IDX 17 15 12 17 13 18 14 19
REMARK H PARENT
REMARK Flexibility Score: 70.00
ROOT
ATOM      1  C   UNL     1     -14.043 -32.697  30.407  1.00  0.00     0.136 C 
ATOM      2  O   UNL     1     -14.747 -31.723  30.181  1.00  0.00    -0.299 OA
ENDROOT
BRANCH   1   3
ATOM      3  C   UNL     1     -13.932 -33.233  31.839  1.00  0.00     0.053 C 
ATOM      4  C   UNL     1     -14.798 -32.399  32.803  1.00  0.00     0.016 C 
BRANCH   3   5
ATOM      5  C   UNL     1     -12.469 -33.272  32.367  1.00  0.00     0.015 C 
BRANCH   5   6
ATOM      6  C   UNL     1     -11.498 -34.208  31.616  1.00  0.00     0.028 C 
BRANCH   6   7
ATOM      7  C   UNL     1     -11.899 -35.662  31.715  1.00  0.00    -0.028 C 
ATOM      8  C   UNL     1     -12.238 -36.448  30.666  1.00  0.00    -0.070 CG0
ATOM      9  C   UNL     1     -12.676 -37.861  30.950  1.00  0.00     0.039 C 
ATOM     10  G   UNL     1     -12.191 -35.969  29.222  1.00  0.00     0.000 G0
ENDBRANCH   6   7
ENDBRANCH   5   6
ENDBRANCH   3   5
ENDBRANCH   1   3
BRANCH   1  11
ATOM     11  C   UNL     1     -13.264 -33.279  29.245  1.00  0.00     0.087 C 
BRANCH  11  12
ATOM     12  C   UNL     1     -14.078 -34.268  28.357  1.00  0.00     0.066 C 
BRANCH  12  13
ATOM     13  C   UNL     1     -13.533 -35.675  28.576  1.00  0.00     0.140 C 
ATOM     14  O   UNL     1     -14.208 -36.625  28.206  1.00  0.00    -0.299 OA
BRANCH  13  15
ATOM     15  C   UNL     1     -12.188 -35.972  29.211  1.00  0.00     0.106 CG0
ATOM     16  G   UNL     1     -12.236 -36.440  30.658  1.00  0.00     0.000 G0
ENDBRANCH  13  15
ENDBRANCH  12  13
BRANCH  12  17
ATOM     17  C   UNL     1     -14.052 -33.881  26.847  1.00  0.00    -0.006 C 
ATOM     18  C   UNL     1     -14.666 -32.487  26.617  1.00  0.00     0.008 C 
ATOM     19  C   UNL     1     -12.618 -33.892  26.287  1.00  0.00     0.008 C 
ENDBRANCH  12  17
ENDBRANCH  11  12
ENDBRANCH   1  11
TORSDOF 1
ENDMDL
MODEL 2
REMARK VINA RESULT:    -5.445      1.864      4.850
REMARK INTER + INTRA:          -8.053
REMARK INTER:                  -7.742
REMARK INTRA:                  -0.311
REMARK UNBOUND:                 0.258
REMARK SMILES CC1=CCC[C@@H](C)C(=O)C[C@@H](C(C)C)C(=O)C1
REMARK SMILES IDX 8 1 9 2 6 3 7 4 5 5 4 6 3 7 2 8 1 9 10 11 11 12 15 13 16 14
REMARK SMILES IDX 17 15 12 17 13 18 14 19
REMARK H PARENT
REMARK Flexibility Score: 70.00
ROOT
ATOM      1  C   UNL     1     -11.923 -35.080  31.338  1.00  0.00     0.136 C 
ATOM      2  O   UNL     1     -10.725 -35.324  31.389  1.00  0.00    -0.299 OA
ENDROOT
BRANCH   1   3
ATOM      3  C   UNL     1     -12.898 -36.178  30.897  1.00  0.00     0.053 C 
ATOM      4  C   UNL     1     -12.600 -37.501  31.627  1.00  0.00     0.016 C 
BRANCH   3   5
ATOM      5  C   UNL     1     -12.887 -36.425  29.361  1.00  0.00     0.015 C 
BRANCH   5   6
ATOM      6  C   UNL     1     -12.170 -35.361  28.503  1.00  0.00     0.028 C 
BRANCH   6   7
ATOM      7  C   UNL     1     -13.121 -34.601  27.607  1.00  0.00    -0.028 C 
ATOM      8  C   UNL     1     -13.568 -33.343  27.838  1.00  0.00    -0.070 CG0
ATOM      9  C   UNL     1     -14.565 -32.756  26.873  1.00  0.00     0.039 C 
ATOM     10  G   UNL     1     -13.105 -32.503  29.019  1.00  0.00     0.000 G0
ENDBRANCH   6   7
ENDBRANCH   5   6
ENDBRANCH   3   5
ENDBRANCH   1   3
BRANCH   1  11
ATOM     11  C   UNL     1     -12.360 -33.666  31.659  1.00  0.00     0.087 C 
BRANCH  11  12
ATOM     12  C   UNL     1     -13.879 -33.397  31.438  1.00  0.00     0.066 C 
BRANCH  12  13
ATOM     13  C   UNL     1     -14.039 -32.485  30.228  1.00  0.00     0.140 C 
ATOM     14  O   UNL     1     -14.959 -31.681  30.221  1.00  0.00    -0.299 OA
BRANCH  13  15
ATOM     15  C   UNL     1     -13.108 -32.498  29.029  1.00  0.00     0.106 CG0
ATOM     16  G   UNL     1     -13.574 -33.336  27.847  1.00  0.00     0.000 G0
ENDBRANCH  13  15
ENDBRANCH  12  13
BRANCH  12  17
ATOM     17  C   UNL     1     -14.571 -32.791  32.698  1.00  0.00    -0.006 C 
ATOM     18  C   UNL     1     -15.558 -33.791  33.328  1.00  0.00     0.008 C 
ATOM     19  C   UNL     1     -13.540 -32.372  33.760  1.00  0.00     0.008 C 
ENDBRANCH  12  17
ENDBRANCH  11  12
ENDBRANCH   1  11
TORSDOF 1
ENDMDL
MODEL 3
REMARK VINA RESULT:    -5.050      2.071      2.904
REMARK INTER + INTRA:          -7.449
REMARK INTER:                  -7.771
REMARK INTRA:                   0.322
REMARK UNBOUND:                 0.258
REMARK SMILES CC1=CCC[C@@H](C)C(=O)C[C@@H](C(C)C)C(=O)C1
REMARK SMILES IDX 8 1 9 2 6 3 7 4 5 5 4 6 3 7 2 8 1 9 10 11 11 12 15 13 16 14
REMARK SMILES IDX 17 15 12 17 13 18 14 19
REMARK H PARENT
REMARK Flexibility Score: 70.00
ROOT
ATOM      1  C   UNL     1     -10.848 -33.752  29.918  1.00  0.00     0.136 C 
ATOM      2  O   UNL     1      -9.936 -34.442  29.483  1.00  0.00    -0.299 OA
ENDROOT
BRANCH   1   3
ATOM      3  C   UNL     1     -11.251 -33.875  31.392  1.00  0.00     0.053 C 
ATOM      4  C   UNL     1     -10.055 -33.572  32.313  1.00  0.00     0.016 C 
BRANCH   3   5
ATOM      5  C   UNL     1     -11.835 -35.272  31.752  1.00  0.00     0.015 C 
BRANCH   5   6
ATOM      6  C   UNL     1     -13.288 -35.541  31.303  1.00  0.00     0.028 C 
BRANCH   6   7
ATOM      7  C   UNL     1     -13.400 -36.736  30.385  1.00  0.00    -0.028 C 
ATOM      8  C   UNL     1     -13.912 -36.707  29.132  1.00  0.00    -0.070 CG0
ATOM      9  C   UNL     1     -14.009 -38.006  28.374  1.00  0.00     0.039 C 
ATOM     10  G   UNL     1     -14.386 -35.426  28.459  1.00  0.00     0.000 G0
ENDBRANCH   6   7
ENDBRANCH   5   6
ENDBRANCH   3   5
ENDBRANCH   1   3
BRANCH   1  11
ATOM     11  C   UNL     1     -11.571 -32.854  28.936  1.00  0.00     0.087 C 
BRANCH  11  12
ATOM     12  C   UNL     1     -13.103 -33.120  28.828  1.00  0.00     0.066 C 
BRANCH  12  13
ATOM     13  C   UNL     1     -13.314 -34.432  28.082  1.00  0.00     0.140 C 
ATOM     14  O   UNL     1     -12.563 -34.704  27.156  1.00  0.00    -0.299 OA
BRANCH  13  15
ATOM     15  C   UNL     1     -14.394 -35.439  28.430  1.00  0.00     0.106 CG0
ATOM     16  G   UNL     1     -13.910 -36.707  29.118  1.00  0.00     0.000 G0
ENDBRANCH  13  15
ENDBRANCH  12  13
BRANCH  12  17
ATOM     17  C   UNL     1     -13.869 -31.949  28.141  1.00  0.00    -0.006 C 
ATOM     18  C   UNL     1     -14.641 -32.438  26.901  1.00  0.00     0.008 C 
ATOM     19  C   UNL     1     -14.857 -31.275  29.109  1.00  0.00     0.008 C 
ENDBRANCH  12  17
ENDBRANCH  11  12
ENDBRANCH   1  11
TORSDOF 1
ENDMDL
MODEL 4
REMARK VINA RESULT:    -4.786      1.963      3.497
REMARK INTER + INTRA:          -7.046
REMARK INTER:                  -7.076
REMARK INTRA:                   0.029
REMARK UNBOUND:                 0.258
REMARK SMILES CC1=CCC[C@@H](C)C(=O)C[C@@H](C(C)C)C(=O)C1
REMARK SMILES IDX 8 1 9 2 6 3 7 4 5 5 4 6 3 7 2 8 1 9 10 11 11 12 15 13 16 14
REMARK SMILES IDX 17 15 12 17 13 18 14 19
REMARK H PARENT
REMARK Flexibility Score: 70.00
ROOT
ATOM      1  C   UNL     1     -13.576 -36.314  29.144  1.00  0.00     0.136 C 
ATOM      2  O   UNL     1     -13.647 -37.254  28.365  1.00  0.00    -0.299 OA
ENDROOT
BRANCH   1   3
ATOM      3  C   UNL     1     -13.553 -36.585  30.653  1.00  0.00     0.053 C 
ATOM      4  C   UNL     1     -13.953 -35.324  31.441  1.00  0.00     0.016 C 
BRANCH   3   5
ATOM      5  C   UNL     1     -12.173 -37.093  31.163  1.00  0.00     0.015 C 
BRANCH   5   6
ATOM      6  C   UNL     1     -10.936 -36.300  30.689  1.00  0.00     0.028 C 
BRANCH   6   7
ATOM      7  C   UNL     1     -10.585 -35.163  31.619  1.00  0.00    -0.028 C 
ATOM      8  C   UNL     1     -10.273 -33.905  31.226  1.00  0.00    -0.070 CG0
ATOM      9  C   UNL     1      -9.883 -32.906  32.284  1.00  0.00     0.039 C 
ATOM     10  G   UNL     1     -10.304 -33.460  29.771  1.00  0.00     0.000 G0
ENDBRANCH   6   7
ENDBRANCH   5   6
ENDBRANCH   3   5
ENDBRANCH   1   3
BRANCH   1  11
ATOM     11  C   UNL     1     -13.579 -34.919  28.555  1.00  0.00     0.087 C 
BRANCH  11  12
ATOM     12  C   UNL     1     -12.178 -34.411  28.098  1.00  0.00     0.066 C 
BRANCH  12  13
ATOM     13  C   UNL     1     -11.679 -33.389  29.112  1.00  0.00     0.140 C 
ATOM     14  O   UNL     1     -12.425 -32.476  29.435  1.00  0.00    -0.299 OA
BRANCH  13  15
ATOM     15  C   UNL     1     -10.311 -33.446  29.767  1.00  0.00     0.106 CG0
ATOM     16  G   UNL     1     -10.298 -33.903  31.218  1.00  0.00     0.000 G0
ENDBRANCH  13  15
ENDBRANCH  12  13
BRANCH  12  17
ATOM     17  C   UNL     1     -12.197 -33.814  26.657  1.00  0.00    -0.006 C 
ATOM     18  C   UNL     1     -11.279 -34.610  25.710  1.00  0.00     0.008 C 
ATOM     19  C   UNL     1     -13.621 -33.797  26.072  1.00  0.00     0.008 C 
ENDBRANCH  12  17
ENDBRANCH  11  12
ENDBRANCH   1  11
TORSDOF 1
ENDMDL
MODEL 5
REMARK VINA RESULT:    -4.774      2.034      3.919
REMARK INTER + INTRA:          -7.027
REMARK INTER:                  -7.672
REMARK INTRA:                   0.645
REMARK UNBOUND:                 0.258
REMARK SMILES CC1=CCC[C@@H](C)C(=O)C[C@@H](C(C)C)C(=O)C1
REMARK SMILES IDX 8 1 9 2 6 3 7 4 5 5 4 6 3 7 2 8 1 9 10 11 11 12 15 13 16 14
REMARK SMILES IDX 17 15 12 17 13 18 14 19
REMARK H PARENT
REMARK Flexibility Score: 70.00
ROOT
ATOM      1  C   UNL     1     -13.217 -36.777  29.235  1.00  0.00     0.136 C 
ATOM      2  O   UNL     1     -13.618 -37.835  28.771  1.00  0.00    -0.299 OA
ENDROOT
BRANCH   1   3
ATOM      3  C   UNL     1     -12.688 -36.736  30.674  1.00  0.00     0.053 C 
ATOM      4  C   UNL     1     -12.500 -38.161  31.228  1.00  0.00     0.016 C 
BRANCH   3   5
ATOM      5  C   UNL     1     -13.602 -35.926  31.639  1.00  0.00     0.015 C 
BRANCH   5   6
ATOM      6  C   UNL     1     -13.229 -34.442  31.847  1.00  0.00     0.028 C 
BRANCH   6   7
ATOM      7  C   UNL     1     -13.997 -33.517  30.931  1.00  0.00    -0.028 C 
ATOM      8  C   UNL     1     -13.445 -32.754  29.958  1.00  0.00    -0.070 CG0
ATOM      9  C   UNL     1     -14.350 -31.837  29.177  1.00  0.00     0.039 C 
ATOM     10  G   UNL     1     -11.962 -32.786  29.620  1.00  0.00     0.000 G0
ENDBRANCH   6   7
ENDBRANCH   5   6
ENDBRANCH   3   5
ENDBRANCH   1   3
BRANCH   1  11
ATOM     11  C   UNL     1     -13.332 -35.544  28.362  1.00  0.00     0.087 C 
BRANCH  11  12
ATOM     12  C   UNL     1     -11.964 -34.919  27.950  1.00  0.00     0.066 C 
BRANCH  12  13
ATOM     13  C   UNL     1     -11.416 -34.133  29.134  1.00  0.00     0.140 C 
ATOM     14  O   UNL     1     -10.468 -34.596  29.753  1.00  0.00    -0.299 OA
BRANCH  13  15
ATOM     15  C   UNL     1     -11.962 -32.791  29.585  1.00  0.00     0.106 CG0
ATOM     16  G   UNL     1     -13.438 -32.776  29.955  1.00  0.00     0.000 G0
ENDBRANCH  13  15
ENDBRANCH  12  13
BRANCH  12  17
ATOM     17  C   UNL     1     -12.073 -34.023  26.678  1.00  0.00    -0.006 C 
ATOM     18  C   UNL     1     -11.228 -34.589  25.522  1.00  0.00     0.008 C 
ATOM     19  C   UNL     1     -13.532 -33.887  26.207  1.00  0.00     0.008 C 
ENDBRANCH  12  17
ENDBRANCH  11  12
ENDBRANCH   1  11
TORSDOF 1
ENDMDL
MODEL 6
REMARK VINA RESULT:    -4.759      1.517      3.808
REMARK INTER + INTRA:          -7.005
REMARK INTER:                  -7.117
REMARK INTRA:                   0.112
REMARK UNBOUND:                 0.258
REMARK SMILES CC1=CCC[C@@H](C)C(=O)C[C@@H](C(C)C)C(=O)C1
REMARK SMILES IDX 8 1 9 2 6 3 7 4 5 5 4 6 3 7 2 8 1 9 10 11 11 12 15 13 16 14
REMARK SMILES IDX 17 15 12 17 13 18 14 19
REMARK H PARENT
REMARK Flexibility Score: 70.00
ROOT
ATOM      1  C   UNL     1     -14.325 -32.397  30.373  1.00  0.00     0.136 C 
ATOM      2  O   UNL     1     -14.849 -31.539  31.070  1.00  0.00    -0.299 OA
ENDROOT
BRANCH   1   3
ATOM      3  C   UNL     1     -14.062 -32.107  28.890  1.00  0.00     0.053 C 
ATOM      4  C   UNL     1     -14.744 -30.795  28.460  1.00  0.00     0.016 C 
BRANCH   3   5
ATOM      5  C   UNL     1     -14.523 -33.258  27.950  1.00  0.00     0.015 C 
BRANCH   5   6
ATOM      6  C   UNL     1     -13.447 -34.296  27.564  1.00  0.00     0.028 C 
BRANCH   6   7
ATOM      7  C   UNL     1     -13.927 -35.719  27.729  1.00  0.00    -0.028 C 
ATOM      8  C   UNL     1     -13.347 -36.647  28.525  1.00  0.00    -0.070 CG0
ATOM      9  C   UNL     1     -13.918 -38.042  28.524  1.00  0.00     0.039 C 
ATOM     10  G   UNL     1     -12.153 -36.343  29.419  1.00  0.00     0.000 G0
ENDBRANCH   6   7
ENDBRANCH   5   6
ENDBRANCH   3   5
ENDBRANCH   1   3
BRANCH   1  11
ATOM     11  C   UNL     1     -14.026 -33.733  31.019  1.00  0.00     0.087 C 
BRANCH  11  12
ATOM     12  C   UNL     1     -12.532 -34.169  30.932  1.00  0.00     0.066 C 
BRANCH  12  13
ATOM     13  C   UNL     1     -12.480 -35.681  30.742  1.00  0.00     0.140 C 
ATOM     14  O   UNL     1     -12.731 -36.397  31.701  1.00  0.00    -0.299 OA
BRANCH  13  15
ATOM     15  C   UNL     1     -12.151 -36.358  29.425  1.00  0.00     0.106 CG0
ATOM     16  G   UNL     1     -13.344 -36.660  28.529  1.00  0.00     0.000 G0
ENDBRANCH  13  15
ENDBRANCH  12  13
BRANCH  12  17
ATOM     17  C   UNL     1     -11.704 -33.727  32.177  1.00  0.00    -0.006 C 
ATOM     18  C   UNL     1     -10.430 -32.968  31.760  1.00  0.00     0.008 C 
ATOM     19  C   UNL     1     -12.532 -32.831  33.116  1.00  0.00     0.008 C 
ENDBRANCH  12  17
ENDBRANCH  11  12
ENDBRANCH   1  11
TORSDOF 1
ENDMDL
MODEL 7
REMARK VINA RESULT:    -4.657      1.949      3.981
REMARK INTER + INTRA:          -6.850
REMARK INTER:                  -7.120
REMARK INTRA:                   0.270
REMARK UNBOUND:                 0.258
REMARK SMILES CC1=CCC[C@@H](C)C(=O)C[C@@H](C(C)C)C(=O)C1
REMARK SMILES IDX 8 1 9 2 6 3 7 4 5 5 4 6 3 7 2 8 1 9 10 11 11 12 15 13 16 14
REMARK SMILES IDX 17 15 12 17 13 18 14 19
REMARK H PARENT
REMARK Flexibility Score: 70.00
ROOT
ATOM      1  C   UNL     1     -13.354 -33.425  31.807  1.00  0.00     0.136 C 
ATOM      2  O   UNL     1     -12.503 -33.484  32.684  1.00  0.00    -0.299 OA
ENDROOT
BRANCH   1   3
ATOM      3  C   UNL     1     -14.225 -32.169  31.684  1.00  0.00     0.053 C 
ATOM      4  C   UNL     1     -15.161 -32.032  32.899  1.00  0.00     0.016 C 
BRANCH   3   5
ATOM      5  C   UNL     1     -15.071 -32.136  30.378  1.00  0.00     0.015 C 
BRANCH   5   6
ATOM      6  C   UNL     1     -14.409 -31.470  29.153  1.00  0.00     0.028 C 
BRANCH   6   7
ATOM      7  C   UNL     1     -14.135 -32.450  28.036  1.00  0.00    -0.028 C 
ATOM      8  C   UNL     1     -13.026 -33.221  27.934  1.00  0.00    -0.070 CG0
ATOM      9  C   UNL     1     -12.883 -34.101  26.719  1.00  0.00     0.039 C 
ATOM     10  G   UNL     1     -11.929 -33.240  28.988  1.00  0.00     0.000 G0
ENDBRANCH   6   7
ENDBRANCH   5   6
ENDBRANCH   3   5
ENDBRANCH   1   3
BRANCH   1  11
ATOM     11  C   UNL     1     -13.533 -34.644  30.926  1.00  0.00     0.087 C 
BRANCH  11  12
ATOM     12  C   UNL     1     -12.208 -35.388  30.581  1.00  0.00     0.066 C 
BRANCH  12  13
ATOM     13  C   UNL     1     -11.489 -34.613  29.483  1.00  0.00     0.140 C 
ATOM     14  O   UNL     1     -10.518 -35.126  28.947  1.00  0.00    -0.299 OA
BRANCH  13  15
ATOM     15  C   UNL     1     -11.919 -33.242  28.995  1.00  0.00     0.106 CG0
ATOM     16  G   UNL     1     -13.018 -33.236  27.942  1.00  0.00     0.000 G0
ENDBRANCH  13  15
ENDBRANCH  12  13
BRANCH  12  17
ATOM     17  C   UNL     1     -12.444 -36.872  30.163  1.00  0.00    -0.006 C 
ATOM     18  C   UNL     1     -12.530 -37.792  31.395  1.00  0.00     0.008 C 
ATOM     19  C   UNL     1     -13.731 -37.027  29.335  1.00  0.00     0.008 C 
ENDBRANCH  12  17
ENDBRANCH  11  12
ENDBRANCH   1  11
TORSDOF 1
ENDMDL
MODEL 8
REMARK VINA RESULT:    -4.575      1.727      2.546
REMARK INTER + INTRA:          -6.725
REMARK INTER:                  -6.885
REMARK INTRA:                   0.160
REMARK UNBOUND:                 0.258
REMARK SMILES CC1=CCC[C@@H](C)C(=O)C[C@@H](C(C)C)C(=O)C1
REMARK SMILES IDX 8 1 9 2 6 3 7 4 5 5 4 6 3 7 2 8 1 9 10 11 11 12 15 13 16 14
REMARK SMILES IDX 17 15 12 17 13 18 14 19
REMARK H PARENT
REMARK Flexibility Score: 70.00
ROOT
ATOM      1  C   UNL     1     -14.341 -32.364  28.270  1.00  0.00     0.136 C 
ATOM      2  O   UNL     1     -14.762 -32.195  27.134  1.00  0.00    -0.299 OA
ENDROOT
BRANCH   1   3
ATOM      3  C   UNL     1     -15.126 -31.794  29.458  1.00  0.00     0.053 C 
ATOM      4  C   UNL     1     -15.687 -30.399  29.125  1.00  0.00     0.016 C 
BRANCH   3   5
ATOM      5  C   UNL     1     -14.284 -31.711  30.764  1.00  0.00     0.015 C 
BRANCH   5   6
ATOM      6  C   UNL     1     -14.559 -32.799  31.824  1.00  0.00     0.028 C 
BRANCH   6   7
ATOM      7  C   UNL     1     -13.405 -33.761  31.981  1.00  0.00    -0.028 C 
ATOM      8  C   UNL     1     -13.201 -34.861  31.218  1.00  0.00    -0.070 CG0
ATOM      9  C   UNL     1     -12.032 -35.751  31.551  1.00  0.00     0.039 C 
ATOM     10  G   UNL     1     -14.094 -35.231  30.043  1.00  0.00     0.000 G0
ENDBRANCH   6   7
ENDBRANCH   5   6
ENDBRANCH   3   5
ENDBRANCH   1   3
BRANCH   1  11
ATOM     11  C   UNL     1     -13.017 -33.083  28.423  1.00  0.00     0.087 C 
BRANCH  11  12
ATOM     12  C   UNL     1     -12.957 -34.475  27.723  1.00  0.00     0.066 C 
BRANCH  12  13
ATOM     13  C   UNL     1     -13.384 -35.540  28.726  1.00  0.00     0.140 C 
ATOM     14  O   UNL     1     -13.125 -36.709  28.480  1.00  0.00    -0.299 OA
BRANCH  13  15
ATOM     15  C   UNL     1     -14.096 -35.236  30.031  1.00  0.00     0.106 CG0
ATOM     16  G   UNL     1     -13.195 -34.864  31.199  1.00  0.00     0.000 G0
ENDBRANCH  13  15
ENDBRANCH  12  13
BRANCH  12  17
ATOM     17  C   UNL     1     -11.548 -34.788  27.131  1.00  0.00    -0.006 C 
ATOM     18  C   UNL     1     -11.375 -34.155  25.737  1.00  0.00     0.008 C 
ATOM     19  C   UNL     1     -10.424 -34.281  28.051  1.00  0.00     0.008 C 
ENDBRANCH  12  17
ENDBRANCH  11  12
ENDBRANCH   1  11
TORSDOF 1
ENDMDL
MODEL 9
REMARK VINA RESULT:    -4.424      1.882      3.726
REMARK INTER + INTRA:          -6.494
REMARK INTER:                  -6.951
REMARK INTRA:                   0.457
REMARK UNBOUND:                 0.258
REMARK SMILES CC1=CCC[C@@H](C)C(=O)C[C@@H](C(C)C)C(=O)C1
REMARK SMILES IDX 8 1 9 2 6 3 7 4 5 5 4 6 3 7 2 8 1 9 10 11 11 12 15 13 16 14
REMARK SMILES IDX 17 15 12 17 13 18 14 19
REMARK H PARENT
REMARK Flexibility Score: 70.00
ROOT
ATOM      1  C   UNL     1     -12.647 -33.865  31.954  1.00  0.00     0.136 C 
ATOM      2  O   UNL     1     -13.097 -32.750  32.176  1.00  0.00    -0.299 OA
ENDROOT
BRANCH   1   3
ATOM      3  C   UNL     1     -11.149 -34.126  32.149  1.00  0.00     0.053 C 
ATOM      4  C   UNL     1     -10.516 -33.040  33.039  1.00  0.00     0.016 C 
BRANCH   3   5
ATOM      5  C   UNL     1     -10.363 -34.216  30.809  1.00  0.00     0.015 C 
BRANCH   5   6
ATOM      6  C   UNL     1     -10.569 -33.050  29.818  1.00  0.00     0.028 C 
BRANCH   6   7
ATOM      7  C   UNL     1     -10.619 -33.512  28.381  1.00  0.00    -0.028 C 
ATOM      8  C   UNL     1     -11.751 -33.816  27.701  1.00  0.00    -0.070 CG0
ATOM      9  C   UNL     1     -11.617 -34.325  26.289  1.00  0.00     0.039 C 
ATOM     10  G   UNL     1     -13.142 -33.661  28.298  1.00  0.00     0.000 G0
ENDBRANCH   6   7
ENDBRANCH   5   6
ENDBRANCH   3   5
ENDBRANCH   1   3
BRANCH   1  11
ATOM     11  C   UNL     1     -13.607 -34.912  31.429  1.00  0.00     0.087 C 
BRANCH  11  12
ATOM     12  C   UNL     1     -13.135 -35.621  30.124  1.00  0.00     0.066 C 
BRANCH  12  13
ATOM     13  C   UNL     1     -13.749 -34.898  28.931  1.00  0.00     0.140 C 
ATOM     14  O   UNL     1     -14.792 -35.331  28.462  1.00  0.00    -0.299 OA
BRANCH  13  15
ATOM     15  C   UNL     1     -13.155 -33.654  28.298  1.00  0.00     0.106 CG0
ATOM     16  G   UNL     1     -11.762 -33.820  27.710  1.00  0.00     0.000 G0
ENDBRANCH  13  15
ENDBRANCH  12  13
BRANCH  12  17
ATOM     17  C   UNL     1     -13.485 -37.141  30.105  1.00  0.00    -0.006 C 
ATOM     18  C   UNL     1     -13.307 -37.738  28.697  1.00  0.00     0.008 C 
ATOM     19  C   UNL     1     -12.613 -37.933  31.096  1.00  0.00     0.008 C 
ENDBRANCH  12  17
ENDBRANCH  11  12
ENDBRANCH   1  11
TORSDOF 1
ENDMDL
