MODEL 1
REMARK VINA RESULT:    -3.621      0.000      0.000
REMARK INTER + INTRA:          -4.356
REMARK INTER:                  -4.256
REMARK INTRA:                  -0.100
REMARK UNBOUND:                -0.100
REMARK SMILES O=C([O-])CCC(=O)[O-]
REMARK SMILES IDX 4 1 2 2 1 3 3 4 5 5 6 6 7 7 8 8
REMARK H PARENT
REMARK Flexibility Score: inf
ROOT
ATOM      1  C   UNL     1      13.699  13.376 162.668  1.00  0.00     0.059 C 
ENDROOT
BRANCH   1   2
ATOM      2  C   UNL     1      13.884  14.749 162.097  1.00  0.00     0.042 C 
ATOM      3  O   UNL     1      13.583  14.981 160.897  1.00  0.00    -0.550 OA
ATOM      4  O   UNL     1      14.350  15.781 162.903  1.00  0.00    -0.550 OA
ENDBRANCH   1   2
BRANCH   1   5
ATOM      5  C   UNL     1      12.444  12.696 162.111  1.00  0.00     0.059 C 
BRANCH   5   6
ATOM      6  C   UNL     1      11.246  12.957 162.973  1.00  0.00     0.042 C 
ATOM      7  O   UNL     1      10.152  13.297 162.451  1.00  0.00    -0.550 OA
ATOM      8  O   UNL     1      11.329  12.785 164.349  1.00  0.00    -0.550 OA
ENDBRANCH   5   6
ENDBRANCH   1   5
TORSDOF 3
ENDMDL
MODEL 2
REMARK VINA RESULT:    -3.603      0.100      3.555
REMARK INTER + INTRA:          -4.335
REMARK INTER:                  -4.236
REMARK INTRA:                  -0.099
REMARK UNBOUND:                -0.100
REMARK SMILES O=C([O-])CCC(=O)[O-]
REMARK SMILES IDX 4 1 2 2 1 3 3 4 5 5 6 6 7 7 8 8
REMARK H PARENT
REMARK Flexibility Score: inf
ROOT
ATOM      1  C   UNL     1      12.445  12.726 162.118  1.00  0.00     0.059 C 
ENDROOT
BRANCH   1   2
ATOM      2  C   UNL     1      11.246  12.934 162.993  1.00  0.00     0.042 C 
ATOM      3  O   UNL     1      10.128  13.200 162.481  1.00  0.00    -0.550 OA
ATOM      4  O   UNL     1      11.358  12.793 164.371  1.00  0.00    -0.550 OA
ENDBRANCH   1   2
BRANCH   1   5
ATOM      5  C   UNL     1      13.688  13.419 162.688  1.00  0.00     0.059 C 
BRANCH   5   6
ATOM      6  C   UNL     1      13.849  14.804 162.138  1.00  0.00     0.042 C 
ATOM      7  O   UNL     1      13.412  15.084 160.991  1.00  0.00    -0.550 OA
ATOM      8  O   UNL     1      14.445  15.793 162.909  1.00  0.00    -0.550 OA
ENDBRANCH   5   6
ENDBRANCH   1   5
TORSDOF 3
ENDMDL
MODEL 3
REMARK VINA RESULT:    -3.603      0.370      3.676
REMARK INTER + INTRA:          -4.334
REMARK INTER:                  -4.200
REMARK INTRA:                  -0.134
REMARK UNBOUND:                -0.100
REMARK SMILES O=C([O-])CCC(=O)[O-]
REMARK SMILES IDX 4 1 2 2 1 3 3 4 5 5 6 6 7 7 8 8
REMARK H PARENT
REMARK Flexibility Score: inf
ROOT
ATOM      1  C   UNL     1      12.661  12.753 162.421  1.00  0.00     0.059 C 
ENDROOT
BRANCH   1   2
ATOM      2  C   UNL     1      11.494  13.151 163.273  1.00  0.00     0.042 C 
ATOM      3  O   UNL     1      10.549  13.820 162.778  1.00  0.00    -0.550 OA
ATOM      4  O   UNL     1      11.432  12.748 164.601  1.00  0.00    -0.550 OA
ENDBRANCH   1   2
BRANCH   1   5
ATOM      5  C   UNL     1      13.934  13.510 162.818  1.00  0.00     0.059 C 
BRANCH   5   6
ATOM      6  C   UNL     1      13.979  14.874 162.199  1.00  0.00     0.042 C 
ATOM      7  O   UNL     1      14.423  15.852 162.856  1.00  0.00    -0.550 OA
ATOM      8  O   UNL     1      13.569  15.056 160.885  1.00  0.00    -0.550 OA
ENDBRANCH   5   6
ENDBRANCH   1   5
TORSDOF 3
ENDMDL
MODEL 4
REMARK VINA RESULT:    -3.597      0.184      1.630
REMARK INTER + INTRA:          -4.327
REMARK INTER:                  -4.214
REMARK INTRA:                  -0.114
REMARK UNBOUND:                -0.100
REMARK SMILES O=C([O-])CCC(=O)[O-]
REMARK SMILES IDX 4 1 2 2 1 3 3 4 5 5 6 6 7 7 8 8
REMARK H PARENT
REMARK Flexibility Score: inf
ROOT
ATOM      1  C   UNL     1      13.853  13.499 162.811  1.00  0.00     0.059 C 
ENDROOT
BRANCH   1   2
ATOM      2  C   UNL     1      13.937  14.858 162.185  1.00  0.00     0.042 C 
ATOM      3  O   UNL     1      14.339  15.842 162.859  1.00  0.00    -0.550 OA
ATOM      4  O   UNL     1      13.609  15.028 160.846  1.00  0.00    -0.550 OA
ENDBRANCH   1   2
BRANCH   1   5
ATOM      5  C   UNL     1      12.645  12.711 162.293  1.00  0.00     0.059 C 
BRANCH   5   6
ATOM      6  C   UNL     1      11.416  12.989 163.104  1.00  0.00     0.042 C 
ATOM      7  O   UNL     1      11.428  12.819 164.351  1.00  0.00    -0.550 OA
ATOM      8  O   UNL     1      10.270  13.475 162.487  1.00  0.00    -0.550 OA
ENDBRANCH   5   6
ENDBRANCH   1   5
TORSDOF 3
ENDMDL
MODEL 5
REMARK VINA RESULT:    -3.463      1.905      2.977
REMARK INTER + INTRA:          -4.170
REMARK INTER:                  -3.985
REMARK INTRA:                  -0.185
REMARK UNBOUND:                -0.100
REMARK SMILES O=C([O-])CCC(=O)[O-]
REMARK SMILES IDX 4 1 2 2 1 3 3 4 5 5 6 6 7 7 8 8
REMARK H PARENT
REMARK Flexibility Score: inf
ROOT
ATOM      1  C   UNL     1      13.277  13.022 162.420  1.00  0.00     0.059 C 
ENDROOT
BRANCH   1   2
ATOM      2  C   UNL     1      13.790  13.980 163.454  1.00  0.00     0.042 C 
ATOM      3  O   UNL     1      13.034  14.377 164.378  1.00  0.00    -0.550 OA
ATOM      4  O   UNL     1      15.113  14.401 163.416  1.00  0.00    -0.550 OA
ENDBRANCH   1   2
BRANCH   1   5
ATOM      5  C   UNL     1      12.177  13.654 161.560  1.00  0.00     0.059 C 
BRANCH   5   6
ATOM      6  C   UNL     1      12.642  14.925 160.916  1.00  0.00     0.042 C 
ATOM      7  O   UNL     1      13.551  14.897 160.045  1.00  0.00    -0.550 OA
ATOM      8  O   UNL     1      12.043  16.133 161.248  1.00  0.00    -0.550 OA
ENDBRANCH   5   6
ENDBRANCH   1   5
TORSDOF 3
ENDMDL
MODEL 6
REMARK VINA RESULT:    -3.454      1.730      3.639
REMARK INTER + INTRA:          -4.160
REMARK INTER:                  -4.055
REMARK INTRA:                  -0.104
REMARK UNBOUND:                -0.100
REMARK SMILES O=C([O-])CCC(=O)[O-]
REMARK SMILES IDX 4 1 2 2 1 3 3 4 5 5 6 6 7 7 8 8
REMARK H PARENT
REMARK Flexibility Score: inf
ROOT
ATOM      1  C   UNL     1      11.809  13.533 161.391  1.00  0.00     0.059 C 
ENDROOT
BRANCH   1   2
ATOM      2  C   UNL     1      10.451  12.907 161.499  1.00  0.00     0.042 C 
ATOM      3  O   UNL     1       9.509  13.529 162.056  1.00  0.00    -0.550 OA
ATOM      4  O   UNL     1      10.217  11.653 160.947  1.00  0.00    -0.550 OA
ENDBRANCH   1   2
BRANCH   1   5
ATOM      5  C   UNL     1      12.835  12.810 162.270  1.00  0.00     0.059 C 
BRANCH   5   6
ATOM      6  C   UNL     1      13.208  13.627 163.470  1.00  0.00     0.042 C 
ATOM      7  O   UNL     1      14.408  13.952 163.666  1.00  0.00    -0.550 OA
ATOM      8  O   UNL     1      12.224  14.064 164.347  1.00  0.00    -0.550 OA
ENDBRANCH   5   6
ENDBRANCH   1   5
TORSDOF 3
ENDMDL
MODEL 7
REMARK VINA RESULT:    -3.442      1.560      3.189
REMARK INTER + INTRA:          -4.146
REMARK INTER:                  -3.990
REMARK INTRA:                  -0.156
REMARK UNBOUND:                -0.100
REMARK SMILES O=C([O-])CCC(=O)[O-]
REMARK SMILES IDX 4 1 2 2 1 3 3 4 5 5 6 6 7 7 8 8
REMARK H PARENT
REMARK Flexibility Score: inf
ROOT
ATOM      1  C   UNL     1      13.248  13.855 163.639  1.00  0.00     0.059 C 
ENDROOT
BRANCH   1   2
ATOM      2  C   UNL     1      11.961  13.843 164.408  1.00  0.00     0.042 C 
ATOM      3  O   UNL     1      11.425  14.925 164.761  1.00  0.00    -0.550 OA
ATOM      4  O   UNL     1      11.336  12.636 164.697  1.00  0.00    -0.550 OA
ENDBRANCH   1   2
BRANCH   1   5
ATOM      5  C   UNL     1      13.125  13.089 162.318  1.00  0.00     0.059 C 
BRANCH   5   6
ATOM      6  C   UNL     1      12.297  13.840 161.319  1.00  0.00     0.042 C 
ATOM      7  O   UNL     1      11.140  13.439 161.027  1.00  0.00    -0.550 OA
ATOM      8  O   UNL     1      12.790  15.004 160.743  1.00  0.00    -0.550 OA
ENDBRANCH   5   6
ENDBRANCH   1   5
TORSDOF 3
ENDMDL
MODEL 8
REMARK VINA RESULT:    -3.416      1.682      2.457
REMARK INTER + INTRA:          -4.116
REMARK INTER:                  -3.953
REMARK INTRA:                  -0.163
REMARK UNBOUND:                -0.100
REMARK SMILES O=C([O-])CCC(=O)[O-]
REMARK SMILES IDX 4 1 2 2 1 3 3 4 5 5 6 6 7 7 8 8
REMARK H PARENT
REMARK Flexibility Score: inf
ROOT
ATOM      1  C   UNL     1      11.437  13.305 161.375  1.00  0.00     0.059 C 
ENDROOT
BRANCH   1   2
ATOM      2  C   UNL     1      11.563  14.744 160.975  1.00  0.00     0.042 C 
ATOM      3  O   UNL     1      10.576  15.519 161.077  1.00  0.00    -0.550 OA
ATOM      4  O   UNL     1      12.782  15.237 160.526  1.00  0.00    -0.550 OA
ENDBRANCH   1   2
BRANCH   1   5
ATOM      5  C   UNL     1      12.648  12.838 162.190  1.00  0.00     0.059 C 
BRANCH   5   6
ATOM      6  C   UNL     1      12.622  13.388 163.584  1.00  0.00     0.042 C 
ATOM      7  O   UNL     1      13.521  14.179 163.969  1.00  0.00    -0.550 OA
ATOM      8  O   UNL     1      11.581  13.056 164.442  1.00  0.00    -0.550 OA
ENDBRANCH   5   6
ENDBRANCH   1   5
TORSDOF 3
ENDMDL
MODEL 9
REMARK VINA RESULT:    -3.395      1.826      2.634
REMARK INTER + INTRA:          -4.091
REMARK INTER:                  -3.924
REMARK INTRA:                  -0.167
REMARK UNBOUND:                -0.100
REMARK SMILES O=C([O-])CCC(=O)[O-]
REMARK SMILES IDX 4 1 2 2 1 3 3 4 5 5 6 6 7 7 8 8
REMARK H PARENT
REMARK Flexibility Score: inf
ROOT
ATOM      1  C   UNL     1      12.017  13.798 161.386  1.00  0.00     0.059 C 
ENDROOT
BRANCH   1   2
ATOM      2  C   UNL     1      12.546  15.017 160.692  1.00  0.00     0.042 C 
ATOM      3  O   UNL     1      13.571  14.938 159.966  1.00  0.00    -0.550 OA
ATOM      4  O   UNL     1      11.881  16.231 160.815  1.00  0.00    -0.550 OA
ENDBRANCH   1   2
BRANCH   1   5
ATOM      5  C   UNL     1      13.109  13.095 162.200  1.00  0.00     0.059 C 
BRANCH   5   6
ATOM      6  C   UNL     1      13.613  13.962 163.314  1.00  0.00     0.042 C 
ATOM      7  O   UNL     1      12.851  14.279 164.264  1.00  0.00    -0.550 OA
ATOM      8  O   UNL     1      14.935  14.387 163.320  1.00  0.00    -0.550 OA
ENDBRANCH   5   6
ENDBRANCH   1   5
TORSDOF 3
ENDMDL
