MODEL 1
REMARK VINA RESULT:    -4.027      0.000      0.000
REMARK INTER + INTRA:          -8.799
REMARK INTER:                  -7.087
REMARK INTRA:                  -1.711
REMARK UNBOUND:                -1.711
REMARK SMILES CCCCCCCCCCCCCCC(=O)[O-]
REMARK SMILES IDX 9 1 10 2 11 3 12 4 13 5 14 6 15 7 16 8 17 9 8 10 7 11 6 12
REMARK SMILES IDX 5 13 4 14 3 15 2 16 1 17
REMARK H PARENT
REMARK Flexibility Score: inf
ROOT
ATOM      1  C   UNL     1      99.063   0.504 -27.710  1.00  0.00     0.000 C 
ENDROOT
BRANCH   1   2
ATOM      2  C   UNL     1     100.125   0.786 -26.634  1.00  0.00     0.000 C 
BRANCH   2   3
ATOM      3  C   UNL     1      99.857   0.039 -25.314  1.00  0.00     0.000 C 
BRANCH   3   4
ATOM      4  C   UNL     1      98.799  -1.078 -25.388  1.00  0.00     0.000 C 
BRANCH   4   5
ATOM      5  C   UNL     1      97.721  -1.043 -24.287  1.00  0.00     0.006 C 
BRANCH   5   6
ATOM      6  C   UNL     1      97.620   0.308 -23.553  1.00  0.00     0.053 C 
BRANCH   6   7
ATOM      7  C   UNL     1      96.201   0.748 -23.348  1.00  0.00     0.041 C 
ATOM      8  O   UNL     1      95.527   1.186 -24.316  1.00  0.00    -0.550 OA
ATOM      9  O   UNL     1      95.611   0.639 -22.095  1.00  0.00    -0.550 OA
ENDBRANCH   6   7
ENDBRANCH   5   6
ENDBRANCH   4   5
ENDBRANCH   3   4
ENDBRANCH   2   3
ENDBRANCH   1   2
BRANCH   1  10
ATOM     10  C   UNL     1      99.504   0.939 -29.119  1.00  0.00     0.000 C 
BRANCH  10  11
ATOM     11  C   UNL     1      98.585   1.959 -29.818  1.00  0.00    -0.000 C 
BRANCH  11  12
ATOM     12  C   UNL     1      99.177   3.379 -29.849  1.00  0.00    -0.000 C 
BRANCH  12  13
ATOM     13  C   UNL     1      98.157   4.464 -29.456  1.00  0.00    -0.000 C 
BRANCH  13  14
ATOM     14  C   UNL     1      98.531   5.308 -28.223  1.00  0.00    -0.000 C 
BRANCH  14  15
ATOM     15  C   UNL     1      99.133   4.471 -27.081  1.00  0.00    -0.000 C 
BRANCH  15  16
ATOM     16  C   UNL     1      98.058   3.775 -26.233  1.00  0.00    -0.003 C 
ATOM     17  C   UNL     1      98.480   3.590 -24.776  1.00  0.00     0.004 C 
ENDBRANCH  15  16
ENDBRANCH  14  15
ENDBRANCH  13  14
ENDBRANCH  12  13
ENDBRANCH  11  12
ENDBRANCH  10  11
ENDBRANCH   1  10
TORSDOF 13
ENDMDL
MODEL 2
REMARK VINA RESULT:    -3.950      2.756      4.478
REMARK INTER + INTRA:          -8.662
REMARK INTER:                  -6.681
REMARK INTRA:                  -1.981
REMARK UNBOUND:                -1.711
REMARK SMILES CCCCCCCCCCCCCCC(=O)[O-]
REMARK SMILES IDX 9 1 10 2 11 3 12 4 13 5 14 6 15 7 16 8 17 9 8 10 7 11 6 12
REMARK SMILES IDX 5 13 4 14 3 15 2 16 1 17
REMARK H PARENT
REMARK Flexibility Score: inf
ROOT
ATOM      1  C   UNL     1      97.128   3.969 -27.182  1.00  0.00     0.000 C 
ENDROOT
BRANCH   1   2
ATOM      2  C   UNL     1      96.540   2.741 -26.467  1.00  0.00     0.000 C 
BRANCH   2   3
ATOM      3  C   UNL     1      96.754   2.774 -24.942  1.00  0.00     0.000 C 
BRANCH   3   4
ATOM      4  C   UNL     1      95.470   2.725 -24.092  1.00  0.00     0.000 C 
BRANCH   4   5
ATOM      5  C   UNL     1      94.149   2.811 -24.881  1.00  0.00     0.006 C 
BRANCH   5   6
ATOM      6  C   UNL     1      93.464   4.188 -24.806  1.00  0.00     0.053 C 
BRANCH   6   7
ATOM      7  C   UNL     1      93.387   4.867 -26.141  1.00  0.00     0.041 C 
ATOM      8  O   UNL     1      93.370   6.123 -26.214  1.00  0.00    -0.550 OA
ATOM      9  O   UNL     1      93.369   4.111 -27.307  1.00  0.00    -0.550 OA
ENDBRANCH   6   7
ENDBRANCH   5   6
ENDBRANCH   4   5
ENDBRANCH   3   4
ENDBRANCH   2   3
ENDBRANCH   1   2
BRANCH   1  10
ATOM     10  C   UNL     1      98.492   4.401 -26.613  1.00  0.00     0.000 C 
BRANCH  10  11
ATOM     11  C   UNL     1      99.561   4.772 -27.657  1.00  0.00    -0.000 C 
BRANCH  11  12
ATOM     12  C   UNL     1      99.075   4.595 -29.106  1.00  0.00    -0.000 C 
BRANCH  12  13
ATOM     13  C   UNL     1      99.776   3.436 -29.839  1.00  0.00    -0.000 C 
BRANCH  13  14
ATOM     14  C   UNL     1     100.124   2.216 -28.967  1.00  0.00    -0.000 C 
BRANCH  14  15
ATOM     15  C   UNL     1      98.992   1.177 -28.904  1.00  0.00    -0.000 C 
BRANCH  15  16
ATOM     16  C   UNL     1      99.030   0.343 -27.615  1.00  0.00    -0.003 C 
ATOM     17  C   UNL     1      99.927   0.953 -26.540  1.00  0.00     0.004 C 
ENDBRANCH  15  16
ENDBRANCH  14  15
ENDBRANCH  13  14
ENDBRANCH  12  13
ENDBRANCH  11  12
ENDBRANCH  10  11
ENDBRANCH   1  10
TORSDOF 13
ENDMDL
MODEL 3
REMARK VINA RESULT:    -3.946      1.826      2.072
REMARK INTER + INTRA:          -8.655
REMARK INTER:                  -6.885
REMARK INTRA:                  -1.770
REMARK UNBOUND:                -1.711
REMARK SMILES CCCCCCCCCCCCCCC(=O)[O-]
REMARK SMILES IDX 9 1 10 2 11 3 12 4 13 5 14 6 15 7 16 8 17 9 8 10 7 11 6 12
REMARK SMILES IDX 5 13 4 14 3 15 2 16 1 17
REMARK H PARENT
REMARK Flexibility Score: inf
ROOT
ATOM      1  C   UNL     1      99.046   0.550 -27.847  1.00  0.00     0.000 C 
ENDROOT
BRANCH   1   2
ATOM      2  C   UNL     1     100.125   0.881 -26.802  1.00  0.00     0.000 C 
BRANCH   2   3
ATOM      3  C   UNL     1      99.890   0.178 -25.452  1.00  0.00     0.000 C 
BRANCH   3   4
ATOM      4  C   UNL     1      98.950  -1.041 -25.494  1.00  0.00     0.000 C 
BRANCH   4   5
ATOM      5  C   UNL     1      97.754  -0.990 -24.523  1.00  0.00     0.006 C 
BRANCH   5   6
ATOM      6  C   UNL     1      97.249  -2.376 -24.080  1.00  0.00     0.053 C 
BRANCH   6   7
ATOM      7  C   UNL     1      97.506  -2.646 -22.627  1.00  0.00     0.041 C 
ATOM      8  O   UNL     1      98.604  -2.320 -22.106  1.00  0.00    -0.550 OA
ATOM      9  O   UNL     1      96.518  -3.224 -21.840  1.00  0.00    -0.550 OA
ENDBRANCH   6   7
ENDBRANCH   5   6
ENDBRANCH   4   5
ENDBRANCH   3   4
ENDBRANCH   2   3
ENDBRANCH   1   2
BRANCH   1  10
ATOM     10  C   UNL     1      99.342   1.158 -29.230  1.00  0.00     0.000 C 
BRANCH  10  11
ATOM     11  C   UNL     1      98.359   2.246 -29.702  1.00  0.00    -0.000 C 
BRANCH  11  12
ATOM     12  C   UNL     1      98.990   3.649 -29.742  1.00  0.00    -0.000 C 
BRANCH  12  13
ATOM     13  C   UNL     1      98.385   4.611 -28.702  1.00  0.00    -0.000 C 
BRANCH  13  14
ATOM     14  C   UNL     1      99.212   4.801 -27.417  1.00  0.00    -0.000 C 
BRANCH  14  15
ATOM     15  C   UNL     1      98.630   4.048 -26.209  1.00  0.00    -0.000 C 
BRANCH  15  16
ATOM     16  C   UNL     1      97.195   3.558 -26.458  1.00  0.00    -0.003 C 
ATOM     17  C   UNL     1      96.733   2.528 -25.428  1.00  0.00     0.004 C 
ENDBRANCH  15  16
ENDBRANCH  14  15
ENDBRANCH  13  14
ENDBRANCH  12  13
ENDBRANCH  11  12
ENDBRANCH  10  11
ENDBRANCH   1  10
TORSDOF 13
ENDMDL
MODEL 4
REMARK VINA RESULT:    -3.886      3.084      4.639
REMARK INTER + INTRA:          -8.550
REMARK INTER:                  -6.972
REMARK INTRA:                  -1.578
REMARK UNBOUND:                -1.711
REMARK SMILES CCCCCCCCCCCCCCC(=O)[O-]
REMARK SMILES IDX 9 1 10 2 11 3 12 4 13 5 14 6 15 7 16 8 17 9 8 10 7 11 6 12
REMARK SMILES IDX 5 13 4 14 3 15 2 16 1 17
REMARK H PARENT
REMARK Flexibility Score: inf
ROOT
ATOM      1  C   UNL     1      98.680   4.384 -26.614  1.00  0.00     0.000 C 
ENDROOT
BRANCH   1   2
ATOM      2  C   UNL     1      97.313   4.110 -27.264  1.00  0.00     0.000 C 
BRANCH   2   3
ATOM      3  C   UNL     1      96.422   3.181 -26.418  1.00  0.00     0.000 C 
BRANCH   3   4
ATOM      4  C   UNL     1      94.905   3.403 -26.566  1.00  0.00     0.000 C 
BRANCH   4   5
ATOM      5  C   UNL     1      94.164   3.799 -25.274  1.00  0.00     0.006 C 
BRANCH   5   6
ATOM      6  C   UNL     1      93.217   5.003 -25.439  1.00  0.00     0.053 C 
BRANCH   6   7
ATOM      7  C   UNL     1      92.265   5.149 -24.291  1.00  0.00     0.041 C 
ATOM      8  O   UNL     1      91.038   4.915 -24.450  1.00  0.00    -0.550 OA
ATOM      9  O   UNL     1      92.737   5.508 -23.034  1.00  0.00    -0.550 OA
ENDBRANCH   6   7
ENDBRANCH   5   6
ENDBRANCH   4   5
ENDBRANCH   3   4
ENDBRANCH   2   3
ENDBRANCH   1   2
BRANCH   1  10
ATOM     10  C   UNL     1      99.739   4.868 -27.622  1.00  0.00     0.000 C 
BRANCH  10  11
ATOM     11  C   UNL     1      99.401   4.633 -29.106  1.00  0.00    -0.000 C 
BRANCH  11  12
ATOM     12  C   UNL     1     100.001   3.329 -29.660  1.00  0.00    -0.000 C 
BRANCH  12  13
ATOM     13  C   UNL     1      98.933   2.276 -30.011  1.00  0.00    -0.000 C 
BRANCH  13  14
ATOM     14  C   UNL     1      99.027   0.952 -29.230  1.00  0.00    -0.000 C 
BRANCH  14  15
ATOM     15  C   UNL     1      99.831   1.080 -27.924  1.00  0.00    -0.000 C 
BRANCH  15  16
ATOM     16  C   UNL     1      99.088   0.488 -26.717  1.00  0.00    -0.003 C 
ATOM     17  C   UNL     1      99.613   1.013 -25.381  1.00  0.00     0.004 C 
ENDBRANCH  15  16
ENDBRANCH  14  15
ENDBRANCH  13  14
ENDBRANCH  12  13
ENDBRANCH  11  12
ENDBRANCH  10  11
ENDBRANCH   1  10
TORSDOF 13
ENDMDL
MODEL 5
REMARK VINA RESULT:    -3.870      2.103      3.222
REMARK INTER + INTRA:          -8.523
REMARK INTER:                  -6.811
REMARK INTRA:                  -1.711
REMARK UNBOUND:                -1.711
REMARK SMILES CCCCCCCCCCCCCCC(=O)[O-]
REMARK SMILES IDX 9 1 10 2 11 3 12 4 13 5 14 6 15 7 16 8 17 9 8 10 7 11 6 12
REMARK SMILES IDX 5 13 4 14 3 15 2 16 1 17
REMARK H PARENT
REMARK Flexibility Score: inf
ROOT
ATOM      1  C   UNL     1      99.312   2.579 -29.465  1.00  0.00     0.000 C 
ENDROOT
BRANCH   1   2
ATOM      2  C   UNL     1     100.108   1.659 -28.524  1.00  0.00     0.000 C 
BRANCH   2   3
ATOM      3  C   UNL     1      99.215   0.661 -27.763  1.00  0.00     0.000 C 
BRANCH   3   4
ATOM      4  C   UNL     1      99.577   0.444 -26.281  1.00  0.00     0.000 C 
BRANCH   4   5
ATOM      5  C   UNL     1      98.599  -0.441 -25.483  1.00  0.00     0.006 C 
BRANCH   5   6
ATOM      6  C   UNL     1      99.290  -1.496 -24.599  1.00  0.00     0.053 C 
BRANCH   6   7
ATOM      7  C   UNL     1      99.242  -1.148 -23.142  1.00  0.00     0.041 C 
ATOM      8  O   UNL     1      98.474  -0.240 -22.731  1.00  0.00    -0.550 OA
ATOM      9  O   UNL     1     100.020  -1.853 -22.231  1.00  0.00    -0.550 OA
ENDBRANCH   6   7
ENDBRANCH   5   6
ENDBRANCH   4   5
ENDBRANCH   3   4
ENDBRANCH   2   3
ENDBRANCH   1   2
BRANCH   1  10
ATOM     10  C   UNL     1      99.851   4.021 -29.493  1.00  0.00     0.000 C 
BRANCH  10  11
ATOM     11  C   UNL     1      99.992   4.705 -28.120  1.00  0.00    -0.000 C 
BRANCH  11  12
ATOM     12  C   UNL     1      98.650   4.860 -27.384  1.00  0.00    -0.000 C 
BRANCH  12  13
ATOM     13  C   UNL     1      98.616   4.123 -26.032  1.00  0.00    -0.000 C 
BRANCH  13  14
ATOM     14  C   UNL     1      97.363   3.266 -25.777  1.00  0.00    -0.000 C 
BRANCH  14  15
ATOM     15  C   UNL     1      96.447   3.157 -27.008  1.00  0.00    -0.000 C 
BRANCH  15  16
ATOM     16  C   UNL     1      94.961   3.075 -26.629  1.00  0.00    -0.003 C 
ATOM     17  C   UNL     1      94.396   4.411 -26.149  1.00  0.00     0.004 C 
ENDBRANCH  15  16
ENDBRANCH  14  15
ENDBRANCH  13  14
ENDBRANCH  12  13
ENDBRANCH  11  12
ENDBRANCH  10  11
ENDBRANCH   1  10
TORSDOF 13
ENDMDL
MODEL 6
REMARK VINA RESULT:    -3.828      2.346      4.385
REMARK INTER + INTRA:          -8.449
REMARK INTER:                  -6.665
REMARK INTRA:                  -1.783
REMARK UNBOUND:                -1.711
REMARK SMILES CCCCCCCCCCCCCCC(=O)[O-]
REMARK SMILES IDX 9 1 10 2 11 3 12 4 13 5 14 6 15 7 16 8 17 9 8 10 7 11 6 12
REMARK SMILES IDX 5 13 4 14 3 15 2 16 1 17
REMARK H PARENT
REMARK Flexibility Score: inf
ROOT
ATOM      1  C   UNL     1      98.167   4.131 -29.494  1.00  0.00     0.000 C 
ENDROOT
BRANCH   1   2
ATOM      2  C   UNL     1      98.635   4.962 -28.287  1.00  0.00     0.000 C 
BRANCH   2   3
ATOM      3  C   UNL     1      98.040   4.474 -26.954  1.00  0.00     0.000 C 
BRANCH   3   4
ATOM      4  C   UNL     1      97.077   3.277 -27.057  1.00  0.00     0.000 C 
BRANCH   4   5
ATOM      5  C   UNL     1      95.881   3.303 -26.084  1.00  0.00     0.006 C 
BRANCH   5   6
ATOM      6  C   UNL     1      94.586   3.865 -26.701  1.00  0.00     0.053 C 
BRANCH   6   7
ATOM      7  C   UNL     1      93.777   4.658 -25.718  1.00  0.00     0.041 C 
ATOM      8  O   UNL     1      93.572   4.212 -24.559  1.00  0.00    -0.550 OA
ATOM      9  O   UNL     1      93.280   5.906 -26.071  1.00  0.00    -0.550 OA
ENDBRANCH   6   7
ENDBRANCH   5   6
ENDBRANCH   4   5
ENDBRANCH   3   4
ENDBRANCH   2   3
ENDBRANCH   1   2
BRANCH   1  10
ATOM     10  C   UNL     1      99.180   3.049 -29.909  1.00  0.00     0.000 C 
BRANCH  10  11
ATOM     11  C   UNL     1      98.615   1.621 -30.032  1.00  0.00    -0.000 C 
BRANCH  11  12
ATOM     12  C   UNL     1      99.000   0.718 -28.847  1.00  0.00    -0.000 C 
BRANCH  12  13
ATOM     13  C   UNL     1     100.123   1.312 -27.977  1.00  0.00    -0.000 C 
BRANCH  13  14
ATOM     14  C   UNL     1     100.050   0.967 -26.478  1.00  0.00    -0.000 C 
BRANCH  14  15
ATOM     15  C   UNL     1      98.723   0.302 -26.077  1.00  0.00    -0.000 C 
BRANCH  15  16
ATOM     16  C   UNL     1      98.255   0.721 -24.675  1.00  0.00    -0.003 C 
ATOM     17  C   UNL     1      99.380   1.310 -23.825  1.00  0.00     0.004 C 
ENDBRANCH  15  16
ENDBRANCH  14  15
ENDBRANCH  13  14
ENDBRANCH  12  13
ENDBRANCH  11  12
ENDBRANCH  10  11
ENDBRANCH   1  10
TORSDOF 13
ENDMDL
MODEL 7
REMARK VINA RESULT:    -3.779      4.607      6.388
REMARK INTER + INTRA:          -8.361
REMARK INTER:                  -6.790
REMARK INTRA:                  -1.572
REMARK UNBOUND:                -1.711
REMARK SMILES CCCCCCCCCCCCCCC(=O)[O-]
REMARK SMILES IDX 9 1 10 2 11 3 12 4 13 5 14 6 15 7 16 8 17 9 8 10 7 11 6 12
REMARK SMILES IDX 5 13 4 14 3 15 2 16 1 17
REMARK H PARENT
REMARK Flexibility Score: inf
ROOT
ATOM      1  C   UNL     1      95.787   2.951 -25.007  1.00  0.00     0.000 C 
ENDROOT
BRANCH   1   2
ATOM      2  C   UNL     1      96.952   2.752 -25.991  1.00  0.00     0.000 C 
BRANCH   2   3
ATOM      3  C   UNL     1      98.241   3.470 -25.550  1.00  0.00     0.000 C 
BRANCH   3   4
ATOM      4  C   UNL     1      98.920   4.334 -26.628  1.00  0.00     0.000 C 
BRANCH   4   5
ATOM      5  C   UNL     1      97.974   4.946 -27.681  1.00  0.00     0.006 C 
BRANCH   5   6
ATOM      6  C   UNL     1      98.413   4.696 -29.136  1.00  0.00     0.053 C 
BRANCH   6   7
ATOM      7  C   UNL     1      97.942   3.373 -29.661  1.00  0.00     0.041 C 
ATOM      8  O   UNL     1      98.740   2.403 -29.744  1.00  0.00    -0.550 OA
ATOM      9  O   UNL     1      96.612   3.201 -30.026  1.00  0.00    -0.550 OA
ENDBRANCH   6   7
ENDBRANCH   5   6
ENDBRANCH   4   5
ENDBRANCH   3   4
ENDBRANCH   2   3
ENDBRANCH   1   2
BRANCH   1  10
ATOM     10  C   UNL     1      94.443   3.217 -25.710  1.00  0.00     0.000 C 
BRANCH  10  11
ATOM     11  C   UNL     1      94.521   3.433 -27.233  1.00  0.00    -0.000 C 
BRANCH  11  12
ATOM     12  C   UNL     1      93.319   2.840 -27.987  1.00  0.00    -0.000 C 
BRANCH  12  13
ATOM     13  C   UNL     1      92.285   3.903 -28.404  1.00  0.00    -0.000 C 
BRANCH  13  14
ATOM     14  C   UNL     1      91.043   4.008 -27.500  1.00  0.00    -0.000 C 
BRANCH  14  15
ATOM     15  C   UNL     1      91.002   5.310 -26.681  1.00  0.00    -0.000 C 
BRANCH  15  16
ATOM     16  C   UNL     1      92.080   6.313 -27.119  1.00  0.00    -0.003 C 
ATOM     17  C   UNL     1      93.072   6.642 -26.003  1.00  0.00     0.004 C 
ENDBRANCH  15  16
ENDBRANCH  14  15
ENDBRANCH  13  14
ENDBRANCH  12  13
ENDBRANCH  11  12
ENDBRANCH  10  11
ENDBRANCH   1  10
TORSDOF 13
ENDMDL
MODEL 8
REMARK VINA RESULT:    -3.746      3.069      4.696
REMARK INTER + INTRA:          -8.304
REMARK INTER:                  -6.785
REMARK INTRA:                  -1.519
REMARK UNBOUND:                -1.711
REMARK SMILES CCCCCCCCCCCCCCC(=O)[O-]
REMARK SMILES IDX 9 1 10 2 11 3 12 4 13 5 14 6 15 7 16 8 17 9 8 10 7 11 6 12
REMARK SMILES IDX 5 13 4 14 3 15 2 16 1 17
REMARK H PARENT
REMARK Flexibility Score: inf
ROOT
ATOM      1  C   UNL     1      98.679   2.153 -24.933  1.00  0.00     0.000 C 
ENDROOT
BRANCH   1   2
ATOM      2  C   UNL     1      97.722   3.306 -25.280  1.00  0.00     0.000 C 
BRANCH   2   3
ATOM      3  C   UNL     1      96.639   2.903 -26.298  1.00  0.00     0.000 C 
BRANCH   3   4
ATOM      4  C   UNL     1      95.497   3.919 -26.488  1.00  0.00     0.000 C 
BRANCH   4   5
ATOM      5  C   UNL     1      94.150   3.528 -25.849  1.00  0.00     0.006 C 
BRANCH   5   6
ATOM      6  C   UNL     1      92.979   4.446 -26.248  1.00  0.00     0.053 C 
BRANCH   6   7
ATOM      7  C   UNL     1      92.986   5.747 -25.503  1.00  0.00     0.041 C 
ATOM      8  O   UNL     1      93.267   6.818 -26.100  1.00  0.00    -0.550 OA
ATOM      9  O   UNL     1      92.646   5.781 -24.157  1.00  0.00    -0.550 OA
ENDBRANCH   6   7
ENDBRANCH   5   6
ENDBRANCH   4   5
ENDBRANCH   3   4
ENDBRANCH   2   3
ENDBRANCH   1   2
BRANCH   1  10
ATOM     10  C   UNL     1      99.580   1.742 -26.112  1.00  0.00     0.000 C 
BRANCH  10  11
ATOM     11  C   UNL     1      99.303   0.349 -26.707  1.00  0.00    -0.000 C 
BRANCH  11  12
ATOM     12  C   UNL     1      98.863   0.400 -28.180  1.00  0.00    -0.000 C 
BRANCH  12  13
ATOM     13  C   UNL     1      99.892   1.096 -29.092  1.00  0.00    -0.000 C 
BRANCH  13  14
ATOM     14  C   UNL     1      99.318   2.166 -30.039  1.00  0.00    -0.000 C 
BRANCH  14  15
ATOM     15  C   UNL     1      99.891   3.570 -29.779  1.00  0.00    -0.000 C 
BRANCH  15  16
ATOM     16  C   UNL     1      98.996   4.409 -28.856  1.00  0.00    -0.003 C 
ATOM     17  C   UNL     1      99.781   5.126 -27.759  1.00  0.00     0.004 C 
ENDBRANCH  15  16
ENDBRANCH  14  15
ENDBRANCH  13  14
ENDBRANCH  12  13
ENDBRANCH  11  12
ENDBRANCH  10  11
ENDBRANCH   1  10
TORSDOF 13
ENDMDL
MODEL 9
REMARK VINA RESULT:    -3.737      1.839      3.286
REMARK INTER + INTRA:          -8.288
REMARK INTER:                  -6.693
REMARK INTRA:                  -1.595
REMARK UNBOUND:                -1.711
REMARK SMILES CCCCCCCCCCCCCCC(=O)[O-]
REMARK SMILES IDX 9 1 10 2 11 3 12 4 13 5 14 6 15 7 16 8 17 9 8 10 7 11 6 12
REMARK SMILES IDX 5 13 4 14 3 15 2 16 1 17
REMARK H PARENT
REMARK Flexibility Score: inf
ROOT
ATOM      1  C   UNL     1      98.319   3.231 -25.020  1.00  0.00     0.000 C 
ENDROOT
BRANCH   1   2
ATOM      2  C   UNL     1      98.955   1.861 -24.731  1.00  0.00     0.000 C 
BRANCH   2   3
ATOM      3  C   UNL     1      98.177   0.692 -25.365  1.00  0.00     0.000 C 
BRANCH   3   4
ATOM      4  C   UNL     1      98.995  -0.588 -25.618  1.00  0.00     0.000 C 
BRANCH   4   5
ATOM      5  C   UNL     1      98.923  -1.652 -24.505  1.00  0.00     0.006 C 
BRANCH   5   6
ATOM      6  C   UNL     1      97.873  -1.350 -23.419  1.00  0.00     0.053 C 
BRANCH   6   7
ATOM      7  C   UNL     1      96.942  -2.501 -23.181  1.00  0.00     0.041 C 
ATOM      8  O   UNL     1      96.625  -2.828 -22.008  1.00  0.00    -0.550 OA
ATOM      9  O   UNL     1      96.396  -3.190 -24.257  1.00  0.00    -0.550 OA
ENDBRANCH   6   7
ENDBRANCH   5   6
ENDBRANCH   4   5
ENDBRANCH   3   4
ENDBRANCH   2   3
ENDBRANCH   1   2
BRANCH   1  10
ATOM     10  C   UNL     1      97.242   3.175 -26.119  1.00  0.00     0.000 C 
BRANCH  10  11
ATOM     11  C   UNL     1      97.344   4.262 -27.206  1.00  0.00    -0.000 C 
BRANCH  11  12
ATOM     12  C   UNL     1      98.753   4.868 -27.321  1.00  0.00    -0.000 C 
BRANCH  12  13
ATOM     13  C   UNL     1      99.236   4.995 -28.778  1.00  0.00    -0.000 C 
BRANCH  13  14
ATOM     14  C   UNL     1      99.973   3.765 -29.340  1.00  0.00    -0.000 C 
BRANCH  14  15
ATOM     15  C   UNL     1     100.125   2.632 -28.311  1.00  0.00    -0.000 C 
BRANCH  15  16
ATOM     16  C   UNL     1      99.445   1.331 -28.764  1.00  0.00    -0.003 C 
ATOM     17  C   UNL     1      98.491   1.538 -29.940  1.00  0.00     0.004 C 
ENDBRANCH  15  16
ENDBRANCH  14  15
ENDBRANCH  13  14
ENDBRANCH  12  13
ENDBRANCH  11  12
ENDBRANCH  10  11
ENDBRANCH   1  10
TORSDOF 13
ENDMDL
