MODEL 1
REMARK VINA RESULT:    -3.982      0.000      0.000
REMARK INTER + INTRA:          -7.426
REMARK INTER:                  -6.311
REMARK INTRA:                  -1.116
REMARK UNBOUND:                -1.116
REMARK SMILES CCCCCCCCCCCC(=O)[O-]
REMARK SMILES IDX 7 1 8 2 9 3 10 4 11 5 12 6 13 7 14 8 6 9 5 10 4 11 3 12 2 13
REMARK SMILES IDX 1 14
REMARK H PARENT
REMARK Flexibility Score: inf
ROOT
ATOM      1  C   UNL     1     156.606 154.750 164.968  1.00  0.00     0.000 C 
ENDROOT
BRANCH   1   2
ATOM      2  C   UNL     1     155.991 155.842 165.855  1.00  0.00     0.000 C 
BRANCH   2   3
ATOM      3  C   UNL     1     155.566 155.314 167.236  1.00  0.00     0.000 C 
BRANCH   3   4
ATOM      4  C   UNL     1     154.066 154.977 167.304  1.00  0.00     0.006 C 
BRANCH   4   5
ATOM      5  C   UNL     1     153.467 155.283 168.683  1.00  0.00     0.053 C 
BRANCH   5   6
ATOM      6  C   UNL     1     154.081 154.436 169.756  1.00  0.00     0.041 C 
ATOM      7  O   UNL     1     154.538 154.971 170.800  1.00  0.00    -0.550 OA
ATOM      8  O   UNL     1     154.118 153.054 169.616  1.00  0.00    -0.550 OA
ENDBRANCH   5   6
ENDBRANCH   4   5
ENDBRANCH   3   4
ENDBRANCH   2   3
ENDBRANCH   1   2
BRANCH   1   9
ATOM      9  C   UNL     1     155.757 154.525 163.708  1.00  0.00     0.000 C 
BRANCH   9  10
ATOM     10  C   UNL     1     154.474 155.372 163.700  1.00  0.00    -0.000 C 
BRANCH  10  11
ATOM     11  C   UNL     1     154.403 156.329 162.501  1.00  0.00    -0.000 C 
BRANCH  11  12
ATOM     12  C   UNL     1     153.952 157.729 162.944  1.00  0.00    -0.000 C 
BRANCH  12  13
ATOM     13  C   UNL     1     153.261 157.723 164.316  1.00  0.00    -0.003 C 
ATOM     14  C   UNL     1     153.818 158.786 165.262  1.00  0.00     0.004 C 
ENDBRANCH  12  13
ENDBRANCH  11  12
ENDBRANCH  10  11
ENDBRANCH   9  10
ENDBRANCH   1   9
TORSDOF 10
ENDMDL
MODEL 2
REMARK VINA RESULT:    -3.563      3.411      5.130
REMARK INTER + INTRA:          -6.761
REMARK INTER:                  -5.574
REMARK INTRA:                  -1.187
REMARK UNBOUND:                -1.116
REMARK SMILES CCCCCCCCCCCC(=O)[O-]
REMARK SMILES IDX 7 1 8 2 9 3 10 4 11 5 12 6 13 7 14 8 6 9 5 10 4 11 3 12 2 13
REMARK SMILES IDX 1 14
REMARK H PARENT
REMARK Flexibility Score: inf
ROOT
ATOM      1  C   UNL     1     156.560 154.318 165.884  1.00  0.00     0.000 C 
ENDROOT
BRANCH   1   2
ATOM      2  C   UNL     1     155.919 153.850 164.569  1.00  0.00     0.000 C 
BRANCH   2   3
ATOM      3  C   UNL     1     156.610 154.441 163.329  1.00  0.00     0.000 C 
BRANCH   3   4
ATOM      4  C   UNL     1     157.617 153.468 162.693  1.00  0.00     0.006 C 
BRANCH   4   5
ATOM      5  C   UNL     1     159.069 153.845 163.018  1.00  0.00     0.053 C 
BRANCH   5   6
ATOM      6  C   UNL     1     159.671 152.915 164.028  1.00  0.00     0.041 C 
ATOM      7  O   UNL     1     160.784 153.184 164.551  1.00  0.00    -0.550 OA
ATOM      8  O   UNL     1     158.985 151.771 164.417  1.00  0.00    -0.550 OA
ENDBRANCH   5   6
ENDBRANCH   4   5
ENDBRANCH   3   4
ENDBRANCH   2   3
ENDBRANCH   1   2
BRANCH   1   9
ATOM      9  C   UNL     1     156.220 155.790 166.165  1.00  0.00     0.000 C 
BRANCH   9  10
ATOM     10  C   UNL     1     154.706 156.048 166.220  1.00  0.00    -0.000 C 
BRANCH  10  11
ATOM     11  C   UNL     1     154.292 157.311 165.451  1.00  0.00    -0.000 C 
BRANCH  11  12
ATOM     12  C   UNL     1     153.049 157.044 164.587  1.00  0.00    -0.000 C 
BRANCH  12  13
ATOM     13  C   UNL     1     153.383 156.306 163.282  1.00  0.00    -0.003 C 
ATOM     14  C   UNL     1     154.262 157.132 162.343  1.00  0.00     0.004 C 
ENDBRANCH  12  13
ENDBRANCH  11  12
ENDBRANCH  10  11
ENDBRANCH   9  10
ENDBRANCH   1   9
TORSDOF 10
ENDMDL
MODEL 3
REMARK VINA RESULT:    -3.556      3.295      5.010
REMARK INTER + INTRA:          -6.750
REMARK INTER:                  -5.471
REMARK INTRA:                  -1.279
REMARK UNBOUND:                -1.116
REMARK SMILES CCCCCCCCCCCC(=O)[O-]
REMARK SMILES IDX 7 1 8 2 9 3 10 4 11 5 12 6 13 7 14 8 6 9 5 10 4 11 3 12 2 13
REMARK SMILES IDX 1 14
REMARK H PARENT
REMARK Flexibility Score: inf
ROOT
ATOM      1  C   UNL     1     156.814 153.889 165.546  1.00  0.00     0.000 C 
ENDROOT
BRANCH   1   2
ATOM      2  C   UNL     1     156.365 154.941 166.571  1.00  0.00     0.000 C 
BRANCH   2   3
ATOM      3  C   UNL     1     155.924 156.259 165.913  1.00  0.00     0.000 C 
BRANCH   3   4
ATOM      4  C   UNL     1     154.405 156.487 166.007  1.00  0.00     0.006 C 
BRANCH   4   5
ATOM      5  C   UNL     1     153.779 156.786 164.638  1.00  0.00     0.053 C 
BRANCH   5   6
ATOM      6  C   UNL     1     153.662 158.260 164.392  1.00  0.00     0.041 C 
ATOM      7  O   UNL     1     153.582 158.700 163.215  1.00  0.00    -0.550 OA
ATOM      8  O   UNL     1     153.607 159.143 165.462  1.00  0.00    -0.550 OA
ENDBRANCH   5   6
ENDBRANCH   4   5
ENDBRANCH   3   4
ENDBRANCH   2   3
ENDBRANCH   1   2
BRANCH   1   9
ATOM      9  C   UNL     1     155.607 153.123 164.984  1.00  0.00     0.000 C 
BRANCH   9  10
ATOM     10  C   UNL     1     154.779 152.434 166.080  1.00  0.00    -0.000 C 
BRANCH  10  11
ATOM     11  C   UNL     1     153.327 152.929 166.126  1.00  0.00    -0.000 C 
BRANCH  11  12
ATOM     12  C   UNL     1     152.875 153.170 167.575  1.00  0.00    -0.000 C 
BRANCH  12  13
ATOM     13  C   UNL     1     154.007 153.700 168.468  1.00  0.00    -0.003 C 
ATOM     14  C   UNL     1     153.583 154.904 169.308  1.00  0.00     0.004 C 
ENDBRANCH  12  13
ENDBRANCH  11  12
ENDBRANCH  10  11
ENDBRANCH   9  10
ENDBRANCH   1   9
TORSDOF 10
ENDMDL
MODEL 4
REMARK VINA RESULT:    -3.554      2.884      5.241
REMARK INTER + INTRA:          -6.747
REMARK INTER:                  -5.571
REMARK INTRA:                  -1.177
REMARK UNBOUND:                -1.116
REMARK SMILES CCCCCCCCCCCC(=O)[O-]
REMARK SMILES IDX 7 1 8 2 9 3 10 4 11 5 12 6 13 7 14 8 6 9 5 10 4 11 3 12 2 13
REMARK SMILES IDX 1 14
REMARK H PARENT
REMARK Flexibility Score: inf
ROOT
ATOM      1  C   UNL     1     156.423 155.072 166.113  1.00  0.00     0.000 C 
ENDROOT
BRANCH   1   2
ATOM      2  C   UNL     1     155.830 154.236 164.969  1.00  0.00     0.000 C 
BRANCH   2   3
ATOM      3  C   UNL     1     155.063 155.091 163.946  1.00  0.00     0.000 C 
BRANCH   3   4
ATOM      4  C   UNL     1     153.540 155.035 164.153  1.00  0.00     0.006 C 
BRANCH   4   5
ATOM      5  C   UNL     1     153.056 156.072 165.175  1.00  0.00     0.053 C 
BRANCH   5   6
ATOM      6  C   UNL     1     153.570 157.444 164.860  1.00  0.00     0.041 C 
ATOM      7  O   UNL     1     154.369 158.016 165.646  1.00  0.00    -0.550 OA
ATOM      8  O   UNL     1     153.192 158.076 163.682  1.00  0.00    -0.550 OA
ENDBRANCH   5   6
ENDBRANCH   4   5
ENDBRANCH   3   4
ENDBRANCH   2   3
ENDBRANCH   1   2
BRANCH   1   9
ATOM      9  C   UNL     1     155.829 154.649 167.465  1.00  0.00     0.000 C 
BRANCH   9  10
ATOM     10  C   UNL     1     154.804 153.511 167.331  1.00  0.00    -0.000 C 
BRANCH  10  11
ATOM     11  C   UNL     1     153.626 153.656 168.305  1.00  0.00    -0.000 C 
BRANCH  11  12
ATOM     12  C   UNL     1     153.696 154.995 169.055  1.00  0.00    -0.000 C 
BRANCH  12  13
ATOM     13  C   UNL     1     153.156 154.900 170.489  1.00  0.00    -0.003 C 
ATOM     14  C   UNL     1     154.189 155.311 171.538  1.00  0.00     0.004 C 
ENDBRANCH  12  13
ENDBRANCH  11  12
ENDBRANCH  10  11
ENDBRANCH   9  10
ENDBRANCH   1   9
TORSDOF 10
ENDMDL
MODEL 5
REMARK VINA RESULT:    -3.428      1.662      3.388
REMARK INTER + INTRA:          -6.547
REMARK INTER:                  -5.570
REMARK INTRA:                  -0.977
REMARK UNBOUND:                -1.116
REMARK SMILES CCCCCCCCCCCC(=O)[O-]
REMARK SMILES IDX 7 1 8 2 9 3 10 4 11 5 12 6 13 7 14 8 6 9 5 10 4 11 3 12 2 13
REMARK SMILES IDX 1 14
REMARK H PARENT
REMARK Flexibility Score: inf
ROOT
ATOM      1  C   UNL     1     154.346 155.738 166.752  1.00  0.00     0.000 C 
ENDROOT
BRANCH   1   2
ATOM      2  C   UNL     1     155.193 154.936 167.751  1.00  0.00     0.000 C 
BRANCH   2   3
ATOM      3  C   UNL     1     154.367 153.895 168.525  1.00  0.00     0.000 C 
BRANCH   3   4
ATOM      4  C   UNL     1     153.222 154.529 169.333  1.00  0.00     0.006 C 
BRANCH   4   5
ATOM      5  C   UNL     1     153.080 153.902 170.726  1.00  0.00     0.053 C 
BRANCH   5   6
ATOM      6  C   UNL     1     154.066 154.479 171.697  1.00  0.00     0.041 C 
ATOM      7  O   UNL     1     154.429 155.679 171.592  1.00  0.00    -0.550 OA
ATOM      8  O   UNL     1     154.556 153.699 172.737  1.00  0.00    -0.550 OA
ENDBRANCH   5   6
ENDBRANCH   4   5
ENDBRANCH   3   4
ENDBRANCH   2   3
ENDBRANCH   1   2
BRANCH   1   9
ATOM      9  C   UNL     1     155.234 156.395 165.685  1.00  0.00     0.000 C 
BRANCH   9  10
ATOM     10  C   UNL     1     154.729 156.142 164.256  1.00  0.00    -0.000 C 
BRANCH  10  11
ATOM     11  C   UNL     1     155.044 154.725 163.758  1.00  0.00    -0.000 C 
BRANCH  11  12
ATOM     12  C   UNL     1     156.470 154.310 164.149  1.00  0.00    -0.000 C 
BRANCH  12  13
ATOM     13  C   UNL     1     156.619 152.791 164.324  1.00  0.00    -0.003 C 
ATOM     14  C   UNL     1     155.570 152.199 165.266  1.00  0.00     0.004 C 
ENDBRANCH  12  13
ENDBRANCH  11  12
ENDBRANCH  10  11
ENDBRANCH   9  10
ENDBRANCH   1   9
TORSDOF 10
ENDMDL
MODEL 6
REMARK VINA RESULT:    -3.394      2.854      5.498
REMARK INTER + INTRA:          -6.493
REMARK INTER:                  -5.601
REMARK INTRA:                  -0.892
REMARK UNBOUND:                -1.116
REMARK SMILES CCCCCCCCCCCC(=O)[O-]
REMARK SMILES IDX 7 1 8 2 9 3 10 4 11 5 12 6 13 7 14 8 6 9 5 10 4 11 3 12 2 13
REMARK SMILES IDX 1 14
REMARK H PARENT
REMARK Flexibility Score: inf
ROOT
ATOM      1  C   UNL     1     154.378 156.816 165.626  1.00  0.00     0.000 C 
ENDROOT
BRANCH   1   2
ATOM      2  C   UNL     1     154.409 156.611 164.104  1.00  0.00     0.000 C 
BRANCH   2   3
ATOM      3  C   UNL     1     154.625 155.141 163.708  1.00  0.00     0.000 C 
BRANCH   3   4
ATOM      4  C   UNL     1     156.041 154.641 164.041  1.00  0.00     0.006 C 
BRANCH   4   5
ATOM      5  C   UNL     1     156.022 153.276 164.743  1.00  0.00     0.053 C 
BRANCH   5   6
ATOM      6  C   UNL     1     157.227 152.456 164.394  1.00  0.00     0.041 C 
ATOM      7  O   UNL     1     157.252 151.791 163.325  1.00  0.00    -0.550 OA
ATOM      8  O   UNL     1     158.335 152.454 165.232  1.00  0.00    -0.550 OA
ENDBRANCH   5   6
ENDBRANCH   4   5
ENDBRANCH   3   4
ENDBRANCH   2   3
ENDBRANCH   1   2
BRANCH   1   9
ATOM      9  C   UNL     1     152.947 156.679 166.167  1.00  0.00     0.000 C 
BRANCH   9  10
ATOM     10  C   UNL     1     152.877 155.834 167.449  1.00  0.00    -0.000 C 
BRANCH  10  11
ATOM     11  C   UNL     1     153.941 154.728 167.489  1.00  0.00    -0.000 C 
BRANCH  11  12
ATOM     12  C   UNL     1     154.697 154.743 168.826  1.00  0.00    -0.000 C 
BRANCH  12  13
ATOM     13  C   UNL     1     153.760 154.614 170.037  1.00  0.00    -0.003 C 
ATOM     14  C   UNL     1     154.375 155.169 171.321  1.00  0.00     0.004 C 
ENDBRANCH  12  13
ENDBRANCH  11  12
ENDBRANCH  10  11
ENDBRANCH   9  10
ENDBRANCH   1   9
TORSDOF 10
ENDMDL
MODEL 7
REMARK VINA RESULT:    -3.366      4.635      6.126
REMARK INTER + INTRA:          -6.450
REMARK INTER:                  -5.539
REMARK INTRA:                  -0.910
REMARK UNBOUND:                -1.116
REMARK SMILES CCCCCCCCCCCC(=O)[O-]
REMARK SMILES IDX 7 1 8 2 9 3 10 4 11 5 12 6 13 7 14 8 6 9 5 10 4 11 3 12 2 13
REMARK SMILES IDX 1 14
REMARK H PARENT
REMARK Flexibility Score: inf
ROOT
ATOM      1  C   UNL     1     158.367 153.994 163.345  1.00  0.00     0.000 C 
ENDROOT
BRANCH   1   2
ATOM      2  C   UNL     1     159.412 153.031 163.929  1.00  0.00     0.000 C 
BRANCH   2   3
ATOM      3  C   UNL     1     159.076 152.592 165.365  1.00  0.00     0.000 C 
BRANCH   3   4
ATOM      4  C   UNL     1     160.282 152.697 166.313  1.00  0.00     0.006 C 
BRANCH   4   5
ATOM      5  C   UNL     1     161.573 153.067 165.569  1.00  0.00     0.053 C 
BRANCH   5   6
ATOM      6  C   UNL     1     162.550 153.765 166.466  1.00  0.00     0.041 C 
ATOM      7  O   UNL     1     162.434 153.679 167.716  1.00  0.00    -0.550 OA
ATOM      8  O   UNL     1     163.609 154.479 165.920  1.00  0.00    -0.550 OA
ENDBRANCH   5   6
ENDBRANCH   4   5
ENDBRANCH   3   4
ENDBRANCH   2   3
ENDBRANCH   1   2
BRANCH   1   9
ATOM      9  C   UNL     1     156.943 153.514 163.663  1.00  0.00     0.000 C 
BRANCH   9  10
ATOM     10  C   UNL     1     155.902 154.640 163.556  1.00  0.00    -0.000 C 
BRANCH  10  11
ATOM     11  C   UNL     1     155.223 154.950 164.897  1.00  0.00    -0.000 C 
BRANCH  11  12
ATOM     12  C   UNL     1     156.164 155.742 165.818  1.00  0.00    -0.000 C 
BRANCH  12  13
ATOM     13  C   UNL     1     156.544 154.965 167.087  1.00  0.00    -0.003 C 
ATOM     14  C   UNL     1     155.339 154.308 167.760  1.00  0.00     0.004 C 
ENDBRANCH  12  13
ENDBRANCH  11  12
ENDBRANCH  10  11
ENDBRANCH   9  10
ENDBRANCH   1   9
TORSDOF 10
ENDMDL
MODEL 8
REMARK VINA RESULT:    -3.352      3.326      5.572
REMARK INTER + INTRA:          -6.427
REMARK INTER:                  -4.832
REMARK INTRA:                  -1.595
REMARK UNBOUND:                -1.116
REMARK SMILES CCCCCCCCCCCC(=O)[O-]
REMARK SMILES IDX 7 1 8 2 9 3 10 4 11 5 12 6 13 7 14 8 6 9 5 10 4 11 3 12 2 13
REMARK SMILES IDX 1 14
REMARK H PARENT
REMARK Flexibility Score: inf
ROOT
ATOM      1  C   UNL     1     154.490 156.504 165.244  1.00  0.00     0.000 C 
ENDROOT
BRANCH   1   2
ATOM      2  C   UNL     1     154.105 155.337 164.324  1.00  0.00     0.000 C 
BRANCH   2   3
ATOM      3  C   UNL     1     155.328 154.567 163.799  1.00  0.00     0.000 C 
BRANCH   3   4
ATOM      4  C   UNL     1     156.525 154.629 164.763  1.00  0.00     0.006 C 
BRANCH   4   5
ATOM      5  C   UNL     1     157.107 153.239 165.053  1.00  0.00     0.053 C 
BRANCH   5   6
ATOM      6  C   UNL     1     158.223 152.897 164.114  1.00  0.00     0.041 C 
ATOM      7  O   UNL     1     159.420 153.012 164.485  1.00  0.00    -0.550 OA
ATOM      8  O   UNL     1     157.940 152.419 162.840  1.00  0.00    -0.550 OA
ENDBRANCH   5   6
ENDBRANCH   4   5
ENDBRANCH   3   4
ENDBRANCH   2   3
ENDBRANCH   1   2
BRANCH   1   9
ATOM      9  C   UNL     1     153.426 156.720 166.330  1.00  0.00     0.000 C 
BRANCH   9  10
ATOM     10  C   UNL     1     153.259 155.499 167.248  1.00  0.00    -0.000 C 
BRANCH  10  11
ATOM     11  C   UNL     1     154.586 155.035 167.864  1.00  0.00    -0.000 C 
BRANCH  11  12
ATOM     12  C   UNL     1     154.655 153.501 167.928  1.00  0.00    -0.000 C 
BRANCH  12  13
ATOM     13  C   UNL     1     153.421 152.827 167.309  1.00  0.00    -0.003 C 
ATOM     14  C   UNL     1     153.769 151.942 166.113  1.00  0.00     0.004 C 
ENDBRANCH  12  13
ENDBRANCH  11  12
ENDBRANCH  10  11
ENDBRANCH   9  10
ENDBRANCH   1   9
TORSDOF 10
ENDMDL
MODEL 9
REMARK VINA RESULT:    -3.333     14.832     17.414
REMARK INTER + INTRA:          -6.398
REMARK INTER:                  -4.947
REMARK INTRA:                  -1.450
REMARK UNBOUND:                -1.116
REMARK SMILES CCCCCCCCCCCC(=O)[O-]
REMARK SMILES IDX 7 1 8 2 9 3 10 4 11 5 12 6 13 7 14 8 6 9 5 10 4 11 3 12 2 13
REMARK SMILES IDX 1 14
REMARK H PARENT
REMARK Flexibility Score: inf
ROOT
ATOM      1  C   UNL     1     166.602 151.360 177.213  1.00  0.00     0.000 C 
ENDROOT
BRANCH   1   2
ATOM      2  C   UNL     1     165.667 152.577 177.264  1.00  0.00     0.000 C 
BRANCH   2   3
ATOM      3  C   UNL     1     166.298 153.835 176.644  1.00  0.00     0.000 C 
BRANCH   3   4
ATOM      4  C   UNL     1     165.490 155.110 176.941  1.00  0.00     0.006 C 
BRANCH   4   5
ATOM      5  C   UNL     1     164.025 154.801 177.278  1.00  0.00     0.053 C 
BRANCH   5   6
ATOM      6  C   UNL     1     163.296 156.021 177.754  1.00  0.00     0.041 C 
ATOM      7  O   UNL     1     162.614 156.706 176.947  1.00  0.00    -0.550 OA
ATOM      8  O   UNL     1     163.342 156.381 179.095  1.00  0.00    -0.550 OA
ENDBRANCH   5   6
ENDBRANCH   4   5
ENDBRANCH   3   4
ENDBRANCH   2   3
ENDBRANCH   1   2
BRANCH   1   9
ATOM      9  C   UNL     1     167.957 151.683 177.860  1.00  0.00     0.000 C 
BRANCH   9  10
ATOM     10  C   UNL     1     168.041 151.218 179.323  1.00  0.00    -0.000 C 
BRANCH  10  11
ATOM     11  C   UNL     1     167.694 152.333 180.320  1.00  0.00    -0.000 C 
BRANCH  11  12
ATOM     12  C   UNL     1     168.432 153.633 179.968  1.00  0.00    -0.000 C 
BRANCH  12  13
ATOM     13  C   UNL     1     167.526 154.870 180.052  1.00  0.00    -0.003 C 
ATOM     14  C   UNL     1     166.120 154.540 180.552  1.00  0.00     0.004 C 
ENDBRANCH  12  13
ENDBRANCH  11  12
ENDBRANCH  10  11
ENDBRANCH   9  10
ENDBRANCH   1   9
TORSDOF 10
ENDMDL
