MODEL 1
REMARK VINA RESULT:    -4.477      0.000      0.000
REMARK INTER + INTRA:          -5.176
REMARK INTER:                  -5.131
REMARK INTRA:                  -0.045
REMARK UNBOUND:                -0.045
REMARK SMILES O=C([O-])c1cc(O)c(O)c(O)c1
REMARK SMILES IDX 4 1 5 2 12 3 6 4 10 5 8 6 2 7 1 8 3 9 7 10 11 12 9 14
REMARK H PARENT 7 11 11 13 9 15
REMARK Flexibility Score: inf
ROOT
ATOM      1  C   UNL     1      15.264  57.465  33.756  1.00  0.00     0.005 A 
ATOM      2  C   UNL     1      16.553  57.290  33.223  1.00  0.00     0.060 A 
ATOM      3  C   UNL     1      14.855  58.753  34.139  1.00  0.00     0.060 A 
ATOM      4  C   UNL     1      17.419  58.381  33.073  1.00  0.00     0.162 A 
ATOM      5  C   UNL     1      15.717  59.848  33.992  1.00  0.00     0.162 A 
ATOM      6  C   UNL     1      17.000  59.665  33.459  1.00  0.00     0.200 A 
ENDROOT
BRANCH   1   7
ATOM      7  C   UNL     1      14.350  56.314  33.915  1.00  0.00     0.072 C 
ATOM      8  O   UNL     1      13.381  56.150  33.125  1.00  0.00    -0.545 OA
ATOM      9  O   UNL     1      14.545  55.394  34.939  1.00  0.00    -0.545 OA
ENDBRANCH   1   7
BRANCH   4  10
ATOM     10  O   UNL     1      18.695  58.195  32.543  1.00  0.00    -0.504 OA
ATOM     11  H   UNL     1      18.870  57.527  31.801  1.00  0.00     0.293 HD
ENDBRANCH   4  10
BRANCH   5  12
ATOM     12  O   UNL     1      15.307  61.125  34.373  1.00  0.00    -0.504 OA
ATOM     13  H   UNL     1      15.631  61.954  33.888  1.00  0.00     0.293 HD
ENDBRANCH   5  12
BRANCH   6  14
ATOM     14  O   UNL     1      17.844  60.768  33.320  1.00  0.00    -0.502 OA
ATOM     15  H   UNL     1      17.753  61.421  32.552  1.00  0.00     0.293 HD
ENDBRANCH   6  14
TORSDOF 4
ENDMDL
MODEL 2
REMARK VINA RESULT:    -4.454      0.078      2.422
REMARK INTER + INTRA:          -5.150
REMARK INTER:                  -5.105
REMARK INTRA:                  -0.045
REMARK UNBOUND:                -0.045
REMARK SMILES O=C([O-])c1cc(O)c(O)c(O)c1
REMARK SMILES IDX 4 1 5 2 12 3 6 4 10 5 8 6 2 7 1 8 3 9 7 10 11 12 9 14
REMARK H PARENT 7 11 11 13 9 15
REMARK Flexibility Score: inf
ROOT
ATOM      1  C   UNL     1      15.252  57.480  33.716  1.00  0.00     0.005 A 
ATOM      2  C   UNL     1      14.851  58.766  34.117  1.00  0.00     0.060 A 
ATOM      3  C   UNL     1      16.549  57.298  33.207  1.00  0.00     0.060 A 
ATOM      4  C   UNL     1      15.730  59.853  34.015  1.00  0.00     0.162 A 
ATOM      5  C   UNL     1      17.432  58.382  33.102  1.00  0.00     0.162 A 
ATOM      6  C   UNL     1      17.024  59.660  33.505  1.00  0.00     0.200 A 
ENDROOT
BRANCH   1   7
ATOM      7  C   UNL     1      14.325  56.333  33.823  1.00  0.00     0.072 C 
ATOM      8  O   UNL     1      13.346  56.223  33.037  1.00  0.00    -0.545 OA
ATOM      9  O   UNL     1      14.520  55.357  34.795  1.00  0.00    -0.545 OA
ENDBRANCH   1   7
BRANCH   4  10
ATOM     10  O   UNL     1      15.321  61.124  34.416  1.00  0.00    -0.504 OA
ATOM     11  H   UNL     1      15.199  61.878  33.749  1.00  0.00     0.293 HD
ENDBRANCH   4  10
BRANCH   5  12
ATOM     12  O   UNL     1      18.718  58.196  32.598  1.00  0.00    -0.504 OA
ATOM     13  H   UNL     1      19.270  57.381  32.839  1.00  0.00     0.293 HD
ENDBRANCH   5  12
BRANCH   6  14
ATOM     14  O   UNL     1      17.918  60.726  33.393  1.00  0.00    -0.502 OA
ATOM     15  H   UNL     1      17.606  61.690  33.372  1.00  0.00     0.293 HD
ENDBRANCH   6  14
TORSDOF 4
ENDMDL
MODEL 3
REMARK VINA RESULT:    -4.392      1.505      3.016
REMARK INTER + INTRA:          -5.079
REMARK INTER:                  -5.027
REMARK INTRA:                  -0.052
REMARK UNBOUND:                -0.045
REMARK SMILES O=C([O-])c1cc(O)c(O)c(O)c1
REMARK SMILES IDX 4 1 5 2 12 3 6 4 10 5 8 6 2 7 1 8 3 9 7 10 11 12 9 14
REMARK H PARENT 7 11 11 13 9 15
REMARK Flexibility Score: inf
ROOT
ATOM      1  C   UNL     1      14.690  58.808  33.755  1.00  0.00     0.005 A 
ATOM      2  C   UNL     1      15.617  59.865  33.752  1.00  0.00     0.060 A 
ATOM      3  C   UNL     1      15.116  57.527  33.367  1.00  0.00     0.060 A 
ATOM      4  C   UNL     1      16.948  59.648  33.370  1.00  0.00     0.162 A 
ATOM      5  C   UNL     1      16.446  57.304  32.984  1.00  0.00     0.162 A 
ATOM      6  C   UNL     1      17.363  58.363  32.985  1.00  0.00     0.200 A 
ENDROOT
BRANCH   1   7
ATOM      7  C   UNL     1      13.285  59.037  34.157  1.00  0.00     0.072 C 
ATOM      8  O   UNL     1      12.809  60.203  34.192  1.00  0.00    -0.545 OA
ATOM      9  O   UNL     1      12.468  57.967  34.504  1.00  0.00    -0.545 OA
ENDBRANCH   1   7
BRANCH   4  10
ATOM     10  O   UNL     1      17.858  60.704  33.371  1.00  0.00    -0.504 OA
ATOM     11  H   UNL     1      17.992  61.290  32.556  1.00  0.00     0.293 HD
ENDBRANCH   4  10
BRANCH   5  12
ATOM     12  O   UNL     1      16.865  56.031  32.601  1.00  0.00    -0.504 OA
ATOM     13  H   UNL     1      17.545  55.896  31.861  1.00  0.00     0.293 HD
ENDBRANCH   5  12
BRANCH   6  14
ATOM     14  O   UNL     1      18.683  58.120  32.600  1.00  0.00    -0.502 OA
ATOM     15  H   UNL     1      19.377  57.767  33.249  1.00  0.00     0.293 HD
ENDBRANCH   6  14
TORSDOF 4
ENDMDL
MODEL 4
REMARK VINA RESULT:    -4.383      1.478      2.499
REMARK INTER + INTRA:          -5.068
REMARK INTER:                  -5.016
REMARK INTRA:                  -0.053
REMARK UNBOUND:                -0.045
REMARK SMILES O=C([O-])c1cc(O)c(O)c(O)c1
REMARK SMILES IDX 4 1 5 2 12 3 6 4 10 5 8 6 2 7 1 8 3 9 7 10 11 12 9 14
REMARK H PARENT 7 11 11 13 9 15
REMARK Flexibility Score: inf
ROOT
ATOM      1  C   UNL     1      14.702  58.700  33.733  1.00  0.00     0.005 A 
ATOM      2  C   UNL     1      15.158  57.435  33.325  1.00  0.00     0.060 A 
ATOM      3  C   UNL     1      15.610  59.772  33.773  1.00  0.00     0.060 A 
ATOM      4  C   UNL     1      16.497  57.241  32.962  1.00  0.00     0.162 A 
ATOM      5  C   UNL     1      16.951  59.583  33.410  1.00  0.00     0.162 A 
ATOM      6  C   UNL     1      17.397  58.319  33.005  1.00  0.00     0.200 A 
ENDROOT
BRANCH   1   7
ATOM      7  C   UNL     1      13.288  58.905  34.117  1.00  0.00     0.072 C 
ATOM      8  O   UNL     1      12.512  57.922  34.257  1.00  0.00    -0.545 OA
ATOM      9  O   UNL     1      12.794  60.187  34.331  1.00  0.00    -0.545 OA
ENDBRANCH   1   7
BRANCH   4  10
ATOM     10  O   UNL     1      16.938  55.981  32.559  1.00  0.00    -0.504 OA
ATOM     11  H   UNL     1      17.449  55.371  33.187  1.00  0.00     0.293 HD
ENDBRANCH   4  10
BRANCH   5  12
ATOM     12  O   UNL     1      17.847  60.649  33.451  1.00  0.00    -0.504 OA
ATOM     13  H   UNL     1      18.850  60.502  33.414  1.00  0.00     0.293 HD
ENDBRANCH   5  12
BRANCH   6  14
ATOM     14  O   UNL     1      18.736  58.152  32.648  1.00  0.00    -0.502 OA
ATOM     15  H   UNL     1      19.094  58.451  31.749  1.00  0.00     0.293 HD
ENDBRANCH   6  14
TORSDOF 4
ENDMDL
MODEL 5
REMARK VINA RESULT:    -4.081      1.207      3.998
REMARK INTER + INTRA:          -4.722
REMARK INTER:                  -4.670
REMARK INTRA:                  -0.053
REMARK UNBOUND:                -0.045
REMARK SMILES O=C([O-])c1cc(O)c(O)c(O)c1
REMARK SMILES IDX 4 1 5 2 12 3 6 4 10 5 8 6 2 7 1 8 3 9 7 10 11 12 9 14
REMARK H PARENT 7 11 11 13 9 15
REMARK Flexibility Score: inf
ROOT
ATOM      1  C   UNL     1      16.023  58.961  33.656  1.00  0.00     0.005 A 
ATOM      2  C   UNL     1      17.050  58.329  32.933  1.00  0.00     0.060 A 
ATOM      3  C   UNL     1      14.926  58.198  34.088  1.00  0.00     0.060 A 
ATOM      4  C   UNL     1      16.984  56.959  32.646  1.00  0.00     0.162 A 
ATOM      5  C   UNL     1      14.855  56.827  33.804  1.00  0.00     0.162 A 
ATOM      6  C   UNL     1      15.883  56.206  33.083  1.00  0.00     0.200 A 
ENDROOT
BRANCH   1   7
ATOM      7  C   UNL     1      16.092  60.407  33.959  1.00  0.00     0.072 C 
ATOM      8  O   UNL     1      15.098  61.008  34.445  1.00  0.00    -0.545 OA
ATOM      9  O   UNL     1      17.257  61.125  33.710  1.00  0.00    -0.545 OA
ENDBRANCH   1   7
BRANCH   4  10
ATOM     10  O   UNL     1      18.009  56.344  31.928  1.00  0.00    -0.504 OA
ATOM     11  H   UNL     1      17.919  55.396  31.580  1.00  0.00     0.293 HD
ENDBRANCH   4  10
BRANCH   5  12
ATOM     12  O   UNL     1      13.764  56.074  34.235  1.00  0.00    -0.504 OA
ATOM     13  H   UNL     1      13.813  55.064  34.310  1.00  0.00     0.293 HD
ENDBRANCH   5  12
BRANCH   6  14
ATOM     14  O   UNL     1      15.793  54.840  32.810  1.00  0.00    -0.502 OA
ATOM     15  H   UNL     1      15.548  54.490  31.891  1.00  0.00     0.293 HD
ENDBRANCH   6  14
TORSDOF 4
ENDMDL
MODEL 6
REMARK VINA RESULT:    -4.039      1.450      2.974
REMARK INTER + INTRA:          -4.674
REMARK INTER:                  -4.629
REMARK INTRA:                  -0.045
REMARK UNBOUND:                -0.045
REMARK SMILES O=C([O-])c1cc(O)c(O)c(O)c1
REMARK SMILES IDX 4 1 5 2 12 3 6 4 10 5 8 6 2 7 1 8 3 9 7 10 11 12 9 14
REMARK H PARENT 7 11 11 13 9 15
REMARK Flexibility Score: inf
ROOT
ATOM      1  C   UNL     1      14.519  57.288  33.538  1.00  0.00     0.005 A 
ATOM      2  C   UNL     1      15.149  58.436  34.048  1.00  0.00     0.060 A 
ATOM      3  C   UNL     1      15.250  56.422  32.707  1.00  0.00     0.060 A 
ATOM      4  C   UNL     1      16.486  58.717  33.736  1.00  0.00     0.162 A 
ATOM      5  C   UNL     1      16.588  56.698  32.391  1.00  0.00     0.162 A 
ATOM      6  C   UNL     1      17.208  57.845  32.904  1.00  0.00     0.200 A 
ENDROOT
BRANCH   1   7
ATOM      7  C   UNL     1      13.108  56.992  33.867  1.00  0.00     0.072 C 
ATOM      8  O   UNL     1      12.811  56.385  34.931  1.00  0.00    -0.545 OA
ATOM      9  O   UNL     1      12.087  57.379  33.007  1.00  0.00    -0.545 OA
ENDBRANCH   1   7
BRANCH   4  10
ATOM     10  O   UNL     1      17.100  59.859  34.248  1.00  0.00    -0.504 OA
ATOM     11  H   UNL     1      17.143  60.038  35.245  1.00  0.00     0.293 HD
ENDBRANCH   4  10
BRANCH   5  12
ATOM     12  O   UNL     1      17.309  55.837  31.567  1.00  0.00    -0.504 OA
ATOM     13  H   UNL     1      17.002  54.886  31.395  1.00  0.00     0.293 HD
ENDBRANCH   5  12
BRANCH   6  14
ATOM     14  O   UNL     1      18.540  58.102  32.578  1.00  0.00    -0.502 OA
ATOM     15  H   UNL     1      19.174  58.557  33.224  1.00  0.00     0.293 HD
ENDBRANCH   6  14
TORSDOF 4
ENDMDL
MODEL 7
REMARK VINA RESULT:    -3.946      3.432      4.876
REMARK INTER + INTRA:          -4.568
REMARK INTER:                  -4.516
REMARK INTRA:                  -0.053
REMARK UNBOUND:                -0.045
REMARK SMILES O=C([O-])c1cc(O)c(O)c(O)c1
REMARK SMILES IDX 4 1 5 2 12 3 6 4 10 5 8 6 2 7 1 8 3 9 7 10 11 12 9 14
REMARK H PARENT 7 11 11 13 9 15
REMARK Flexibility Score: inf
ROOT
ATOM      1  C   UNL     1      13.627  54.283  35.804  1.00  0.00     0.005 A 
ATOM      2  C   UNL     1      14.457  53.252  35.332  1.00  0.00     0.060 A 
ATOM      3  C   UNL     1      13.689  55.544  35.187  1.00  0.00     0.060 A 
ATOM      4  C   UNL     1      15.335  53.473  34.261  1.00  0.00     0.162 A 
ATOM      5  C   UNL     1      14.565  55.771  34.116  1.00  0.00     0.162 A 
ATOM      6  C   UNL     1      15.389  54.738  33.652  1.00  0.00     0.200 A 
ENDROOT
BRANCH   1   7
ATOM      7  C   UNL     1      12.702  54.050  36.933  1.00  0.00     0.072 C 
ATOM      8  O   UNL     1      12.601  52.907  37.455  1.00  0.00    -0.545 OA
ATOM      9  O   UNL     1      11.928  55.090  37.438  1.00  0.00    -0.545 OA
ENDBRANCH   1   7
BRANCH   4  10
ATOM     10  O   UNL     1      16.154  52.443  33.802  1.00  0.00    -0.504 OA
ATOM     11  H   UNL     1      16.486  52.414  32.845  1.00  0.00     0.293 HD
ENDBRANCH   4  10
BRANCH   5  12
ATOM     12  O   UNL     1      14.623  57.023  33.507  1.00  0.00    -0.504 OA
ATOM     13  H   UNL     1      14.867  57.857  34.030  1.00  0.00     0.293 HD
ENDBRANCH   5  12
BRANCH   6  14
ATOM     14  O   UNL     1      16.254  54.984  32.585  1.00  0.00    -0.502 OA
ATOM     15  H   UNL     1      16.663  55.896  32.423  1.00  0.00     0.293 HD
ENDBRANCH   6  14
TORSDOF 4
ENDMDL
MODEL 8
REMARK VINA RESULT:    -3.844     10.984     11.803
REMARK INTER + INTRA:          -4.451
REMARK INTER:                  -4.400
REMARK INTRA:                  -0.051
REMARK UNBOUND:                -0.045
REMARK SMILES O=C([O-])c1cc(O)c(O)c(O)c1
REMARK SMILES IDX 4 1 5 2 12 3 6 4 10 5 8 6 2 7 1 8 3 9 7 10 11 12 9 14
REMARK H PARENT 7 11 11 13 9 15
REMARK Flexibility Score: inf
ROOT
ATOM      1  C   UNL     1      24.039  55.912  42.017  1.00  0.00     0.005 A 
ATOM      2  C   UNL     1      25.424  55.743  41.844  1.00  0.00     0.060 A 
ATOM      3  C   UNL     1      23.260  56.319  40.921  1.00  0.00     0.060 A 
ATOM      4  C   UNL     1      26.022  55.976  40.598  1.00  0.00     0.162 A 
ATOM      5  C   UNL     1      23.853  56.554  39.673  1.00  0.00     0.162 A 
ATOM      6  C   UNL     1      25.234  56.383  39.509  1.00  0.00     0.200 A 
ENDROOT
BRANCH   1   7
ATOM      7  C   UNL     1      23.407  55.666  43.331  1.00  0.00     0.072 C 
ATOM      8  O   UNL     1      24.055  55.843  44.398  1.00  0.00    -0.545 OA
ATOM      9  O   UNL     1      22.087  55.236  43.410  1.00  0.00    -0.545 OA
ENDBRANCH   1   7
BRANCH   4  10
ATOM     10  O   UNL     1      27.396  55.806  40.439  1.00  0.00    -0.504 OA
ATOM     11  H   UNL     1      27.859  56.012  39.561  1.00  0.00     0.293 HD
ENDBRANCH   4  10
BRANCH   5  12
ATOM     12  O   UNL     1      23.077  56.958  38.589  1.00  0.00    -0.504 OA
ATOM     13  H   UNL     1      23.036  56.416  37.733  1.00  0.00     0.293 HD
ENDBRANCH   5  12
BRANCH   6  14
ATOM     14  O   UNL     1      25.806  56.622  38.259  1.00  0.00    -0.502 OA
ATOM     15  H   UNL     1      25.714  55.967  37.491  1.00  0.00     0.293 HD
ENDBRANCH   6  14
TORSDOF 4
ENDMDL
