MODEL 1
REMARK VINA RESULT:    -1.370      0.000      0.000
REMARK INTER + INTRA:           0.824
REMARK INTER:                  -2.011
REMARK INTRA:                   2.835
REMARK UNBOUND:                 2.835
REMARK SMILES Cc1cc2c(C(C)C)c(O)c(O)c(C=O)c2c(O)c1-c1c(C)cc2c(C(C)C)c(O)c(O)c(C=O)c2c1O
REMARK SMILES IDX 1 1 2 2 3 3 4 4 16 5 13 6 11 7 9 8 5 9 17 10 19 11 20 12
REMARK SMILES IDX 37 13 21 14 36 15 23 16 22 17 24 18 33 19 25 20 31 21 29 22
REMARK SMILES IDX 38 23 34 25 35 26 26 27 27 28 28 29 32 30 30 32 18 34 6 36
REMARK SMILES IDX 7 37 8 38 14 39 15 40 10 41 12 43
REMARK H PARENT 38 24 32 31 30 33 18 35 10 42 12 44
REMARK Flexibility Score: inf
ROOT
ATOM      1  C   UNL     1     112.817   4.125  63.249  1.00  0.00     0.045 C 
ATOM      2  C   UNL     1     112.228   3.216  62.197  1.00  0.00    -0.039 A 
ATOM      3  C   UNL     1     110.842   3.126  62.068  1.00  0.00     0.013 A 
ATOM      4  C   UNL     1     110.234   2.271  61.121  1.00  0.00    -0.006 A 
ATOM      5  C   UNL     1     111.067   1.540  60.220  1.00  0.00     0.039 A 
ATOM      6  C   UNL     1     110.454   0.720  59.226  1.00  0.00     0.072 A 
ATOM      7  C   UNL     1     109.061   0.783  59.030  1.00  0.00     0.169 A 
ATOM      8  C   UNL     1     108.256   1.525  59.900  1.00  0.00     0.162 A 
ATOM      9  C   UNL     1     108.812   2.163  61.030  1.00  0.00     0.008 A 
ATOM     10  C   UNL     1     112.485   1.695  60.307  1.00  0.00     0.132 A 
ATOM     11  C   UNL     1     113.055   2.505  61.312  1.00  0.00     0.031 A 
ENDROOT
BRANCH  11  12
ATOM     12  C   UNL     1     114.531   2.645  61.413  1.00  0.00     0.031 A 
ATOM     13  C   UNL     1     115.284   3.036  60.285  1.00  0.00     0.132 A 
ATOM     14  C   UNL     1     115.172   2.426  62.644  1.00  0.00    -0.039 A 
ATOM     15  C   UNL     1     116.707   3.126  60.360  1.00  0.00     0.039 A 
ATOM     16  C   UNL     1     116.551   2.612  62.744  1.00  0.00     0.013 A 
ATOM     17  C   UNL     1     114.383   2.084  63.885  1.00  0.00     0.045 C 
ATOM     18  C   UNL     1     117.348   2.921  61.619  1.00  0.00    -0.006 A 
ATOM     19  C   UNL     1     117.504   3.461  59.226  1.00  0.00     0.072 A 
ATOM     20  C   UNL     1     118.765   3.075  61.736  1.00  0.00     0.008 A 
ATOM     21  C   UNL     1     118.868   3.764  59.393  1.00  0.00     0.169 A 
ATOM     22  C   UNL     1     119.470   3.654  60.659  1.00  0.00     0.162 A 
BRANCH  13  23
ATOM     23  O   UNL     1     114.616   3.381  59.105  1.00  0.00    -0.507 OA
ATOM     24  H   UNL     1     114.035   4.204  59.003  1.00  0.00     0.293 HD
ENDBRANCH  13  23
BRANCH  19  25
ATOM     25  C   UNL     1     116.967   3.415  57.844  1.00  0.00     0.264 C 
ATOM     26  O   UNL     1     117.604   2.847  56.916  1.00  0.00    -0.298 OA
ENDBRANCH  19  25
BRANCH  20  27
ATOM     27  C   UNL     1     119.521   2.676  63.016  1.00  0.00     0.017 C 
ATOM     28  C   UNL     1     119.762   3.895  63.912  1.00  0.00     0.012 C 
ATOM     29  C   UNL     1     120.830   1.909  62.752  1.00  0.00     0.012 C 
ENDBRANCH  20  27
BRANCH  21  30
ATOM     30  O   UNL     1     119.620   4.125  58.270  1.00  0.00    -0.504 OA
ATOM     31  H   UNL     1     120.360   3.560  57.877  1.00  0.00     0.293 HD
ENDBRANCH  21  30
BRANCH  22  32
ATOM     32  O   UNL     1     120.769   4.125  60.870  1.00  0.00    -0.504 OA
ATOM     33  H   UNL     1     121.034   5.099  60.819  1.00  0.00     0.293 HD
ENDBRANCH  22  32
ENDBRANCH  11  12
BRANCH  10  34
ATOM     34  O   UNL     1     113.322   1.074  59.374  1.00  0.00    -0.507 OA
ATOM     35  H   UNL     1     114.120   0.502  59.622  1.00  0.00     0.293 HD
ENDBRANCH  10  34
BRANCH   9  36
ATOM     36  C   UNL     1     107.881   2.753  62.106  1.00  0.00     0.017 C 
ATOM     37  C   UNL     1     108.582   2.802  63.467  1.00  0.00     0.012 C 
ATOM     38  C   UNL     1     107.286   4.124  61.733  1.00  0.00     0.012 C 
ENDBRANCH   9  36
BRANCH   6  39
ATOM     39  C   UNL     1     111.221  -0.237  58.404  1.00  0.00     0.264 C 
ATOM     40  O   UNL     1     112.070  -0.999  58.940  1.00  0.00    -0.298 OA
ENDBRANCH   6  39
BRANCH   8  41
ATOM     41  O   UNL     1     106.886   1.626  59.645  1.00  0.00    -0.504 OA
ATOM     42  H   UNL     1     106.511   2.044  58.803  1.00  0.00     0.293 HD
ENDBRANCH   8  41
BRANCH   7  43
ATOM     43  O   UNL     1     108.435   0.086  57.989  1.00  0.00    -0.504 OA
ATOM     44  H   UNL     1     107.611  -0.487  58.106  1.00  0.00     0.293 HD
ENDBRANCH   7  43
TORSDOF 11
ENDMDL
MODEL 2
REMARK VINA RESULT:    -0.985      1.981      8.905
REMARK INTER + INTRA:           1.388
REMARK INTER:                  -0.468
REMARK INTRA:                   1.856
REMARK UNBOUND:                 2.835
REMARK SMILES Cc1cc2c(C(C)C)c(O)c(O)c(C=O)c2c(O)c1-c1c(C)cc2c(C(C)C)c(O)c(O)c(C=O)c2c1O
REMARK SMILES IDX 1 1 2 2 3 3 4 4 16 5 13 6 11 7 9 8 5 9 17 10 19 11 20 12
REMARK SMILES IDX 37 13 21 14 36 15 23 16 22 17 24 18 33 19 25 20 31 21 29 22
REMARK SMILES IDX 38 23 34 25 35 26 26 27 27 28 28 29 32 30 30 32 18 34 6 36
REMARK SMILES IDX 7 37 8 38 14 39 15 40 10 41 12 43
REMARK H PARENT 38 24 32 31 30 33 18 35 10 42 12 44
REMARK Flexibility Score: inf
ROOT
ATOM      1  C   UNL     1     114.990   2.056  63.604  1.00  0.00     0.045 C 
ATOM      2  C   UNL     1     115.529   2.479  62.259  1.00  0.00    -0.039 A 
ATOM      3  C   UNL     1     116.869   2.850  62.144  1.00  0.00     0.013 A 
ATOM      4  C   UNL     1     117.422   3.281  60.918  1.00  0.00    -0.006 A 
ATOM      5  C   UNL     1     116.602   3.261  59.749  1.00  0.00     0.039 A 
ATOM      6  C   UNL     1     117.175   3.643  58.499  1.00  0.00     0.072 A 
ATOM      7  C   UNL     1     118.563   3.855  58.402  1.00  0.00     0.169 A 
ATOM      8  C   UNL     1     119.364   3.843  59.549  1.00  0.00     0.162 A 
ATOM      9  C   UNL     1     118.788   3.694  60.829  1.00  0.00     0.008 A 
ATOM     10  C   UNL     1     115.251   2.809  59.858  1.00  0.00     0.132 A 
ATOM     11  C   UNL     1     114.717   2.451  61.114  1.00  0.00     0.031 A 
ENDROOT
BRANCH  11  12
ATOM     12  C   UNL     1     113.304   2.002  61.226  1.00  0.00     0.031 A 
ATOM     13  C   UNL     1     112.370   2.777  61.947  1.00  0.00     0.132 A 
ATOM     14  C   UNL     1     112.891   0.825  60.580  1.00  0.00    -0.039 A 
ATOM     15  C   UNL     1     111.024   2.329  62.101  1.00  0.00     0.039 A 
ATOM     16  C   UNL     1     111.552   0.439  60.645  1.00  0.00     0.013 A 
ATOM     17  C   UNL     1     113.850   0.020  59.737  1.00  0.00     0.045 C 
ATOM     18  C   UNL     1     110.607   1.143  61.425  1.00  0.00    -0.006 A 
ATOM     19  C   UNL     1     110.068   3.055  62.871  1.00  0.00     0.072 A 
ATOM     20  C   UNL     1     109.246   0.712  61.505  1.00  0.00     0.008 A 
ATOM     21  C   UNL     1     108.706   2.708  62.807  1.00  0.00     0.169 A 
ATOM     22  C   UNL     1     108.292   1.593  62.057  1.00  0.00     0.162 A 
BRANCH  13  23
ATOM     23  O   UNL     1     112.768   4.013  62.470  1.00  0.00    -0.507 OA
ATOM     24  H   UNL     1     112.123   4.735  62.766  1.00  0.00     0.293 HD
ENDBRANCH  13  23
BRANCH  19  25
ATOM     25  C   UNL     1     110.468   4.123  63.820  1.00  0.00     0.264 C 
ATOM     26  O   UNL     1     110.740   3.858  65.022  1.00  0.00    -0.298 OA
ENDBRANCH  19  25
BRANCH  20  27
ATOM     27  C   UNL     1     108.795  -0.655  60.960  1.00  0.00     0.017 C 
ATOM     28  C   UNL     1     107.325  -0.617  60.531  1.00  0.00     0.012 C 
ATOM     29  C   UNL     1     109.066  -1.829  61.921  1.00  0.00     0.012 C 
ENDBRANCH  20  27
BRANCH  21  30
ATOM     30  O   UNL     1     107.784   3.460  63.544  1.00  0.00    -0.504 OA
ATOM     31  H   UNL     1     107.141   4.125  63.138  1.00  0.00     0.293 HD
ENDBRANCH  21  30
BRANCH  22  32
ATOM     32  O   UNL     1     106.933   1.349  61.840  1.00  0.00    -0.504 OA
ATOM     33  H   UNL     1     106.511   1.267  60.925  1.00  0.00     0.293 HD
ENDBRANCH  22  32
ENDBRANCH  11  12
BRANCH  10  34
ATOM     34  O   UNL     1     114.455   2.680  58.715  1.00  0.00    -0.507 OA
ATOM     35  H   UNL     1     113.455   2.835  58.702  1.00  0.00     0.293 HD
ENDBRANCH  10  34
BRANCH   9  36
ATOM     36  C   UNL     1     119.646   3.941  62.083  1.00  0.00     0.017 C 
ATOM     37  C   UNL     1     118.767   4.060  63.331  1.00  0.00     0.012 C 
ATOM     38  C   UNL     1     120.768   2.904  62.286  1.00  0.00     0.012 C 
ENDBRANCH   9  36
BRANCH   6  39
ATOM     39  C   UNL     1     116.358   3.868  57.289  1.00  0.00     0.264 C 
ATOM     40  O   UNL     1     116.390   3.042  56.338  1.00  0.00    -0.298 OA
ENDBRANCH   6  39
BRANCH   8  41
ATOM     41  O   UNL     1     120.747   3.989  59.418  1.00  0.00    -0.504 OA
ATOM     42  H   UNL     1     121.175   4.750  58.906  1.00  0.00     0.293 HD
ENDBRANCH   8  41
BRANCH   7  43
ATOM     43  O   UNL     1     119.181   4.114  57.172  1.00  0.00    -0.504 OA
ATOM     44  H   UNL     1     120.109   4.502  57.074  1.00  0.00     0.293 HD
ENDBRANCH   7  43
TORSDOF 11
ENDMDL
MODEL 3
REMARK VINA RESULT:    -0.414      1.752      2.962
REMARK INTER + INTRA:           2.226
REMARK INTER:                   0.148
REMARK INTRA:                   2.078
REMARK UNBOUND:                 2.835
REMARK SMILES Cc1cc2c(C(C)C)c(O)c(O)c(C=O)c2c(O)c1-c1c(C)cc2c(C(C)C)c(O)c(O)c(C=O)c2c1O
REMARK SMILES IDX 1 1 2 2 3 3 4 4 16 5 13 6 11 7 9 8 5 9 17 10 19 11 20 12
REMARK SMILES IDX 37 13 21 14 36 15 23 16 22 17 24 18 33 19 25 20 31 21 29 22
REMARK SMILES IDX 38 23 34 25 35 26 26 27 27 28 28 29 32 30 30 32 18 34 6 36
REMARK SMILES IDX 7 37 8 38 14 39 15 40 10 41 12 43
REMARK H PARENT 38 24 32 31 30 33 18 35 10 42 12 44
REMARK Flexibility Score: inf
ROOT
ATOM      1  C   UNL     1     113.646   0.254  59.106  1.00  0.00     0.045 C 
ATOM      2  C   UNL     1     112.718   0.994  60.039  1.00  0.00    -0.039 A 
ATOM      3  C   UNL     1     111.350   0.718  60.005  1.00  0.00     0.013 A 
ATOM      4  C   UNL     1     110.430   1.398  60.835  1.00  0.00    -0.006 A 
ATOM      5  C   UNL     1     110.929   2.338  61.788  1.00  0.00     0.039 A 
ATOM      6  C   UNL     1     110.007   2.984  62.665  1.00  0.00     0.072 A 
ATOM      7  C   UNL     1     108.665   2.560  62.704  1.00  0.00     0.169 A 
ATOM      8  C   UNL     1     108.193   1.617  61.785  1.00  0.00     0.162 A 
ATOM      9  C   UNL     1     109.029   1.129  60.758  1.00  0.00     0.008 A 
ATOM     10  C   UNL     1     112.338   2.561  61.870  1.00  0.00     0.132 A 
ATOM     11  C   UNL     1     113.217   1.912  60.977  1.00  0.00     0.031 A 
ENDROOT
BRANCH  11  12
ATOM     12  C   UNL     1     114.680   2.164  61.051  1.00  0.00     0.031 A 
ATOM     13  C   UNL     1     115.377   2.625  59.915  1.00  0.00     0.132 A 
ATOM     14  C   UNL     1     115.360   1.979  62.266  1.00  0.00    -0.039 A 
ATOM     15  C   UNL     1     116.791   2.823  59.963  1.00  0.00     0.039 A 
ATOM     16  C   UNL     1     116.723   2.269  62.343  1.00  0.00     0.013 A 
ATOM     17  C   UNL     1     114.625   1.563  63.517  1.00  0.00     0.045 C 
ATOM     18  C   UNL     1     117.471   2.652  61.207  1.00  0.00    -0.006 A 
ATOM     19  C   UNL     1     117.537   3.232  58.819  1.00  0.00     0.072 A 
ATOM     20  C   UNL     1     118.874   2.914  61.299  1.00  0.00     0.008 A 
ATOM     21  C   UNL     1     118.876   3.637  58.964  1.00  0.00     0.169 A 
ATOM     22  C   UNL     1     119.511   3.558  60.217  1.00  0.00     0.162 A 
BRANCH  13  23
ATOM     23  O   UNL     1     114.661   2.931  58.752  1.00  0.00    -0.507 OA
ATOM     24  H   UNL     1     113.655   3.047  58.721  1.00  0.00     0.293 HD
ENDBRANCH  13  23
BRANCH  19  25
ATOM     25  C   UNL     1     116.977   3.162  57.447  1.00  0.00     0.264 C 
ATOM     26  O   UNL     1     117.018   2.093  56.781  1.00  0.00    -0.298 OA
ENDBRANCH  19  25
BRANCH  20  27
ATOM     27  C   UNL     1     119.684   2.559  62.559  1.00  0.00     0.017 C 
ATOM     28  C   UNL     1     119.673   3.717  63.561  1.00  0.00     0.012 C 
ATOM     29  C   UNL     1     121.121   2.089  62.263  1.00  0.00     0.012 C 
ENDBRANCH  20  27
BRANCH  21  30
ATOM     30  O   UNL     1     119.576   4.068  57.832  1.00  0.00    -0.504 OA
ATOM     31  H   UNL     1     120.426   3.640  57.493  1.00  0.00     0.293 HD
ENDBRANCH  21  30
BRANCH  22  32
ATOM     32  O   UNL     1     120.774   4.125  60.409  1.00  0.00    -0.504 OA
ATOM     33  H   UNL     1     121.507   4.125  59.713  1.00  0.00     0.293 HD
ENDBRANCH  22  32
ENDBRANCH  11  12
BRANCH  10  34
ATOM     34  O   UNL     1     112.864   3.396  62.861  1.00  0.00    -0.507 OA
ATOM     35  H   UNL     1     112.300   3.957  63.487  1.00  0.00     0.293 HD
ENDBRANCH  10  34
BRANCH   9  36
ATOM     36  C   UNL     1     108.422   0.298  59.613  1.00  0.00     0.017 C 
ATOM     37  C   UNL     1     107.331  -0.640  60.138  1.00  0.00     0.012 C 
ATOM     38  C   UNL     1     107.910   1.144  58.430  1.00  0.00     0.012 C 
ENDBRANCH   9  36
BRANCH   6  39
ATOM     39  C   UNL     1     110.394   4.123  63.521  1.00  0.00     0.264 C 
ATOM     40  O   UNL     1     110.575   3.958  64.757  1.00  0.00    -0.298 OA
ENDBRANCH   6  39
BRANCH   8  41
ATOM     41  O   UNL     1     106.875   1.164  61.887  1.00  0.00    -0.504 OA
ATOM     42  H   UNL     1     106.096   1.776  62.094  1.00  0.00     0.293 HD
ENDBRANCH   8  41
BRANCH   7  43
ATOM     43  O   UNL     1     107.757   3.085  63.632  1.00  0.00    -0.504 OA
ATOM     44  H   UNL     1     107.498   4.061  63.682  1.00  0.00     0.293 HD
ENDBRANCH   7  43
TORSDOF 11
ENDMDL
MODEL 4
REMARK VINA RESULT:     0.315      0.760      8.605
REMARK INTER + INTRA:           3.297
REMARK INTER:                   0.135
REMARK INTRA:                   3.161
REMARK UNBOUND:                 2.835
REMARK SMILES Cc1cc2c(C(C)C)c(O)c(O)c(C=O)c2c(O)c1-c1c(C)cc2c(C(C)C)c(O)c(O)c(C=O)c2c1O
REMARK SMILES IDX 1 1 2 2 3 3 4 4 16 5 13 6 11 7 9 8 5 9 17 10 19 11 20 12
REMARK SMILES IDX 37 13 21 14 36 15 23 16 22 17 24 18 33 19 25 20 31 21 29 22
REMARK SMILES IDX 38 23 34 25 35 26 26 27 27 28 28 29 32 30 30 32 18 34 6 36
REMARK SMILES IDX 7 37 8 38 14 39 15 40 10 41 12 43
REMARK H PARENT 38 24 32 31 30 33 18 35 10 42 12 44
REMARK Flexibility Score: inf
ROOT
ATOM      1  C   UNL     1     114.552   2.343  63.742  1.00  0.00     0.045 C 
ATOM      2  C   UNL     1     115.178   2.719  62.421  1.00  0.00    -0.039 A 
ATOM      3  C   UNL     1     116.562   2.883  62.341  1.00  0.00     0.013 A 
ATOM      4  C   UNL     1     117.201   3.262  61.139  1.00  0.00    -0.006 A 
ATOM      5  C   UNL     1     116.412   3.404  59.956  1.00  0.00     0.039 A 
ATOM      6  C   UNL     1     117.064   3.732  58.730  1.00  0.00     0.072 A 
ATOM      7  C   UNL     1     118.470   3.731  58.663  1.00  0.00     0.169 A 
ATOM      8  C   UNL     1     119.234   3.562  59.822  1.00  0.00     0.162 A 
ATOM      9  C   UNL     1     118.615   3.463  61.087  1.00  0.00     0.008 A 
ATOM     10  C   UNL     1     115.006   3.162  60.028  1.00  0.00     0.132 A 
ATOM     11  C   UNL     1     114.396   2.852  61.262  1.00  0.00     0.031 A 
ENDROOT
BRANCH  11  12
ATOM     12  C   UNL     1     112.930   2.622  61.336  1.00  0.00     0.031 A 
ATOM     13  C   UNL     1     112.304   1.746  60.423  1.00  0.00     0.132 A 
ATOM     14  C   UNL     1     112.173   3.247  62.341  1.00  0.00    -0.039 A 
ATOM     15  C   UNL     1     110.889   1.558  60.455  1.00  0.00     0.039 A 
ATOM     16  C   UNL     1     110.807   2.984  62.437  1.00  0.00     0.013 A 
ATOM     17  C   UNL     1     112.829   4.125  63.380  1.00  0.00     0.045 C 
ATOM     18  C   UNL     1     110.131   2.181  61.492  1.00  0.00    -0.006 A 
ATOM     19  C   UNL     1     110.215   0.727  59.512  1.00  0.00     0.072 A 
ATOM     20  C   UNL     1     108.723   1.949  61.589  1.00  0.00     0.008 A 
ATOM     21  C   UNL     1     108.866   0.385  59.717  1.00  0.00     0.169 A 
ATOM     22  C   UNL     1     108.152   0.927  60.800  1.00  0.00     0.162 A 
BRANCH  13  23
ATOM     23  O   UNL     1     113.092   1.030  59.515  1.00  0.00    -0.507 OA
ATOM     24  H   UNL     1     113.532   0.142  59.726  1.00  0.00     0.293 HD
ENDBRANCH  13  23
BRANCH  19  25
ATOM     25  C   UNL     1     110.863   0.274  58.256  1.00  0.00     0.264 C 
ATOM     26  O   UNL     1     111.540  -0.788  58.219  1.00  0.00    -0.298 OA
ENDBRANCH  19  25
BRANCH  20  27
ATOM     27  C   UNL     1     107.836   2.747  62.562  1.00  0.00     0.017 C 
ATOM     28  C   UNL     1     107.468   4.113  61.974  1.00  0.00     0.012 C 
ATOM     29  C   UNL     1     108.432   2.889  63.975  1.00  0.00     0.012 C 
ENDBRANCH  20  27
BRANCH  21  30
ATOM     30  O   UNL     1     108.238  -0.461  58.796  1.00  0.00    -0.504 OA
ATOM     31  H   UNL     1     107.888  -1.382  59.019  1.00  0.00     0.293 HD
ENDBRANCH  21  30
BRANCH  22  32
ATOM     32  O   UNL     1     106.875   0.456  61.116  1.00  0.00    -0.504 OA
ATOM     33  H   UNL     1     106.411   0.624  61.998  1.00  0.00     0.293 HD
ENDBRANCH  22  32
ENDBRANCH  11  12
BRANCH  10  34
ATOM     34  O   UNL     1     114.224   3.192  58.868  1.00  0.00    -0.507 OA
ATOM     35  H   UNL     1     113.997   2.373  58.318  1.00  0.00     0.293 HD
ENDBRANCH  10  34
BRANCH   9  36
ATOM     36  C   UNL     1     119.474   3.537  62.363  1.00  0.00     0.017 C 
ATOM     37  C   UNL     1     118.613   3.882  63.581  1.00  0.00     0.012 C 
ATOM     38  C   UNL     1     120.323   2.276  62.617  1.00  0.00     0.012 C 
ENDBRANCH   9  36
BRANCH   6  39
ATOM     39  C   UNL     1     116.317   4.117  57.515  1.00  0.00     0.264 C 
ATOM     40  O   UNL     1     116.261   3.334  56.529  1.00  0.00    -0.298 OA
ENDBRANCH   6  39
BRANCH   8  41
ATOM     41  O   UNL     1     120.626   3.497  59.720  1.00  0.00    -0.504 OA
ATOM     42  H   UNL     1     121.124   2.643  59.502  1.00  0.00     0.293 HD
ENDBRANCH   8  41
BRANCH   7  43
ATOM     43  O   UNL     1     119.146   3.930  57.453  1.00  0.00    -0.504 OA
ATOM     44  H   UNL     1     120.144   3.818  57.336  1.00  0.00     0.293 HD
ENDBRANCH   7  43
TORSDOF 11
ENDMDL
MODEL 5
REMARK VINA RESULT:     1.071      2.260      4.360
REMARK INTER + INTRA:           4.406
REMARK INTER:                  -2.361
REMARK INTRA:                   6.766
REMARK UNBOUND:                 2.835
REMARK SMILES Cc1cc2c(C(C)C)c(O)c(O)c(C=O)c2c(O)c1-c1c(C)cc2c(C(C)C)c(O)c(O)c(C=O)c2c1O
REMARK SMILES IDX 1 1 2 2 3 3 4 4 16 5 13 6 11 7 9 8 5 9 17 10 19 11 20 12
REMARK SMILES IDX 37 13 21 14 36 15 23 16 22 17 24 18 33 19 25 20 31 21 29 22
REMARK SMILES IDX 38 23 34 25 35 26 26 27 27 28 28 29 32 30 30 32 18 34 6 36
REMARK SMILES IDX 7 37 8 38 14 39 15 40 10 41 12 43
REMARK H PARENT 38 24 32 31 30 33 18 35 10 42 12 44
REMARK Flexibility Score: inf
ROOT
ATOM      1  C   UNL     1     116.486   4.124  63.322  1.00  0.00     0.045 C 
ATOM      2  C   UNL     1     115.700   3.169  62.456  1.00  0.00    -0.039 A 
ATOM      3  C   UNL     1     114.362   2.914  62.758  1.00  0.00     0.013 A 
ATOM      4  C   UNL     1     113.585   2.009  62.001  1.00  0.00    -0.006 A 
ATOM      5  C   UNL     1     114.167   1.400  60.847  1.00  0.00     0.039 A 
ATOM      6  C   UNL     1     113.366   0.530  60.049  1.00  0.00     0.072 A 
ATOM      7  C   UNL     1     111.985   0.426  60.299  1.00  0.00     0.169 A 
ATOM      8  C   UNL     1     111.418   1.050  61.415  1.00  0.00     0.162 A 
ATOM      9  C   UNL     1     112.227   1.730  62.350  1.00  0.00     0.008 A 
ATOM     10  C   UNL     1     115.515   1.724  60.499  1.00  0.00     0.132 A 
ATOM     11  C   UNL     1     116.279   2.580  61.321  1.00  0.00     0.031 A 
ENDROOT
BRANCH  11  12
ATOM     12  C   UNL     1     117.688   2.897  60.966  1.00  0.00     0.031 A 
ATOM     13  C   UNL     1     118.667   2.996  61.978  1.00  0.00     0.132 A 
ATOM     14  C   UNL     1     118.050   3.058  59.619  1.00  0.00    -0.039 A 
ATOM     15  C   UNL     1     120.011   3.347  61.651  1.00  0.00     0.039 A 
ATOM     16  C   UNL     1     119.384   3.301  59.290  1.00  0.00     0.013 A 
ATOM     17  C   UNL     1     117.039   2.879  58.512  1.00  0.00     0.045 C 
ATOM     18  C   UNL     1     120.376   3.490  60.278  1.00  0.00    -0.006 A 
ATOM     19  C   UNL     1     121.014   3.514  62.651  1.00  0.00     0.072 A 
ATOM     20  C   UNL     1     121.732   3.771  59.922  1.00  0.00     0.008 A 
ATOM     21  C   UNL     1     122.365   3.630  62.278  1.00  0.00     0.169 A 
ATOM     22  C   UNL     1     122.725   3.671  60.919  1.00  0.00     0.162 A 
BRANCH  13  23
ATOM     23  O   UNL     1     118.315   2.700  63.299  1.00  0.00    -0.507 OA
ATOM     24  H   UNL     1     118.672   3.200  64.105  1.00  0.00     0.293 HD
ENDBRANCH  13  23
BRANCH  19  25
ATOM     25  C   UNL     1     120.676   3.661  64.088  1.00  0.00     0.264 C 
ATOM     26  O   UNL     1     120.801   2.696  64.889  1.00  0.00    -0.298 OA
ENDBRANCH  19  25
BRANCH  20  27
ATOM     27  C   UNL     1     122.134   4.125  58.479  1.00  0.00     0.017 C 
ATOM     28  C   UNL     1     120.922   4.067  57.542  1.00  0.00     0.012 C 
ATOM     29  C   UNL     1     123.302   3.282  57.933  1.00  0.00     0.012 C 
ENDBRANCH  20  27
BRANCH  21  30
ATOM     30  O   UNL     1     123.333   3.756  63.281  1.00  0.00    -0.504 OA
ATOM     31  H   UNL     1     124.028   4.489  63.309  1.00  0.00     0.293 HD
ENDBRANCH  21  30
BRANCH  22  32
ATOM     32  O   UNL     1     124.068   3.602  60.539  1.00  0.00    -0.504 OA
ATOM     33  H   UNL     1     124.794   3.171  61.096  1.00  0.00     0.293 HD
ENDBRANCH  22  32
ENDBRANCH  11  12
BRANCH  10  34
ATOM     34  O   UNL     1     116.079   1.226  59.320  1.00  0.00    -0.507 OA
ATOM     35  H   UNL     1     117.066   1.272  59.101  1.00  0.00     0.293 HD
ENDBRANCH  10  34
BRANCH   9  36
ATOM     36  C   UNL     1     111.623   2.183  63.692  1.00  0.00     0.017 C 
ATOM     37  C   UNL     1     110.525   3.227  63.473  1.00  0.00     0.012 C 
ATOM     38  C   UNL     1     111.123   1.022  64.574  1.00  0.00     0.012 C 
ENDBRANCH   9  36
BRANCH   6  39
ATOM     39  C   UNL     1     113.937  -0.312  58.978  1.00  0.00     0.264 C 
ATOM     40  O   UNL     1     113.241  -1.213  58.438  1.00  0.00    -0.298 OA
ENDBRANCH   6  39
BRANCH   8  41
ATOM     41  O   UNL     1     110.035   0.988  61.603  1.00  0.00    -0.504 OA
ATOM     42  H   UNL     1     109.374   0.980  60.836  1.00  0.00     0.293 HD
ENDBRANCH   8  41
BRANCH   7  43
ATOM     43  O   UNL     1     111.144  -0.323  59.466  1.00  0.00    -0.504 OA
ATOM     44  H   UNL     1     110.874  -1.280  59.646  1.00  0.00     0.293 HD
ENDBRANCH   7  43
TORSDOF 11
ENDMDL
