MODEL 1
REMARK VINA RESULT:    -4.512      0.000      0.000
REMARK INTER + INTRA:         -10.934
REMARK INTER:                  -8.733
REMARK INTRA:                  -2.201
REMARK UNBOUND:                -2.201
REMARK SMILES CCCCCCCCCCCCCCCCCC(=O)[O-]
REMARK SMILES IDX 10 1 11 2 12 3 13 4 14 5 15 6 16 7 17 8 18 9 19 10 20 11
REMARK SMILES IDX 9 12 8 13 7 14 6 15 5 16 4 17 3 18 2 19 1 20
REMARK H PARENT
REMARK Flexibility Score: inf
ROOT
ATOM      1  C   UNL     1       4.807   3.888  22.460  1.00  0.00     0.000 C 
ENDROOT
BRANCH   1   2
ATOM      2  C   UNL     1       4.304   4.943  21.460  1.00  0.00     0.000 C 
BRANCH   2   3
ATOM      3  C   UNL     1       5.037   6.299  21.505  1.00  0.00     0.000 C 
BRANCH   3   4
ATOM      4  C   UNL     1       6.326   6.316  22.347  1.00  0.00     0.000 C 
BRANCH   4   5
ATOM      5  C   UNL     1       7.500   6.999  21.624  1.00  0.00     0.000 C 
BRANCH   5   6
ATOM      6  C   UNL     1       7.137   8.414  21.134  1.00  0.00     0.000 C 
BRANCH   6   7
ATOM      7  C   UNL     1       7.018   9.451  22.273  1.00  0.00     0.006 C 
BRANCH   7   8
ATOM      8  C   UNL     1       7.239  10.898  21.807  1.00  0.00     0.053 C 
BRANCH   8   9
ATOM      9  C   UNL     1       6.340  11.864  22.512  1.00  0.00     0.041 C 
ATOM     10  O   UNL     1       5.918  11.607  23.671  1.00  0.00    -0.550 OA
ATOM     11  O   UNL     1       5.991  13.063  21.903  1.00  0.00    -0.550 OA
ENDBRANCH   8   9
ENDBRANCH   7   8
ENDBRANCH   6   7
ENDBRANCH   5   6
ENDBRANCH   4   5
ENDBRANCH   3   4
ENDBRANCH   2   3
ENDBRANCH   1   2
BRANCH   1  12
ATOM     12  C   UNL     1       5.240   2.577  21.783  1.00  0.00     0.000 C 
BRANCH  12  13
ATOM     13  C   UNL     1       5.593   2.759  20.295  1.00  0.00    -0.000 C 
BRANCH  13  14
ATOM     14  C   UNL     1       7.098   2.879  19.990  1.00  0.00    -0.000 C 
BRANCH  14  15
ATOM     15  C   UNL     1       7.461   4.185  19.266  1.00  0.00    -0.000 C 
BRANCH  15  16
ATOM     16  C   UNL     1       6.283   4.696  18.428  1.00  0.00    -0.000 C 
BRANCH  16  17
ATOM     17  C   UNL     1       6.444   6.190  18.108  1.00  0.00    -0.000 C 
BRANCH  17  18
ATOM     18  C   UNL     1       6.344   6.496  16.603  1.00  0.00    -0.000 C 
BRANCH  18  19
ATOM     19  C   UNL     1       6.501   5.271  15.683  1.00  0.00    -0.003 C 
ATOM     20  C   UNL     1       7.910   5.131  15.110  1.00  0.00     0.004 C 
ENDBRANCH  18  19
ENDBRANCH  17  18
ENDBRANCH  16  17
ENDBRANCH  15  16
ENDBRANCH  14  15
ENDBRANCH  13  14
ENDBRANCH  12  13
ENDBRANCH   1  12
TORSDOF 16
ENDMDL
MODEL 2
REMARK VINA RESULT:    -4.379      1.380      3.341
REMARK INTER + INTRA:         -10.675
REMARK INTER:                  -8.119
REMARK INTRA:                  -2.556
REMARK UNBOUND:                -2.201
REMARK SMILES CCCCCCCCCCCCCCCCCC(=O)[O-]
REMARK SMILES IDX 10 1 11 2 12 3 13 4 14 5 15 6 16 7 17 8 18 9 19 10 20 11
REMARK SMILES IDX 9 12 8 13 7 14 6 15 5 16 4 17 3 18 2 19 1 20
REMARK H PARENT
REMARK Flexibility Score: inf
ROOT
ATOM      1  C   UNL     1       7.211   2.805  19.912  1.00  0.00     0.000 C 
ENDROOT
BRANCH   1   2
ATOM      2  C   UNL     1       5.751   2.622  20.363  1.00  0.00     0.000 C 
BRANCH   2   3
ATOM      3  C   UNL     1       5.524   2.640  21.888  1.00  0.00     0.000 C 
BRANCH   3   4
ATOM      4  C   UNL     1       4.904   3.935  22.441  1.00  0.00     0.000 C 
BRANCH   4   5
ATOM      5  C   UNL     1       4.206   4.771  21.354  1.00  0.00     0.000 C 
BRANCH   5   6
ATOM      6  C   UNL     1       4.686   6.235  21.349  1.00  0.00     0.000 C 
BRANCH   6   7
ATOM      7  C   UNL     1       6.079   6.431  21.986  1.00  0.00     0.006 C 
BRANCH   7   8
ATOM      8  C   UNL     1       6.929   7.497  21.278  1.00  0.00     0.053 C 
BRANCH   8   9
ATOM      9  C   UNL     1       6.822   8.837  21.937  1.00  0.00     0.041 C 
ATOM     10  O   UNL     1       7.530   9.799  21.536  1.00  0.00    -0.550 OA
ATOM     11  O   UNL     1       5.919   9.033  22.974  1.00  0.00    -0.550 OA
ENDBRANCH   8   9
ENDBRANCH   7   8
ENDBRANCH   6   7
ENDBRANCH   5   6
ENDBRANCH   4   5
ENDBRANCH   3   4
ENDBRANCH   2   3
ENDBRANCH   1   2
BRANCH   1  12
ATOM     12  C   UNL     1       7.470   4.175  19.262  1.00  0.00     0.000 C 
BRANCH  12  13
ATOM     13  C   UNL     1       6.302   4.650  18.378  1.00  0.00    -0.000 C 
BRANCH  13  14
ATOM     14  C   UNL     1       6.303   6.153  18.045  1.00  0.00    -0.000 C 
BRANCH  14  15
ATOM     15  C   UNL     1       6.136   6.435  16.544  1.00  0.00    -0.000 C 
BRANCH  15  16
ATOM     16  C   UNL     1       5.983   5.131  15.752  1.00  0.00    -0.000 C 
BRANCH  16  17
ATOM     17  C   UNL     1       7.258   4.821  14.951  1.00  0.00    -0.000 C 
BRANCH  17  18
ATOM     18  C   UNL     1       8.407   5.798  15.254  1.00  0.00    -0.000 C 
BRANCH  18  19
ATOM     19  C   UNL     1       9.667   5.148  15.854  1.00  0.00    -0.003 C 
ATOM     20  C   UNL     1       9.444   3.700  16.287  1.00  0.00     0.004 C 
ENDBRANCH  18  19
ENDBRANCH  17  18
ENDBRANCH  16  17
ENDBRANCH  15  16
ENDBRANCH  14  15
ENDBRANCH  13  14
ENDBRANCH  12  13
ENDBRANCH   1  12
TORSDOF 16
ENDMDL
MODEL 3
REMARK VINA RESULT:    -4.344      3.923      6.430
REMARK INTER + INTRA:         -10.608
REMARK INTER:                  -8.589
REMARK INTRA:                  -2.020
REMARK UNBOUND:                -2.201
REMARK SMILES CCCCCCCCCCCCCCCCCC(=O)[O-]
REMARK SMILES IDX 10 1 11 2 12 3 13 4 14 5 15 6 16 7 17 8 18 9 19 10 20 11
REMARK SMILES IDX 9 12 8 13 7 14 6 15 5 16 4 17 3 18 2 19 1 20
REMARK H PARENT
REMARK Flexibility Score: inf
ROOT
ATOM      1  C   UNL     1       6.189   6.022  16.246  1.00  0.00     0.000 C 
ENDROOT
BRANCH   1   2
ATOM      2  C   UNL     1       6.427   7.037  17.378  1.00  0.00     0.000 C 
BRANCH   2   3
ATOM      3  C   UNL     1       6.302   6.473  18.808  1.00  0.00     0.000 C 
BRANCH   3   4
ATOM      4  C   UNL     1       7.528   5.687  19.308  1.00  0.00     0.000 C 
BRANCH   4   5
ATOM      5  C   UNL     1       7.302   4.165  19.300  1.00  0.00     0.000 C 
BRANCH   5   6
ATOM      6  C   UNL     1       5.807   3.799  19.252  1.00  0.00     0.000 C 
BRANCH   6   7
ATOM      7  C   UNL     1       5.150   3.701  20.647  1.00  0.00     0.006 C 
BRANCH   7   8
ATOM      8  C   UNL     1       5.584   2.459  21.441  1.00  0.00     0.053 C 
BRANCH   8   9
ATOM      9  C   UNL     1       6.218   2.816  22.749  1.00  0.00     0.041 C 
ATOM     10  O   UNL     1       5.652   2.507  23.832  1.00  0.00    -0.550 OA
ATOM     11  O   UNL     1       7.447   3.462  22.775  1.00  0.00    -0.550 OA
ENDBRANCH   8   9
ENDBRANCH   7   8
ENDBRANCH   6   7
ENDBRANCH   5   6
ENDBRANCH   4   5
ENDBRANCH   3   4
ENDBRANCH   2   3
ENDBRANCH   1   2
BRANCH   1  12
ATOM     12  C   UNL     1       7.494   5.519  15.607  1.00  0.00     0.000 C 
BRANCH  12  13
ATOM     13  C   UNL     1       8.634   6.551  15.680  1.00  0.00    -0.000 C 
BRANCH  13  14
ATOM     14  C   UNL     1      10.028   5.968  15.976  1.00  0.00    -0.000 C 
BRANCH  14  15
ATOM     15  C   UNL     1      10.869   5.751  14.709  1.00  0.00    -0.000 C 
BRANCH  15  16
ATOM     16  C   UNL     1      10.584   6.839  13.665  1.00  0.00    -0.000 C 
BRANCH  16  17
ATOM     17  C   UNL     1      10.447   6.230  12.261  1.00  0.00    -0.000 C 
BRANCH  17  18
ATOM     18  C   UNL     1       9.103   5.509  12.049  1.00  0.00    -0.000 C 
BRANCH  18  19
ATOM     19  C   UNL     1       9.209   3.983  11.882  1.00  0.00    -0.003 C 
ATOM     20  C   UNL     1       8.656   3.211  13.078  1.00  0.00     0.004 C 
ENDBRANCH  18  19
ENDBRANCH  17  18
ENDBRANCH  16  17
ENDBRANCH  15  16
ENDBRANCH  14  15
ENDBRANCH  13  14
ENDBRANCH  12  13
ENDBRANCH   1  12
TORSDOF 16
ENDMDL
MODEL 4
REMARK VINA RESULT:    -4.340      2.543      4.674
REMARK INTER + INTRA:         -10.599
REMARK INTER:                  -8.203
REMARK INTRA:                  -2.397
REMARK UNBOUND:                -2.201
REMARK SMILES CCCCCCCCCCCCCCCCCC(=O)[O-]
REMARK SMILES IDX 10 1 11 2 12 3 13 4 14 5 15 6 16 7 17 8 18 9 19 10 20 11
REMARK SMILES IDX 9 12 8 13 7 14 6 15 5 16 4 17 3 18 2 19 1 20
REMARK H PARENT
REMARK Flexibility Score: inf
ROOT
ATOM      1  C   UNL     1       7.607   5.162  19.495  1.00  0.00     0.000 C 
ENDROOT
BRANCH   1   2
ATOM      2  C   UNL     1       7.842   3.735  18.971  1.00  0.00     0.000 C 
BRANCH   2   3
ATOM      3  C   UNL     1       7.510   2.603  19.964  1.00  0.00     0.000 C 
BRANCH   3   4
ATOM      4  C   UNL     1       6.009   2.312  20.144  1.00  0.00     0.000 C 
BRANCH   4   5
ATOM      5  C   UNL     1       5.488   2.710  21.535  1.00  0.00     0.000 C 
BRANCH   5   6
ATOM      6  C   UNL     1       4.352   3.747  21.455  1.00  0.00     0.000 C 
BRANCH   6   7
ATOM      7  C   UNL     1       4.755   5.147  21.969  1.00  0.00     0.006 C 
BRANCH   7   8
ATOM      8  C   UNL     1       5.908   5.117  22.984  1.00  0.00     0.053 C 
BRANCH   8   9
ATOM      9  C   UNL     1       6.670   6.404  23.015  1.00  0.00     0.041 C 
ATOM     10  O   UNL     1       7.906   6.414  22.770  1.00  0.00    -0.550 OA
ATOM     11  O   UNL     1       6.012   7.597  23.283  1.00  0.00    -0.550 OA
ENDBRANCH   8   9
ENDBRANCH   7   8
ENDBRANCH   6   7
ENDBRANCH   5   6
ENDBRANCH   4   5
ENDBRANCH   3   4
ENDBRANCH   2   3
ENDBRANCH   1   2
BRANCH   1  12
ATOM     12  C   UNL     1       6.343   5.815  18.912  1.00  0.00     0.000 C 
BRANCH  12  13
ATOM     13  C   UNL     1       6.637   7.124  18.157  1.00  0.00    -0.000 C 
BRANCH  13  14
ATOM     14  C   UNL     1       6.395   7.072  16.637  1.00  0.00    -0.000 C 
BRANCH  14  15
ATOM     15  C   UNL     1       5.791   5.738  16.172  1.00  0.00    -0.000 C 
BRANCH  15  16
ATOM     16  C   UNL     1       6.860   4.838  15.539  1.00  0.00    -0.000 C 
BRANCH  16  17
ATOM     17  C   UNL     1       8.144   5.631  15.251  1.00  0.00    -0.000 C 
BRANCH  17  18
ATOM     18  C   UNL     1       9.393   5.004  15.896  1.00  0.00    -0.000 C 
BRANCH  18  19
ATOM     19  C   UNL     1      10.494   6.008  16.282  1.00  0.00    -0.003 C 
ATOM     20  C   UNL     1      10.602   7.180  15.308  1.00  0.00     0.004 C 
ENDBRANCH  18  19
ENDBRANCH  17  18
ENDBRANCH  16  17
ENDBRANCH  15  16
ENDBRANCH  14  15
ENDBRANCH  13  14
ENDBRANCH  12  13
ENDBRANCH   1  12
TORSDOF 16
ENDMDL
MODEL 5
REMARK VINA RESULT:    -4.327      1.221      2.819
REMARK INTER + INTRA:         -10.575
REMARK INTER:                  -8.233
REMARK INTRA:                  -2.342
REMARK UNBOUND:                -2.201
REMARK SMILES CCCCCCCCCCCCCCCCCC(=O)[O-]
REMARK SMILES IDX 10 1 11 2 12 3 13 4 14 5 15 6 16 7 17 8 18 9 19 10 20 11
REMARK SMILES IDX 9 12 8 13 7 14 6 15 5 16 4 17 3 18 2 19 1 20
REMARK H PARENT
REMARK Flexibility Score: inf
ROOT
ATOM      1  C   UNL     1       5.987   3.770  19.401  1.00  0.00     0.000 C 
ENDROOT
BRANCH   1   2
ATOM      2  C   UNL     1       5.231   3.314  20.662  1.00  0.00     0.000 C 
BRANCH   2   3
ATOM      3  C   UNL     1       4.488   4.429  21.426  1.00  0.00     0.000 C 
BRANCH   3   4
ATOM      4  C   UNL     1       4.809   4.516  22.929  1.00  0.00     0.000 C 
BRANCH   4   5
ATOM      5  C   UNL     1       5.832   5.618  23.256  1.00  0.00     0.000 C 
BRANCH   5   6
ATOM      6  C   UNL     1       5.883   6.705  22.166  1.00  0.00     0.000 C 
BRANCH   6   7
ATOM      7  C   UNL     1       7.188   7.532  22.179  1.00  0.00     0.006 C 
BRANCH   7   8
ATOM      8  C   UNL     1       7.114   8.803  21.320  1.00  0.00     0.053 C 
BRANCH   8   9
ATOM      9  C   UNL     1       7.095  10.048  22.150  1.00  0.00     0.041 C 
ATOM     10  O   UNL     1       8.054  10.863  22.092  1.00  0.00    -0.550 OA
ATOM     11  O   UNL     1       6.005  10.325  22.965  1.00  0.00    -0.550 OA
ENDBRANCH   8   9
ENDBRANCH   7   8
ENDBRANCH   6   7
ENDBRANCH   5   6
ENDBRANCH   4   5
ENDBRANCH   3   4
ENDBRANCH   2   3
ENDBRANCH   1   2
BRANCH   1  12
ATOM     12  C   UNL     1       7.387   4.327  19.709  1.00  0.00     0.000 C 
BRANCH  12  13
ATOM     13  C   UNL     1       7.644   5.697  19.055  1.00  0.00    -0.000 C 
BRANCH  13  14
ATOM     14  C   UNL     1       6.393   6.403  18.501  1.00  0.00    -0.000 C 
BRANCH  14  15
ATOM     15  C   UNL     1       6.478   6.677  16.992  1.00  0.00    -0.000 C 
BRANCH  15  16
ATOM     16  C   UNL     1       5.839   5.538  16.188  1.00  0.00    -0.000 C 
BRANCH  16  17
ATOM     17  C   UNL     1       6.817   4.994  15.134  1.00  0.00    -0.000 C 
BRANCH  17  18
ATOM     18  C   UNL     1       8.248   4.826  15.674  1.00  0.00    -0.000 C 
BRANCH  18  19
ATOM     19  C   UNL     1       9.349   5.429  14.784  1.00  0.00    -0.003 C 
ATOM     20  C   UNL     1       9.811   6.808  15.254  1.00  0.00     0.004 C 
ENDBRANCH  18  19
ENDBRANCH  17  18
ENDBRANCH  16  17
ENDBRANCH  15  16
ENDBRANCH  14  15
ENDBRANCH  13  14
ENDBRANCH  12  13
ENDBRANCH   1  12
TORSDOF 16
ENDMDL
MODEL 6
REMARK VINA RESULT:    -4.326      3.977      6.431
REMARK INTER + INTRA:         -10.573
REMARK INTER:                  -8.074
REMARK INTRA:                  -2.499
REMARK UNBOUND:                -2.201
REMARK SMILES CCCCCCCCCCCCCCCCCC(=O)[O-]
REMARK SMILES IDX 10 1 11 2 12 3 13 4 14 5 15 6 16 7 17 8 18 9 19 10 20 11
REMARK SMILES IDX 9 12 8 13 7 14 6 15 5 16 4 17 3 18 2 19 1 20
REMARK H PARENT
REMARK Flexibility Score: inf
ROOT
ATOM      1  C   UNL     1       7.773   5.351  19.356  1.00  0.00     0.000 C 
ENDROOT
BRANCH   1   2
ATOM      2  C   UNL     1       6.364   5.910  19.094  1.00  0.00     0.000 C 
BRANCH   2   3
ATOM      3  C   UNL     1       6.316   7.253  18.336  1.00  0.00     0.000 C 
BRANCH   3   4
ATOM      4  C   UNL     1       6.322   7.136  16.801  1.00  0.00     0.000 C 
BRANCH   4   5
ATOM      5  C   UNL     1       5.937   5.731  16.310  1.00  0.00     0.000 C 
BRANCH   5   6
ATOM      6  C   UNL     1       7.073   5.062  15.513  1.00  0.00     0.000 C 
BRANCH   6   7
ATOM      7  C   UNL     1       8.250   6.012  15.199  1.00  0.00     0.006 C 
BRANCH   7   8
ATOM      8  C   UNL     1       9.530   5.679  15.981  1.00  0.00     0.053 C 
BRANCH   8   9
ATOM      9  C   UNL     1      10.641   6.636  15.684  1.00  0.00     0.041 C 
ATOM     10  O   UNL     1      11.563   6.817  16.524  1.00  0.00    -0.550 OA
ATOM     11  O   UNL     1      10.677   7.306  14.468  1.00  0.00    -0.550 OA
ENDBRANCH   8   9
ENDBRANCH   7   8
ENDBRANCH   6   7
ENDBRANCH   5   6
ENDBRANCH   4   5
ENDBRANCH   3   4
ENDBRANCH   2   3
ENDBRANCH   1   2
BRANCH   1  12
ATOM     12  C   UNL     1       7.934   3.891  18.900  1.00  0.00     0.000 C 
BRANCH  12  13
ATOM     13  C   UNL     1       7.623   2.877  20.015  1.00  0.00    -0.000 C 
BRANCH  13  14
ATOM     14  C   UNL     1       6.199   2.291  19.989  1.00  0.00    -0.000 C 
BRANCH  14  15
ATOM     15  C   UNL     1       5.455   2.462  21.322  1.00  0.00    -0.000 C 
BRANCH  15  16
ATOM     16  C   UNL     1       4.566   3.711  21.303  1.00  0.00    -0.000 C 
BRANCH  16  17
ATOM     17  C   UNL     1       4.624   4.448  22.649  1.00  0.00    -0.000 C 
BRANCH  17  18
ATOM     18  C   UNL     1       5.790   5.449  22.735  1.00  0.00    -0.000 C 
BRANCH  18  19
ATOM     19  C   UNL     1       6.934   5.030  23.676  1.00  0.00    -0.003 C 
ATOM     20  C   UNL     1       8.283   4.924  22.968  1.00  0.00     0.004 C 
ENDBRANCH  18  19
ENDBRANCH  17  18
ENDBRANCH  16  17
ENDBRANCH  15  16
ENDBRANCH  14  15
ENDBRANCH  13  14
ENDBRANCH  12  13
ENDBRANCH   1  12
TORSDOF 16
ENDMDL
MODEL 7
REMARK VINA RESULT:    -4.276      4.252      7.068
REMARK INTER + INTRA:         -10.476
REMARK INTER:                  -8.321
REMARK INTRA:                  -2.155
REMARK UNBOUND:                -2.201
REMARK SMILES CCCCCCCCCCCCCCCCCC(=O)[O-]
REMARK SMILES IDX 10 1 11 2 12 3 13 4 14 5 15 6 16 7 17 8 18 9 19 10 20 11
REMARK SMILES IDX 9 12 8 13 7 14 6 15 5 16 4 17 3 18 2 19 1 20
REMARK H PARENT
REMARK Flexibility Score: inf
ROOT
ATOM      1  C   UNL     1       7.599   5.315  18.880  1.00  0.00     0.000 C 
ENDROOT
BRANCH   1   2
ATOM      2  C   UNL     1       6.327   6.040  18.407  1.00  0.00     0.000 C 
BRANCH   2   3
ATOM      3  C   UNL     1       6.320   6.462  16.923  1.00  0.00     0.000 C 
BRANCH   3   4
ATOM      4  C   UNL     1       6.387   5.301  15.914  1.00  0.00     0.000 C 
BRANCH   4   5
ATOM      5  C   UNL     1       7.735   5.230  15.177  1.00  0.00     0.000 C 
BRANCH   5   6
ATOM      6  C   UNL     1       8.678   6.379  15.579  1.00  0.00     0.000 C 
BRANCH   6   7
ATOM      7  C   UNL     1      10.139   5.930  15.805  1.00  0.00     0.006 C 
BRANCH   7   8
ATOM      8  C   UNL     1      11.132   6.561  14.817  1.00  0.00     0.053 C 
BRANCH   8   9
ATOM      9  C   UNL     1      10.908   6.093  13.413  1.00  0.00     0.041 C 
ATOM     10  O   UNL     1      10.596   6.918  12.513  1.00  0.00    -0.550 OA
ATOM     11  O   UNL     1      11.072   4.752  13.091  1.00  0.00    -0.550 OA
ENDBRANCH   8   9
ENDBRANCH   7   8
ENDBRANCH   6   7
ENDBRANCH   5   6
ENDBRANCH   4   5
ENDBRANCH   3   4
ENDBRANCH   2   3
ENDBRANCH   1   2
BRANCH   1  12
ATOM     12  C   UNL     1       7.348   3.842  19.246  1.00  0.00     0.000 C 
BRANCH  12  13
ATOM     13  C   UNL     1       5.863   3.533  19.506  1.00  0.00    -0.000 C 
BRANCH  13  14
ATOM     14  C   UNL     1       5.577   2.724  20.786  1.00  0.00    -0.000 C 
BRANCH  14  15
ATOM     15  C   UNL     1       4.508   3.372  21.679  1.00  0.00    -0.000 C 
BRANCH  15  16
ATOM     16  C   UNL     1       4.526   4.900  21.541  1.00  0.00    -0.000 C 
BRANCH  16  17
ATOM     17  C   UNL     1       5.391   5.540  22.637  1.00  0.00    -0.000 C 
BRANCH  17  18
ATOM     18  C   UNL     1       6.506   6.439  22.073  1.00  0.00    -0.000 C 
BRANCH  18  19
ATOM     19  C   UNL     1       6.022   7.779  21.490  1.00  0.00    -0.003 C 
ATOM     20  C   UNL     1       7.142   8.809  21.348  1.00  0.00     0.004 C 
ENDBRANCH  18  19
ENDBRANCH  17  18
ENDBRANCH  16  17
ENDBRANCH  15  16
ENDBRANCH  14  15
ENDBRANCH  13  14
ENDBRANCH  12  13
ENDBRANCH   1  12
TORSDOF 16
ENDMDL
MODEL 8
REMARK VINA RESULT:    -4.244      3.703      6.465
REMARK INTER + INTRA:         -10.415
REMARK INTER:                  -7.897
REMARK INTRA:                  -2.518
REMARK UNBOUND:                -2.201
REMARK SMILES CCCCCCCCCCCCCCCCCC(=O)[O-]
REMARK SMILES IDX 10 1 11 2 12 3 13 4 14 5 15 6 16 7 17 8 18 9 19 10 20 11
REMARK SMILES IDX 9 12 8 13 7 14 6 15 5 16 4 17 3 18 2 19 1 20
REMARK H PARENT
REMARK Flexibility Score: inf
ROOT
ATOM      1  C   UNL     1       8.020   3.341  19.744  1.00  0.00     0.000 C 
ENDROOT
BRANCH   1   2
ATOM      2  C   UNL     1       7.894   4.782  19.219  1.00  0.00     0.000 C 
BRANCH   2   3
ATOM      3  C   UNL     1       6.548   5.125  18.549  1.00  0.00     0.000 C 
BRANCH   3   4
ATOM      4  C   UNL     1       6.393   6.592  18.107  1.00  0.00     0.000 C 
BRANCH   4   5
ATOM      5  C   UNL     1       6.522   6.771  16.584  1.00  0.00     0.000 C 
BRANCH   5   6
ATOM      6  C   UNL     1       6.438   5.430  15.832  1.00  0.00     0.000 C 
BRANCH   6   7
ATOM      7  C   UNL     1       7.720   5.081  15.044  1.00  0.00     0.006 C 
BRANCH   7   8
ATOM      8  C   UNL     1       9.000   5.647  15.679  1.00  0.00     0.053 C 
BRANCH   8   9
ATOM      9  C   UNL     1      10.085   5.860  14.671  1.00  0.00     0.041 C 
ATOM     10  O   UNL     1      10.637   4.873  14.116  1.00  0.00    -0.550 OA
ATOM     11  O   UNL     1      10.468   7.148  14.321  1.00  0.00    -0.550 OA
ENDBRANCH   8   9
ENDBRANCH   7   8
ENDBRANCH   6   7
ENDBRANCH   5   6
ENDBRANCH   4   5
ENDBRANCH   3   4
ENDBRANCH   2   3
ENDBRANCH   1   2
BRANCH   1  12
ATOM     12  C   UNL     1       7.238   3.107  21.047  1.00  0.00     0.000 C 
BRANCH  12  13
ATOM     13  C   UNL     1       5.867   2.446  20.813  1.00  0.00    -0.000 C 
BRANCH  13  14
ATOM     14  C   UNL     1       4.745   2.914  21.758  1.00  0.00    -0.000 C 
BRANCH  14  15
ATOM     15  C   UNL     1       4.990   4.318  22.332  1.00  0.00    -0.000 C 
BRANCH  15  16
ATOM     16  C   UNL     1       4.357   5.395  21.442  1.00  0.00    -0.000 C 
BRANCH  16  17
ATOM     17  C   UNL     1       5.152   6.708  21.520  1.00  0.00    -0.000 C 
BRANCH  17  18
ATOM     18  C   UNL     1       6.443   6.580  22.348  1.00  0.00    -0.000 C 
BRANCH  18  19
ATOM     19  C   UNL     1       7.662   7.316  21.763  1.00  0.00    -0.003 C 
ATOM     20  C   UNL     1       7.325   8.713  21.246  1.00  0.00     0.004 C 
ENDBRANCH  18  19
ENDBRANCH  17  18
ENDBRANCH  16  17
ENDBRANCH  15  16
ENDBRANCH  14  15
ENDBRANCH  13  14
ENDBRANCH  12  13
ENDBRANCH   1  12
TORSDOF 16
ENDMDL
MODEL 9
REMARK VINA RESULT:    -4.207      4.361      6.218
REMARK INTER + INTRA:         -10.343
REMARK INTER:                  -7.820
REMARK INTRA:                  -2.523
REMARK UNBOUND:                -2.201
REMARK SMILES CCCCCCCCCCCCCCCCCC(=O)[O-]
REMARK SMILES IDX 10 1 11 2 12 3 13 4 14 5 15 6 16 7 17 8 18 9 19 10 20 11
REMARK SMILES IDX 9 12 8 13 7 14 6 15 5 16 4 17 3 18 2 19 1 20
REMARK H PARENT
REMARK Flexibility Score: inf
ROOT
ATOM      1  C   UNL     1       6.145   5.929  22.337  1.00  0.00     0.000 C 
ENDROOT
BRANCH   1   2
ATOM      2  C   UNL     1       5.464   6.690  21.186  1.00  0.00     0.000 C 
BRANCH   2   3
ATOM      3  C   UNL     1       6.401   7.141  20.047  1.00  0.00     0.000 C 
BRANCH   3   4
ATOM      4  C   UNL     1       6.334   6.285  18.769  1.00  0.00     0.000 C 
BRANCH   4   5
ATOM      5  C   UNL     1       6.324   7.133  17.486  1.00  0.00     0.000 C 
BRANCH   5   6
ATOM      6  C   UNL     1       5.907   6.313  16.251  1.00  0.00     0.000 C 
BRANCH   6   7
ATOM      7  C   UNL     1       6.770   5.051  16.026  1.00  0.00     0.006 C 
BRANCH   7   8
ATOM      8  C   UNL     1       8.157   5.356  15.439  1.00  0.00     0.053 C 
BRANCH   8   9
ATOM      9  C   UNL     1       8.359   4.717  14.101  1.00  0.00     0.041 C 
ATOM     10  O   UNL     1       7.719   3.677  13.793  1.00  0.00    -0.550 OA
ATOM     11  O   UNL     1       9.231   5.286  13.182  1.00  0.00    -0.550 OA
ENDBRANCH   8   9
ENDBRANCH   7   8
ENDBRANCH   6   7
ENDBRANCH   5   6
ENDBRANCH   4   5
ENDBRANCH   3   4
ENDBRANCH   2   3
ENDBRANCH   1   2
BRANCH   1  12
ATOM     12  C   UNL     1       5.296   4.762  22.869  1.00  0.00     0.000 C 
BRANCH  12  13
ATOM     13  C   UNL     1       4.531   4.022  21.756  1.00  0.00    -0.000 C 
BRANCH  13  14
ATOM     14  C   UNL     1       5.167   2.698  21.294  1.00  0.00    -0.000 C 
BRANCH  14  15
ATOM     15  C   UNL     1       5.942   2.835  19.974  1.00  0.00    -0.000 C 
BRANCH  15  16
ATOM     16  C   UNL     1       7.456   2.825  20.220  1.00  0.00    -0.000 C 
BRANCH  16  17
ATOM     17  C   UNL     1       8.224   3.158  18.931  1.00  0.00    -0.000 C 
BRANCH  17  18
ATOM     18  C   UNL     1       9.307   4.231  19.139  1.00  0.00    -0.000 C 
BRANCH  18  19
ATOM     19  C   UNL     1       9.256   4.946  20.501  1.00  0.00    -0.003 C 
ATOM     20  C   UNL     1      10.252   6.099  20.610  1.00  0.00     0.004 C 
ENDBRANCH  18  19
ENDBRANCH  17  18
ENDBRANCH  16  17
ENDBRANCH  15  16
ENDBRANCH  14  15
ENDBRANCH  13  14
ENDBRANCH  12  13
ENDBRANCH   1  12
TORSDOF 16
ENDMDL
