MODEL 1
REMARK VINA RESULT:    -4.838      0.000      0.000
REMARK INTER + INTRA:          -7.509
REMARK INTER:                  -7.100
REMARK INTRA:                  -0.409
REMARK UNBOUND:                -0.409
REMARK SMILES O=C([O-])CCCCCCCC(=O)[O-]
REMARK SMILES IDX 7 1 6 2 5 3 4 4 2 5 1 6 3 7 8 8 9 9 10 10 11 11 12 12 13 13
REMARK H PARENT
REMARK Flexibility Score: inf
ROOT
ATOM      1  C   UNL     1      23.638  37.368 147.872  1.00  0.00     0.000 C 
ENDROOT
BRANCH   1   2
ATOM      2  C   UNL     1      25.133  37.094 147.633  1.00  0.00     0.000 C 
BRANCH   2   3
ATOM      3  C   UNL     1      25.419  35.620 147.303  1.00  0.00     0.006 C 
BRANCH   3   4
ATOM      4  C   UNL     1      24.133  34.792 147.190  1.00  0.00     0.053 C 
BRANCH   4   5
ATOM      5  C   UNL     1      24.069  33.716 148.230  1.00  0.00     0.041 C 
ATOM      6  O   UNL     1      24.113  34.011 149.453  1.00  0.00    -0.550 OA
ATOM      7  O   UNL     1      23.991  32.383 147.847  1.00  0.00    -0.550 OA
ENDBRANCH   4   5
ENDBRANCH   3   4
ENDBRANCH   2   3
ENDBRANCH   1   2
BRANCH   1   8
ATOM      8  C   UNL     1      23.257  38.835 147.619  1.00  0.00     0.000 C 
BRANCH   8   9
ATOM      9  C   UNL     1      24.491  39.742 147.695  1.00  0.00     0.006 C 
BRANCH   9  10
ATOM     10  C   UNL     1      24.088  41.220 147.660  1.00  0.00     0.053 C 
BRANCH  10  11
ATOM     11  C   UNL     1      24.171  41.818 149.029  1.00  0.00     0.041 C 
ATOM     12  O   UNL     1      23.914  43.038 149.204  1.00  0.00    -0.550 OA
ATOM     13  O   UNL     1      24.483  41.016 150.119  1.00  0.00    -0.550 OA
ENDBRANCH  10  11
ENDBRANCH   9  10
ENDBRANCH   8   9
ENDBRANCH   1   8
TORSDOF 8
ENDMDL
MODEL 2
REMARK VINA RESULT:    -4.779      1.375      1.861
REMARK INTER + INTRA:          -7.422
REMARK INTER:                  -6.882
REMARK INTRA:                  -0.540
REMARK UNBOUND:                -0.409
REMARK SMILES O=C([O-])CCCCCCCC(=O)[O-]
REMARK SMILES IDX 7 1 6 2 5 3 4 4 2 5 1 6 3 7 8 8 9 9 10 10 11 11 12 12 13 13
REMARK H PARENT
REMARK Flexibility Score: inf
ROOT
ATOM      1  C   UNL     1      23.674  37.296 147.620  1.00  0.00     0.000 C 
ENDROOT
BRANCH   1   2
ATOM      2  C   UNL     1      25.162  36.921 147.515  1.00  0.00     0.000 C 
BRANCH   2   3
ATOM      3  C   UNL     1      25.381  35.407 147.354  1.00  0.00     0.006 C 
BRANCH   3   4
ATOM      4  C   UNL     1      24.060  34.626 147.377  1.00  0.00     0.053 C 
BRANCH   4   5
ATOM      5  C   UNL     1      24.111  33.473 148.332  1.00  0.00     0.041 C 
ATOM      6  O   UNL     1      24.134  32.291 147.899  1.00  0.00    -0.550 OA
ATOM      7  O   UNL     1      24.102  33.703 149.701  1.00  0.00    -0.550 OA
ENDBRANCH   4   5
ENDBRANCH   3   4
ENDBRANCH   2   3
ENDBRANCH   1   2
BRANCH   1   8
ATOM      8  C   UNL     1      23.447  38.816 147.652  1.00  0.00     0.000 C 
BRANCH   8   9
ATOM      9  C   UNL     1      24.776  39.570 147.525  1.00  0.00     0.006 C 
BRANCH   9  10
ATOM     10  C   UNL     1      24.994  40.504 148.720  1.00  0.00     0.053 C 
BRANCH  10  11
ATOM     11  C   UNL     1      25.404  39.722 149.927  1.00  0.00     0.041 C 
ATOM     12  O   UNL     1      26.587  39.307 150.042  1.00  0.00    -0.550 OA
ATOM     13  O   UNL     1      24.492  39.494 150.951  1.00  0.00    -0.550 OA
ENDBRANCH  10  11
ENDBRANCH   9  10
ENDBRANCH   8   9
ENDBRANCH   1   8
TORSDOF 8
ENDMDL
MODEL 3
REMARK VINA RESULT:    -4.764      1.098      6.517
REMARK INTER + INTRA:          -7.400
REMARK INTER:                  -6.979
REMARK INTRA:                  -0.421
REMARK UNBOUND:                -0.409
REMARK SMILES O=C([O-])CCCCCCCC(=O)[O-]
REMARK SMILES IDX 7 1 6 2 5 3 4 4 2 5 1 6 3 7 8 8 9 9 10 10 11 11 12 12 13 13
REMARK H PARENT
REMARK Flexibility Score: inf
ROOT
ATOM      1  C   UNL     1      25.297  37.057 147.631  1.00  0.00     0.000 C 
ENDROOT
BRANCH   1   2
ATOM      2  C   UNL     1      23.765  37.186 147.611  1.00  0.00     0.000 C 
BRANCH   2   3
ATOM      3  C   UNL     1      23.293  38.650 147.662  1.00  0.00     0.006 C 
BRANCH   3   4
ATOM      4  C   UNL     1      24.439  39.615 147.993  1.00  0.00     0.053 C 
BRANCH   4   5
ATOM      5  C   UNL     1      24.312  40.178 149.375  1.00  0.00     0.041 C 
ATOM      6  O   UNL     1      24.193  41.420 149.546  1.00  0.00    -0.550 OA
ATOM      7  O   UNL     1      24.355  39.334 150.477  1.00  0.00    -0.550 OA
ENDBRANCH   4   5
ENDBRANCH   3   4
ENDBRANCH   2   3
ENDBRANCH   1   2
BRANCH   1   8
ATOM      8  C   UNL     1      25.776  35.638 147.285  1.00  0.00     0.000 C 
BRANCH   8   9
ATOM      9  C   UNL     1      26.366  34.944 148.519  1.00  0.00     0.006 C 
BRANCH   9  10
ATOM     10  C   UNL     1      26.137  33.430 148.458  1.00  0.00     0.053 C 
BRANCH  10  11
ATOM     11  C   UNL     1      24.687  33.111 148.639  1.00  0.00     0.041 C 
ATOM     12  O   UNL     1      24.028  32.602 147.695  1.00  0.00    -0.550 OA
ATOM     13  O   UNL     1      24.076  33.329 149.867  1.00  0.00    -0.550 OA
ENDBRANCH  10  11
ENDBRANCH   9  10
ENDBRANCH   8   9
ENDBRANCH   1   8
TORSDOF 8
ENDMDL
MODEL 4
REMARK VINA RESULT:    -4.742      1.260      6.359
REMARK INTER + INTRA:          -7.368
REMARK INTER:                  -6.838
REMARK INTRA:                  -0.531
REMARK UNBOUND:                -0.409
REMARK SMILES O=C([O-])CCCCCCCC(=O)[O-]
REMARK SMILES IDX 7 1 6 2 5 3 4 4 2 5 1 6 3 7 8 8 9 9 10 10 11 11 12 12 13 13
REMARK H PARENT
REMARK Flexibility Score: inf
ROOT
ATOM      1  C   UNL     1      23.624  37.161 147.919  1.00  0.00     0.000 C 
ENDROOT
BRANCH   1   2
ATOM      2  C   UNL     1      23.255  38.622 147.611  1.00  0.00     0.000 C 
BRANCH   2   3
ATOM      3  C   UNL     1      24.480  39.553 147.600  1.00  0.00     0.006 C 
BRANCH   3   4
ATOM      4  C   UNL     1      24.413  40.609 148.711  1.00  0.00     0.053 C 
BRANCH   4   5
ATOM      5  C   UNL     1      25.082  40.142 149.966  1.00  0.00     0.041 C 
ATOM      6  O   UNL     1      24.442  39.467 150.815  1.00  0.00    -0.550 OA
ATOM      7  O   UNL     1      26.407  40.478 150.214  1.00  0.00    -0.550 OA
ENDBRANCH   4   5
ENDBRANCH   3   4
ENDBRANCH   2   3
ENDBRANCH   1   2
BRANCH   1   8
ATOM      8  C   UNL     1      25.107  36.856 147.654  1.00  0.00     0.000 C 
BRANCH   8   9
ATOM      9  C   UNL     1      25.307  35.377 147.302  1.00  0.00     0.006 C 
BRANCH   9  10
ATOM     10  C   UNL     1      23.994  34.599 147.433  1.00  0.00     0.053 C 
BRANCH  10  11
ATOM     11  C   UNL     1      24.159  33.451 148.379  1.00  0.00     0.041 C 
ATOM     12  O   UNL     1      24.175  32.270 147.944  1.00  0.00    -0.550 OA
ATOM     13  O   UNL     1      24.345  33.689 149.735  1.00  0.00    -0.550 OA
ENDBRANCH  10  11
ENDBRANCH   9  10
ENDBRANCH   8   9
ENDBRANCH   1   8
TORSDOF 8
ENDMDL
MODEL 5
REMARK VINA RESULT:    -4.729      0.745      6.786
REMARK INTER + INTRA:          -7.350
REMARK INTER:                  -6.971
REMARK INTRA:                  -0.379
REMARK UNBOUND:                -0.409
REMARK SMILES O=C([O-])CCCCCCCC(=O)[O-]
REMARK SMILES IDX 7 1 6 2 5 3 4 4 2 5 1 6 3 7 8 8 9 9 10 10 11 11 12 12 13 13
REMARK H PARENT
REMARK Flexibility Score: inf
ROOT
ATOM      1  C   UNL     1      25.067  37.618 147.607  1.00  0.00     0.000 C 
ENDROOT
BRANCH   1   2
ATOM      2  C   UNL     1      25.228  39.147 147.639  1.00  0.00     0.000 C 
BRANCH   2   3
ATOM      3  C   UNL     1      23.882  39.881 147.761  1.00  0.00     0.006 C 
BRANCH   3   4
ATOM      4  C   UNL     1      24.005  41.373 147.423  1.00  0.00     0.053 C 
BRANCH   4   5
ATOM      5  C   UNL     1      24.030  42.223 148.656  1.00  0.00     0.041 C 
ATOM      6  O   UNL     1      23.936  43.476 148.565  1.00  0.00    -0.550 OA
ATOM      7  O   UNL     1      24.188  41.635 149.904  1.00  0.00    -0.550 OA
ENDBRANCH   4   5
ENDBRANCH   3   4
ENDBRANCH   2   3
ENDBRANCH   1   2
BRANCH   1   8
ATOM      8  C   UNL     1      23.595  37.177 147.588  1.00  0.00     0.000 C 
BRANCH   8   9
ATOM      9  C   UNL     1      23.473  35.693 147.222  1.00  0.00     0.006 C 
BRANCH   9  10
ATOM     10  C   UNL     1      24.802  34.962 147.439  1.00  0.00     0.053 C 
BRANCH  10  11
ATOM     11  C   UNL     1      24.666  33.938 148.521  1.00  0.00     0.041 C 
ATOM     12  O   UNL     1      25.171  34.144 149.656  1.00  0.00    -0.550 OA
ATOM     13  O   UNL     1      23.936  32.778 148.292  1.00  0.00    -0.550 OA
ENDBRANCH  10  11
ENDBRANCH   9  10
ENDBRANCH   8   9
ENDBRANCH   1   8
TORSDOF 8
ENDMDL
MODEL 6
REMARK VINA RESULT:    -4.726      3.467      5.097
REMARK INTER + INTRA:          -7.345
REMARK INTER:                  -6.555
REMARK INTRA:                  -0.790
REMARK UNBOUND:                -0.409
REMARK SMILES O=C([O-])CCCCCCCC(=O)[O-]
REMARK SMILES IDX 7 1 6 2 5 3 4 4 2 5 1 6 3 7 8 8 9 9 10 10 11 11 12 12 13 13
REMARK H PARENT
REMARK Flexibility Score: inf
ROOT
ATOM      1  C   UNL     1      25.703  37.961 147.744  1.00  0.00     0.000 C 
ENDROOT
BRANCH   1   2
ATOM      2  C   UNL     1      26.011  38.290 149.215  1.00  0.00     0.000 C 
BRANCH   2   3
ATOM      3  C   UNL     1      27.078  37.362 149.819  1.00  0.00     0.006 C 
BRANCH   3   4
ATOM      4  C   UNL     1      27.490  36.247 148.849  1.00  0.00     0.053 C 
BRANCH   4   5
ATOM      5  C   UNL     1      27.670  34.936 149.551  1.00  0.00     0.041 C 
ATOM      6  O   UNL     1      27.732  34.892 150.808  1.00  0.00    -0.550 OA
ATOM      7  O   UNL     1      27.800  33.765 148.815  1.00  0.00    -0.550 OA
ENDBRANCH   4   5
ENDBRANCH   3   4
ENDBRANCH   2   3
ENDBRANCH   1   2
BRANCH   1   8
ATOM      8  C   UNL     1      24.195  37.902 147.453  1.00  0.00     0.000 C 
BRANCH   8   9
ATOM      9  C   UNL     1      23.579  36.616 148.018  1.00  0.00     0.006 C 
BRANCH   9  10
ATOM     10  C   UNL     1      24.234  35.376 147.400  1.00  0.00     0.053 C 
BRANCH  10  11
ATOM     11  C   UNL     1      24.141  34.214 148.337  1.00  0.00     0.041 C 
ATOM     12  O   UNL     1      24.321  34.380 149.572  1.00  0.00    -0.550 OA
ATOM     13  O   UNL     1      23.805  32.956 147.853  1.00  0.00    -0.550 OA
ENDBRANCH  10  11
ENDBRANCH   9  10
ENDBRANCH   8   9
ENDBRANCH   1   8
TORSDOF 8
ENDMDL
MODEL 7
REMARK VINA RESULT:    -4.717      2.629      5.319
REMARK INTER + INTRA:          -7.332
REMARK INTER:                  -6.741
REMARK INTRA:                  -0.590
REMARK UNBOUND:                -0.409
REMARK SMILES O=C([O-])CCCCCCCC(=O)[O-]
REMARK SMILES IDX 7 1 6 2 5 3 4 4 2 5 1 6 3 7 8 8 9 9 10 10 11 11 12 12 13 13
REMARK H PARENT
REMARK Flexibility Score: inf
ROOT
ATOM      1  C   UNL     1      24.128  34.716 147.616  1.00  0.00     0.000 C 
ENDROOT
BRANCH   1   2
ATOM      2  C   UNL     1      23.438  36.069 147.375  1.00  0.00     0.000 C 
BRANCH   2   3
ATOM      3  C   UNL     1      24.400  37.260 147.527  1.00  0.00     0.006 C 
BRANCH   3   4
ATOM      4  C   UNL     1      23.660  38.563 147.856  1.00  0.00     0.053 C 
BRANCH   4   5
ATOM      5  C   UNL     1      23.719  38.883 149.318  1.00  0.00     0.041 C 
ATOM      6  O   UNL     1      24.559  39.715 149.752  1.00  0.00    -0.550 OA
ATOM      7  O   UNL     1      22.865  38.241 150.206  1.00  0.00    -0.550 OA
ENDBRANCH   4   5
ENDBRANCH   3   4
ENDBRANCH   2   3
ENDBRANCH   1   2
BRANCH   1   8
ATOM      8  C   UNL     1      24.672  34.574 149.046  1.00  0.00     0.000 C 
BRANCH   8   9
ATOM      9  C   UNL     1      26.144  34.145 149.032  1.00  0.00     0.006 C 
BRANCH   9  10
ATOM     10  C   UNL     1      26.962  34.951 150.047  1.00  0.00     0.053 C 
BRANCH  10  11
ATOM     11  C   UNL     1      27.399  36.252 149.452  1.00  0.00     0.041 C 
ATOM     12  O   UNL     1      27.165  37.333 150.053  1.00  0.00    -0.550 OA
ATOM     13  O   UNL     1      28.109  36.267 148.258  1.00  0.00    -0.550 OA
ENDBRANCH  10  11
ENDBRANCH   9  10
ENDBRANCH   8   9
ENDBRANCH   1   8
TORSDOF 8
ENDMDL
MODEL 8
REMARK VINA RESULT:    -4.714      1.678      2.308
REMARK INTER + INTRA:          -7.327
REMARK INTER:                  -6.898
REMARK INTRA:                  -0.429
REMARK UNBOUND:                -0.409
REMARK SMILES O=C([O-])CCCCCCCC(=O)[O-]
REMARK SMILES IDX 7 1 6 2 5 3 4 4 2 5 1 6 3 7 8 8 9 9 10 10 11 11 12 12 13 13
REMARK H PARENT
REMARK Flexibility Score: inf
ROOT
ATOM      1  C   UNL     1      23.395  36.061 147.676  1.00  0.00     0.000 C 
ENDROOT
BRANCH   1   2
ATOM      2  C   UNL     1      23.952  34.783 147.027  1.00  0.00     0.000 C 
BRANCH   2   3
ATOM      3  C   UNL     1      23.946  33.581 147.986  1.00  0.00     0.006 C 
BRANCH   3   4
ATOM      4  C   UNL     1      24.614  33.909 149.328  1.00  0.00     0.053 C 
BRANCH   4   5
ATOM      5  C   UNL     1      26.074  34.205 149.166  1.00  0.00     0.041 C 
ATOM      6  O   UNL     1      26.555  35.283 149.603  1.00  0.00    -0.550 OA
ATOM      7  O   UNL     1      26.897  33.302 148.505  1.00  0.00    -0.550 OA
ENDBRANCH   4   5
ENDBRANCH   3   4
ENDBRANCH   2   3
ENDBRANCH   1   2
BRANCH   1   8
ATOM      8  C   UNL     1      24.267  37.296 147.398  1.00  0.00     0.000 C 
BRANCH   8   9
ATOM      9  C   UNL     1      23.507  38.587 147.722  1.00  0.00     0.006 C 
BRANCH   9  10
ATOM     10  C   UNL     1      24.466  39.778 147.823  1.00  0.00     0.053 C 
BRANCH  10  11
ATOM     11  C   UNL     1      24.695  40.146 149.254  1.00  0.00     0.041 C 
ATOM     12  O   UNL     1      24.000  39.620 150.162  1.00  0.00    -0.550 OA
ATOM     13  O   UNL     1      25.711  41.032 149.590  1.00  0.00    -0.550 OA
ENDBRANCH  10  11
ENDBRANCH   9  10
ENDBRANCH   8   9
ENDBRANCH   1   8
TORSDOF 8
ENDMDL
MODEL 9
REMARK VINA RESULT:    -4.598      2.377      6.079
REMARK INTER + INTRA:          -7.157
REMARK INTER:                  -6.533
REMARK INTRA:                  -0.624
REMARK UNBOUND:                -0.409
REMARK SMILES O=C([O-])CCCCCCCC(=O)[O-]
REMARK SMILES IDX 7 1 6 2 5 3 4 4 2 5 1 6 3 7 8 8 9 9 10 10 11 11 12 12 13 13
REMARK H PARENT
REMARK Flexibility Score: inf
ROOT
ATOM      1  C   UNL     1      27.294  36.667 149.572  1.00  0.00     0.000 C 
ENDROOT
BRANCH   1   2
ATOM      2  C   UNL     1      27.162  36.737 148.042  1.00  0.00     0.000 C 
BRANCH   2   3
ATOM      3  C   UNL     1      26.104  37.756 147.585  1.00  0.00     0.006 C 
BRANCH   3   4
ATOM      4  C   UNL     1      24.705  37.134 147.494  1.00  0.00     0.053 C 
BRANCH   4   5
ATOM      5  C   UNL     1      23.680  37.958 148.212  1.00  0.00     0.041 C 
ATOM      6  O   UNL     1      23.186  37.551 149.296  1.00  0.00    -0.550 OA
ATOM      7  O   UNL     1      23.250  39.161 147.668  1.00  0.00    -0.550 OA
ENDBRANCH   4   5
ENDBRANCH   3   4
ENDBRANCH   2   3
ENDBRANCH   1   2
BRANCH   1   8
ATOM      8  C   UNL     1      27.261  35.226 150.105  1.00  0.00     0.000 C 
BRANCH   8   9
ATOM      9  C   UNL     1      26.480  34.309 149.155  1.00  0.00     0.006 C 
BRANCH   9  10
ATOM     10  C   UNL     1      25.056  34.073 149.666  1.00  0.00     0.053 C 
BRANCH  10  11
ATOM     11  C   UNL     1      24.260  33.300 148.663  1.00  0.00     0.041 C 
ATOM     12  O   UNL     1      23.575  33.904 147.797  1.00  0.00    -0.550 OA
ATOM     13  O   UNL     1      24.316  31.912 148.652  1.00  0.00    -0.550 OA
ENDBRANCH  10  11
ENDBRANCH   9  10
ENDBRANCH   8   9
ENDBRANCH   1   8
TORSDOF 8
ENDMDL
