MODEL 1
REMARK VINA RESULT:    12.920      0.000      0.000
REMARK INTER + INTRA:          14.910
REMARK INTER:                  15.185
REMARK INTRA:                  -0.275
REMARK UNBOUND:                -0.275
REMARK SMILES O=c1cc(-c2ccc(O)c(O)c2)oc2cc(O)cc(O)c12
REMARK SMILES IDX 4 1 3 2 2 3 1 4 21 5 19 6 18 7 16 8 15 9 14 10 13 11 5 12
REMARK SMILES IDX 6 13 7 14 8 15 12 16 10 17 9 18 11 20 20 22 17 24
REMARK H PARENT 9 19 11 21 20 23 17 25
REMARK Flexibility Score: inf
ROOT
ATOM      1  C   UNL     1      89.777  18.142 120.314  1.00  0.00     0.138 A 
ATOM      2  C   UNL     1      89.559  19.494 120.614  1.00  0.00     0.100 A 
ATOM      3  C   UNL     1      88.257  19.961 120.797  1.00  0.00     0.197 A 
ATOM      4  O   UNL     1      88.099  21.166 121.125  1.00  0.00    -0.289 OA
ATOM      5  C   UNL     1      87.165  19.074 120.649  1.00  0.00     0.107 A 
ATOM      6  C   UNL     1      85.793  19.446 120.772  1.00  0.00     0.134 A 
ATOM      7  C   UNL     1      84.802  18.458 120.720  1.00  0.00     0.093 A 
ATOM      8  C   UNL     1      85.128  17.122 120.489  1.00  0.00     0.123 A 
ATOM      9  C   UNL     1      86.463  16.754 120.312  1.00  0.00     0.094 A 
ATOM     10  C   UNL     1      87.477  17.711 120.394  1.00  0.00     0.146 A 
ATOM     11  O   UNL     1      88.736  17.318 120.234  1.00  0.00    -0.456 OA
ENDROOT
BRANCH   1  12
ATOM     12  C   UNL     1      91.141  17.593 120.108  1.00  0.00     0.021 A 
ATOM     13  C   UNL     1      92.113  17.628 121.125  1.00  0.00     0.016 A 
ATOM     14  C   UNL     1      93.392  17.113 120.900  1.00  0.00     0.051 A 
ATOM     15  C   UNL     1      93.725  16.562 119.656  1.00  0.00     0.157 A 
ATOM     16  C   UNL     1      91.486  17.051 118.858  1.00  0.00     0.062 A 
ATOM     17  C   UNL     1      92.767  16.533 118.630  1.00  0.00     0.158 A 
BRANCH  15  18
ATOM     18  O   UNL     1      95.001  16.048 119.436  1.00  0.00    -0.504 OA
ATOM     19  H   UNL     1      95.195  15.418 118.665  1.00  0.00     0.293 HD
ENDBRANCH  15  18
BRANCH  17  20
ATOM     20  O   UNL     1      93.066  15.995 117.379  1.00  0.00    -0.504 OA
ATOM     21  H   UNL     1      93.995  16.052 116.977  1.00  0.00     0.293 HD
ENDBRANCH  17  20
ENDBRANCH   1  12
BRANCH   6  22
ATOM     22  O   UNL     1      85.352  20.764 120.922  1.00  0.00    -0.507 OA
ATOM     23  H   UNL     1      85.830  21.577 120.562  1.00  0.00     0.293 HD
ENDBRANCH   6  22
BRANCH   8  24
ATOM     24  O   UNL     1      84.115  16.169 120.428  1.00  0.00    -0.508 OA
ATOM     25  H   UNL     1      83.856  15.617 121.239  1.00  0.00     0.293 HD
ENDBRANCH   8  24
TORSDOF 5
ENDMDL
MODEL 2
REMARK VINA RESULT:    13.787      1.629      7.013
REMARK INTER + INTRA:          15.930
REMARK INTER:                  16.212
REMARK INTRA:                  -0.282
REMARK UNBOUND:                -0.275
REMARK SMILES O=c1cc(-c2ccc(O)c(O)c2)oc2cc(O)cc(O)c12
REMARK SMILES IDX 4 1 3 2 2 3 1 4 21 5 19 6 18 7 16 8 15 9 14 10 13 11 5 12
REMARK SMILES IDX 6 13 7 14 8 15 12 16 10 17 9 18 11 20 20 22 17 24
REMARK H PARENT 9 19 11 21 20 23 17 25
REMARK Flexibility Score: inf
ROOT
ATOM      1  C   UNL     1      90.333  18.047 119.925  1.00  0.00     0.138 A 
ATOM      2  C   UNL     1      91.127  18.848 119.093  1.00  0.00     0.100 A 
ATOM      3  C   UNL     1      92.447  18.478 118.832  1.00  0.00     0.197 A 
ATOM      4  O   UNL     1      93.115  19.184 118.032  1.00  0.00    -0.289 OA
ATOM      5  C   UNL     1      92.983  17.315 119.434  1.00  0.00     0.107 A 
ATOM      6  C   UNL     1      94.326  16.862 119.273  1.00  0.00     0.134 A 
ATOM      7  C   UNL     1      94.711  15.633 119.824  1.00  0.00     0.093 A 
ATOM      8  C   UNL     1      93.821  14.871 120.579  1.00  0.00     0.123 A 
ATOM      9  C   UNL     1      92.519  15.331 120.789  1.00  0.00     0.094 A 
ATOM     10  C   UNL     1      92.095  16.535 120.223  1.00  0.00     0.146 A 
ATOM     11  O   UNL     1      90.844  16.931 120.434  1.00  0.00    -0.456 OA
ENDROOT
BRANCH   1  12
ATOM     12  C   UNL     1      88.923  18.396 120.237  1.00  0.00     0.021 A 
ATOM     13  C   UNL     1      88.579  19.623 120.833  1.00  0.00     0.016 A 
ATOM     14  C   UNL     1      87.246  19.921 121.125  1.00  0.00     0.051 A 
ATOM     15  C   UNL     1      86.235  18.996 120.834  1.00  0.00     0.157 A 
ATOM     16  C   UNL     1      87.904  17.467 119.961  1.00  0.00     0.062 A 
ATOM     17  C   UNL     1      86.567  17.763 120.251  1.00  0.00     0.158 A 
BRANCH  15  18
ATOM     18  O   UNL     1      84.905  19.297 121.125  1.00  0.00    -0.504 OA
ATOM     19  H   UNL     1      84.170  19.178 120.436  1.00  0.00     0.293 HD
ENDBRANCH  15  18
BRANCH  17  20
ATOM     20  O   UNL     1      85.585  16.820 119.952  1.00  0.00    -0.504 OA
ATOM     21  H   UNL     1      85.803  15.943 119.492  1.00  0.00     0.293 HD
ENDBRANCH  17  20
ENDBRANCH   1  12
BRANCH   6  22
ATOM     22  O   UNL     1      95.320  17.586 118.608  1.00  0.00    -0.507 OA
ATOM     23  H   UNL     1      95.999  18.182 119.058  1.00  0.00     0.293 HD
ENDBRANCH   6  22
BRANCH   8  24
ATOM     24  O   UNL     1      94.242  13.661 121.124  1.00  0.00    -0.508 OA
ATOM     25  H   UNL     1      95.200  13.521 121.428  1.00  0.00     0.293 HD
ENDBRANCH   8  24
TORSDOF 5
ENDMDL
