MODEL 1
REMARK VINA RESULT:    -6.445      0.000      0.000
REMARK INTER + INTRA:          -9.316
REMARK INTER:                  -8.705
REMARK INTRA:                  -0.611
REMARK UNBOUND:                -0.611
REMARK SMILES COc1ccc(-c2cc(=O)c3c(OC)c(OC)c(OC)c(OC)c3o2)cc1
REMARK SMILES IDX 7 1 8 2 9 3 10 4 11 5 24 6 25 7 21 8 18 9 15 10 12 11 6 12
REMARK SMILES IDX 3 13 4 14 27 15 5 16 26 17 2 18 1 19 22 20 23 21 13 22 14 23
REMARK SMILES IDX 19 24 20 25 16 26 17 27
REMARK H PARENT
REMARK Flexibility Score: inf
ROOT
ATOM      1  C   UNL     1      19.438 -13.314  17.761  1.00  0.00     0.138 A 
ATOM      2  C   UNL     1      18.926 -12.497  16.745  1.00  0.00     0.100 A 
ATOM      3  C   UNL     1      18.537 -11.193  17.046  1.00  0.00     0.197 A 
ATOM      4  O   UNL     1      18.076 -10.475  16.119  1.00  0.00    -0.289 OA
ATOM      5  C   UNL     1      18.667 -10.707  18.369  1.00  0.00     0.115 A 
ATOM      6  C   UNL     1      19.220 -11.581  19.328  1.00  0.00     0.188 A 
ATOM      7  O   UNL     1      19.570 -12.820  18.989  1.00  0.00    -0.452 OA
ATOM      8  C   UNL     1      19.393 -11.167  20.653  1.00  0.00     0.209 A 
ATOM      9  C   UNL     1      18.948  -9.890  21.068  1.00  0.00     0.211 A 
ATOM     10  C   UNL     1      18.411  -8.992  20.106  1.00  0.00     0.208 A 
ATOM     11  C   UNL     1      18.272  -9.402  18.751  1.00  0.00     0.179 A 
ENDROOT
BRANCH   1  12
ATOM     12  C   UNL     1      19.847 -14.718  17.501  1.00  0.00     0.018 A 
ATOM     13  C   UNL     1      20.644 -17.393  17.063  1.00  0.00     0.118 A 
ATOM     14  C   UNL     1      19.587 -16.836  16.321  1.00  0.00     0.047 A 
ATOM     15  C   UNL     1      21.288 -16.610  18.025  1.00  0.00     0.047 A 
ATOM     16  C   UNL     1      19.191 -15.513  16.541  1.00  0.00     0.016 A 
ATOM     17  C   UNL     1      20.892 -15.288  18.248  1.00  0.00     0.016 A 
BRANCH  13  18
ATOM     18  O   UNL     1      21.080 -18.714  16.877  1.00  0.00    -0.497 OA
ATOM     19  C   UNL     1      20.339 -19.868  17.260  1.00  0.00     0.278 C 
ENDBRANCH  13  18
ENDBRANCH   1  12
BRANCH   8  20
ATOM     20  O   UNL     1      20.000 -12.041  21.560  1.00  0.00    -0.490 OA
ATOM     21  C   UNL     1      21.411 -12.074  21.747  1.00  0.00     0.278 C 
ENDBRANCH   8  20
BRANCH  11  22
ATOM     22  O   UNL     1      17.747  -8.558  17.746  1.00  0.00    -0.492 OA
ATOM     23  C   UNL     1      16.404  -8.111  17.597  1.00  0.00     0.278 C 
ENDBRANCH  11  22
BRANCH   9  24
ATOM     24  O   UNL     1      19.016  -9.474  22.411  1.00  0.00    -0.490 OA
ATOM     25  C   UNL     1      20.077  -8.763  23.041  1.00  0.00     0.279 C 
ENDBRANCH   9  24
BRANCH  10  26
ATOM     26  O   UNL     1      17.992  -7.691  20.447  1.00  0.00    -0.490 OA
ATOM     27  C   UNL     1      18.795  -6.522  20.580  1.00  0.00     0.278 C 
ENDBRANCH  10  26
TORSDOF 6
ENDMDL
MODEL 2
REMARK VINA RESULT:    -6.352      0.960      3.454
REMARK INTER + INTRA:          -9.191
REMARK INTER:                  -8.706
REMARK INTRA:                  -0.485
REMARK UNBOUND:                -0.611
REMARK SMILES COc1ccc(-c2cc(=O)c3c(OC)c(OC)c(OC)c(OC)c3o2)cc1
REMARK SMILES IDX 7 1 8 2 9 3 10 4 11 5 24 6 25 7 21 8 18 9 15 10 12 11 6 12
REMARK SMILES IDX 3 13 4 14 27 15 5 16 26 17 2 18 1 19 22 20 23 21 13 22 14 23
REMARK SMILES IDX 19 24 20 25 16 26 17 27
REMARK H PARENT
REMARK Flexibility Score: inf
ROOT
ATOM      1  C   UNL     1      20.405 -13.309  19.081  1.00  0.00     0.138 A 
ATOM      2  C   UNL     1      20.994 -12.946  20.299  1.00  0.00     0.100 A 
ATOM      3  C   UNL     1      20.784 -11.666  20.806  1.00  0.00     0.197 A 
ATOM      4  O   UNL     1      21.324 -11.358  21.902  1.00  0.00    -0.289 OA
ATOM      5  C   UNL     1      19.976 -10.748  20.090  1.00  0.00     0.115 A 
ATOM      6  C   UNL     1      19.395 -11.200  18.888  1.00  0.00     0.188 A 
ATOM      7  O   UNL     1      19.633 -12.434  18.445  1.00  0.00    -0.452 OA
ATOM      8  C   UNL     1      18.574 -10.356  18.132  1.00  0.00     0.209 A 
ATOM      9  C   UNL     1      18.373  -9.013  18.527  1.00  0.00     0.211 A 
ATOM     10  C   UNL     1      18.935  -8.552  19.749  1.00  0.00     0.208 A 
ATOM     11  C   UNL     1      19.738  -9.425  20.534  1.00  0.00     0.179 A 
ENDROOT
BRANCH   1  12
ATOM     12  C   UNL     1      20.614 -14.653  18.483  1.00  0.00     0.018 A 
ATOM     13  C   UNL     1      21.027 -17.230  17.401  1.00  0.00     0.118 A 
ATOM     14  C   UNL     1      20.118 -16.342  16.796  1.00  0.00     0.047 A 
ATOM     15  C   UNL     1      21.716 -16.824  18.547  1.00  0.00     0.047 A 
ATOM     16  C   UNL     1      19.911 -15.069  17.335  1.00  0.00     0.016 A 
ATOM     17  C   UNL     1      21.509 -15.552  19.088  1.00  0.00     0.016 A 
BRANCH  13  18
ATOM     18  O   UNL     1      21.270 -18.517  16.896  1.00  0.00    -0.497 OA
ATOM     19  C   UNL     1      20.533 -19.678  17.263  1.00  0.00     0.278 C 
ENDBRANCH  13  18
ENDBRANCH   1  12
BRANCH   8  20
ATOM     20  O   UNL     1      17.967 -10.860  16.978  1.00  0.00    -0.490 OA
ATOM     21  C   UNL     1      18.649 -10.918  15.730  1.00  0.00     0.278 C 
ENDBRANCH   8  20
BRANCH  11  22
ATOM     22  O   UNL     1      20.324  -9.031  21.758  1.00  0.00    -0.492 OA
ATOM     23  C   UNL     1      19.665  -8.696  22.974  1.00  0.00     0.278 C 
ENDBRANCH  11  22
BRANCH   9  24
ATOM     24  O   UNL     1      17.634  -8.106  17.744  1.00  0.00    -0.490 OA
ATOM     25  C   UNL     1      16.220  -7.935  17.726  1.00  0.00     0.279 C 
ENDBRANCH   9  24
BRANCH  10  26
ATOM     26  O   UNL     1      18.735  -7.240  20.219  1.00  0.00    -0.490 OA
ATOM     27  C   UNL     1      19.677  -6.172  20.255  1.00  0.00     0.278 C 
ENDBRANCH  10  26
TORSDOF 6
ENDMDL
MODEL 3
REMARK VINA RESULT:    -6.020      2.761      7.443
REMARK INTER + INTRA:          -8.742
REMARK INTER:                  -8.322
REMARK INTRA:                  -0.420
REMARK UNBOUND:                -0.611
REMARK SMILES COc1ccc(-c2cc(=O)c3c(OC)c(OC)c(OC)c(OC)c3o2)cc1
REMARK SMILES IDX 7 1 8 2 9 3 10 4 11 5 24 6 25 7 21 8 18 9 15 10 12 11 6 12
REMARK SMILES IDX 3 13 4 14 27 15 5 16 26 17 2 18 1 19 22 20 23 21 13 22 14 23
REMARK SMILES IDX 19 24 20 25 16 26 17 27
REMARK H PARENT
REMARK Flexibility Score: inf
ROOT
ATOM      1  C   UNL     1      19.996  -9.699  20.408  1.00  0.00     0.138 A 
ATOM      2  C   UNL     1      20.826  -9.058  19.479  1.00  0.00     0.100 A 
ATOM      3  C   UNL     1      20.840  -9.498  18.157  1.00  0.00     0.197 A 
ATOM      4  O   UNL     1      21.595  -8.911  17.337  1.00  0.00    -0.289 OA
ATOM      5  C   UNL     1      20.017 -10.582  17.766  1.00  0.00     0.115 A 
ATOM      6  C   UNL     1      19.188 -11.153  18.754  1.00  0.00     0.188 A 
ATOM      7  O   UNL     1      19.217 -10.698  20.005  1.00  0.00    -0.452 OA
ATOM      8  C   UNL     1      18.336 -12.218  18.440  1.00  0.00     0.209 A 
ATOM      9  C   UNL     1      18.347 -12.785  17.144  1.00  0.00     0.211 A 
ATOM     10  C   UNL     1      19.161 -12.203  16.134  1.00  0.00     0.208 A 
ATOM     11  C   UNL     1      19.997 -11.095  16.447  1.00  0.00     0.179 A 
ENDROOT
BRANCH   1  12
ATOM     12  C   UNL     1      19.958  -9.285  21.834  1.00  0.00     0.018 A 
ATOM     13  C   UNL     1      19.860  -8.447  24.531  1.00  0.00     0.118 A 
ATOM     14  C   UNL     1      19.831  -9.817  24.211  1.00  0.00     0.047 A 
ATOM     15  C   UNL     1      19.929  -7.508  23.498  1.00  0.00     0.047 A 
ATOM     16  C   UNL     1      19.876 -10.231  22.876  1.00  0.00     0.016 A 
ATOM     17  C   UNL     1      19.972  -7.920  22.164  1.00  0.00     0.016 A 
BRANCH  13  18
ATOM     18  O   UNL     1      19.820  -7.983  25.855  1.00  0.00    -0.497 OA
ATOM     19  C   UNL     1      19.845  -8.824  27.003  1.00  0.00     0.278 C 
ENDBRANCH  13  18
ENDBRANCH   1  12
BRANCH   8  20
ATOM     20  O   UNL     1      17.486 -12.717  19.431  1.00  0.00    -0.490 OA
ATOM     21  C   UNL     1      17.822 -13.863  20.206  1.00  0.00     0.278 C 
ENDBRANCH   8  20
BRANCH  11  22
ATOM     22  O   UNL     1      20.828 -10.471  15.490  1.00  0.00    -0.492 OA
ATOM     23  C   UNL     1      22.125 -10.875  15.064  1.00  0.00     0.278 C 
ENDBRANCH  11  22
BRANCH   9  24
ATOM     24  O   UNL     1      17.577 -13.917  16.817  1.00  0.00    -0.490 OA
ATOM     25  C   UNL     1      17.989 -15.279  16.850  1.00  0.00     0.279 C 
ENDBRANCH   9  24
BRANCH  10  26
ATOM     26  O   UNL     1      19.182 -12.692  14.814  1.00  0.00    -0.490 OA
ATOM     27  C   UNL     1      19.916 -13.802  14.306  1.00  0.00     0.278 C 
ENDBRANCH  10  26
TORSDOF 6
ENDMDL
MODEL 4
REMARK VINA RESULT:    -5.949      2.019      2.138
REMARK INTER + INTRA:          -8.647
REMARK INTER:                  -8.143
REMARK INTRA:                  -0.504
REMARK UNBOUND:                -0.611
REMARK SMILES COc1ccc(-c2cc(=O)c3c(OC)c(OC)c(OC)c(OC)c3o2)cc1
REMARK SMILES IDX 7 1 8 2 9 3 10 4 11 5 24 6 25 7 21 8 18 9 15 10 12 11 6 12
REMARK SMILES IDX 3 13 4 14 27 15 5 16 26 17 2 18 1 19 22 20 23 21 13 22 14 23
REMARK SMILES IDX 19 24 20 25 16 26 17 27
REMARK H PARENT
REMARK Flexibility Score: inf
ROOT
ATOM      1  C   UNL     1      20.437 -12.626  17.594  1.00  0.00     0.138 A 
ATOM      2  C   UNL     1      21.217 -11.783  16.794  1.00  0.00     0.100 A 
ATOM      3  C   UNL     1      21.421 -10.462  17.187  1.00  0.00     0.197 A 
ATOM      4  O   UNL     1      22.124  -9.718  16.452  1.00  0.00    -0.289 OA
ATOM      5  C   UNL     1      20.843  -9.987  18.389  1.00  0.00     0.115 A 
ATOM      6  C   UNL     1      20.096 -10.907  19.154  1.00  0.00     0.188 A 
ATOM      7  O   UNL     1      19.927 -12.158  18.730  1.00  0.00    -0.452 OA
ATOM      8  C   UNL     1      19.506 -10.516  20.362  1.00  0.00     0.209 A 
ATOM      9  C   UNL     1      19.590  -9.173  20.796  1.00  0.00     0.211 A 
ATOM     10  C   UNL     1      20.359  -8.243  20.046  1.00  0.00     0.208 A 
ATOM     11  C   UNL     1      20.990  -8.653  18.839  1.00  0.00     0.179 A 
ENDROOT
BRANCH   1  12
ATOM     12  C   UNL     1      20.169 -14.036  17.212  1.00  0.00     0.018 A 
ATOM     13  C   UNL     1      19.690 -16.737  16.532  1.00  0.00     0.118 A 
ATOM     14  C   UNL     1      18.786 -15.734  16.138  1.00  0.00     0.047 A 
ATOM     15  C   UNL     1      20.822 -16.382  17.271  1.00  0.00     0.047 A 
ATOM     16  C   UNL     1      19.022 -14.398  16.478  1.00  0.00     0.016 A 
ATOM     17  C   UNL     1      21.058 -15.047  17.613  1.00  0.00     0.016 A 
BRANCH  13  18
ATOM     18  O   UNL     1      19.498 -18.090  16.213  1.00  0.00    -0.497 OA
ATOM     19  C   UNL     1      20.121 -19.174  16.893  1.00  0.00     0.278 C 
ENDBRANCH  13  18
ENDBRANCH   1  12
BRANCH   8  20
ATOM     20  O   UNL     1      18.826 -11.472  21.121  1.00  0.00    -0.490 OA
ATOM     21  C   UNL     1      19.464 -12.202  22.164  1.00  0.00     0.278 C 
ENDBRANCH   8  20
BRANCH  11  22
ATOM     22  O   UNL     1      21.768  -7.779  18.047  1.00  0.00    -0.492 OA
ATOM     23  C   UNL     1      21.335  -6.617  17.347  1.00  0.00     0.278 C 
ENDBRANCH  11  22
BRANCH   9  24
ATOM     24  O   UNL     1      18.929  -8.720  21.954  1.00  0.00    -0.490 OA
ATOM     25  C   UNL     1      19.491  -8.529  23.249  1.00  0.00     0.279 C 
ENDBRANCH   9  24
BRANCH  10  26
ATOM     26  O   UNL     1      20.517  -6.903  20.450  1.00  0.00    -0.490 OA
ATOM     27  C   UNL     1      19.515  -5.895  20.545  1.00  0.00     0.278 C 
ENDBRANCH  10  26
TORSDOF 6
ENDMDL
MODEL 5
REMARK VINA RESULT:    -5.944      2.615      4.571
REMARK INTER + INTRA:          -8.640
REMARK INTER:                  -8.140
REMARK INTRA:                  -0.500
REMARK UNBOUND:                -0.611
REMARK SMILES COc1ccc(-c2cc(=O)c3c(OC)c(OC)c(OC)c(OC)c3o2)cc1
REMARK SMILES IDX 7 1 8 2 9 3 10 4 11 5 24 6 25 7 21 8 18 9 15 10 12 11 6 12
REMARK SMILES IDX 3 13 4 14 27 15 5 16 26 17 2 18 1 19 22 20 23 21 13 22 14 23
REMARK SMILES IDX 19 24 20 25 16 26 17 27
REMARK H PARENT
REMARK Flexibility Score: inf
ROOT
ATOM      1  C   UNL     1      20.038 -13.545  16.719  1.00  0.00     0.138 A 
ATOM      2  C   UNL     1      20.873 -14.189  17.640  1.00  0.00     0.100 A 
ATOM      3  C   UNL     1      20.879 -13.769  18.969  1.00  0.00     0.197 A 
ATOM      4  O   UNL     1      21.639 -14.359  19.782  1.00  0.00    -0.289 OA
ATOM      5  C   UNL     1      20.042 -12.700  19.374  1.00  0.00     0.115 A 
ATOM      6  C   UNL     1      19.209 -12.125  18.392  1.00  0.00     0.188 A 
ATOM      7  O   UNL     1      19.246 -12.561  17.135  1.00  0.00    -0.452 OA
ATOM      8  C   UNL     1      18.343 -11.075  18.719  1.00  0.00     0.209 A 
ATOM      9  C   UNL     1      18.344 -10.527  20.023  1.00  0.00     0.211 A 
ATOM     10  C   UNL     1      19.162 -11.114  21.027  1.00  0.00     0.208 A 
ATOM     11  C   UNL     1      20.013 -12.207  20.700  1.00  0.00     0.179 A 
ENDROOT
BRANCH   1  12
ATOM     12  C   UNL     1      20.008 -13.938  15.286  1.00  0.00     0.018 A 
ATOM     13  C   UNL     1      19.930 -14.739  12.578  1.00  0.00     0.118 A 
ATOM     14  C   UNL     1      19.791 -13.382  12.922  1.00  0.00     0.047 A 
ATOM     15  C   UNL     1      20.098 -15.685  13.593  1.00  0.00     0.047 A 
ATOM     16  C   UNL     1      19.826 -12.987  14.263  1.00  0.00     0.016 A 
ATOM     17  C   UNL     1      20.131 -15.292  14.934  1.00  0.00     0.016 A 
BRANCH  13  18
ATOM     18  O   UNL     1      19.905 -15.184  11.247  1.00  0.00    -0.497 OA
ATOM     19  C   UNL     1      19.858 -14.326  10.113  1.00  0.00     0.278 C 
ENDBRANCH  13  18
ENDBRANCH   1  12
BRANCH   8  20
ATOM     20  O   UNL     1      17.490 -10.571  17.734  1.00  0.00    -0.490 OA
ATOM     21  C   UNL     1      17.832  -9.436  16.947  1.00  0.00     0.278 C 
ENDBRANCH   8  20
BRANCH  11  22
ATOM     22  O   UNL     1      20.849 -12.835  21.650  1.00  0.00    -0.492 OA
ATOM     23  C   UNL     1      22.125 -12.403  22.111  1.00  0.00     0.278 C 
ENDBRANCH  11  22
BRANCH   9  24
ATOM     24  O   UNL     1      17.560  -9.409  20.365  1.00  0.00    -0.490 OA
ATOM     25  C   UNL     1      17.915  -8.036  20.242  1.00  0.00     0.279 C 
ENDBRANCH   9  24
BRANCH  10  26
ATOM     26  O   UNL     1      19.175 -10.644  22.354  1.00  0.00    -0.490 OA
ATOM     27  C   UNL     1      19.913  -9.547  22.885  1.00  0.00     0.278 C 
ENDBRANCH  10  26
TORSDOF 6
ENDMDL
MODEL 6
REMARK VINA RESULT:    -5.785      2.596      8.162
REMARK INTER + INTRA:          -8.425
REMARK INTER:                  -7.831
REMARK INTRA:                  -0.594
REMARK UNBOUND:                -0.611
REMARK SMILES COc1ccc(-c2cc(=O)c3c(OC)c(OC)c(OC)c(OC)c3o2)cc1
REMARK SMILES IDX 7 1 8 2 9 3 10 4 11 5 24 6 25 7 21 8 18 9 15 10 12 11 6 12
REMARK SMILES IDX 3 13 4 14 27 15 5 16 26 17 2 18 1 19 22 20 23 21 13 22 14 23
REMARK SMILES IDX 19 24 20 25 16 26 17 27
REMARK H PARENT
REMARK Flexibility Score: inf
ROOT
ATOM      1  C   UNL     1      19.782  -9.562  19.149  1.00  0.00     0.138 A 
ATOM      2  C   UNL     1      19.250 -10.337  20.187  1.00  0.00     0.100 A 
ATOM      3  C   UNL     1      18.803 -11.629  19.916  1.00  0.00     0.197 A 
ATOM      4  O   UNL     1      18.325 -12.310  20.863  1.00  0.00    -0.289 OA
ATOM      5  C   UNL     1      18.894 -12.145  18.600  1.00  0.00     0.115 A 
ATOM      6  C   UNL     1      19.470 -11.312  17.619  1.00  0.00     0.188 A 
ATOM      7  O   UNL     1      19.877 -10.083  17.930  1.00  0.00    -0.452 OA
ATOM      8  C   UNL     1      19.608 -11.758  16.299  1.00  0.00     0.209 A 
ATOM      9  C   UNL     1      19.105 -13.022  15.915  1.00  0.00     0.211 A 
ATOM     10  C   UNL     1      18.543 -13.879  16.900  1.00  0.00     0.208 A 
ATOM     11  C   UNL     1      18.440 -13.439  18.249  1.00  0.00     0.179 A 
ENDROOT
BRANCH   1  12
ATOM     12  C   UNL     1      20.253  -8.172  19.377  1.00  0.00     0.018 A 
ATOM     13  C   UNL     1      21.165  -5.524  19.753  1.00  0.00     0.118 A 
ATOM     14  C   UNL     1      20.139  -6.044  20.563  1.00  0.00     0.047 A 
ATOM     15  C   UNL     1      21.720  -6.330  18.756  1.00  0.00     0.047 A 
ATOM     16  C   UNL     1      19.685  -7.353  20.374  1.00  0.00     0.016 A 
ATOM     17  C   UNL     1      21.267  -7.638  18.564  1.00  0.00     0.016 A 
BRANCH  13  18
ATOM     18  O   UNL     1      21.655  -4.218  19.907  1.00  0.00    -0.497 OA
ATOM     19  C   UNL     1      22.086  -3.389  18.833  1.00  0.00     0.278 C 
ENDBRANCH  13  18
ENDBRANCH   1  12
BRANCH   8  20
ATOM     20  O   UNL     1      20.239 -10.927  15.369  1.00  0.00    -0.490 OA
ATOM     21  C   UNL     1      21.657 -10.861  15.256  1.00  0.00     0.278 C 
ENDBRANCH   8  20
BRANCH  11  22
ATOM     22  O   UNL     1      17.893 -14.241  19.276  1.00  0.00    -0.492 OA
ATOM     23  C   UNL     1      16.531 -14.609  19.464  1.00  0.00     0.278 C 
ENDBRANCH  11  22
BRANCH   9  24
ATOM     24  O   UNL     1      19.137 -13.465  14.579  1.00  0.00    -0.490 OA
ATOM     25  C   UNL     1      20.198 -14.153  13.924  1.00  0.00     0.279 C 
ENDBRANCH   9  24
BRANCH  10  26
ATOM     26  O   UNL     1      18.066 -15.167  16.590  1.00  0.00    -0.490 OA
ATOM     27  C   UNL     1      18.820 -16.367  16.447  1.00  0.00     0.278 C 
ENDBRANCH  10  26
TORSDOF 6
ENDMDL
MODEL 7
REMARK VINA RESULT:    -5.772      2.033      8.343
REMARK INTER + INTRA:          -8.408
REMARK INTER:                  -7.912
REMARK INTRA:                  -0.496
REMARK UNBOUND:                -0.611
REMARK SMILES COc1ccc(-c2cc(=O)c3c(OC)c(OC)c(OC)c(OC)c3o2)cc1
REMARK SMILES IDX 7 1 8 2 9 3 10 4 11 5 24 6 25 7 21 8 18 9 15 10 12 11 6 12
REMARK SMILES IDX 3 13 4 14 27 15 5 16 26 17 2 18 1 19 22 20 23 21 13 22 14 23
REMARK SMILES IDX 19 24 20 25 16 26 17 27
REMARK H PARENT
REMARK Flexibility Score: inf
ROOT
ATOM      1  C   UNL     1      20.334 -11.363  19.474  1.00  0.00     0.138 A 
ATOM      2  C   UNL     1      21.128 -12.187  20.281  1.00  0.00     0.100 A 
ATOM      3  C   UNL     1      21.411 -13.486  19.865  1.00  0.00     0.197 A 
ATOM      4  O   UNL     1      22.125 -14.212  20.607  1.00  0.00    -0.289 OA
ATOM      5  C   UNL     1      20.899 -13.959  18.632  1.00  0.00     0.115 A 
ATOM      6  C   UNL     1      20.133 -13.058  17.863  1.00  0.00     0.188 A 
ATOM      7  O   UNL     1      19.888 -11.828  18.310  1.00  0.00    -0.452 OA
ATOM      8  C   UNL     1      19.605 -13.447  16.627  1.00  0.00     0.209 A 
ATOM      9  C   UNL     1      19.771 -14.773  16.164  1.00  0.00     0.211 A 
ATOM     10  C   UNL     1      20.560 -15.683  16.919  1.00  0.00     0.208 A 
ATOM     11  C   UNL     1      21.128 -15.272  18.157  1.00  0.00     0.179 A 
ENDROOT
BRANCH   1  12
ATOM     12  C   UNL     1      19.982  -9.978  19.879  1.00  0.00     0.018 A 
ATOM     13  C   UNL     1      19.345  -7.322  20.604  1.00  0.00     0.118 A 
ATOM     14  C   UNL     1      18.476  -8.378  20.935  1.00  0.00     0.047 A 
ATOM     15  C   UNL     1      20.523  -7.604  19.905  1.00  0.00     0.047 A 
ATOM     16  C   UNL     1      18.790  -9.691  20.572  1.00  0.00     0.016 A 
ATOM     17  C   UNL     1      20.837  -8.916  19.540  1.00  0.00     0.016 A 
BRANCH  13  18
ATOM     18  O   UNL     1      19.075  -5.989  20.949  1.00  0.00    -0.497 OA
ATOM     19  C   UNL     1      19.851  -4.875  20.521  1.00  0.00     0.278 C 
ENDBRANCH  13  18
ENDBRANCH   1  12
BRANCH   8  20
ATOM     20  O   UNL     1      18.904 -12.507  15.866  1.00  0.00    -0.490 OA
ATOM     21  C   UNL     1      19.565 -11.597  14.994  1.00  0.00     0.278 C 
ENDBRANCH   8  20
BRANCH  11  22
ATOM     22  O   UNL     1      21.922 -16.126  18.955  1.00  0.00    -0.492 OA
ATOM     23  C   UNL     1      21.532 -17.340  19.590  1.00  0.00     0.278 C 
ENDBRANCH  11  22
BRANCH   9  24
ATOM     24  O   UNL     1      19.175 -15.230  14.973  1.00  0.00    -0.490 OA
ATOM     25  C   UNL     1      19.672 -15.081  13.647  1.00  0.00     0.279 C 
ENDBRANCH   9  24
BRANCH  10  26
ATOM     26  O   UNL     1      20.800 -17.003  16.490  1.00  0.00    -0.490 OA
ATOM     27  C   UNL     1      19.913 -18.116  16.551  1.00  0.00     0.278 C 
ENDBRANCH  10  26
TORSDOF 6
ENDMDL
MODEL 8
REMARK VINA RESULT:    -5.705      1.777      3.356
REMARK INTER + INTRA:          -8.317
REMARK INTER:                  -7.794
REMARK INTRA:                  -0.523
REMARK UNBOUND:                -0.611
REMARK SMILES COc1ccc(-c2cc(=O)c3c(OC)c(OC)c(OC)c(OC)c3o2)cc1
REMARK SMILES IDX 7 1 8 2 9 3 10 4 11 5 24 6 25 7 21 8 18 9 15 10 12 11 6 12
REMARK SMILES IDX 3 13 4 14 27 15 5 16 26 17 2 18 1 19 22 20 23 21 13 22 14 23
REMARK SMILES IDX 19 24 20 25 16 26 17 27
REMARK H PARENT
REMARK Flexibility Score: inf
ROOT
ATOM      1  C   UNL     1      20.076 -13.144  18.985  1.00  0.00     0.138 A 
ATOM      2  C   UNL     1      19.559 -13.003  20.280  1.00  0.00     0.100 A 
ATOM      3  C   UNL     1      19.303 -11.728  20.779  1.00  0.00     0.197 A 
ATOM      4  O   UNL     1      18.841 -11.623  21.947  1.00  0.00    -0.289 OA
ATOM      5  C   UNL     1      19.562 -10.591  19.975  1.00  0.00     0.115 A 
ATOM      6  C   UNL     1      20.052 -10.819  18.673  1.00  0.00     0.188 A 
ATOM      7  O   UNL     1      20.285 -12.059  18.247  1.00  0.00    -0.452 OA
ATOM      8  C   UNL     1      20.318  -9.746  17.815  1.00  0.00     0.209 A 
ATOM      9  C   UNL     1      20.167  -8.415  18.266  1.00  0.00     0.211 A 
ATOM     10  C   UNL     1      19.652  -8.173  19.569  1.00  0.00     0.208 A 
ATOM     11  C   UNL     1      19.345  -9.267  20.425  1.00  0.00     0.179 A 
ENDROOT
BRANCH   1  12
ATOM     12  C   UNL     1      20.389 -14.478  18.411  1.00  0.00     0.018 A 
ATOM     13  C   UNL     1      21.003 -17.034  17.373  1.00  0.00     0.118 A 
ATOM     14  C   UNL     1      19.995 -16.249  16.783  1.00  0.00     0.047 A 
ATOM     15  C   UNL     1      21.689 -16.536  18.485  1.00  0.00     0.047 A 
ATOM     16  C   UNL     1      19.689 -14.987  17.299  1.00  0.00     0.016 A 
ATOM     17  C   UNL     1      21.383 -15.275  19.003  1.00  0.00     0.016 A 
BRANCH  13  18
ATOM     18  O   UNL     1      21.347 -18.305  16.889  1.00  0.00    -0.497 OA
ATOM     19  C   UNL     1      21.080 -19.525  17.572  1.00  0.00     0.278 C 
ENDBRANCH  13  18
ENDBRANCH   1  12
BRANCH   8  20
ATOM     20  O   UNL     1      20.745 -10.014  16.511  1.00  0.00    -0.490 OA
ATOM     21  C   UNL     1      22.124 -10.127  16.177  1.00  0.00     0.278 C 
ENDBRANCH   8  20
BRANCH  11  22
ATOM     22  O   UNL     1      18.830  -9.096  21.730  1.00  0.00    -0.492 OA
ATOM     23  C   UNL     1      19.507  -8.593  22.877  1.00  0.00     0.278 C 
ENDBRANCH  11  22
BRANCH   9  24
ATOM     24  O   UNL     1      20.517  -7.310  17.467  1.00  0.00    -0.490 OA
ATOM     25  C   UNL     1      21.789  -6.676  17.379  1.00  0.00     0.279 C 
ENDBRANCH   9  24
BRANCH  10  26
ATOM     26  O   UNL     1      19.437  -6.871  20.061  1.00  0.00    -0.490 OA
ATOM     27  C   UNL     1      20.397  -5.977  20.615  1.00  0.00     0.278 C 
ENDBRANCH  10  26
TORSDOF 6
ENDMDL
MODEL 9
REMARK VINA RESULT:    -5.523      2.338      7.761
REMARK INTER + INTRA:          -8.071
REMARK INTER:                  -7.500
REMARK INTRA:                  -0.571
REMARK UNBOUND:                -0.611
REMARK SMILES COc1ccc(-c2cc(=O)c3c(OC)c(OC)c(OC)c(OC)c3o2)cc1
REMARK SMILES IDX 7 1 8 2 9 3 10 4 11 5 24 6 25 7 21 8 18 9 15 10 12 11 6 12
REMARK SMILES IDX 3 13 4 14 27 15 5 16 26 17 2 18 1 19 22 20 23 21 13 22 14 23
REMARK SMILES IDX 19 24 20 25 16 26 17 27
REMARK H PARENT
REMARK Flexibility Score: inf
ROOT
ATOM      1  C   UNL     1      20.181 -10.118  17.886  1.00  0.00     0.138 A 
ATOM      2  C   UNL     1      19.468 -10.275  16.691  1.00  0.00     0.100 A 
ATOM      3  C   UNL     1      19.394 -11.534  16.099  1.00  0.00     0.197 A 
ATOM      4  O   UNL     1      18.750 -11.655  15.023  1.00  0.00    -0.289 OA
ATOM      5  C   UNL     1      20.035 -12.639  16.710  1.00  0.00     0.115 A 
ATOM      6  C   UNL     1      20.708 -12.404  17.927  1.00  0.00     0.188 A 
ATOM      7  O   UNL     1      20.752 -11.179  18.448  1.00  0.00    -0.452 OA
ATOM      8  C   UNL     1      21.353 -13.449  18.598  1.00  0.00     0.209 A 
ATOM      9  C   UNL     1      21.402 -14.742  18.028  1.00  0.00     0.211 A 
ATOM     10  C   UNL     1      20.709 -14.997  16.814  1.00  0.00     0.208 A 
ATOM     11  C   UNL     1      20.021 -13.941  16.154  1.00  0.00     0.179 A 
ENDROOT
BRANCH   1  12
ATOM     12  C   UNL     1      20.311  -8.794  18.548  1.00  0.00     0.018 A 
ATOM     13  C   UNL     1      20.578  -6.254  19.756  1.00  0.00     0.118 A 
ATOM     14  C   UNL     1      19.619  -7.168  20.228  1.00  0.00     0.047 A 
ATOM     15  C   UNL     1      21.390  -6.615  18.677  1.00  0.00     0.047 A 
ATOM     16  C   UNL     1      19.484  -8.424  19.626  1.00  0.00     0.016 A 
ATOM     17  C   UNL     1      21.256  -7.869  18.074  1.00  0.00     0.016 A 
BRANCH  13  18
ATOM     18  O   UNL     1      20.752  -4.984  20.328  1.00  0.00    -0.497 OA
ATOM     19  C   UNL     1      20.641  -3.758  19.614  1.00  0.00     0.278 C 
ENDBRANCH  13  18
ENDBRANCH   1  12
BRANCH   8  20
ATOM     20  O   UNL     1      21.956 -13.188  19.832  1.00  0.00    -0.490 OA
ATOM     21  C   UNL     1      21.207 -13.133  21.041  1.00  0.00     0.278 C 
ENDBRANCH   8  20
BRANCH  11  22
ATOM     22  O   UNL     1      19.312 -14.127  14.946  1.00  0.00    -0.492 OA
ATOM     23  C   UNL     1      19.827 -14.554  13.689  1.00  0.00     0.278 C 
ENDBRANCH  11  22
BRANCH   9  24
ATOM     24  O   UNL     1      22.122 -15.795  18.624  1.00  0.00    -0.490 OA
ATOM     25  C   UNL     1      21.633 -16.759  19.550  1.00  0.00     0.279 C 
ENDBRANCH   9  24
BRANCH  10  26
ATOM     26  O   UNL     1      20.682 -16.273  16.219  1.00  0.00    -0.490 OA
ATOM     27  C   UNL     1      19.751 -17.326  16.452  1.00  0.00     0.278 C 
ENDBRANCH  10  26
TORSDOF 6
ENDMDL
