MODEL 1
REMARK VINA RESULT:    -5.288      0.000      0.000
REMARK INTER + INTRA:          -9.277
REMARK INTER:                  -7.915
REMARK INTRA:                  -1.362
REMARK UNBOUND:                -1.362
REMARK SMILES COC(=O)C1=CO[C@H](O[C@H]2O[C@H](CO)[C@@H](O)[C@H](O)[C@H]2O)[C@H]2C(CO)=CC[C@H]12
REMARK SMILES IDX 9 1 8 2 5 3 6 4 27 5 7 6 21 7 26 8 22 9 25 10 3 11 4 12 2 13
REMARK SMILES IDX 1 14 23 15 24 16 10 18 19 19 11 20 17 21 12 22 15 23 20 24
REMARK SMILES IDX 18 26 13 28 14 29 16 31
REMARK H PARENT 24 17 20 25 18 27 14 30 16 32
REMARK Flexibility Score: inf
ROOT
ATOM      1  O   UNL     1      44.701  15.874  -4.439  1.00  0.00    -0.310 OA
ENDROOT
BRANCH   1   2
ATOM      2  C   UNL     1      46.069  16.150  -4.215  1.00  0.00     0.316 C 
ATOM      3  C   UNL     1      48.809  15.246  -4.704  1.00  0.00     0.076 C 
ATOM      4  C   UNL     1      48.023  14.609  -3.806  1.00  0.00     0.202 C 
ATOM      5  C   UNL     1      48.251  16.520  -5.296  1.00  0.00     0.047 C 
ATOM      6  O   UNL     1      46.694  15.027  -3.558  1.00  0.00    -0.471 OA
ATOM      7  C   UNL     1      46.765  16.340  -5.560  1.00  0.00     0.094 C 
ATOM      8  C   UNL     1      48.758  17.080  -6.624  1.00  0.00     0.037 C 
ATOM      9  C   UNL     1      46.462  17.525  -6.412  1.00  0.00    -0.039 C 
ATOM     10  C   UNL     1      47.566  17.872  -7.080  1.00  0.00    -0.024 C 
BRANCH   3  11
ATOM     11  C   UNL     1      50.215  14.826  -4.908  1.00  0.00     0.337 C 
ATOM     12  O   UNL     1      50.492  13.617  -5.134  1.00  0.00    -0.246 OA
BRANCH  11  13
ATOM     13  O   UNL     1      51.238  15.780  -4.869  1.00  0.00    -0.466 OA
ATOM     14  C   UNL     1      52.235  15.883  -5.880  1.00  0.00     0.282 C 
ENDBRANCH  11  13
ENDBRANCH   3  11
BRANCH   9  15
ATOM     15  C   UNL     1      45.080  18.000  -6.773  1.00  0.00     0.187 C 
BRANCH  15  16
ATOM     16  O   UNL     1      44.208  16.908  -6.889  1.00  0.00    -0.392 OA
ATOM     17  H   UNL     1      43.794  16.777  -5.996  1.00  0.00     0.211 HD
ENDBRANCH  15  16
ENDBRANCH   9  15
ENDBRANCH   1   2
BRANCH   1  18
ATOM     18  C   UNL     1      43.885  16.547  -3.498  1.00  0.00     0.286 C 
ATOM     19  C   UNL     1      42.470  15.944  -3.572  1.00  0.00     0.202 C 
ATOM     20  O   UNL     1      43.870  17.940  -3.794  1.00  0.00    -0.341 OA
ATOM     21  C   UNL     1      41.547  16.579  -2.504  1.00  0.00     0.179 C 
ATOM     22  C   UNL     1      42.856  18.689  -3.121  1.00  0.00     0.178 C 
ATOM     23  C   UNL     1      42.112  17.921  -1.985  1.00  0.00     0.177 C 
BRANCH  19  24
ATOM     24  O   UNL     1      41.925  16.171  -4.850  1.00  0.00    -0.385 OA
ATOM     25  H   UNL     1      41.394  15.367  -5.089  1.00  0.00     0.211 HD
ENDBRANCH  19  24
BRANCH  21  26
ATOM     26  O   UNL     1      41.387  15.703  -1.415  1.00  0.00    -0.387 OA
ATOM     27  H   UNL     1      40.675  15.058  -1.667  1.00  0.00     0.211 HD
ENDBRANCH  21  26
BRANCH  22  28
ATOM     28  C   UNL     1      43.503  19.981  -2.591  1.00  0.00     0.191 C 
BRANCH  28  29
ATOM     29  O   UNL     1      43.462  20.039  -1.190  1.00  0.00    -0.394 OA
ATOM     30  H   UNL     1      43.378  19.103  -0.869  1.00  0.00     0.210 HD
ENDBRANCH  28  29
ENDBRANCH  22  28
BRANCH  23  31
ATOM     31  O   UNL     1      41.083  18.697  -1.417  1.00  0.00    -0.387 OA
ATOM     32  H   UNL     1      40.249  18.511  -1.923  1.00  0.00     0.211 HD
ENDBRANCH  23  31
ENDBRANCH   1  18
TORSDOF 11
ENDMDL
MODEL 2
REMARK VINA RESULT:    -5.229      1.694      2.241
REMARK INTER + INTRA:          -9.190
REMARK INTER:                  -7.441
REMARK INTRA:                  -1.749
REMARK UNBOUND:                -1.362
REMARK SMILES COC(=O)C1=CO[C@H](O[C@H]2O[C@H](CO)[C@@H](O)[C@H](O)[C@H]2O)[C@H]2C(CO)=CC[C@H]12
REMARK SMILES IDX 9 1 8 2 5 3 6 4 27 5 7 6 21 7 26 8 22 9 25 10 3 11 4 12 2 13
REMARK SMILES IDX 1 14 23 15 24 16 10 18 19 19 11 20 17 21 12 22 15 23 20 24
REMARK SMILES IDX 18 26 13 28 14 29 16 31
REMARK H PARENT 24 17 20 25 18 27 14 30 16 32
REMARK Flexibility Score: inf
ROOT
ATOM      1  O   UNL     1      43.325  17.184  -4.018  1.00  0.00    -0.310 OA
ENDROOT
BRANCH   1   2
ATOM      2  C   UNL     1      44.686  16.872  -3.792  1.00  0.00     0.316 C 
ATOM      3  C   UNL     1      46.782  14.868  -4.178  1.00  0.00     0.076 C 
ATOM      4  C   UNL     1      45.815  14.683  -3.251  1.00  0.00     0.202 C 
ATOM      5  C   UNL     1      46.804  16.215  -4.863  1.00  0.00     0.047 C 
ATOM      6  O   UNL     1      44.790  15.638  -3.052  1.00  0.00    -0.471 OA
ATOM      7  C   UNL     1      45.376  16.661  -5.136  1.00  0.00     0.094 C 
ATOM      8  C   UNL     1      47.480  16.418  -6.218  1.00  0.00     0.037 C 
ATOM      9  C   UNL     1      45.588  17.802  -6.072  1.00  0.00    -0.039 C 
ATOM     10  C   UNL     1      46.726  17.606  -6.744  1.00  0.00    -0.024 C 
BRANCH   3  11
ATOM     11  C   UNL     1      47.877  13.883  -4.332  1.00  0.00     0.337 C 
ATOM     12  O   UNL     1      47.629  12.710  -4.724  1.00  0.00    -0.246 OA
BRANCH  11  13
ATOM     13  O   UNL     1      49.196  14.260  -4.058  1.00  0.00    -0.466 OA
ATOM     14  C   UNL     1      50.271  14.016  -4.960  1.00  0.00     0.282 C 
ENDBRANCH  11  13
ENDBRANCH   3  11
BRANCH   9  15
ATOM     15  C   UNL     1      44.529  18.789  -6.484  1.00  0.00     0.187 C 
BRANCH  15  16
ATOM     16  O   UNL     1      44.394  19.788  -5.511  1.00  0.00    -0.392 OA
ATOM     17  H   UNL     1      44.419  20.658  -5.989  1.00  0.00     0.211 HD
ENDBRANCH  15  16
ENDBRANCH   9  15
ENDBRANCH   1   2
BRANCH   1  18
ATOM     18  C   UNL     1      42.841  18.087  -3.041  1.00  0.00     0.286 C 
ATOM     19  C   UNL     1      41.424  18.527  -3.455  1.00  0.00     0.202 C 
ATOM     20  O   UNL     1      43.722  19.202  -2.946  1.00  0.00    -0.341 OA
ATOM     21  C   UNL     1      40.802  19.451  -2.381  1.00  0.00     0.179 C 
ATOM     22  C   UNL     1      43.202  20.324  -2.230  1.00  0.00     0.178 C 
ATOM     23  C   UNL     1      41.879  20.052  -1.450  1.00  0.00     0.177 C 
BRANCH  19  24
ATOM     24  O   UNL     1      41.482  19.215  -4.682  1.00  0.00    -0.385 OA
ATOM     25  H   UNL     1      42.298  18.905  -5.154  1.00  0.00     0.211 HD
ENDBRANCH  19  24
BRANCH  21  26
ATOM     26  O   UNL     1      39.875  18.736  -1.600  1.00  0.00    -0.387 OA
ATOM     27  H   UNL     1      38.991  18.831  -2.044  1.00  0.00     0.211 HD
ENDBRANCH  21  26
BRANCH  22  28
ATOM     28  C   UNL     1      44.310  20.833  -1.291  1.00  0.00     0.191 C 
BRANCH  28  29
ATOM     29  O   UNL     1      44.001  20.579   0.053  1.00  0.00    -0.394 OA
ATOM     30  H   UNL     1      43.011  20.564   0.119  1.00  0.00     0.210 HD
ENDBRANCH  28  29
ENDBRANCH  22  28
BRANCH  23  31
ATOM     31  O   UNL     1      41.391  21.218  -0.828  1.00  0.00    -0.387 OA
ATOM     32  H   UNL     1      42.164  21.819  -0.663  1.00  0.00     0.211 HD
ENDBRANCH  23  31
ENDBRANCH   1  18
TORSDOF 11
ENDMDL
MODEL 3
REMARK VINA RESULT:    -5.098      1.667      2.414
REMARK INTER + INTRA:          -8.993
REMARK INTER:                  -7.770
REMARK INTRA:                  -1.223
REMARK UNBOUND:                -1.362
REMARK SMILES COC(=O)C1=CO[C@H](O[C@H]2O[C@H](CO)[C@@H](O)[C@H](O)[C@H]2O)[C@H]2C(CO)=CC[C@H]12
REMARK SMILES IDX 9 1 8 2 5 3 6 4 27 5 7 6 21 7 26 8 22 9 25 10 3 11 4 12 2 13
REMARK SMILES IDX 1 14 23 15 24 16 10 18 19 19 11 20 17 21 12 22 15 23 20 24
REMARK SMILES IDX 18 26 13 28 14 29 16 31
REMARK H PARENT 24 17 20 25 18 27 14 30 16 32
REMARK Flexibility Score: inf
ROOT
ATOM      1  O   UNL     1      44.907  16.257  -4.284  1.00  0.00    -0.310 OA
ENDROOT
BRANCH   1   2
ATOM      2  C   UNL     1      45.950  15.617  -3.576  1.00  0.00     0.316 C 
ATOM      3  C   UNL     1      47.505  13.153  -3.306  1.00  0.00     0.076 C 
ATOM      4  C   UNL     1      46.232  13.217  -2.854  1.00  0.00     0.202 C 
ATOM      5  C   UNL     1      48.109  14.451  -3.792  1.00  0.00     0.047 C 
ATOM      6  O   UNL     1      45.462  14.397  -2.979  1.00  0.00    -0.471 OA
ATOM      7  C   UNL     1      47.056  15.237  -4.557  1.00  0.00     0.094 C 
ATOM      8  C   UNL     1      49.300  14.476  -4.747  1.00  0.00     0.037 C 
ATOM      9  C   UNL     1      47.881  16.288  -5.218  1.00  0.00    -0.039 C 
ATOM     10  C   UNL     1      49.116  15.813  -5.407  1.00  0.00    -0.024 C 
BRANCH   3  11
ATOM     11  C   UNL     1      48.313  11.926  -3.116  1.00  0.00     0.337 C 
ATOM     12  O   UNL     1      48.877  11.699  -2.011  1.00  0.00    -0.246 OA
BRANCH  11  13
ATOM     13  O   UNL     1      48.436  11.005  -4.162  1.00  0.00    -0.466 OA
ATOM     14  C   UNL     1      49.622  10.875  -4.939  1.00  0.00     0.282 C 
ENDBRANCH  11  13
ENDBRANCH   3  11
BRANCH   9  15
ATOM     15  C   UNL     1      47.335  17.506  -5.912  1.00  0.00     0.187 C 
BRANCH  15  16
ATOM     16  O   UNL     1      46.256  17.152  -6.734  1.00  0.00    -0.392 OA
ATOM     17  H   UNL     1      46.539  16.350  -7.247  1.00  0.00     0.211 HD
ENDBRANCH  15  16
ENDBRANCH   9  15
ENDBRANCH   1   2
BRANCH   1  18
ATOM     18  C   UNL     1      43.977  16.848  -3.396  1.00  0.00     0.286 C 
ATOM     19  C   UNL     1      42.625  16.130  -3.571  1.00  0.00     0.202 C 
ATOM     20  O   UNL     1      43.865  18.238  -3.681  1.00  0.00    -0.341 OA
ATOM     21  C   UNL     1      41.583  16.672  -2.563  1.00  0.00     0.179 C 
ATOM     22  C   UNL     1      42.748  18.892  -3.073  1.00  0.00     0.178 C 
ATOM     23  C   UNL     1      41.997  18.049  -1.997  1.00  0.00     0.177 C 
BRANCH  19  24
ATOM     24  O   UNL     1      42.150  16.328  -4.881  1.00  0.00    -0.385 OA
ATOM     25  H   UNL     1      41.369  15.728  -5.003  1.00  0.00     0.211 HD
ENDBRANCH  19  24
BRANCH  21  26
ATOM     26  O   UNL     1      41.423  15.771  -1.494  1.00  0.00    -0.387 OA
ATOM     27  H   UNL     1      41.891  14.933  -1.751  1.00  0.00     0.211 HD
ENDBRANCH  21  26
BRANCH  22  28
ATOM     28  C   UNL     1      43.248  20.225  -2.490  1.00  0.00     0.191 C 
BRANCH  28  29
ATOM     29  O   UNL     1      43.384  20.158  -1.096  1.00  0.00    -0.394 OA
ATOM     30  H   UNL     1      44.125  20.773  -0.853  1.00  0.00     0.210 HD
ENDBRANCH  28  29
ENDBRANCH  22  28
BRANCH  23  31
ATOM     31  O   UNL     1      40.870  18.729  -1.494  1.00  0.00    -0.387 OA
ATOM     32  H   UNL     1      41.196  19.485  -0.939  1.00  0.00     0.211 HD
ENDBRANCH  23  31
ENDBRANCH   1  18
TORSDOF 11
ENDMDL
MODEL 4
REMARK VINA RESULT:    -4.829      2.398      7.176
REMARK INTER + INTRA:          -8.590
REMARK INTER:                  -7.173
REMARK INTRA:                  -1.417
REMARK UNBOUND:                -1.362
REMARK SMILES COC(=O)C1=CO[C@H](O[C@H]2O[C@H](CO)[C@@H](O)[C@H](O)[C@H]2O)[C@H]2C(CO)=CC[C@H]12
REMARK SMILES IDX 9 1 8 2 5 3 6 4 27 5 7 6 21 7 26 8 22 9 25 10 3 11 4 12 2 13
REMARK SMILES IDX 1 14 23 15 24 16 10 18 19 19 11 20 17 21 12 22 15 23 20 24
REMARK SMILES IDX 18 26 13 28 14 29 16 31
REMARK H PARENT 24 17 20 25 18 27 14 30 16 32
REMARK Flexibility Score: inf
ROOT
ATOM      1  O   UNL     1      45.633  16.150  -5.506  1.00  0.00    -0.310 OA
ENDROOT
BRANCH   1   2
ATOM      2  C   UNL     1      45.599  17.558  -5.376  1.00  0.00     0.316 C 
ATOM      3  C   UNL     1      44.290  20.018  -6.267  1.00  0.00     0.076 C 
ATOM      4  C   UNL     1      45.158  19.368  -7.076  1.00  0.00     0.202 C 
ATOM      5  C   UNL     1      44.174  19.498  -4.853  1.00  0.00     0.047 C 
ATOM      6  O   UNL     1      45.797  18.174  -6.665  1.00  0.00    -0.471 OA
ATOM      7  C   UNL     1      44.221  17.978  -4.874  1.00  0.00     0.094 C 
ATOM      8  C   UNL     1      42.946  19.780  -3.990  1.00  0.00     0.037 C 
ATOM      9  C   UNL     1      43.779  17.641  -3.490  1.00  0.00    -0.039 C 
ATOM     10  C   UNL     1      42.984  18.617  -3.040  1.00  0.00    -0.024 C 
BRANCH   3  11
ATOM     11  C   UNL     1      43.673  21.295  -6.695  1.00  0.00     0.337 C 
ATOM     12  O   UNL     1      44.376  22.336  -6.807  1.00  0.00    -0.246 OA
BRANCH  11  13
ATOM     13  O   UNL     1      42.307  21.342  -6.992  1.00  0.00    -0.466 OA
ATOM     14  C   UNL     1      41.445  22.364  -6.501  1.00  0.00     0.282 C 
ENDBRANCH  11  13
ENDBRANCH   3  11
BRANCH   9  15
ATOM     15  C   UNL     1      43.873  16.277  -2.861  1.00  0.00     0.187 C 
BRANCH  15  16
ATOM     16  O   UNL     1      45.142  16.091  -2.296  1.00  0.00    -0.392 OA
ATOM     17  H   UNL     1      45.383  16.944  -1.849  1.00  0.00     0.211 HD
ENDBRANCH  15  16
ENDBRANCH   9  15
ENDBRANCH   1   2
BRANCH   1  18
ATOM     18  C   UNL     1      46.858  15.624  -5.034  1.00  0.00     0.286 C 
ATOM     19  C   UNL     1      47.762  15.349  -6.251  1.00  0.00     0.202 C 
ATOM     20  O   UNL     1      46.611  14.433  -4.294  1.00  0.00    -0.341 OA
ATOM     21  C   UNL     1      49.156  14.852  -5.796  1.00  0.00     0.179 C 
ATOM     22  C   UNL     1      47.768  13.639  -4.022  1.00  0.00     0.178 C 
ATOM     23  C   UNL     1      49.130  14.327  -4.343  1.00  0.00     0.177 C 
BRANCH  19  24
ATOM     24  O   UNL     1      47.167  14.374  -7.072  1.00  0.00    -0.385 OA
ATOM     25  H   UNL     1      47.817  14.158  -7.790  1.00  0.00     0.211 HD
ENDBRANCH  19  24
BRANCH  21  26
ATOM     26  O   UNL     1      50.098  15.893  -5.886  1.00  0.00    -0.387 OA
ATOM     27  H   UNL     1      50.069  16.384  -5.023  1.00  0.00     0.211 HD
ENDBRANCH  21  26
BRANCH  22  28
ATOM     28  C   UNL     1      47.697  13.198  -2.550  1.00  0.00     0.191 C 
BRANCH  28  29
ATOM     29  O   UNL     1      47.374  14.271  -1.707  1.00  0.00    -0.394 OA
ATOM     30  H   UNL     1      48.214  14.533  -1.246  1.00  0.00     0.210 HD
ENDBRANCH  28  29
ENDBRANCH  22  28
BRANCH  23  31
ATOM     31  O   UNL     1      50.218  13.462  -4.117  1.00  0.00    -0.387 OA
ATOM     32  H   UNL     1      50.033  12.612  -4.596  1.00  0.00     0.211 HD
ENDBRANCH  23  31
ENDBRANCH   1  18
TORSDOF 11
ENDMDL
MODEL 5
REMARK VINA RESULT:    -4.821      2.869      7.762
REMARK INTER + INTRA:          -8.578
REMARK INTER:                  -7.196
REMARK INTRA:                  -1.382
REMARK UNBOUND:                -1.362
REMARK SMILES COC(=O)C1=CO[C@H](O[C@H]2O[C@H](CO)[C@@H](O)[C@H](O)[C@H]2O)[C@H]2C(CO)=CC[C@H]12
REMARK SMILES IDX 9 1 8 2 5 3 6 4 27 5 7 6 21 7 26 8 22 9 25 10 3 11 4 12 2 13
REMARK SMILES IDX 1 14 23 15 24 16 10 18 19 19 11 20 17 21 12 22 15 23 20 24
REMARK SMILES IDX 18 26 13 28 14 29 16 31
REMARK H PARENT 24 17 20 25 18 27 14 30 16 32
REMARK Flexibility Score: inf
ROOT
ATOM      1  O   UNL     1      45.400  14.052  -4.087  1.00  0.00    -0.310 OA
ENDROOT
BRANCH   1   2
ATOM      2  C   UNL     1      44.661  14.840  -3.174  1.00  0.00     0.316 C 
ATOM      3  C   UNL     1      42.958  17.200  -2.873  1.00  0.00     0.076 C 
ATOM      4  C   UNL     1      44.292  17.331  -3.057  1.00  0.00     0.202 C 
ATOM      5  C   UNL     1      42.446  15.792  -2.671  1.00  0.00     0.047 C 
ATOM      6  O   UNL     1      45.132  16.203  -3.209  1.00  0.00    -0.471 OA
ATOM      7  C   UNL     1      43.196  14.849  -3.599  1.00  0.00     0.094 C 
ATOM      8  C   UNL     1      40.987  15.421  -2.929  1.00  0.00     0.037 C 
ATOM      9  C   UNL     1      42.369  13.612  -3.508  1.00  0.00    -0.039 C 
ATOM     10  C   UNL     1      41.108  13.954  -3.226  1.00  0.00    -0.024 C 
BRANCH   3  11
ATOM     11  C   UNL     1      42.104  18.391  -2.661  1.00  0.00     0.337 C 
ATOM     12  O   UNL     1      41.593  18.992  -3.645  1.00  0.00    -0.246 OA
BRANCH  11  13
ATOM     13  O   UNL     1      41.850  18.842  -1.361  1.00  0.00    -0.466 OA
ATOM     14  C   UNL     1      41.346  20.144  -1.082  1.00  0.00     0.282 C 
ENDBRANCH  11  13
ENDBRANCH   3  11
BRANCH   9  15
ATOM     15  C   UNL     1      42.775  12.260  -4.031  1.00  0.00     0.187 C 
BRANCH  15  16
ATOM     16  O   UNL     1      43.249  11.459  -2.983  1.00  0.00    -0.392 OA
ATOM     17  H   UNL     1      42.616  10.698  -2.897  1.00  0.00     0.211 HD
ENDBRANCH  15  16
ENDBRANCH   9  15
ENDBRANCH   1   2
BRANCH   1  18
ATOM     18  C   UNL     1      46.510  13.445  -3.453  1.00  0.00     0.286 C 
ATOM     19  C   UNL     1      47.551  13.101  -4.536  1.00  0.00     0.202 C 
ATOM     20  O   UNL     1      46.081  12.278  -2.760  1.00  0.00    -0.341 OA
ATOM     21  C   UNL     1      48.831  12.510  -3.896  1.00  0.00     0.179 C 
ATOM     22  C   UNL     1      47.131  11.406  -2.335  1.00  0.00     0.178 C 
ATOM     23  C   UNL     1      48.569  11.996  -2.462  1.00  0.00     0.177 C 
BRANCH  19  24
ATOM     24  O   UNL     1      47.007  12.165  -5.436  1.00  0.00    -0.385 OA
ATOM     25  H   UNL     1      46.616  11.432  -4.894  1.00  0.00     0.211 HD
ENDBRANCH  19  24
BRANCH  21  26
ATOM     26  O   UNL     1      49.847  13.482  -3.851  1.00  0.00    -0.387 OA
ATOM     27  H   UNL     1      50.712  12.994  -3.844  1.00  0.00     0.211 HD
ENDBRANCH  21  26
BRANCH  22  28
ATOM     28  C   UNL     1      46.828  10.979  -0.888  1.00  0.00     0.191 C 
BRANCH  28  29
ATOM     29  O   UNL     1      47.527  11.767   0.037  1.00  0.00    -0.394 OA
ATOM     30  H   UNL     1      47.973  11.139   0.665  1.00  0.00     0.210 HD
ENDBRANCH  28  29
ENDBRANCH  22  28
BRANCH  23  31
ATOM     31  O   UNL     1      49.553  11.058  -2.093  1.00  0.00    -0.387 OA
ATOM     32  H   UNL     1      50.428  11.527  -2.080  1.00  0.00     0.211 HD
ENDBRANCH  23  31
ENDBRANCH   1  18
TORSDOF 11
ENDMDL
MODEL 6
REMARK VINA RESULT:    -4.731      1.951      6.859
REMARK INTER + INTRA:          -8.444
REMARK INTER:                  -7.255
REMARK INTRA:                  -1.189
REMARK UNBOUND:                -1.362
REMARK SMILES COC(=O)C1=CO[C@H](O[C@H]2O[C@H](CO)[C@@H](O)[C@H](O)[C@H]2O)[C@H]2C(CO)=CC[C@H]12
REMARK SMILES IDX 9 1 8 2 5 3 6 4 27 5 7 6 21 7 26 8 22 9 25 10 3 11 4 12 2 13
REMARK SMILES IDX 1 14 23 15 24 16 10 18 19 19 11 20 17 21 12 22 15 23 20 24
REMARK SMILES IDX 18 26 13 28 14 29 16 31
REMARK H PARENT 24 17 20 25 18 27 14 30 16 32
REMARK Flexibility Score: inf
ROOT
ATOM      1  O   UNL     1      46.877  15.948  -3.728  1.00  0.00    -0.310 OA
ENDROOT
BRANCH   1   2
ATOM      2  C   UNL     1      45.574  16.152  -4.238  1.00  0.00     0.316 C 
ATOM      3  C   UNL     1      43.253  17.933  -4.244  1.00  0.00     0.076 C 
ATOM      4  C   UNL     1      43.517  17.150  -3.174  1.00  0.00     0.202 C 
ATOM      5  C   UNL     1      44.114  17.710  -5.466  1.00  0.00     0.047 C 
ATOM      6  O   UNL     1      44.637  16.286  -3.149  1.00  0.00    -0.471 OA
ATOM      7  C   UNL     1      45.548  17.457  -5.028  1.00  0.00     0.094 C 
ATOM      8  C   UNL     1      44.280  18.782  -6.541  1.00  0.00     0.037 C 
ATOM      9  C   UNL     1      46.286  17.582  -6.317  1.00  0.00    -0.039 C 
ATOM     10  C   UNL     1      45.612  18.406  -7.125  1.00  0.00    -0.024 C 
BRANCH   3  11
ATOM     11  C   UNL     1      42.045  18.791  -4.272  1.00  0.00     0.337 C 
ATOM     12  O   UNL     1      40.941  18.324  -4.665  1.00  0.00    -0.246 OA
BRANCH  11  13
ATOM     13  O   UNL     1      42.126  20.120  -3.845  1.00  0.00    -0.466 OA
ATOM     14  C   UNL     1      43.308  20.678  -3.279  1.00  0.00     0.282 C 
ENDBRANCH  11  13
ENDBRANCH   3  11
BRANCH   9  15
ATOM     15  C   UNL     1      47.721  17.184  -6.533  1.00  0.00     0.187 C 
BRANCH  15  16
ATOM     16  O   UNL     1      48.483  17.483  -5.395  1.00  0.00    -0.392 OA
ATOM     17  H   UNL     1      49.392  17.722  -5.715  1.00  0.00     0.211 HD
ENDBRANCH  15  16
ENDBRANCH   9  15
ENDBRANCH   1   2
BRANCH   1  18
ATOM     18  C   UNL     1      47.316  14.625  -3.968  1.00  0.00     0.286 C 
ATOM     19  C   UNL     1      46.830  13.740  -2.804  1.00  0.00     0.202 C 
ATOM     20  O   UNL     1      48.737  14.607  -4.073  1.00  0.00    -0.341 OA
ATOM     21  C   UNL     1      47.205  12.259  -3.049  1.00  0.00     0.179 C 
ATOM     22  C   UNL     1      49.331  13.309  -4.008  1.00  0.00     0.178 C 
ATOM     23  C   UNL     1      48.327  12.119  -4.102  1.00  0.00     0.177 C 
BRANCH  19  24
ATOM     24  O   UNL     1      47.419  14.175  -1.601  1.00  0.00    -0.385 OA
ATOM     25  H   UNL     1      46.856  14.912  -1.249  1.00  0.00     0.211 HD
ENDBRANCH  19  24
BRANCH  21  26
ATOM     26  O   UNL     1      46.079  11.537  -3.487  1.00  0.00    -0.387 OA
ATOM     27  H   UNL     1      45.505  12.175  -3.987  1.00  0.00     0.211 HD
ENDBRANCH  21  26
BRANCH  22  28
ATOM     28  C   UNL     1      50.398  13.229  -5.114  1.00  0.00     0.191 C 
BRANCH  28  29
ATOM     29  O   UNL     1      51.536  13.979  -4.786  1.00  0.00    -0.394 OA
ATOM     30  H   UNL     1      52.302  13.552  -5.251  1.00  0.00     0.210 HD
ENDBRANCH  28  29
ENDBRANCH  22  28
BRANCH  23  31
ATOM     31  O   UNL     1      48.976  10.876  -3.961  1.00  0.00    -0.387 OA
ATOM     32  H   UNL     1      48.867  10.380  -4.814  1.00  0.00     0.211 HD
ENDBRANCH  23  31
ENDBRANCH   1  18
TORSDOF 11
ENDMDL
MODEL 7
REMARK VINA RESULT:    -4.720      2.484      6.782
REMARK INTER + INTRA:          -8.427
REMARK INTER:                  -7.184
REMARK INTRA:                  -1.243
REMARK UNBOUND:                -1.362
REMARK SMILES COC(=O)C1=CO[C@H](O[C@H]2O[C@H](CO)[C@@H](O)[C@H](O)[C@H]2O)[C@H]2C(CO)=CC[C@H]12
REMARK SMILES IDX 9 1 8 2 5 3 6 4 27 5 7 6 21 7 26 8 22 9 25 10 3 11 4 12 2 13
REMARK SMILES IDX 1 14 23 15 24 16 10 18 19 19 11 20 17 21 12 22 15 23 20 24
REMARK SMILES IDX 18 26 13 28 14 29 16 31
REMARK H PARENT 24 17 20 25 18 27 14 30 16 32
REMARK Flexibility Score: inf
ROOT
ATOM      1  O   UNL     1      44.614  16.151  -5.310  1.00  0.00    -0.310 OA
ENDROOT
BRANCH   1   2
ATOM      2  C   UNL     1      43.535  16.948  -4.863  1.00  0.00     0.316 C 
ATOM      3  C   UNL     1      42.561  18.677  -2.713  1.00  0.00     0.076 C 
ATOM      4  C   UNL     1      42.610  17.336  -2.550  1.00  0.00     0.202 C 
ATOM      5  C   UNL     1      42.875  19.195  -4.098  1.00  0.00     0.047 C 
ATOM      6  O   UNL     1      43.082  16.483  -3.575  1.00  0.00    -0.471 OA
ATOM      7  C   UNL     1      44.019  18.385  -4.687  1.00  0.00     0.094 C 
ATOM      8  C   UNL     1      43.330  20.633  -4.336  1.00  0.00     0.037 C 
ATOM      9  C   UNL     1      44.399  19.211  -5.869  1.00  0.00    -0.039 C 
ATOM     10  C   UNL     1      44.095  20.488  -5.620  1.00  0.00    -0.024 C 
BRANCH   3  11
ATOM     11  C   UNL     1      42.012  19.548  -1.648  1.00  0.00     0.337 C 
ATOM     12  O   UNL     1      42.782  20.260  -0.947  1.00  0.00    -0.246 OA
BRANCH  11  13
ATOM     13  O   UNL     1      40.631  19.594  -1.430  1.00  0.00    -0.466 OA
ATOM     14  C   UNL     1      40.043  20.330  -0.362  1.00  0.00     0.282 C 
ENDBRANCH  11  13
ENDBRANCH   3  11
BRANCH   9  15
ATOM     15  C   UNL     1      45.321  18.767  -6.973  1.00  0.00     0.187 C 
BRANCH  15  16
ATOM     16  O   UNL     1      46.379  18.013  -6.447  1.00  0.00    -0.392 OA
ATOM     17  H   UNL     1      46.037  17.579  -5.621  1.00  0.00     0.211 HD
ENDBRANCH  15  16
ENDBRANCH   9  15
ENDBRANCH   1   2
BRANCH   1  18
ATOM     18  C   UNL     1      44.839  15.062  -4.435  1.00  0.00     0.286 C 
ATOM     19  C   UNL     1      46.359  14.921  -4.227  1.00  0.00     0.202 C 
ATOM     20  O   UNL     1      44.282  13.878  -4.997  1.00  0.00    -0.341 OA
ATOM     21  C   UNL     1      46.670  13.799  -3.208  1.00  0.00     0.179 C 
ATOM     22  C   UNL     1      44.699  12.661  -4.374  1.00  0.00     0.178 C 
ATOM     23  C   UNL     1      45.473  12.837  -3.032  1.00  0.00     0.177 C 
BRANCH  19  24
ATOM     24  O   UNL     1      46.980  14.619  -5.454  1.00  0.00    -0.385 OA
ATOM     25  H   UNL     1      47.479  13.771  -5.329  1.00  0.00     0.211 HD
ENDBRANCH  19  24
BRANCH  21  26
ATOM     26  O   UNL     1      46.994  14.353  -1.956  1.00  0.00    -0.387 OA
ATOM     27  H   UNL     1      46.148  14.696  -1.565  1.00  0.00     0.211 HD
ENDBRANCH  21  26
BRANCH  22  28
ATOM     28  C   UNL     1      43.450  11.781  -4.188  1.00  0.00     0.191 C 
BRANCH  28  29
ATOM     29  O   UNL     1      43.166  11.574  -2.830  1.00  0.00    -0.394 OA
ATOM     30  H   UNL     1      44.034  11.606  -2.350  1.00  0.00     0.210 HD
ENDBRANCH  28  29
ENDBRANCH  22  28
BRANCH  23  31
ATOM     31  O   UNL     1      45.911  11.602  -2.515  1.00  0.00    -0.387 OA
ATOM     32  H   UNL     1      46.868  11.494  -2.759  1.00  0.00     0.211 HD
ENDBRANCH  23  31
ENDBRANCH   1  18
TORSDOF 11
ENDMDL
MODEL 8
REMARK VINA RESULT:    -4.710      2.631      6.776
REMARK INTER + INTRA:          -8.413
REMARK INTER:                  -8.097
REMARK INTRA:                  -0.316
REMARK UNBOUND:                -1.362
REMARK SMILES COC(=O)C1=CO[C@H](O[C@H]2O[C@H](CO)[C@@H](O)[C@H](O)[C@H]2O)[C@H]2C(CO)=CC[C@H]12
REMARK SMILES IDX 9 1 8 2 5 3 6 4 27 5 7 6 21 7 26 8 22 9 25 10 3 11 4 12 2 13
REMARK SMILES IDX 1 14 23 15 24 16 10 18 19 19 11 20 17 21 12 22 15 23 20 24
REMARK SMILES IDX 18 26 13 28 14 29 16 31
REMARK H PARENT 24 17 20 25 18 27 14 30 16 32
REMARK Flexibility Score: inf
ROOT
ATOM      1  O   UNL     1      44.075  16.488  -4.835  1.00  0.00    -0.310 OA
ENDROOT
BRANCH   1   2
ATOM      2  C   UNL     1      44.446  17.852  -4.816  1.00  0.00     0.316 C 
ATOM      3  C   UNL     1      44.023  20.470  -6.052  1.00  0.00     0.076 C 
ATOM      4  C   UNL     1      44.738  19.515  -6.689  1.00  0.00     0.202 C 
ATOM      5  C   UNL     1      43.612  20.162  -4.631  1.00  0.00     0.047 C 
ATOM      6  O   UNL     1      44.950  18.241  -6.111  1.00  0.00    -0.471 OA
ATOM      7  C   UNL     1      43.209  18.699  -4.532  1.00  0.00     0.094 C 
ATOM      8  C   UNL     1      42.440  20.875  -3.959  1.00  0.00     0.037 C 
ATOM      9  C   UNL     1      42.547  18.656  -3.197  1.00  0.00    -0.039 C 
ATOM     10  C   UNL     1      42.034  19.861  -2.928  1.00  0.00    -0.024 C 
BRANCH   3  11
ATOM     11  C   UNL     1      43.859  21.815  -6.651  1.00  0.00     0.337 C 
ATOM     12  O   UNL     1      44.851  22.583  -6.773  1.00  0.00    -0.246 OA
BRANCH  11  13
ATOM     13  O   UNL     1      42.599  22.228  -7.099  1.00  0.00    -0.466 OA
ATOM     14  C   UNL     1      42.200  23.595  -7.125  1.00  0.00     0.282 C 
ENDBRANCH  11  13
ENDBRANCH   3  11
BRANCH   9  15
ATOM     15  C   UNL     1      42.167  17.400  -2.461  1.00  0.00     0.187 C 
BRANCH  15  16
ATOM     16  O   UNL     1      42.149  17.635  -1.079  1.00  0.00    -0.392 OA
ATOM     17  H   UNL     1      42.931  17.156  -0.697  1.00  0.00     0.211 HD
ENDBRANCH  15  16
ENDBRANCH   9  15
ENDBRANCH   1   2
BRANCH   1  18
ATOM     18  C   UNL     1      45.198  15.652  -4.629  1.00  0.00     0.286 C 
ATOM     19  C   UNL     1      45.089  15.042  -3.218  1.00  0.00     0.202 C 
ATOM     20  O   UNL     1      46.391  16.415  -4.772  1.00  0.00    -0.341 OA
ATOM     21  C   UNL     1      46.246  14.046  -2.962  1.00  0.00     0.179 C 
ATOM     22  C   UNL     1      47.577  15.777  -4.294  1.00  0.00     0.178 C 
ATOM     23  C   UNL     1      47.418  14.266  -3.945  1.00  0.00     0.177 C 
BRANCH  19  24
ATOM     24  O   UNL     1      45.136  16.067  -2.254  1.00  0.00    -0.385 OA
ATOM     25  H   UNL     1      44.199  16.282  -2.010  1.00  0.00     0.211 HD
ENDBRANCH  19  24
BRANCH  21  26
ATOM     26  O   UNL     1      45.788  12.722  -3.091  1.00  0.00    -0.387 OA
ATOM     27  H   UNL     1      45.048  12.608  -2.438  1.00  0.00     0.211 HD
ENDBRANCH  21  26
BRANCH  22  28
ATOM     28  C   UNL     1      48.680  15.995  -5.345  1.00  0.00     0.191 C 
BRANCH  28  29
ATOM     29  O   UNL     1      48.832  17.354  -5.656  1.00  0.00    -0.394 OA
ATOM     30  H   UNL     1      47.931  17.765  -5.581  1.00  0.00     0.210 HD
ENDBRANCH  28  29
ENDBRANCH  22  28
BRANCH  23  31
ATOM     31  O   UNL     1      48.607  13.724  -3.416  1.00  0.00    -0.387 OA
ATOM     32  H   UNL     1      48.806  14.201  -2.568  1.00  0.00     0.211 HD
ENDBRANCH  23  31
ENDBRANCH   1  18
TORSDOF 11
ENDMDL
