MODEL 1
REMARK VINA RESULT:    -3.402      0.000      0.000
REMARK INTER + INTRA:          -3.736
REMARK INTER:                  -3.700
REMARK INTRA:                  -0.035
REMARK UNBOUND:                -0.035
REMARK SMILES O=C([O-])c1ccc(O)cc1
REMARK SMILES IDX 4 1 5 2 10 3 6 4 9 5 7 6 2 7 1 8 3 9 8 10
REMARK H PARENT 8 11
REMARK Flexibility Score: inf
ROOT
ATOM      1  C   UNL     1      -8.165   8.062  -7.570  1.00  0.00    -0.003 A 
ATOM      2  C   UNL     1      -7.511   7.494  -6.462  1.00  0.00     0.014 A 
ATOM      3  C   UNL     1      -9.480   8.538  -7.416  1.00  0.00     0.014 A 
ATOM      4  C   UNL     1      -8.160   7.405  -5.226  1.00  0.00     0.047 A 
ATOM      5  C   UNL     1     -10.125   8.447  -6.178  1.00  0.00     0.047 A 
ATOM      6  C   UNL     1      -9.468   7.881  -5.081  1.00  0.00     0.115 A 
ENDROOT
BRANCH   1   7
ATOM      7  C   UNL     1      -7.485   8.160  -8.880  1.00  0.00     0.071 C 
ATOM      8  O   UNL     1      -6.433   7.504  -9.107  1.00  0.00    -0.545 OA
ATOM      9  O   UNL     1      -7.998   8.976  -9.882  1.00  0.00    -0.545 OA
ENDBRANCH   1   7
BRANCH   6  10
ATOM     10  O   UNL     1     -10.124   7.798  -3.855  1.00  0.00    -0.508 OA
ATOM     11  H   UNL     1     -11.127   7.928  -3.782  1.00  0.00     0.293 HD
ENDBRANCH   6  10
TORSDOF 2
ENDMDL
MODEL 2
REMARK VINA RESULT:    -3.340      0.160      1.846
REMARK INTER + INTRA:          -3.668
REMARK INTER:                  -3.633
REMARK INTRA:                  -0.036
REMARK UNBOUND:                -0.035
REMARK SMILES O=C([O-])c1ccc(O)cc1
REMARK SMILES IDX 4 1 5 2 10 3 6 4 9 5 7 6 2 7 1 8 3 9 8 10
REMARK H PARENT 8 11
REMARK Flexibility Score: inf
ROOT
ATOM      1  C   UNL     1      -8.201   8.146  -7.706  1.00  0.00    -0.003 A 
ATOM      2  C   UNL     1      -9.484   8.695  -7.525  1.00  0.00     0.014 A 
ATOM      3  C   UNL     1      -7.574   7.504  -6.622  1.00  0.00     0.014 A 
ATOM      4  C   UNL     1     -10.125   8.602  -6.285  1.00  0.00     0.047 A 
ATOM      5  C   UNL     1      -8.220   7.414  -5.384  1.00  0.00     0.047 A 
ATOM      6  C   UNL     1      -9.494   7.962  -5.212  1.00  0.00     0.115 A 
ENDROOT
BRANCH   1   7
ATOM      7  C   UNL     1      -7.516   8.240  -9.014  1.00  0.00     0.071 C 
ATOM      8  O   UNL     1      -7.981   8.972  -9.929  1.00  0.00    -0.545 OA
ATOM      9  O   UNL     1      -6.350   7.523  -9.253  1.00  0.00    -0.545 OA
ENDBRANCH   1   7
BRANCH   6  10
ATOM     10  O   UNL     1     -10.123   7.864  -3.973  1.00  0.00    -0.508 OA
ATOM     11  H   UNL     1     -10.674   8.628  -3.598  1.00  0.00     0.293 HD
ENDBRANCH   6  10
TORSDOF 2
ENDMDL
MODEL 3
REMARK VINA RESULT:    -3.302     16.169     17.349
REMARK INTER + INTRA:          -3.627
REMARK INTER:                  -3.592
REMARK INTRA:                  -0.036
REMARK UNBOUND:                -0.035
REMARK SMILES O=C([O-])c1ccc(O)cc1
REMARK SMILES IDX 4 1 5 2 10 3 6 4 9 5 7 6 2 7 1 8 3 9 8 10
REMARK H PARENT 8 11
REMARK Flexibility Score: inf
ROOT
ATOM      1  C   UNL     1       3.019   6.524   5.988  1.00  0.00    -0.003 A 
ATOM      2  C   UNL     1       3.515   5.208   6.037  1.00  0.00     0.014 A 
ATOM      3  C   UNL     1       1.634   6.727   5.850  1.00  0.00     0.014 A 
ATOM      4  C   UNL     1       2.641   4.119   5.949  1.00  0.00     0.047 A 
ATOM      5  C   UNL     1       0.764   5.634   5.763  1.00  0.00     0.047 A 
ATOM      6  C   UNL     1       1.264   4.330   5.811  1.00  0.00     0.115 A 
ENDROOT
BRANCH   1   7
ATOM      7  C   UNL     1       3.937   7.680   6.081  1.00  0.00     0.071 C 
ATOM      8  O   UNL     1       3.484   8.856   6.122  1.00  0.00    -0.545 OA
ATOM      9  O   UNL     1       5.312   7.487   6.124  1.00  0.00    -0.545 OA
ENDBRANCH   1   7
BRANCH   6  10
ATOM     10  O   UNL     1       0.385   3.253   5.723  1.00  0.00    -0.508 OA
ATOM     11  H   UNL     1      -0.601   3.356   5.937  1.00  0.00     0.293 HD
ENDBRANCH   6  10
TORSDOF 2
ENDMDL
MODEL 4
REMARK VINA RESULT:    -3.115     13.354     14.347
REMARK INTER + INTRA:          -3.424
REMARK INTER:                  -3.388
REMARK INTRA:                  -0.035
REMARK UNBOUND:                -0.035
REMARK SMILES O=C([O-])c1ccc(O)cc1
REMARK SMILES IDX 4 1 5 2 10 3 6 4 9 5 7 6 2 7 1 8 3 9 8 10
REMARK H PARENT 8 11
REMARK Flexibility Score: inf
ROOT
ATOM      1  C   UNL     1      -7.295  -5.030 -13.402  1.00  0.00    -0.003 A 
ATOM      2  C   UNL     1      -8.468  -4.875 -12.642  1.00  0.00     0.014 A 
ATOM      3  C   UNL     1      -6.798  -3.930 -14.124  1.00  0.00     0.014 A 
ATOM      4  C   UNL     1      -9.130  -3.643 -12.606  1.00  0.00     0.047 A 
ATOM      5  C   UNL     1      -7.463  -2.700 -14.084  1.00  0.00     0.047 A 
ATOM      6  C   UNL     1      -8.629  -2.553 -13.327  1.00  0.00     0.115 A 
ENDROOT
BRANCH   1   7
ATOM      7  C   UNL     1      -6.589  -6.330 -13.445  1.00  0.00     0.071 C 
ATOM      8  O   UNL     1      -5.422  -6.411 -13.913  1.00  0.00    -0.545 OA
ATOM      9  O   UNL     1      -7.205  -7.482 -12.969  1.00  0.00    -0.545 OA
ENDBRANCH   1   7
BRANCH   6  10
ATOM     10  O   UNL     1      -9.280  -1.322 -13.299  1.00  0.00    -0.508 OA
ATOM     11  H   UNL     1      -9.852  -1.044 -12.509  1.00  0.00     0.293 HD
ENDBRANCH   6  10
TORSDOF 2
ENDMDL
MODEL 5
REMARK VINA RESULT:    -3.102      1.265      2.258
REMARK INTER + INTRA:          -3.410
REMARK INTER:                  -3.376
REMARK INTRA:                  -0.033
REMARK UNBOUND:                -0.035
REMARK SMILES O=C([O-])c1ccc(O)cc1
REMARK SMILES IDX 4 1 5 2 10 3 6 4 9 5 7 6 2 7 1 8 3 9 8 10
REMARK H PARENT 8 11
REMARK Flexibility Score: inf
ROOT
ATOM      1  C   UNL     1      -8.724   8.552  -8.619  1.00  0.00    -0.003 A 
ATOM      2  C   UNL     1      -9.920   8.541  -7.879  1.00  0.00     0.014 A 
ATOM      3  C   UNL     1      -7.522   8.197  -7.981  1.00  0.00     0.014 A 
ATOM      4  C   UNL     1      -9.912   8.181  -6.527  1.00  0.00     0.047 A 
ATOM      5  C   UNL     1      -7.519   7.837  -6.629  1.00  0.00     0.047 A 
ATOM      6  C   UNL     1      -8.711   7.829  -5.899  1.00  0.00     0.115 A 
ENDROOT
BRANCH   1   7
ATOM      7  C   UNL     1      -8.725   8.932 -10.049  1.00  0.00     0.071 C 
ATOM      8  O   UNL     1      -9.723   8.684 -10.778  1.00  0.00    -0.545 OA
ATOM      9  O   UNL     1      -7.623   9.568 -10.610  1.00  0.00    -0.545 OA
ENDBRANCH   1   7
BRANCH   6  10
ATOM     10  O   UNL     1      -8.691   7.469  -4.553  1.00  0.00    -0.508 OA
ATOM     11  H   UNL     1      -8.820   8.157  -3.820  1.00  0.00     0.293 HD
ENDBRANCH   6  10
TORSDOF 2
ENDMDL
MODEL 6
REMARK VINA RESULT:    -3.100     14.622     15.743
REMARK INTER + INTRA:          -3.407
REMARK INTER:                  -3.380
REMARK INTRA:                  -0.027
REMARK UNBOUND:                -0.035
REMARK SMILES O=C([O-])c1ccc(O)cc1
REMARK SMILES IDX 4 1 5 2 10 3 6 4 9 5 7 6 2 7 1 8 3 9 8 10
REMARK H PARENT 8 11
REMARK Flexibility Score: inf
ROOT
ATOM      1  C   UNL     1      -8.083  -6.216 -13.015  1.00  0.00    -0.003 A 
ATOM      2  C   UNL     1      -8.094  -4.834 -12.750  1.00  0.00     0.014 A 
ATOM      3  C   UNL     1      -6.955  -6.784 -13.634  1.00  0.00     0.014 A 
ATOM      4  C   UNL     1      -6.997  -4.038 -13.100  1.00  0.00     0.047 A 
ATOM      5  C   UNL     1      -5.861  -5.984 -13.982  1.00  0.00     0.047 A 
ATOM      6  C   UNL     1      -5.879  -4.612 -13.716  1.00  0.00     0.115 A 
ENDROOT
BRANCH   1   7
ATOM      7  C   UNL     1      -9.239  -7.064 -12.648  1.00  0.00     0.071 C 
ATOM      8  O   UNL     1     -10.125  -7.343 -13.500  1.00  0.00    -0.545 OA
ATOM      9  O   UNL     1      -9.364  -7.566 -11.358  1.00  0.00    -0.545 OA
ENDBRANCH   1   7
BRANCH   6  10
ATOM     10  O   UNL     1      -4.782  -3.829 -14.069  1.00  0.00    -0.508 OA
ATOM     11  H   UNL     1      -4.026  -4.201 -14.633  1.00  0.00     0.293 HD
ENDBRANCH   6  10
TORSDOF 2
ENDMDL
MODEL 7
REMARK VINA RESULT:    -3.040     18.039     19.057
REMARK INTER + INTRA:          -3.342
REMARK INTER:                  -3.310
REMARK INTRA:                  -0.032
REMARK UNBOUND:                -0.035
REMARK SMILES O=C([O-])c1ccc(O)cc1
REMARK SMILES IDX 4 1 5 2 10 3 6 4 9 5 7 6 2 7 1 8 3 9 8 10
REMARK H PARENT 8 11
REMARK Flexibility Score: inf
ROOT
ATOM      1  C   UNL     1       8.688   8.594  -0.149  1.00  0.00    -0.003 A 
ATOM      2  C   UNL     1       7.982   9.339   0.813  1.00  0.00     0.014 A 
ATOM      3  C   UNL     1       9.763   7.789   0.265  1.00  0.00     0.014 A 
ATOM      4  C   UNL     1       8.347   9.277   2.163  1.00  0.00     0.047 A 
ATOM      5  C   UNL     1      10.124   7.730   1.615  1.00  0.00     0.047 A 
ATOM      6  C   UNL     1       9.419   8.473   2.566  1.00  0.00     0.115 A 
ENDROOT
BRANCH   1   7
ATOM      7  C   UNL     1       8.308   8.655  -1.578  1.00  0.00     0.071 C 
ATOM      8  O   UNL     1       7.094   8.681  -1.918  1.00  0.00    -0.545 OA
ATOM      9  O   UNL     1       9.284   8.684  -2.567  1.00  0.00    -0.545 OA
ENDBRANCH   1   7
BRANCH   6  10
ATOM     10  O   UNL     1       9.791   8.404   3.907  1.00  0.00    -0.508 OA
ATOM     11  H   UNL     1      10.739   8.170   4.181  1.00  0.00     0.293 HD
ENDBRANCH   6  10
TORSDOF 2
ENDMDL
MODEL 8
REMARK VINA RESULT:    -2.846     14.961     15.932
REMARK INTER + INTRA:          -3.131
REMARK INTER:                  -3.104
REMARK INTRA:                  -0.027
REMARK UNBOUND:                -0.035
REMARK SMILES O=C([O-])c1ccc(O)cc1
REMARK SMILES IDX 4 1 5 2 10 3 6 4 9 5 7 6 2 7 1 8 3 9 8 10
REMARK H PARENT 8 11
REMARK Flexibility Score: inf
ROOT
ATOM      1  C   UNL     1      -7.896  -6.945 -12.776  1.00  0.00    -0.003 A 
ATOM      2  C   UNL     1      -8.708  -5.951 -12.200  1.00  0.00     0.014 A 
ATOM      3  C   UNL     1      -6.805  -6.557 -13.574  1.00  0.00     0.014 A 
ATOM      4  C   UNL     1      -8.433  -4.597 -12.419  1.00  0.00     0.047 A 
ATOM      5  C   UNL     1      -6.533  -5.202 -13.791  1.00  0.00     0.047 A 
ATOM      6  C   UNL     1      -7.345  -4.220 -13.216  1.00  0.00     0.115 A 
ENDROOT
BRANCH   1   7
ATOM      7  C   UNL     1      -8.181  -8.379 -12.548  1.00  0.00     0.071 C 
ATOM      8  O   UNL     1      -9.095  -8.961 -13.191  1.00  0.00    -0.545 OA
ATOM      9  O   UNL     1      -7.444  -9.105 -11.620  1.00  0.00    -0.545 OA
ENDBRANCH   1   7
BRANCH   6  10
ATOM     10  O   UNL     1      -7.061  -2.874 -13.441  1.00  0.00    -0.508 OA
ATOM     11  H   UNL     1      -7.700  -2.279 -13.956  1.00  0.00     0.293 HD
ENDBRANCH   6  10
TORSDOF 2
ENDMDL
