MODEL 1
REMARK VINA RESULT:    -4.702      0.000      0.000
REMARK INTER + INTRA:         -11.587
REMARK INTER:                 -10.749
REMARK INTRA:                  -0.838
REMARK UNBOUND:                -0.838
REMARK SMILES CCCCCCCCCCCCCCCCCCCCCCCC(=O)[O-]
REMARK SMILES IDX 13 1 14 2 15 3 16 4 17 5 18 6 19 7 20 8 21 9 22 10 23 11
REMARK SMILES IDX 24 12 25 13 26 14 12 15 11 16 10 17 9 18 8 19 7 20 6 21 5 22
REMARK SMILES IDX 4 23 3 24 2 25 1 26
REMARK H PARENT
REMARK Flexibility Score: inf
ROOT
ATOM      1  C   UNL     1       7.658  10.477  15.748  1.00  0.00     0.000 C 
ENDROOT
BRANCH   1   2
ATOM      2  C   UNL     1       8.393  10.856  17.044  1.00  0.00     0.000 C 
BRANCH   2   3
ATOM      3  C   UNL     1       8.391  12.369  17.309  1.00  0.00     0.000 C 
BRANCH   3   4
ATOM      4  C   UNL     1       8.994  12.687  18.686  1.00  0.00     0.000 C 
BRANCH   4   5
ATOM      5  C   UNL     1       9.067  14.205  18.956  1.00  0.00     0.000 C 
BRANCH   5   6
ATOM      6  C   UNL     1       8.490  14.616  20.321  1.00  0.00     0.000 C 
BRANCH   6   7
ATOM      7  C   UNL     1       9.399  14.222  21.496  1.00  0.00     0.000 C 
BRANCH   7   8
ATOM      8  C   UNL     1       9.229  15.151  22.708  1.00  0.00     0.000 C 
BRANCH   8   9
ATOM      9  C   UNL     1      10.017  14.665  23.938  1.00  0.00     0.000 C 
BRANCH   9  10
ATOM     10  C   UNL     1      11.475  14.300  23.604  1.00  0.00     0.006 C 
BRANCH  10  11
ATOM     11  C   UNL     1      12.488  14.685  24.694  1.00  0.00     0.053 C 
BRANCH  11  12
ATOM     12  C   UNL     1      12.476  13.719  25.839  1.00  0.00     0.041 C 
ATOM     13  O   UNL     1      13.302  12.770  25.876  1.00  0.00    -0.550 OA
ATOM     14  O   UNL     1      11.530  13.848  26.848  1.00  0.00    -0.550 OA
ENDBRANCH  11  12
ENDBRANCH  10  11
ENDBRANCH   9  10
ENDBRANCH   8   9
ENDBRANCH   7   8
ENDBRANCH   6   7
ENDBRANCH   5   6
ENDBRANCH   4   5
ENDBRANCH   3   4
ENDBRANCH   2   3
ENDBRANCH   1   2
BRANCH   1  15
ATOM     15  C   UNL     1       6.210  10.998  15.713  1.00  0.00     0.000 C 
BRANCH  15  16
ATOM     16  C   UNL     1       5.207   9.995  16.303  1.00  0.00     0.000 C 
BRANCH  16  17
ATOM     17  C   UNL     1       3.946   9.835  15.440  1.00  0.00     0.000 C 
BRANCH  17  18
ATOM     18  C   UNL     1       2.743   9.425  16.305  1.00  0.00    -0.000 C 
BRANCH  18  19
ATOM     19  C   UNL     1       1.724   8.567  15.539  1.00  0.00    -0.000 C 
BRANCH  19  20
ATOM     20  C   UNL     1       0.389   8.426  16.289  1.00  0.00    -0.000 C 
BRANCH  20  21
ATOM     21  C   UNL     1       0.208   9.490  17.385  1.00  0.00    -0.000 C 
BRANCH  21  22
ATOM     22  C   UNL     1      -1.270   9.792  17.718  1.00  0.00    -0.000 C 
BRANCH  22  23
ATOM     23  C   UNL     1      -1.411  10.875  18.801  1.00  0.00    -0.000 C 
BRANCH  23  24
ATOM     24  C   UNL     1      -2.160  10.364  20.051  1.00  0.00    -0.000 C 
BRANCH  24  25
ATOM     25  C   UNL     1      -1.232   9.796  21.138  1.00  0.00    -0.003 C 
ATOM     26  C   UNL     1      -1.782   8.531  21.794  1.00  0.00     0.004 C 
ENDBRANCH  24  25
ENDBRANCH  23  24
ENDBRANCH  22  23
ENDBRANCH  21  22
ENDBRANCH  20  21
ENDBRANCH  19  20
ENDBRANCH  18  19
ENDBRANCH  17  18
ENDBRANCH  16  17
ENDBRANCH  15  16
ENDBRANCH   1  15
TORSDOF 22
ENDMDL
MODEL 2
REMARK VINA RESULT:    -4.119      8.827     13.924
REMARK INTER + INTRA:         -10.253
REMARK INTER:                  -8.830
REMARK INTRA:                  -1.423
REMARK UNBOUND:                -0.838
REMARK SMILES CCCCCCCCCCCCCCCCCCCCCCCC(=O)[O-]
REMARK SMILES IDX 13 1 14 2 15 3 16 4 17 5 18 6 19 7 20 8 21 9 22 10 23 11
REMARK SMILES IDX 24 12 25 13 26 14 12 15 11 16 10 17 9 18 8 19 7 20 6 21 5 22
REMARK SMILES IDX 4 23 3 24 2 25 1 26
REMARK H PARENT
REMARK Flexibility Score: inf
ROOT
ATOM      1  C   UNL     1       7.631  13.599  29.402  1.00  0.00     0.000 C 
ENDROOT
BRANCH   1   2
ATOM      2  C   UNL     1       7.044  14.292  30.642  1.00  0.00     0.000 C 
BRANCH   2   3
ATOM      3  C   UNL     1       8.076  15.148  31.391  1.00  0.00     0.000 C 
BRANCH   3   4
ATOM      4  C   UNL     1       7.457  16.473  31.860  1.00  0.00     0.000 C 
BRANCH   4   5
ATOM      5  C   UNL     1       6.049  16.281  32.461  1.00  0.00     0.000 C 
BRANCH   5   6
ATOM      6  C   UNL     1       5.914  16.814  33.897  1.00  0.00     0.000 C 
BRANCH   6   7
ATOM      7  C   UNL     1       4.757  17.814  34.057  1.00  0.00     0.000 C 
BRANCH   7   8
ATOM      8  C   UNL     1       4.570  18.700  32.816  1.00  0.00     0.000 C 
BRANCH   8   9
ATOM      9  C   UNL     1       3.518  19.802  33.033  1.00  0.00     0.000 C 
BRANCH   9  10
ATOM     10  C   UNL     1       2.085  19.247  33.127  1.00  0.00     0.006 C 
BRANCH  10  11
ATOM     11  C   UNL     1       1.081  20.199  33.795  1.00  0.00     0.053 C 
BRANCH  11  12
ATOM     12  C   UNL     1       0.459  21.142  32.811  1.00  0.00     0.041 C 
ATOM     13  O   UNL     1       0.304  22.356  33.108  1.00  0.00    -0.550 OA
ATOM     14  O   UNL     1       0.017  20.672  31.581  1.00  0.00    -0.550 OA
ENDBRANCH  11  12
ENDBRANCH  10  11
ENDBRANCH   9  10
ENDBRANCH   8   9
ENDBRANCH   7   8
ENDBRANCH   6   7
ENDBRANCH   5   6
ENDBRANCH   4   5
ENDBRANCH   3   4
ENDBRANCH   2   3
ENDBRANCH   1   2
BRANCH   1  15
ATOM     15  C   UNL     1       8.975  14.207  28.964  1.00  0.00     0.000 C 
BRANCH  15  16
ATOM     16  C   UNL     1       9.281  13.957  27.480  1.00  0.00     0.000 C 
BRANCH  16  17
ATOM     17  C   UNL     1      10.525  13.081  27.265  1.00  0.00     0.000 C 
BRANCH  17  18
ATOM     18  C   UNL     1      11.761  13.951  26.985  1.00  0.00    -0.000 C 
BRANCH  18  19
ATOM     19  C   UNL     1      12.592  13.439  25.798  1.00  0.00    -0.000 C 
BRANCH  19  20
ATOM     20  C   UNL     1      12.705  14.474  24.667  1.00  0.00    -0.000 C 
BRANCH  20  21
ATOM     21  C   UNL     1      11.641  14.278  23.574  1.00  0.00    -0.000 C 
BRANCH  21  22
ATOM     22  C   UNL     1      10.541  15.362  23.577  1.00  0.00    -0.000 C 
BRANCH  22  23
ATOM     23  C   UNL     1       9.158  14.786  23.226  1.00  0.00    -0.000 C 
BRANCH  23  24
ATOM     24  C   UNL     1       8.269  14.589  24.473  1.00  0.00    -0.000 C 
BRANCH  24  25
ATOM     25  C   UNL     1       6.767  14.515  24.156  1.00  0.00    -0.003 C 
ATOM     26  C   UNL     1       5.928  15.473  24.998  1.00  0.00     0.004 C 
ENDBRANCH  24  25
ENDBRANCH  23  24
ENDBRANCH  22  23
ENDBRANCH  21  22
ENDBRANCH  20  21
ENDBRANCH  19  20
ENDBRANCH  18  19
ENDBRANCH  17  18
ENDBRANCH  16  17
ENDBRANCH  15  16
ENDBRANCH   1  15
TORSDOF 22
ENDMDL
MODEL 3
REMARK VINA RESULT:    -4.071      2.427      2.924
REMARK INTER + INTRA:         -10.146
REMARK INTER:                  -9.212
REMARK INTRA:                  -0.933
REMARK UNBOUND:                -0.838
REMARK SMILES CCCCCCCCCCCCCCCCCCCCCCCC(=O)[O-]
REMARK SMILES IDX 13 1 14 2 15 3 16 4 17 5 18 6 19 7 20 8 21 9 22 10 23 11
REMARK SMILES IDX 24 12 25 13 26 14 12 15 11 16 10 17 9 18 8 19 7 20 6 21 5 22
REMARK SMILES IDX 4 23 3 24 2 25 1 26
REMARK H PARENT
REMARK Flexibility Score: inf
ROOT
ATOM      1  C   UNL     1       7.889  10.393  16.015  1.00  0.00     0.000 C 
ENDROOT
BRANCH   1   2
ATOM      2  C   UNL     1       8.473  10.861  17.358  1.00  0.00     0.000 C 
BRANCH   2   3
ATOM      3  C   UNL     1       8.738  12.374  17.396  1.00  0.00     0.000 C 
BRANCH   3   4
ATOM      4  C   UNL     1       9.187  12.819  18.797  1.00  0.00     0.000 C 
BRANCH   4   5
ATOM      5  C   UNL     1       8.966  14.329  19.030  1.00  0.00     0.000 C 
BRANCH   5   6
ATOM      6  C   UNL     1       8.685  14.690  20.498  1.00  0.00     0.000 C 
BRANCH   6   7
ATOM      7  C   UNL     1       9.615  13.960  21.481  1.00  0.00     0.000 C 
BRANCH   7   8
ATOM      8  C   UNL     1      10.072  14.863  22.638  1.00  0.00     0.000 C 
BRANCH   8   9
ATOM      9  C   UNL     1       9.420  14.478  23.978  1.00  0.00     0.000 C 
BRANCH   9  10
ATOM     10  C   UNL     1       7.883  14.567  23.938  1.00  0.00     0.006 C 
BRANCH  10  11
ATOM     11  C   UNL     1       7.257  15.227  25.176  1.00  0.00     0.053 C 
BRANCH  11  12
ATOM     12  C   UNL     1       5.773  15.383  25.041  1.00  0.00     0.041 C 
ATOM     13  O   UNL     1       5.224  16.483  25.315  1.00  0.00    -0.550 OA
ATOM     14  O   UNL     1       4.993  14.304  24.647  1.00  0.00    -0.550 OA
ENDBRANCH  11  12
ENDBRANCH  10  11
ENDBRANCH   9  10
ENDBRANCH   8   9
ENDBRANCH   7   8
ENDBRANCH   6   7
ENDBRANCH   5   6
ENDBRANCH   4   5
ENDBRANCH   3   4
ENDBRANCH   2   3
ENDBRANCH   1   2
BRANCH   1  15
ATOM     15  C   UNL     1       6.504  10.998  15.728  1.00  0.00     0.000 C 
BRANCH  15  16
ATOM     16  C   UNL     1       5.406  10.412  16.629  1.00  0.00     0.000 C 
BRANCH  16  17
ATOM     17  C   UNL     1       4.495   9.419  15.891  1.00  0.00     0.000 C 
BRANCH  17  18
ATOM     18  C   UNL     1       3.036   9.574  16.351  1.00  0.00    -0.000 C 
BRANCH  18  19
ATOM     19  C   UNL     1       2.075   8.627  15.614  1.00  0.00    -0.000 C 
BRANCH  19  20
ATOM     20  C   UNL     1       0.601   8.899  15.956  1.00  0.00    -0.000 C 
BRANCH  20  21
ATOM     21  C   UNL     1       0.406   9.387  17.401  1.00  0.00    -0.000 C 
BRANCH  21  22
ATOM     22  C   UNL     1      -1.062   9.717  17.751  1.00  0.00    -0.000 C 
BRANCH  22  23
ATOM     23  C   UNL     1      -1.182  10.993  18.603  1.00  0.00    -0.000 C 
BRANCH  23  24
ATOM     24  C   UNL     1      -1.388  10.683  20.101  1.00  0.00    -0.000 C 
BRANCH  24  25
ATOM     25  C   UNL     1      -1.946   9.276  20.371  1.00  0.00    -0.003 C 
ATOM     26  C   UNL     1      -1.734   8.813  21.811  1.00  0.00     0.004 C 
ENDBRANCH  24  25
ENDBRANCH  23  24
ENDBRANCH  22  23
ENDBRANCH  21  22
ENDBRANCH  20  21
ENDBRANCH  19  20
ENDBRANCH  18  19
ENDBRANCH  17  18
ENDBRANCH  16  17
ENDBRANCH  15  16
ENDBRANCH   1  15
TORSDOF 22
ENDMDL
MODEL 4
REMARK VINA RESULT:    -4.041      9.339     14.760
REMARK INTER + INTRA:         -10.075
REMARK INTER:                  -8.565
REMARK INTRA:                  -1.510
REMARK UNBOUND:                -0.838
REMARK SMILES CCCCCCCCCCCCCCCCCCCCCCCC(=O)[O-]
REMARK SMILES IDX 13 1 14 2 15 3 16 4 17 5 18 6 19 7 20 8 21 9 22 10 23 11
REMARK SMILES IDX 24 12 25 13 26 14 12 15 11 16 10 17 9 18 8 19 7 20 6 21 5 22
REMARK SMILES IDX 4 23 3 24 2 25 1 26
REMARK H PARENT
REMARK Flexibility Score: inf
ROOT
ATOM      1  C   UNL     1       7.963  14.861  31.031  1.00  0.00     0.000 C 
ENDROOT
BRANCH   1   2
ATOM      2  C   UNL     1       6.915  15.802  31.648  1.00  0.00     0.000 C 
BRANCH   2   3
ATOM      3  C   UNL     1       7.520  17.125  32.141  1.00  0.00     0.000 C 
BRANCH   3   4
ATOM      4  C   UNL     1       6.498  17.924  32.966  1.00  0.00     0.000 C 
BRANCH   4   5
ATOM      5  C   UNL     1       5.452  17.012  33.642  1.00  0.00     0.000 C 
BRANCH   5   6
ATOM      6  C   UNL     1       4.630  17.722  34.731  1.00  0.00     0.000 C 
BRANCH   6   7
ATOM      7  C   UNL     1       4.705  19.254  34.633  1.00  0.00     0.000 C 
BRANCH   7   8
ATOM      8  C   UNL     1       3.391  19.876  34.135  1.00  0.00     0.000 C 
BRANCH   8   9
ATOM      9  C   UNL     1       3.192  19.695  32.619  1.00  0.00     0.000 C 
BRANCH   9  10
ATOM     10  C   UNL     1       1.744  19.971  32.173  1.00  0.00     0.006 C 
BRANCH  10  11
ATOM     11  C   UNL     1       0.898  20.727  33.209  1.00  0.00     0.053 C 
BRANCH  11  12
ATOM     12  C   UNL     1      -0.127  21.609  32.564  1.00  0.00     0.041 C 
ATOM     13  O   UNL     1      -0.652  21.275  31.470  1.00  0.00    -0.550 OA
ATOM     14  O   UNL     1      -0.474  22.817  33.154  1.00  0.00    -0.550 OA
ENDBRANCH  11  12
ENDBRANCH  10  11
ENDBRANCH   9  10
ENDBRANCH   8   9
ENDBRANCH   7   8
ENDBRANCH   6   7
ENDBRANCH   5   6
ENDBRANCH   4   5
ENDBRANCH   3   4
ENDBRANCH   2   3
ENDBRANCH   1   2
BRANCH   1  15
ATOM     15  C   UNL     1       7.331  13.628  30.362  1.00  0.00     0.000 C 
BRANCH  15  16
ATOM     16  C   UNL     1       7.821  13.424  28.920  1.00  0.00     0.000 C 
BRANCH  16  17
ATOM     17  C   UNL     1       9.078  14.245  28.595  1.00  0.00     0.000 C 
BRANCH  17  18
ATOM     18  C   UNL     1       9.757  13.718  27.320  1.00  0.00    -0.000 C 
BRANCH  18  19
ATOM     19  C   UNL     1      11.278  13.938  27.322  1.00  0.00    -0.000 C 
BRANCH  19  20
ATOM     20  C   UNL     1      11.979  13.230  26.151  1.00  0.00    -0.000 C 
BRANCH  20  21
ATOM     21  C   UNL     1      12.472  14.208  25.073  1.00  0.00    -0.000 C 
BRANCH  21  22
ATOM     22  C   UNL     1      11.670  14.134  23.754  1.00  0.00    -0.000 C 
BRANCH  22  23
ATOM     23  C   UNL     1      10.863  15.417  23.494  1.00  0.00    -0.000 C 
BRANCH  23  24
ATOM     24  C   UNL     1       9.370  15.129  23.224  1.00  0.00    -0.000 C 
BRANCH  24  25
ATOM     25  C   UNL     1       8.669  14.377  24.367  1.00  0.00    -0.003 C 
ATOM     26  C   UNL     1       7.249  14.874  24.630  1.00  0.00     0.004 C 
ENDBRANCH  24  25
ENDBRANCH  23  24
ENDBRANCH  22  23
ENDBRANCH  21  22
ENDBRANCH  20  21
ENDBRANCH  19  20
ENDBRANCH  18  19
ENDBRANCH  17  18
ENDBRANCH  16  17
ENDBRANCH  15  16
ENDBRANCH   1  15
TORSDOF 22
ENDMDL
MODEL 5
REMARK VINA RESULT:    -3.993      8.612     13.674
REMARK INTER + INTRA:          -9.967
REMARK INTER:                  -8.707
REMARK INTRA:                  -1.260
REMARK UNBOUND:                -0.838
REMARK SMILES CCCCCCCCCCCCCCCCCCCCCCCC(=O)[O-]
REMARK SMILES IDX 13 1 14 2 15 3 16 4 17 5 18 6 19 7 20 8 21 9 22 10 23 11
REMARK SMILES IDX 24 12 25 13 26 14 12 15 11 16 10 17 9 18 8 19 7 20 6 21 5 22
REMARK SMILES IDX 4 23 3 24 2 25 1 26
REMARK H PARENT
REMARK Flexibility Score: inf
ROOT
ATOM      1  C   UNL     1       7.216  14.273  30.253  1.00  0.00     0.000 C 
ENDROOT
BRANCH   1   2
ATOM      2  C   UNL     1       7.915  13.508  29.118  1.00  0.00     0.000 C 
BRANCH   2   3
ATOM      3  C   UNL     1       9.120  14.268  28.541  1.00  0.00     0.000 C 
BRANCH   3   4
ATOM      4  C   UNL     1       9.669  13.562  27.292  1.00  0.00     0.000 C 
BRANCH   4   5
ATOM      5  C   UNL     1      11.198  13.357  27.361  1.00  0.00     0.000 C 
BRANCH   5   6
ATOM      6  C   UNL     1      11.986  14.294  26.431  1.00  0.00     0.000 C 
BRANCH   6   7
ATOM      7  C   UNL     1      12.092  13.759  24.994  1.00  0.00     0.000 C 
BRANCH   7   8
ATOM      8  C   UNL     1      11.618  14.782  23.949  1.00  0.00     0.000 C 
BRANCH   8   9
ATOM      9  C   UNL     1      10.375  14.304  23.178  1.00  0.00     0.000 C 
BRANCH   9  10
ATOM     10  C   UNL     1       9.107  15.098  23.543  1.00  0.00     0.006 C 
BRANCH  10  11
ATOM     11  C   UNL     1       8.296  14.493  24.699  1.00  0.00     0.053 C 
BRANCH  11  12
ATOM     12  C   UNL     1       6.822  14.699  24.521  1.00  0.00     0.041 C 
ATOM     13  O   UNL     1       6.260  15.713  25.011  1.00  0.00    -0.550 OA
ATOM     14  O   UNL     1       6.065  13.752  23.844  1.00  0.00    -0.550 OA
ENDBRANCH  11  12
ENDBRANCH  10  11
ENDBRANCH   9  10
ENDBRANCH   8   9
ENDBRANCH   7   8
ENDBRANCH   6   7
ENDBRANCH   5   6
ENDBRANCH   4   5
ENDBRANCH   3   4
ENDBRANCH   2   3
ENDBRANCH   1   2
BRANCH   1  15
ATOM     15  C   UNL     1       8.206  15.034  31.153  1.00  0.00     0.000 C 
BRANCH  15  16
ATOM     16  C   UNL     1       7.613  16.335  31.715  1.00  0.00     0.000 C 
BRANCH  16  17
ATOM     17  C   UNL     1       6.293  16.113  32.469  1.00  0.00     0.000 C 
BRANCH  17  18
ATOM     18  C   UNL     1       6.090  17.196  33.541  1.00  0.00    -0.000 C 
BRANCH  18  19
ATOM     19  C   UNL     1       4.727  17.089  34.244  1.00  0.00    -0.000 C 
BRANCH  19  20
ATOM     20  C   UNL     1       4.109  18.464  34.544  1.00  0.00    -0.000 C 
BRANCH  20  21
ATOM     21  C   UNL     1       4.243  19.446  33.368  1.00  0.00    -0.000 C 
BRANCH  21  22
ATOM     22  C   UNL     1       3.087  19.352  32.348  1.00  0.00    -0.000 C 
BRANCH  22  23
ATOM     23  C   UNL     1       1.714  19.579  33.005  1.00  0.00    -0.000 C 
BRANCH  23  24
ATOM     24  C   UNL     1       1.525  21.034  33.486  1.00  0.00    -0.000 C 
BRANCH  24  25
ATOM     25  C   UNL     1       0.115  21.591  33.232  1.00  0.00    -0.003 C 
ATOM     26  C   UNL     1      -0.412  21.276  31.834  1.00  0.00     0.004 C 
ENDBRANCH  24  25
ENDBRANCH  23  24
ENDBRANCH  22  23
ENDBRANCH  21  22
ENDBRANCH  20  21
ENDBRANCH  19  20
ENDBRANCH  18  19
ENDBRANCH  17  18
ENDBRANCH  16  17
ENDBRANCH  15  16
ENDBRANCH   1  15
TORSDOF 22
ENDMDL
MODEL 6
REMARK VINA RESULT:    -3.990     12.438     17.744
REMARK INTER + INTRA:          -9.960
REMARK INTER:                  -9.437
REMARK INTRA:                  -0.523
REMARK UNBOUND:                -0.838
REMARK SMILES CCCCCCCCCCCCCCCCCCCCCCCC(=O)[O-]
REMARK SMILES IDX 13 1 14 2 15 3 16 4 17 5 18 6 19 7 20 8 21 9 22 10 23 11
REMARK SMILES IDX 24 12 25 13 26 14 12 15 11 16 10 17 9 18 8 19 7 20 6 21 5 22
REMARK SMILES IDX 4 23 3 24 2 25 1 26
REMARK H PARENT
REMARK Flexibility Score: inf
ROOT
ATOM      1  C   UNL     1       1.510  20.069  32.398  1.00  0.00     0.000 C 
ENDROOT
BRANCH   1   2
ATOM      2  C   UNL     1       0.717  21.349  32.707  1.00  0.00     0.000 C 
BRANCH   2   3
ATOM      3  C   UNL     1      -0.632  21.405  31.975  1.00  0.00     0.000 C 
BRANCH   3   4
ATOM      4  C   UNL     1      -0.500  20.883  30.536  1.00  0.00     0.000 C 
BRANCH   4   5
ATOM      5  C   UNL     1      -1.551  19.802  30.207  1.00  0.00     0.000 C 
BRANCH   5   6
ATOM      6  C   UNL     1      -1.110  18.832  29.098  1.00  0.00     0.000 C 
BRANCH   6   7
ATOM      7  C   UNL     1      -2.212  17.836  28.702  1.00  0.00     0.000 C 
BRANCH   7   8
ATOM      8  C   UNL     1      -2.851  18.175  27.347  1.00  0.00     0.000 C 
BRANCH   8   9
ATOM      9  C   UNL     1      -3.965  19.230  27.469  1.00  0.00     0.000 C 
BRANCH   9  10
ATOM     10  C   UNL     1      -3.414  20.658  27.638  1.00  0.00     0.006 C 
BRANCH  10  11
ATOM     11  C   UNL     1      -3.022  21.344  26.320  1.00  0.00     0.053 C 
BRANCH  11  12
ATOM     12  C   UNL     1      -1.552  21.247  26.050  1.00  0.00     0.041 C 
ATOM     13  O   UNL     1      -0.847  20.411  26.674  1.00  0.00    -0.550 OA
ATOM     14  O   UNL     1      -0.955  22.105  25.136  1.00  0.00    -0.550 OA
ENDBRANCH  11  12
ENDBRANCH  10  11
ENDBRANCH   9  10
ENDBRANCH   8   9
ENDBRANCH   7   8
ENDBRANCH   6   7
ENDBRANCH   5   6
ENDBRANCH   4   5
ENDBRANCH   3   4
ENDBRANCH   2   3
ENDBRANCH   1   2
BRANCH   1  15
ATOM     15  C   UNL     1       1.970  19.335  33.670  1.00  0.00     0.000 C 
BRANCH  15  16
ATOM     16  C   UNL     1       2.930  20.177  34.524  1.00  0.00     0.000 C 
BRANCH  16  17
ATOM     17  C   UNL     1       4.175  19.394  34.969  1.00  0.00     0.000 C 
BRANCH  17  18
ATOM     18  C   UNL     1       3.851  17.899  35.124  1.00  0.00    -0.000 C 
BRANCH  18  19
ATOM     19  C   UNL     1       4.691  17.009  34.195  1.00  0.00    -0.000 C 
BRANCH  19  20
ATOM     20  C   UNL     1       6.086  16.710  34.766  1.00  0.00    -0.000 C 
BRANCH  20  21
ATOM     21  C   UNL     1       7.150  17.715  34.292  1.00  0.00    -0.000 C 
BRANCH  21  22
ATOM     22  C   UNL     1       7.052  18.058  32.789  1.00  0.00    -0.000 C 
BRANCH  22  23
ATOM     23  C   UNL     1       7.883  17.098  31.920  1.00  0.00    -0.000 C 
BRANCH  23  24
ATOM     24  C   UNL     1       7.158  15.760  31.661  1.00  0.00    -0.000 C 
BRANCH  24  25
ATOM     25  C   UNL     1       8.009  14.732  30.898  1.00  0.00    -0.003 C 
ATOM     26  C   UNL     1       7.204  13.529  30.413  1.00  0.00     0.004 C 
ENDBRANCH  24  25
ENDBRANCH  23  24
ENDBRANCH  22  23
ENDBRANCH  21  22
ENDBRANCH  20  21
ENDBRANCH  19  20
ENDBRANCH  18  19
ENDBRANCH  17  18
ENDBRANCH  16  17
ENDBRANCH  15  16
ENDBRANCH   1  15
TORSDOF 22
ENDMDL
MODEL 7
REMARK VINA RESULT:    -3.981      2.962      6.355
REMARK INTER + INTRA:          -9.938
REMARK INTER:                  -8.516
REMARK INTRA:                  -1.421
REMARK UNBOUND:                -0.838
REMARK SMILES CCCCCCCCCCCCCCCCCCCCCCCC(=O)[O-]
REMARK SMILES IDX 13 1 14 2 15 3 16 4 17 5 18 6 19 7 20 8 21 9 22 10 23 11
REMARK SMILES IDX 24 12 25 13 26 14 12 15 11 16 10 17 9 18 8 19 7 20 6 21 5 22
REMARK SMILES IDX 4 23 3 24 2 25 1 26
REMARK H PARENT
REMARK Flexibility Score: inf
ROOT
ATOM      1  C   UNL     1       8.963  15.030  21.415  1.00  0.00     0.000 C 
ENDROOT
BRANCH   1   2
ATOM      2  C   UNL     1      10.039  14.099  21.999  1.00  0.00     0.000 C 
BRANCH   2   3
ATOM      3  C   UNL     1      10.782  14.722  23.191  1.00  0.00     0.000 C 
BRANCH   3   4
ATOM      4  C   UNL     1      12.244  14.251  23.235  1.00  0.00     0.000 C 
BRANCH   4   5
ATOM      5  C   UNL     1      12.611  13.607  24.589  1.00  0.00     0.000 C 
BRANCH   5   6
ATOM      6  C   UNL     1      12.074  14.381  25.803  1.00  0.00     0.000 C 
BRANCH   6   7
ATOM      7  C   UNL     1      11.417  13.468  26.851  1.00  0.00     0.000 C 
BRANCH   7   8
ATOM      8  C   UNL     1      10.023  13.961  27.270  1.00  0.00     0.000 C 
BRANCH   8   9
ATOM      9  C   UNL     1       8.922  13.516  26.291  1.00  0.00     0.000 C 
BRANCH   9  10
ATOM     10  C   UNL     1       8.438  14.660  25.382  1.00  0.00     0.006 C 
BRANCH  10  11
ATOM     11  C   UNL     1       7.339  14.254  24.387  1.00  0.00     0.053 C 
BRANCH  11  12
ATOM     12  C   UNL     1       5.990  14.754  24.803  1.00  0.00     0.041 C 
ATOM     13  O   UNL     1       5.881  15.851  25.411  1.00  0.00    -0.550 OA
ATOM     14  O   UNL     1       4.857  13.991  24.551  1.00  0.00    -0.550 OA
ENDBRANCH  11  12
ENDBRANCH  10  11
ENDBRANCH   9  10
ENDBRANCH   8   9
ENDBRANCH   7   8
ENDBRANCH   6   7
ENDBRANCH   5   6
ENDBRANCH   4   5
ENDBRANCH   3   4
ENDBRANCH   2   3
ENDBRANCH   1   2
BRANCH   1  15
ATOM     15  C   UNL     1       8.549  14.634  19.987  1.00  0.00     0.000 C 
BRANCH  15  16
ATOM     16  C   UNL     1       9.441  13.531  19.398  1.00  0.00     0.000 C 
BRANCH  16  17
ATOM     17  C   UNL     1       8.889  12.954  18.085  1.00  0.00     0.000 C 
BRANCH  17  18
ATOM     18  C   UNL     1       8.852  11.418  18.139  1.00  0.00    -0.000 C 
BRANCH  18  19
ATOM     19  C   UNL     1       8.137  10.797  16.928  1.00  0.00    -0.000 C 
BRANCH  19  20
ATOM     20  C   UNL     1       7.135  11.763  16.275  1.00  0.00    -0.000 C 
BRANCH  20  21
ATOM     21  C   UNL     1       6.371  11.124  15.103  1.00  0.00    -0.000 C 
BRANCH  21  22
ATOM     22  C   UNL     1       5.515   9.906  15.512  1.00  0.00    -0.000 C 
BRANCH  22  23
ATOM     23  C   UNL     1       4.041  10.069  15.102  1.00  0.00    -0.000 C 
BRANCH  23  24
ATOM     24  C   UNL     1       3.068   9.659  16.228  1.00  0.00    -0.000 C 
BRANCH  24  25
ATOM     25  C   UNL     1       2.081   8.552  15.820  1.00  0.00    -0.003 C 
ATOM     26  C   UNL     1       0.646   8.837  16.257  1.00  0.00     0.004 C 
ENDBRANCH  24  25
ENDBRANCH  23  24
ENDBRANCH  22  23
ENDBRANCH  21  22
ENDBRANCH  20  21
ENDBRANCH  19  20
ENDBRANCH  18  19
ENDBRANCH  17  18
ENDBRANCH  16  17
ENDBRANCH  15  16
ENDBRANCH   1  15
TORSDOF 22
ENDMDL
MODEL 8
REMARK VINA RESULT:    -3.971     11.083     14.955
REMARK INTER + INTRA:          -9.916
REMARK INTER:                  -8.716
REMARK INTRA:                  -1.200
REMARK UNBOUND:                -0.838
REMARK SMILES CCCCCCCCCCCCCCCCCCCCCCCC(=O)[O-]
REMARK SMILES IDX 13 1 14 2 15 3 16 4 17 5 18 6 19 7 20 8 21 9 22 10 23 11
REMARK SMILES IDX 24 12 25 13 26 14 12 15 11 16 10 17 9 18 8 19 7 20 6 21 5 22
REMARK SMILES IDX 4 23 3 24 2 25 1 26
REMARK H PARENT
REMARK Flexibility Score: inf
ROOT
ATOM      1  C   UNL     1       3.509  18.916  32.880  1.00  0.00     0.000 C 
ENDROOT
BRANCH   1   2
ATOM      2  C   UNL     1       4.243  18.679  34.209  1.00  0.00     0.000 C 
BRANCH   2   3
ATOM      3  C   UNL     1       4.623  17.206  34.425  1.00  0.00     0.000 C 
BRANCH   3   4
ATOM      4  C   UNL     1       6.136  16.996  34.256  1.00  0.00     0.000 C 
BRANCH   4   5
ATOM      5  C   UNL     1       6.726  17.876  33.134  1.00  0.00     0.000 C 
BRANCH   5   6
ATOM      6  C   UNL     1       7.556  17.088  32.107  1.00  0.00     0.000 C 
BRANCH   6   7
ATOM      7  C   UNL     1       7.019  15.668  31.868  1.00  0.00     0.000 C 
BRANCH   7   8
ATOM      8  C   UNL     1       7.933  14.840  30.952  1.00  0.00     0.000 C 
BRANCH   8   9
ATOM      9  C   UNL     1       7.142  13.901  30.023  1.00  0.00     0.000 C 
BRANCH   9  10
ATOM     10  C   UNL     1       7.984  13.386  28.842  1.00  0.00     0.006 C 
BRANCH  10  11
ATOM     11  C   UNL     1       9.228  14.235  28.536  1.00  0.00     0.053 C 
BRANCH  11  12
ATOM     12  C   UNL     1       9.891  13.821  27.257  1.00  0.00     0.041 C 
ATOM     13  O   UNL     1      11.083  13.416  27.264  1.00  0.00    -0.550 OA
ATOM     14  O   UNL     1       9.204  13.918  26.054  1.00  0.00    -0.550 OA
ENDBRANCH  11  12
ENDBRANCH  10  11
ENDBRANCH   9  10
ENDBRANCH   8   9
ENDBRANCH   7   8
ENDBRANCH   6   7
ENDBRANCH   5   6
ENDBRANCH   4   5
ENDBRANCH   3   4
ENDBRANCH   2   3
ENDBRANCH   1   2
BRANCH   1  15
ATOM     15  C   UNL     1       2.780  20.271  32.840  1.00  0.00     0.000 C 
BRANCH  15  16
ATOM     16  C   UNL     1       2.062  20.594  34.159  1.00  0.00     0.000 C 
BRANCH  16  17
ATOM     17  C   UNL     1       0.534  20.646  34.010  1.00  0.00     0.000 C 
BRANCH  17  18
ATOM     18  C   UNL     1       0.078  22.044  33.562  1.00  0.00    -0.000 C 
BRANCH  18  19
ATOM     19  C   UNL     1      -0.584  22.039  32.174  1.00  0.00    -0.000 C 
BRANCH  19  20
ATOM     20  C   UNL     1      -0.487  20.671  31.480  1.00  0.00    -0.000 C 
BRANCH  20  21
ATOM     21  C   UNL     1      -1.292  20.611  30.170  1.00  0.00    -0.000 C 
BRANCH  21  22
ATOM     22  C   UNL     1      -1.075  19.309  29.369  1.00  0.00    -0.000 C 
BRANCH  22  23
ATOM     23  C   UNL     1      -2.247  19.012  28.417  1.00  0.00    -0.000 C 
BRANCH  23  24
ATOM     24  C   UNL     1      -3.002  20.291  27.996  1.00  0.00    -0.000 C 
BRANCH  24  25
ATOM     25  C   UNL     1      -2.745  20.709  26.538  1.00  0.00    -0.003 C 
ATOM     26  C   UNL     1      -1.262  20.881  26.216  1.00  0.00     0.004 C 
ENDBRANCH  24  25
ENDBRANCH  23  24
ENDBRANCH  22  23
ENDBRANCH  21  22
ENDBRANCH  20  21
ENDBRANCH  19  20
ENDBRANCH  18  19
ENDBRANCH  17  18
ENDBRANCH  16  17
ENDBRANCH  15  16
ENDBRANCH   1  15
TORSDOF 22
ENDMDL
MODEL 9
REMARK VINA RESULT:    -3.821     12.841     18.196
REMARK INTER + INTRA:          -9.574
REMARK INTER:                  -8.694
REMARK INTRA:                  -0.880
REMARK UNBOUND:                -0.838
REMARK SMILES CCCCCCCCCCCCCCCCCCCCCCCC(=O)[O-]
REMARK SMILES IDX 13 1 14 2 15 3 16 4 17 5 18 6 19 7 20 8 21 9 22 10 23 11
REMARK SMILES IDX 24 12 25 13 26 14 12 15 11 16 10 17 9 18 8 19 7 20 6 21 5 22
REMARK SMILES IDX 4 23 3 24 2 25 1 26
REMARK H PARENT
REMARK Flexibility Score: inf
ROOT
ATOM      1  C   UNL     1       2.933  19.609  33.176  1.00  0.00     0.000 C 
ENDROOT
BRANCH   1   2
ATOM      2  C   UNL     1       2.497  20.982  33.711  1.00  0.00     0.000 C 
BRANCH   2   3
ATOM      3  C   UNL     1       1.729  20.888  35.038  1.00  0.00     0.000 C 
BRANCH   3   4
ATOM      4  C   UNL     1       0.254  21.275  34.850  1.00  0.00     0.000 C 
BRANCH   4   5
ATOM      5  C   UNL     1       0.092  22.636  34.141  1.00  0.00     0.000 C 
BRANCH   5   6
ATOM      6  C   UNL     1      -0.413  22.519  32.693  1.00  0.00     0.000 C 
BRANCH   6   7
ATOM      7  C   UNL     1      -0.575  21.061  32.233  1.00  0.00     0.000 C 
BRANCH   7   8
ATOM      8  C   UNL     1      -0.564  20.923  30.703  1.00  0.00     0.000 C 
BRANCH   8   9
ATOM      9  C   UNL     1      -1.592  19.895  30.197  1.00  0.00     0.000 C 
BRANCH   9  10
ATOM     10  C   UNL     1      -1.231  19.325  28.813  1.00  0.00     0.006 C 
BRANCH  10  11
ATOM     11  C   UNL     1      -2.440  19.083  27.895  1.00  0.00     0.053 C 
BRANCH  11  12
ATOM     12  C   UNL     1      -2.956  20.355  27.295  1.00  0.00     0.041 C 
ATOM     13  O   UNL     1      -2.245  21.008  26.487  1.00  0.00    -0.550 OA
ATOM     14  O   UNL     1      -4.206  20.838  27.657  1.00  0.00    -0.550 OA
ENDBRANCH  11  12
ENDBRANCH  10  11
ENDBRANCH   9  10
ENDBRANCH   8   9
ENDBRANCH   7   8
ENDBRANCH   6   7
ENDBRANCH   5   6
ENDBRANCH   4   5
ENDBRANCH   3   4
ENDBRANCH   2   3
ENDBRANCH   1   2
BRANCH   1  15
ATOM     15  C   UNL     1       1.989  18.475  33.614  1.00  0.00     0.000 C 
BRANCH  15  16
ATOM     16  C   UNL     1       2.477  17.759  34.883  1.00  0.00     0.000 C 
BRANCH  16  17
ATOM     17  C   UNL     1       3.985  17.932  35.123  1.00  0.00     0.000 C 
BRANCH  17  18
ATOM     18  C   UNL     1       4.777  16.801  34.447  1.00  0.00    -0.000 C 
BRANCH  18  19
ATOM     19  C   UNL     1       6.146  16.558  35.102  1.00  0.00    -0.000 C 
BRANCH  19  20
ATOM     20  C   UNL     1       7.067  17.786  35.016  1.00  0.00    -0.000 C 
BRANCH  20  21
ATOM     21  C   UNL     1       7.132  18.383  33.600  1.00  0.00    -0.000 C 
BRANCH  21  22
ATOM     22  C   UNL     1       6.873  17.352  32.480  1.00  0.00    -0.000 C 
BRANCH  22  23
ATOM     23  C   UNL     1       8.159  16.988  31.718  1.00  0.00    -0.000 C 
BRANCH  23  24
ATOM     24  C   UNL     1       8.246  15.480  31.396  1.00  0.00    -0.000 C 
BRANCH  24  25
ATOM     25  C   UNL     1       6.900  14.855  30.997  1.00  0.00    -0.003 C 
ATOM     26  C   UNL     1       7.050  13.514  30.282  1.00  0.00     0.004 C 
ENDBRANCH  24  25
ENDBRANCH  23  24
ENDBRANCH  22  23
ENDBRANCH  21  22
ENDBRANCH  20  21
ENDBRANCH  19  20
ENDBRANCH  18  19
ENDBRANCH  17  18
ENDBRANCH  16  17
ENDBRANCH  15  16
ENDBRANCH   1  15
TORSDOF 22
ENDMDL
