MODEL 1
REMARK VINA RESULT:    -3.428      0.000      0.000
REMARK INTER + INTRA:          -4.105
REMARK INTER:                  -4.029
REMARK INTRA:                  -0.076
REMARK UNBOUND:                -0.076
REMARK SMILES O=C([O-])CCC(=O)[O-]
REMARK SMILES IDX 4 1 2 2 1 3 3 4 5 5 6 6 7 7 8 8
REMARK H PARENT
REMARK Flexibility Score: inf
ROOT
ATOM      1  C   UNL     1      18.167  12.371  26.024  1.00  0.00     0.059 C 
ENDROOT
BRANCH   1   2
ATOM      2  C   UNL     1      17.480  11.514  27.042  1.00  0.00     0.042 C 
ATOM      3  O   UNL     1      17.111  10.348  26.746  1.00  0.00    -0.550 OA
ATOM      4  O   UNL     1      17.210  12.020  28.309  1.00  0.00    -0.550 OA
ENDBRANCH   1   2
BRANCH   1   5
ATOM      5  C   UNL     1      17.175  12.947  25.008  1.00  0.00     0.059 C 
BRANCH   5   6
ATOM      6  C   UNL     1      16.209  13.890  25.656  1.00  0.00     0.042 C 
ATOM      7  O   UNL     1      16.510  15.104  25.802  1.00  0.00    -0.550 OA
ATOM      8  O   UNL     1      14.961  13.436  26.062  1.00  0.00    -0.550 OA
ENDBRANCH   5   6
ENDBRANCH   1   5
TORSDOF 3
ENDMDL
MODEL 2
REMARK VINA RESULT:    -3.388      1.591      3.398
REMARK INTER + INTRA:          -4.058
REMARK INTER:                  -3.957
REMARK INTRA:                  -0.101
REMARK UNBOUND:                -0.076
REMARK SMILES O=C([O-])CCC(=O)[O-]
REMARK SMILES IDX 4 1 2 2 1 3 3 4 5 5 6 6 7 7 8 8
REMARK H PARENT
REMARK Flexibility Score: inf
ROOT
ATOM      1  C   UNL     1      16.070  12.220  27.694  1.00  0.00     0.059 C 
ENDROOT
BRANCH   1   2
ATOM      2  C   UNL     1      15.572  12.880  26.446  1.00  0.00     0.042 C 
ATOM      3  O   UNL     1      14.887  12.230  25.613  1.00  0.00    -0.550 OA
ATOM      4  O   UNL     1      15.899  14.205  26.181  1.00  0.00    -0.550 OA
ENDBRANCH   1   2
BRANCH   1   5
ATOM      5  C   UNL     1      17.599  12.262  27.784  1.00  0.00     0.059 C 
BRANCH   5   6
ATOM      6  C   UNL     1      18.239  11.703  26.551  1.00  0.00     0.042 C 
ATOM      7  O   UNL     1      18.279  10.458  26.367  1.00  0.00    -0.550 OA
ATOM      8  O   UNL     1      18.756  12.558  25.586  1.00  0.00    -0.550 OA
ENDBRANCH   5   6
ENDBRANCH   1   5
TORSDOF 3
ENDMDL
MODEL 3
REMARK VINA RESULT:    -3.385      1.591      2.218
REMARK INTER + INTRA:          -4.054
REMARK INTER:                  -3.945
REMARK INTRA:                  -0.109
REMARK UNBOUND:                -0.076
REMARK SMILES O=C([O-])CCC(=O)[O-]
REMARK SMILES IDX 4 1 2 2 1 3 3 4 5 5 6 6 7 7 8 8
REMARK H PARENT
REMARK Flexibility Score: inf
ROOT
ATOM      1  C   UNL     1      17.591  12.237  27.783  1.00  0.00     0.059 C 
ENDROOT
BRANCH   1   2
ATOM      2  C   UNL     1      18.239  11.689  26.549  1.00  0.00     0.042 C 
ATOM      3  O   UNL     1      18.302  10.446  26.363  1.00  0.00    -0.550 OA
ATOM      4  O   UNL     1      18.812  12.553  25.623  1.00  0.00    -0.550 OA
ENDBRANCH   1   2
BRANCH   1   5
ATOM      5  C   UNL     1      16.063  12.208  27.679  1.00  0.00     0.059 C 
BRANCH   5   6
ATOM      6  C   UNL     1      15.584  12.871  26.423  1.00  0.00     0.042 C 
ATOM      7  O   UNL     1      14.843  12.246  25.620  1.00  0.00    -0.550 OA
ATOM      8  O   UNL     1      15.924  14.192  26.162  1.00  0.00    -0.550 OA
ENDBRANCH   5   6
ENDBRANCH   1   5
TORSDOF 3
ENDMDL
MODEL 4
REMARK VINA RESULT:    -3.370      0.825      3.480
REMARK INTER + INTRA:          -4.037
REMARK INTER:                  -3.932
REMARK INTRA:                  -0.105
REMARK UNBOUND:                -0.076
REMARK SMILES O=C([O-])CCC(=O)[O-]
REMARK SMILES IDX 4 1 2 2 1 3 3 4 5 5 6 6 7 7 8 8
REMARK H PARENT
REMARK Flexibility Score: inf
ROOT
ATOM      1  C   UNL     1      17.794  12.963  25.185  1.00  0.00     0.059 C 
ENDROOT
BRANCH   1   2
ATOM      2  C   UNL     1      17.252  14.294  25.606  1.00  0.00     0.042 C 
ATOM      3  O   UNL     1      18.008  15.300  25.659  1.00  0.00    -0.550 OA
ATOM      4  O   UNL     1      15.919  14.415  25.981  1.00  0.00    -0.550 OA
ENDBRANCH   1   2
BRANCH   1   5
ATOM      5  C   UNL     1      18.340  12.172  26.377  1.00  0.00     0.059 C 
BRANCH   5   6
ATOM      6  C   UNL     1      17.247  11.454  27.109  1.00  0.00     0.042 C 
ATOM      7  O   UNL     1      16.876  10.311  26.731  1.00  0.00    -0.550 OA
ATOM      8  O   UNL     1      16.666  12.030  28.231  1.00  0.00    -0.550 OA
ENDBRANCH   5   6
ENDBRANCH   1   5
TORSDOF 3
ENDMDL
MODEL 5
REMARK VINA RESULT:    -3.275      1.515      2.117
REMARK INTER + INTRA:          -3.925
REMARK INTER:                  -4.195
REMARK INTRA:                   0.270
REMARK UNBOUND:                -0.076
REMARK SMILES O=C([O-])CCC(=O)[O-]
REMARK SMILES IDX 4 1 2 2 1 3 3 4 5 5 6 6 7 7 8 8
REMARK H PARENT
REMARK Flexibility Score: inf
ROOT
ATOM      1  C   UNL     1      15.735  12.363  25.981  1.00  0.00     0.059 C 
ENDROOT
BRANCH   1   2
ATOM      2  C   UNL     1      16.513  11.626  27.027  1.00  0.00     0.042 C 
ATOM      3  O   UNL     1      16.671  12.127  28.172  1.00  0.00    -0.550 OA
ATOM      4  O   UNL     1      17.099  10.402  26.725  1.00  0.00    -0.550 OA
ENDBRANCH   1   2
BRANCH   1   5
ATOM      5  C   UNL     1      16.016  13.868  26.024  1.00  0.00     0.059 C 
BRANCH   5   6
ATOM      6  C   UNL     1      17.428  14.176  25.628  1.00  0.00     0.042 C 
ATOM      7  O   UNL     1      17.861  15.357  25.689  1.00  0.00    -0.550 OA
ATOM      8  O   UNL     1      18.277  13.151  25.229  1.00  0.00    -0.550 OA
ENDBRANCH   5   6
ENDBRANCH   1   5
TORSDOF 3
ENDMDL
MODEL 6
REMARK VINA RESULT:    -3.082     11.192     12.377
REMARK INTER + INTRA:          -3.699
REMARK INTER:                  -3.554
REMARK INTRA:                  -0.145
REMARK UNBOUND:                -0.076
REMARK SMILES O=C([O-])CCC(=O)[O-]
REMARK SMILES IDX 4 1 2 2 1 3 3 4 5 5 6 6 7 7 8 8
REMARK H PARENT
REMARK Flexibility Score: inf
ROOT
ATOM      1  C   UNL     1       9.200  22.171  30.477  1.00  0.00     0.059 C 
ENDROOT
BRANCH   1   2
ATOM      2  C   UNL     1      10.091  20.980  30.302  1.00  0.00     0.042 C 
ATOM      3  O   UNL     1      10.810  20.871  29.274  1.00  0.00    -0.550 OA
ATOM      4  O   UNL     1      10.098  19.970  31.256  1.00  0.00    -0.550 OA
ENDBRANCH   1   2
BRANCH   1   5
ATOM      5  C   UNL     1       8.495  22.546  29.170  1.00  0.00     0.059 C 
BRANCH   5   6
ATOM      6  C   UNL     1       7.448  21.541  28.801  1.00  0.00     0.042 C 
ATOM      7  O   UNL     1       7.422  21.049  27.642  1.00  0.00    -0.550 OA
ATOM      8  O   UNL     1       6.525  21.119  29.748  1.00  0.00    -0.550 OA
ENDBRANCH   5   6
ENDBRANCH   1   5
TORSDOF 3
ENDMDL
MODEL 7
REMARK VINA RESULT:    -3.054     11.300     12.384
REMARK INTER + INTRA:          -3.666
REMARK INTER:                  -3.545
REMARK INTRA:                  -0.121
REMARK UNBOUND:                -0.076
REMARK SMILES O=C([O-])CCC(=O)[O-]
REMARK SMILES IDX 4 1 2 2 1 3 3 4 5 5 6 6 7 7 8 8
REMARK H PARENT
REMARK Flexibility Score: inf
ROOT
ATOM      1  C   UNL     1       8.818  21.989  30.380  1.00  0.00     0.059 C 
ENDROOT
BRANCH   1   2
ATOM      2  C   UNL     1       7.649  21.244  29.814  1.00  0.00     0.042 C 
ATOM      3  O   UNL     1       7.529  21.100  28.569  1.00  0.00    -0.550 OA
ATOM      4  O   UNL     1       6.668  20.743  30.661  1.00  0.00    -0.550 OA
ENDBRANCH   1   2
BRANCH   1   5
ATOM      5  C   UNL     1      10.118  21.190  30.243  1.00  0.00     0.059 C 
BRANCH   5   6
ATOM      6  C   UNL     1      11.055  21.826  29.262  1.00  0.00     0.042 C 
ATOM      7  O   UNL     1      12.136  22.335  29.658  1.00  0.00    -0.550 OA
ATOM      8  O   UNL     1      10.752  21.821  27.907  1.00  0.00    -0.550 OA
ENDBRANCH   5   6
ENDBRANCH   1   5
TORSDOF 3
ENDMDL
MODEL 8
REMARK VINA RESULT:    -3.001     11.328     12.416
REMARK INTER + INTRA:          -3.603
REMARK INTER:                  -3.489
REMARK INTRA:                  -0.114
REMARK UNBOUND:                -0.076
REMARK SMILES O=C([O-])CCC(=O)[O-]
REMARK SMILES IDX 4 1 2 2 1 3 3 4 5 5 6 6 7 7 8 8
REMARK H PARENT
REMARK Flexibility Score: inf
ROOT
ATOM      1  C   UNL     1      10.063  21.167  30.269  1.00  0.00     0.059 C 
ENDROOT
BRANCH   1   2
ATOM      2  C   UNL     1      11.024  21.813  29.319  1.00  0.00     0.042 C 
ATOM      3  O   UNL     1      12.065  22.375  29.753  1.00  0.00    -0.550 OA
ATOM      4  O   UNL     1      10.750  21.832  27.957  1.00  0.00    -0.550 OA
ENDBRANCH   1   2
BRANCH   1   5
ATOM      5  C   UNL     1       8.787  21.998  30.433  1.00  0.00     0.059 C 
BRANCH   5   6
ATOM      6  C   UNL     1       7.609  21.331  29.790  1.00  0.00     0.042 C 
ATOM      7  O   UNL     1       6.674  20.874  30.499  1.00  0.00    -0.550 OA
ATOM      8  O   UNL     1       7.527  21.250  28.406  1.00  0.00    -0.550 OA
ENDBRANCH   5   6
ENDBRANCH   1   5
TORSDOF 3
ENDMDL
MODEL 9
REMARK VINA RESULT:    -2.917     11.308     12.876
REMARK INTER + INTRA:          -3.505
REMARK INTER:                  -3.397
REMARK INTRA:                  -0.108
REMARK UNBOUND:                -0.076
REMARK SMILES O=C([O-])CCC(=O)[O-]
REMARK SMILES IDX 4 1 2 2 1 3 3 4 5 5 6 6 7 7 8 8
REMARK H PARENT
REMARK Flexibility Score: inf
ROOT
ATOM      1  C   UNL     1       7.579  21.184  29.758  1.00  0.00     0.059 C 
ENDROOT
BRANCH   1   2
ATOM      2  C   UNL     1       7.333  21.790  28.410  1.00  0.00     0.042 C 
ATOM      3  O   UNL     1       8.208  21.709  27.508  1.00  0.00    -0.550 OA
ATOM      4  O   UNL     1       6.153  22.480  28.163  1.00  0.00    -0.550 OA
ENDBRANCH   1   2
BRANCH   1   5
ATOM      5  C   UNL     1       8.785  21.824  30.453  1.00  0.00     0.059 C 
BRANCH   5   6
ATOM      6  C   UNL     1       9.975  20.913  30.442  1.00  0.00     0.042 C 
ATOM      7  O   UNL     1      10.031  19.935  31.233  1.00  0.00    -0.550 OA
ATOM      8  O   UNL     1      11.002  21.122  29.532  1.00  0.00    -0.550 OA
ENDBRANCH   5   6
ENDBRANCH   1   5
TORSDOF 3
ENDMDL
