MODEL 1
REMARK VINA RESULT:    -4.459      0.000      0.000
REMARK INTER + INTRA:          -7.865
REMARK INTER:                  -7.327
REMARK INTRA:                  -0.538
REMARK UNBOUND:                -0.538
REMARK SMILES COc1ccc([C@@H]2CC(=O)c3c(O)cc(O[C@H]4O[C@H](CO[C@H]5O[C@H](C)[C@H](O)[C@H](O)[C@@H]5O)[C@H](O)[C@@H](O)[C@@H]4O)cc3O2)cc1O
REMARK SMILES IDX 19 1 32 2 34 3 36 4 17 5 18 6 20 7 21 8 22 9 25 10 24 11
REMARK SMILES IDX 26 12 23 13 28 14 30 15 27 16 29 18 31 20 33 22 35 24 16 26
REMARK SMILES IDX 15 27 14 28 38 29 12 30 39 31 11 32 40 33 9 34 7 35 10 36
REMARK SMILES IDX 8 37 13 38 6 40 41 41 5 42 42 43 4 44 3 45 43 46 2 48 1 49
REMARK SMILES IDX 37 50
REMARK H PARENT 27 17 29 19 31 21 33 23 35 25 13 39 43 47 37 51
REMARK Flexibility Score: inf
ROOT
ATOM      1  C   UNL     1      86.147  -4.464   0.819  1.00  0.00     0.180 C 
ATOM      2  C   UNL     1      85.668  -5.523   1.840  1.00  0.00     0.177 C 
ATOM      3  C   UNL     1      84.884  -6.652   1.123  1.00  0.00     0.180 C 
ATOM      4  C   UNL     1      85.563  -7.109  -0.206  1.00  0.00     0.214 C 
ATOM      5  C   UNL     1      86.117  -5.917  -1.022  1.00  0.00     0.339 C 
ATOM      6  O   UNL     1      86.909  -5.068  -0.211  1.00  0.00    -0.332 OA
ENDROOT
BRANCH   1   7
ATOM      7  C   UNL     1      87.010  -3.372   1.480  1.00  0.00     0.198 C 
BRANCH   7   8
ATOM      8  O   UNL     1      86.781  -2.099   0.905  1.00  0.00    -0.347 OA
BRANCH   8   9
ATOM      9  C   UNL     1      85.725  -1.401   1.557  1.00  0.00     0.281 C 
ATOM     10  C   UNL     1      87.107  -1.471   4.975  1.00  0.00     0.041 C 
ATOM     11  C   UNL     1      87.012  -1.079   3.498  1.00  0.00     0.150 C 
ATOM     12  C   UNL     1      87.078   0.453   3.328  1.00  0.00     0.174 C 
ATOM     13  O   UNL     1      85.800  -1.590   2.966  1.00  0.00    -0.344 OA
ATOM     14  C   UNL     1      86.987   0.790   1.825  1.00  0.00     0.179 C 
ATOM     15  C   UNL     1      85.766   0.099   1.186  1.00  0.00     0.202 C 
BRANCH  12  16
ATOM     16  O   UNL     1      86.019   1.053   4.034  1.00  0.00    -0.388 OA
ATOM     17  H   UNL     1      85.875   1.948   3.634  1.00  0.00     0.211 HD
ENDBRANCH  12  16
BRANCH  14  18
ATOM     18  O   UNL     1      86.905   2.179   1.624  1.00  0.00    -0.387 OA
ATOM     19  H   UNL     1      86.261   2.320   0.880  1.00  0.00     0.211 HD
ENDBRANCH  14  18
BRANCH  15  20
ATOM     20  O   UNL     1      84.581   0.726   1.614  1.00  0.00    -0.385 OA
ATOM     21  H   UNL     1      84.528   1.598   1.143  1.00  0.00     0.211 HD
ENDBRANCH  15  20
ENDBRANCH   8   9
ENDBRANCH   7   8
ENDBRANCH   1   7
BRANCH   2  22
ATOM     22  O   UNL     1      86.772  -6.066   2.519  1.00  0.00    -0.387 OA
ATOM     23  H   UNL     1      86.644  -5.871   3.486  1.00  0.00     0.211 HD
ENDBRANCH   2  22
BRANCH   3  24
ATOM     24  O   UNL     1      83.548  -6.260   0.901  1.00  0.00    -0.387 OA
ATOM     25  H   UNL     1      83.502  -5.739   0.061  1.00  0.00     0.211 HD
ENDBRANCH   3  24
BRANCH   5  26
ATOM     26  O   UNL     1      85.061  -5.174  -1.651  1.00  0.00    -0.462 OA
BRANCH  26  27
ATOM     27  C   UNL     1      84.962  -4.885  -3.022  1.00  0.00     0.130 A 
ATOM     28  C   UNL     1      83.817  -5.309  -3.708  1.00  0.00     0.093 A 
ATOM     29  C   UNL     1      85.957  -4.187  -3.721  1.00  0.00     0.094 A 
ATOM     30  C   UNL     1      83.664  -5.079  -5.079  1.00  0.00     0.133 A 
ATOM     31  C   UNL     1      85.799  -3.896  -5.079  1.00  0.00     0.138 A 
ATOM     32  C   UNL     1      84.653  -4.336  -5.775  1.00  0.00     0.102 A 
ATOM     33  O   UNL     1      86.792  -3.144  -5.727  1.00  0.00    -0.484 OA
ATOM     34  C   UNL     1      84.563  -3.962  -7.206  1.00  0.00     0.174 C 
ATOM     35  C   UNL     1      86.679  -2.656  -7.070  1.00  0.00     0.211 C 
ATOM     36  O   UNL     1      83.459  -3.884  -7.805  1.00  0.00    -0.294 OA
ATOM     37  C   UNL     1      85.821  -3.600  -7.930  1.00  0.00     0.131 C 
BRANCH  30  38
ATOM     38  O   UNL     1      82.538  -5.631  -5.699  1.00  0.00    -0.507 OA
ATOM     39  H   UNL     1      81.829  -5.091  -6.178  1.00  0.00     0.293 HD
ENDBRANCH  30  38
BRANCH  35  40
ATOM     40  C   UNL     1      86.131  -1.240  -7.103  1.00  0.00    -0.003 A 
ATOM     41  C   UNL     1      84.861  -0.951  -7.637  1.00  0.00     0.057 A 
ATOM     42  C   UNL     1      86.943  -0.182  -6.666  1.00  0.00     0.011 A 
ATOM     43  C   UNL     1      84.400   0.372  -7.701  1.00  0.00     0.158 A 
ATOM     44  C   UNL     1      86.484   1.137  -6.723  1.00  0.00     0.051 A 
ATOM     45  C   UNL     1      85.203   1.423  -7.240  1.00  0.00     0.160 A 
BRANCH  43  46
ATOM     46  O   UNL     1      83.137   0.652  -8.223  1.00  0.00    -0.504 OA
ATOM     47  H   UNL     1      82.368   0.937  -7.625  1.00  0.00     0.293 HD
ENDBRANCH  43  46
BRANCH  45  48
ATOM     48  O   UNL     1      84.700   2.732  -7.315  1.00  0.00    -0.493 OA
ATOM     49  C   UNL     1      85.492   3.887  -7.595  1.00  0.00     0.278 C 
ENDBRANCH  45  48
ENDBRANCH  35  40
ENDBRANCH  26  27
ENDBRANCH   5  26
BRANCH   4  50
ATOM     50  O   UNL     1      86.584  -8.059  -0.003  1.00  0.00    -0.384 OA
ATOM     51  H   UNL     1      86.615  -8.669  -0.781  1.00  0.00     0.211 HD
ENDBRANCH   4  50
TORSDOF 15
ENDMDL
MODEL 2
REMARK VINA RESULT:    -4.325      7.214     14.204
REMARK INTER + INTRA:          -7.643
REMARK INTER:                  -7.919
REMARK INTRA:                   0.276
REMARK UNBOUND:                -0.538
REMARK SMILES COc1ccc([C@@H]2CC(=O)c3c(O)cc(O[C@H]4O[C@H](CO[C@H]5O[C@H](C)[C@H](O)[C@H](O)[C@@H]5O)[C@H](O)[C@@H](O)[C@@H]4O)cc3O2)cc1O
REMARK SMILES IDX 19 1 32 2 34 3 36 4 17 5 18 6 20 7 21 8 22 9 25 10 24 11
REMARK SMILES IDX 26 12 23 13 28 14 30 15 27 16 29 18 31 20 33 22 35 24 16 26
REMARK SMILES IDX 15 27 14 28 38 29 12 30 39 31 11 32 40 33 9 34 7 35 10 36
REMARK SMILES IDX 8 37 13 38 6 40 41 41 5 42 42 43 4 44 3 45 43 46 2 48 1 49
REMARK SMILES IDX 37 50
REMARK H PARENT 27 17 29 19 31 21 33 23 35 25 13 39 43 47 37 51
REMARK Flexibility Score: inf
ROOT
ATOM      1  C   UNL     1      85.592  10.062   4.476  1.00  0.00     0.180 C 
ATOM      2  C   UNL     1      84.169  10.492   4.050  1.00  0.00     0.177 C 
ATOM      3  C   UNL     1      83.112   9.513   4.622  1.00  0.00     0.180 C 
ATOM      4  C   UNL     1      83.392   9.123   6.107  1.00  0.00     0.214 C 
ATOM      5  C   UNL     1      84.895   8.878   6.376  1.00  0.00     0.339 C 
ATOM      6  O   UNL     1      85.682   9.947   5.885  1.00  0.00    -0.332 OA
ENDROOT
BRANCH   1   7
ATOM      7  C   UNL     1      86.665  11.063   4.004  1.00  0.00     0.198 C 
BRANCH   7   8
ATOM      8  O   UNL     1      86.974  10.897   2.633  1.00  0.00    -0.347 OA
BRANCH   8   9
ATOM      9  C   UNL     1      85.852  10.442   1.884  1.00  0.00     0.281 C 
ATOM     10  C   UNL     1      86.733  11.993  -1.343  1.00  0.00     0.041 C 
ATOM     11  C   UNL     1      86.857  11.032  -0.157  1.00  0.00     0.150 C 
ATOM     12  C   UNL     1      86.980   9.572  -0.641  1.00  0.00     0.174 C 
ATOM     13  O   UNL     1      85.721  11.188   0.680  1.00  0.00    -0.344 OA
ATOM     14  C   UNL     1      87.110   8.651   0.591  1.00  0.00     0.179 C 
ATOM     15  C   UNL     1      85.977   8.928   1.598  1.00  0.00     0.202 C 
BRANCH  12  16
ATOM     16  O   UNL     1      85.845   9.228  -1.398  1.00  0.00    -0.388 OA
ATOM     17  H   UNL     1      85.155   8.913  -0.759  1.00  0.00     0.211 HD
ENDBRANCH  12  16
BRANCH  14  18
ATOM     18  O   UNL     1      87.088   7.297   0.211  1.00  0.00    -0.387 OA
ATOM     19  H   UNL     1      86.934   6.773   1.042  1.00  0.00     0.211 HD
ENDBRANCH  14  18
BRANCH  15  20
ATOM     20  O   UNL     1      84.757   8.436   1.096  1.00  0.00    -0.385 OA
ATOM     21  H   UNL     1      84.057   8.661   1.764  1.00  0.00     0.211 HD
ENDBRANCH  15  20
ENDBRANCH   8   9
ENDBRANCH   7   8
ENDBRANCH   1   7
BRANCH   2  22
ATOM     22  O   UNL     1      83.907  11.796   4.506  1.00  0.00    -0.387 OA
ATOM     23  H   UNL     1      84.450  12.414   3.947  1.00  0.00     0.211 HD
ENDBRANCH   2  22
BRANCH   3  24
ATOM     24  O   UNL     1      83.010   8.367   3.807  1.00  0.00    -0.387 OA
ATOM     25  H   UNL     1      83.919   8.024   3.620  1.00  0.00     0.211 HD
ENDBRANCH   3  24
BRANCH   5  26
ATOM     26  O   UNL     1      85.332   7.629   5.818  1.00  0.00    -0.462 OA
BRANCH  26  27
ATOM     27  C   UNL     1      85.153   6.361   6.395  1.00  0.00     0.130 A 
ATOM     28  C   UNL     1      83.846   5.936   6.666  1.00  0.00     0.093 A 
ATOM     29  C   UNL     1      86.225   5.511   6.701  1.00  0.00     0.094 A 
ATOM     30  C   UNL     1      83.595   4.696   7.265  1.00  0.00     0.133 A 
ATOM     31  C   UNL     1      85.994   4.246   7.247  1.00  0.00     0.138 A 
ATOM     32  C   UNL     1      84.679   3.821   7.535  1.00  0.00     0.102 A 
ATOM     33  O   UNL     1      87.092   3.403   7.483  1.00  0.00    -0.484 OA
ATOM     34  C   UNL     1      84.531   2.457   8.093  1.00  0.00     0.174 C 
ATOM     35  C   UNL     1      86.978   2.035   7.898  1.00  0.00     0.211 C 
ATOM     36  O   UNL     1      83.463   1.802   7.974  1.00  0.00    -0.294 OA
ATOM     37  C   UNL     1      85.715   1.821   8.751  1.00  0.00     0.131 C 
BRANCH  30  38
ATOM     38  O   UNL     1      82.268   4.402   7.595  1.00  0.00    -0.507 OA
ATOM     39  H   UNL     1      81.705   4.946   8.236  1.00  0.00     0.293 HD
ENDBRANCH  30  38
BRANCH  35  40
ATOM     40  C   UNL     1      87.001   1.090   6.711  1.00  0.00    -0.003 A 
ATOM     41  C   UNL     1      87.064   1.567   5.387  1.00  0.00     0.057 A 
ATOM     42  C   UNL     1      86.872  -0.290   6.932  1.00  0.00     0.011 A 
ATOM     43  C   UNL     1      87.032   0.673   4.307  1.00  0.00     0.158 A 
ATOM     44  C   UNL     1      86.846  -1.183   5.857  1.00  0.00     0.051 A 
ATOM     45  C   UNL     1      86.930  -0.705   4.532  1.00  0.00     0.160 A 
BRANCH  43  46
ATOM     46  O   UNL     1      87.104   1.150   2.998  1.00  0.00    -0.504 OA
ATOM     47  H   UNL     1      87.451   2.082   2.792  1.00  0.00     0.293 HD
ENDBRANCH  43  46
BRANCH  45  48
ATOM     48  O   UNL     1      86.910  -1.566   3.423  1.00  0.00    -0.493 OA
ATOM     49  C   UNL     1      86.134  -1.346   2.244  1.00  0.00     0.278 C 
ENDBRANCH  45  48
ENDBRANCH  35  40
ENDBRANCH  26  27
ENDBRANCH   5  26
BRANCH   4  50
ATOM     50  O   UNL     1      82.893  10.068   7.026  1.00  0.00    -0.384 OA
ATOM     51  H   UNL     1      82.836  10.950   6.581  1.00  0.00     0.211 HD
ENDBRANCH   4  50
TORSDOF 15
ENDMDL
MODEL 3
REMARK VINA RESULT:    -4.121      6.106      9.739
REMARK INTER + INTRA:          -7.308
REMARK INTER:                  -8.361
REMARK INTRA:                   1.053
REMARK UNBOUND:                -0.538
REMARK SMILES COc1ccc([C@@H]2CC(=O)c3c(O)cc(O[C@H]4O[C@H](CO[C@H]5O[C@H](C)[C@H](O)[C@H](O)[C@@H]5O)[C@H](O)[C@@H](O)[C@@H]4O)cc3O2)cc1O
REMARK SMILES IDX 19 1 32 2 34 3 36 4 17 5 18 6 20 7 21 8 22 9 25 10 24 11
REMARK SMILES IDX 26 12 23 13 28 14 30 15 27 16 29 18 31 20 33 22 35 24 16 26
REMARK SMILES IDX 15 27 14 28 38 29 12 30 39 31 11 32 40 33 9 34 7 35 10 36
REMARK SMILES IDX 8 37 13 38 6 40 41 41 5 42 42 43 4 44 3 45 43 46 2 48 1 49
REMARK SMILES IDX 37 50
REMARK H PARENT 27 17 29 19 31 21 33 23 35 25 13 39 43 47 37 51
REMARK Flexibility Score: inf
ROOT
ATOM      1  C   UNL     1      85.085   2.737   8.717  1.00  0.00     0.180 C 
ATOM      2  C   UNL     1      83.704   2.080   8.486  1.00  0.00     0.177 C 
ATOM      3  C   UNL     1      83.820   0.924   7.459  1.00  0.00     0.180 C 
ATOM      4  C   UNL     1      85.075   0.028   7.697  1.00  0.00     0.214 C 
ATOM      5  C   UNL     1      86.327   0.857   8.067  1.00  0.00     0.339 C 
ATOM      6  O   UNL     1      86.043   1.771   9.111  1.00  0.00    -0.332 OA
ENDROOT
BRANCH   1   7
ATOM      7  C   UNL     1      85.030   3.831   9.802  1.00  0.00     0.198 C 
BRANCH   7   8
ATOM      8  O   UNL     1      83.700   4.209  10.103  1.00  0.00    -0.347 OA
BRANCH   8   9
ATOM      9  C   UNL     1      83.437   5.563   9.749  1.00  0.00     0.281 C 
ATOM     10  C   UNL     1      85.666   5.762   6.819  1.00  0.00     0.041 C 
ATOM     11  C   UNL     1      84.461   5.310   7.648  1.00  0.00     0.150 C 
ATOM     12  C   UNL     1      83.147   5.506   6.865  1.00  0.00     0.174 C 
ATOM     13  O   UNL     1      84.437   6.048   8.860  1.00  0.00    -0.344 OA
ATOM     14  C   UNL     1      81.971   5.027   7.742  1.00  0.00     0.179 C 
ATOM     15  C   UNL     1      82.025   5.690   9.132  1.00  0.00     0.202 C 
BRANCH  12  16
ATOM     16  O   UNL     1      82.994   6.864   6.531  1.00  0.00    -0.388 OA
ATOM     17  H   UNL     1      83.335   7.391   7.299  1.00  0.00     0.211 HD
ENDBRANCH  12  16
BRANCH  14  18
ATOM     18  O   UNL     1      80.737   5.310   7.128  1.00  0.00    -0.387 OA
ATOM     19  H   UNL     1      80.048   4.803   7.633  1.00  0.00     0.211 HD
ENDBRANCH  14  18
BRANCH  15  20
ATOM     20  O   UNL     1      81.671   7.049   9.031  1.00  0.00    -0.385 OA
ATOM     21  H   UNL     1      82.098   7.517   9.795  1.00  0.00     0.211 HD
ENDBRANCH  15  20
ENDBRANCH   8   9
ENDBRANCH   7   8
ENDBRANCH   1   7
BRANCH   2  22
ATOM     22  O   UNL     1      83.199   1.588   9.702  1.00  0.00    -0.387 OA
ATOM     23  H   UNL     1      82.966   2.377  10.260  1.00  0.00     0.211 HD
ENDBRANCH   2  22
BRANCH   3  24
ATOM     24  O   UNL     1      83.800   1.430   6.144  1.00  0.00    -0.387 OA
ATOM     25  H   UNL     1      84.717   1.702   5.890  1.00  0.00     0.211 HD
ENDBRANCH   3  24
BRANCH   5  26
ATOM     26  O   UNL     1      86.859   1.545   6.924  1.00  0.00    -0.462 OA
BRANCH  26  27
ATOM     27  C   UNL     1      86.844   1.074   5.600  1.00  0.00     0.130 A 
ATOM     28  C   UNL     1      86.921  -0.308   5.388  1.00  0.00     0.093 A 
ATOM     29  C   UNL     1      86.748   1.931   4.495  1.00  0.00     0.094 A 
ATOM     30  C   UNL     1      86.939  -0.845   4.096  1.00  0.00     0.133 A 
ATOM     31  C   UNL     1      86.706   1.414   3.197  1.00  0.00     0.138 A 
ATOM     32  C   UNL     1      86.799   0.022   2.979  1.00  0.00     0.102 A 
ATOM     33  O   UNL     1      86.550   2.302   2.121  1.00  0.00    -0.484 OA
ATOM     34  C   UNL     1      86.725  -0.435   1.573  1.00  0.00     0.174 C 
ATOM     35  C   UNL     1      86.345   1.889   0.763  1.00  0.00     0.211 C 
ATOM     36  O   UNL     1      86.350  -1.598   1.270  1.00  0.00    -0.294 OA
ATOM     37  C   UNL     1      87.038   0.544   0.486  1.00  0.00     0.131 C 
BRANCH  30  38
ATOM     38  O   UNL     1      87.125  -2.226   3.979  1.00  0.00    -0.507 OA
ATOM     39  H   UNL     1      87.068  -2.737   3.108  1.00  0.00     0.293 HD
ENDBRANCH  30  38
BRANCH  35  40
ATOM     40  C   UNL     1      84.868   1.823   0.420  1.00  0.00    -0.003 A 
ATOM     41  C   UNL     1      83.977   1.003   1.139  1.00  0.00     0.057 A 
ATOM     42  C   UNL     1      84.393   2.531  -0.695  1.00  0.00     0.011 A 
ATOM     43  C   UNL     1      82.628   0.923   0.768  1.00  0.00     0.158 A 
ATOM     44  C   UNL     1      83.046   2.457  -1.064  1.00  0.00     0.051 A 
ATOM     45  C   UNL     1      82.151   1.652  -0.329  1.00  0.00     0.160 A 
BRANCH  43  46
ATOM     46  O   UNL     1      81.747   0.116   1.490  1.00  0.00    -0.504 OA
ATOM     47  H   UNL     1      81.350   0.423   2.372  1.00  0.00     0.293 HD
ENDBRANCH  43  46
BRANCH  45  48
ATOM     48  O   UNL     1      80.790   1.548  -0.662  1.00  0.00    -0.493 OA
ATOM     49  C   UNL     1      79.736   2.216   0.032  1.00  0.00     0.278 C 
ENDBRANCH  45  48
ENDBRANCH  35  40
ENDBRANCH  26  27
ENDBRANCH   5  26
BRANCH   4  50
ATOM     50  O   UNL     1      84.861  -0.968   8.670  1.00  0.00    -0.384 OA
ATOM     51  H   UNL     1      84.075  -1.509   8.410  1.00  0.00     0.211 HD
ENDBRANCH   4  50
TORSDOF 15
ENDMDL
MODEL 4
REMARK VINA RESULT:    -2.714      1.271      2.127
REMARK INTER + INTRA:          -4.997
REMARK INTER:                  -3.399
REMARK INTRA:                  -1.597
REMARK UNBOUND:                -0.538
REMARK SMILES COc1ccc([C@@H]2CC(=O)c3c(O)cc(O[C@H]4O[C@H](CO[C@H]5O[C@H](C)[C@H](O)[C@H](O)[C@@H]5O)[C@H](O)[C@@H](O)[C@@H]4O)cc3O2)cc1O
REMARK SMILES IDX 19 1 32 2 34 3 36 4 17 5 18 6 20 7 21 8 22 9 25 10 24 11
REMARK SMILES IDX 26 12 23 13 28 14 30 15 27 16 29 18 31 20 33 22 35 24 16 26
REMARK SMILES IDX 15 27 14 28 38 29 12 30 39 31 11 32 40 33 9 34 7 35 10 36
REMARK SMILES IDX 8 37 13 38 6 40 41 41 5 42 42 43 4 44 3 45 43 46 2 48 1 49
REMARK SMILES IDX 37 50
REMARK H PARENT 27 17 29 19 31 21 33 23 35 25 13 39 43 47 37 51
REMARK Flexibility Score: inf
ROOT
ATOM      1  C   UNL     1      86.037  -4.348   0.599  1.00  0.00     0.180 C 
ATOM      2  C   UNL     1      85.778  -5.487   1.611  1.00  0.00     0.177 C 
ATOM      3  C   UNL     1      85.209  -6.735   0.889  1.00  0.00     0.180 C 
ATOM      4  C   UNL     1      85.942  -7.044  -0.454  1.00  0.00     0.214 C 
ATOM      5  C   UNL     1      86.253  -5.761  -1.260  1.00  0.00     0.339 C 
ATOM      6  O   UNL     1      86.884  -4.789  -0.448  1.00  0.00    -0.332 OA
ENDROOT
BRANCH   1   7
ATOM      7  C   UNL     1      86.692  -3.121   1.263  1.00  0.00     0.198 C 
BRANCH   7   8
ATOM      8  O   UNL     1      86.308  -1.913   0.634  1.00  0.00    -0.347 OA
BRANCH   8   9
ATOM      9  C   UNL     1      86.559  -0.778   1.456  1.00  0.00     0.281 C 
ATOM     10  C   UNL     1      86.976   1.713  -1.231  1.00  0.00     0.041 C 
ATOM     11  C   UNL     1      86.242   0.708  -0.337  1.00  0.00     0.150 C 
ATOM     12  C   UNL     1      84.970   1.336   0.269  1.00  0.00     0.174 C 
ATOM     13  O   UNL     1      87.125   0.278   0.688  1.00  0.00    -0.344 OA
ATOM     14  C   UNL     1      84.269   0.280   1.150  1.00  0.00     0.179 C 
ATOM     15  C   UNL     1      85.260  -0.329   2.161  1.00  0.00     0.202 C 
BRANCH  12  16
ATOM     16  O   UNL     1      85.317   2.466   1.032  1.00  0.00    -0.388 OA
ATOM     17  H   UNL     1      86.306   2.473   1.104  1.00  0.00     0.211 HD
ENDBRANCH  12  16
BRANCH  14  18
ATOM     18  O   UNL     1      83.176   0.842   1.835  1.00  0.00    -0.387 OA
ATOM     19  H   UNL     1      82.569   1.215   1.142  1.00  0.00     0.211 HD
ENDBRANCH  14  18
BRANCH  15  20
ATOM     20  O   UNL     1      85.564   0.613   3.163  1.00  0.00    -0.385 OA
ATOM     21  H   UNL     1      84.875   1.326   3.109  1.00  0.00     0.211 HD
ENDBRANCH  15  20
ENDBRANCH   8   9
ENDBRANCH   7   8
ENDBRANCH   1   7
BRANCH   2  22
ATOM     22  O   UNL     1      86.974  -5.823   2.270  1.00  0.00    -0.387 OA
ATOM     23  H   UNL     1      86.926  -6.793   2.483  1.00  0.00     0.211 HD
ENDBRANCH   2  22
BRANCH   3  24
ATOM     24  O   UNL     1      83.820  -6.597   0.688  1.00  0.00    -0.387 OA
ATOM     25  H   UNL     1      83.392  -7.484   0.782  1.00  0.00     0.211 HD
ENDBRANCH   3  24
BRANCH   5  26
ATOM     26  O   UNL     1      85.069  -5.222  -1.868  1.00  0.00    -0.462 OA
BRANCH  26  27
ATOM     27  C   UNL     1      84.861  -5.038  -3.245  1.00  0.00     0.130 A 
ATOM     28  C   UNL     1      83.721  -5.608  -3.825  1.00  0.00     0.093 A 
ATOM     29  C   UNL     1      85.743  -4.304  -4.050  1.00  0.00     0.094 A 
ATOM     30  C   UNL     1      83.465  -5.487  -5.195  1.00  0.00     0.133 A 
ATOM     31  C   UNL     1      85.477  -4.122  -5.410  1.00  0.00     0.138 A 
ATOM     32  C   UNL     1      84.337  -4.708  -6.000  1.00  0.00     0.102 A 
ATOM     33  O   UNL     1      86.355  -3.331  -6.169  1.00  0.00    -0.484 OA
ATOM     34  C   UNL     1      84.127  -4.444  -7.442  1.00  0.00     0.174 C 
ATOM     35  C   UNL     1      86.116  -2.948  -7.530  1.00  0.00     0.211 C 
ATOM     36  O   UNL     1      82.986  -4.505  -7.971  1.00  0.00    -0.294 OA
ATOM     37  C   UNL     1      85.300  -4.022  -8.270  1.00  0.00     0.131 C 
BRANCH  30  38
ATOM     38  O   UNL     1      82.360  -6.177  -5.703  1.00  0.00    -0.507 OA
ATOM     39  H   UNL     1      81.981  -7.023  -5.299  1.00  0.00     0.293 HD
ENDBRANCH  30  38
BRANCH  35  40
ATOM     40  C   UNL     1      85.438  -1.593  -7.615  1.00  0.00    -0.003 A 
ATOM     41  C   UNL     1      85.515  -0.659  -6.563  1.00  0.00     0.057 A 
ATOM     42  C   UNL     1      84.645  -1.293  -8.733  1.00  0.00     0.011 A 
ATOM     43  C   UNL     1      84.837   0.565  -6.647  1.00  0.00     0.158 A 
ATOM     44  C   UNL     1      83.972  -0.071  -8.822  1.00  0.00     0.051 A 
ATOM     45  C   UNL     1      84.067   0.871  -7.776  1.00  0.00     0.160 A 
BRANCH  43  46
ATOM     46  O   UNL     1      84.924   1.489  -5.606  1.00  0.00    -0.504 OA
ATOM     47  H   UNL     1      84.165   2.132  -5.403  1.00  0.00     0.293 HD
ENDBRANCH  43  46
BRANCH  45  48
ATOM     48  O   UNL     1      83.410   2.112  -7.823  1.00  0.00    -0.493 OA
ATOM     49  C   UNL     1      82.386   2.448  -8.759  1.00  0.00     0.278 C 
ENDBRANCH  45  48
ENDBRANCH  35  40
ENDBRANCH  26  27
ENDBRANCH   5  26
BRANCH   4  50
ATOM     50  O   UNL     1      87.124  -7.789  -0.274  1.00  0.00    -0.384 OA
ATOM     51  H   UNL     1      87.876  -7.167  -0.108  1.00  0.00     0.211 HD
ENDBRANCH   4  50
TORSDOF 15
ENDMDL
