MODEL 1
REMARK VINA RESULT:    -8.018      0.000      0.000
REMARK INTER + INTRA:          -8.539
REMARK INTER:                  -8.721
REMARK INTRA:                   0.182
REMARK UNBOUND:                 0.182
REMARK SMILES C[C@H]1[C@@H](C)CC[C@]2(C(=O)[O-])CC[C@]3(C)C(=CC[C@H]4[C@]5(C)CC[C@@H](O)C(C)(C)[C@@H]5CC[C@]43C)[C@@H]12
REMARK SMILES IDX 7 1 6 2 11 3 33 4 5 5 12 6 15 7 2 8 3 9 13 10 16 11 1 12
REMARK SMILES IDX 4 13 14 14 31 15 17 16 18 17 30 18 32 19 19 20 29 21 28 22
REMARK SMILES IDX 21 23 20 24 25 25 22 26 23 27 26 28 27 29 8 30 9 31 10 32
REMARK SMILES IDX 24 33
REMARK H PARENT 24 34
REMARK Flexibility Score: inf
ROOT
ATOM      1  C   UNL     1       9.299 -28.122  37.460  1.00  0.00     0.017 C 
ATOM      2  C   UNL     1       8.917 -27.329  36.168  1.00  0.00     0.014 C 
ATOM      3  C   UNL     1       9.238 -29.660  37.163  1.00  0.00     0.014 C 
ATOM      4  C   UNL     1       8.267 -27.714  38.562  1.00  0.00     0.030 C 
ATOM      5  C   UNL     1       8.844 -25.805  36.387  1.00  0.00     0.004 C 
ATOM      6  C   UNL     1       8.072 -30.422  37.837  1.00  0.00     0.013 C 
ATOM      7  C   UNL     1       8.217 -28.716  39.718  1.00  0.00    -0.063 C 
ATOM      8  C   UNL     1       8.234 -26.175  38.860  1.00  0.00    -0.003 C 
ATOM      9  C   UNL     1       7.885 -25.426  37.537  1.00  0.00    -0.011 C 
ATOM     10  C   UNL     1       7.854 -30.166  39.385  1.00  0.00    -0.006 C 
ATOM     11  C   UNL     1       8.244 -28.341  41.007  1.00  0.00    -0.027 C 
ATOM     12  C   UNL     1       9.499 -25.589  39.539  1.00  0.00     0.008 C 
ATOM     13  C   UNL     1       7.813 -23.902  37.712  1.00  0.00     0.008 C 
ATOM     14  C   UNL     1       6.308 -30.283  39.590  1.00  0.00     0.017 C 
ATOM     15  C   UNL     1       8.666 -31.196  40.346  1.00  0.00    -0.020 C 
ATOM     16  C   UNL     1       8.087 -29.334  42.116  1.00  0.00     0.032 C 
ATOM     17  C   UNL     1       8.860 -30.662  41.847  1.00  0.00     0.006 C 
ATOM     18  C   UNL     1       7.996 -32.606  40.326  1.00  0.00     0.008 C 
ATOM     19  C   UNL     1      10.101 -31.398  39.772  1.00  0.00     0.012 C 
ATOM     20  C   UNL     1       8.669 -31.733  43.023  1.00  0.00    -0.025 C 
ATOM     21  C   UNL     1       6.957 -32.897  41.419  1.00  0.00     0.005 C 
ATOM     22  C   UNL     1       7.265 -32.441  42.891  1.00  0.00     0.003 C 
ATOM     23  C   UNL     1       9.802 -32.813  43.022  1.00  0.00     0.010 C 
ATOM     24  C   UNL     1       8.815 -30.954  44.374  1.00  0.00     0.012 C 
ATOM     25  C   UNL     1       7.007 -33.618  43.939  1.00  0.00    -0.006 C 
ATOM     26  C   UNL     1       9.571 -33.974  44.012  1.00  0.00     0.033 C 
ATOM     27  C   UNL     1       8.188 -34.638  43.861  1.00  0.00     0.120 C 
ATOM     28  C   UNL     1       6.831 -33.079  45.394  1.00  0.00     0.014 C 
ATOM     29  C   UNL     1       5.664 -34.356  43.622  1.00  0.00     0.014 C 
ENDROOT
BRANCH   1  30
ATOM     30  C   UNL     1      10.735 -27.806  37.867  1.00  0.00     0.048 C 
ATOM     31  O   UNL     1      11.449 -27.036  37.170  1.00  0.00    -0.550 OA
ATOM     32  O   UNL     1      11.320 -28.456  38.947  1.00  0.00    -0.550 OA
ENDBRANCH   1  30
BRANCH  27  33
ATOM     33  O   UNL     1       8.057 -35.625  44.854  1.00  0.00    -0.393 OA
ATOM     34  H   UNL     1       7.652 -36.423  44.424  1.00  0.00     0.210 HD
ENDBRANCH  27  33
TORSDOF 2
ENDMDL
MODEL 2
REMARK VINA RESULT:    -7.414      5.746      7.793
REMARK INTER + INTRA:          -7.882
REMARK INTER:                  -8.049
REMARK INTRA:                   0.167
REMARK UNBOUND:                 0.182
REMARK SMILES C[C@H]1[C@@H](C)CC[C@]2(C(=O)[O-])CC[C@]3(C)C(=CC[C@H]4[C@]5(C)CC[C@@H](O)C(C)(C)[C@@H]5CC[C@]43C)[C@@H]12
REMARK SMILES IDX 7 1 6 2 11 3 33 4 5 5 12 6 15 7 2 8 3 9 13 10 16 11 1 12
REMARK SMILES IDX 4 13 14 14 31 15 17 16 18 17 30 18 32 19 19 20 29 21 28 22
REMARK SMILES IDX 21 23 20 24 25 25 22 26 23 27 26 28 27 29 8 30 9 31 10 32
REMARK SMILES IDX 24 33
REMARK H PARENT 24 34
REMARK Flexibility Score: inf
ROOT
ATOM      1  C   UNL     1       7.747 -34.652  36.206  1.00  0.00     0.017 C 
ATOM      2  C   UNL     1       8.862 -33.852  35.457  1.00  0.00     0.014 C 
ATOM      3  C   UNL     1       6.709 -33.648  36.817  1.00  0.00     0.014 C 
ATOM      4  C   UNL     1       8.460 -35.482  37.323  1.00  0.00     0.030 C 
ATOM      5  C   UNL     1       9.990 -34.748  34.909  1.00  0.00     0.004 C 
ATOM      6  C   UNL     1       6.733 -33.522  38.359  1.00  0.00     0.013 C 
ATOM      7  C   UNL     1       7.492 -35.949  38.414  1.00  0.00    -0.063 C 
ATOM      8  C   UNL     1       9.558 -36.462  36.781  1.00  0.00    -0.003 C 
ATOM      9  C   UNL     1      10.625 -35.625  36.012  1.00  0.00    -0.011 C 
ATOM     10  C   UNL     1       6.720 -34.874  39.184  1.00  0.00    -0.006 C 
ATOM     11  C   UNL     1       7.470 -37.210  38.875  1.00  0.00    -0.027 C 
ATOM     12  C   UNL     1       9.042 -37.656  35.936  1.00  0.00     0.008 C 
ATOM     13  C   UNL     1      11.764 -36.484  35.441  1.00  0.00     0.008 C 
ATOM     14  C   UNL     1       7.566 -34.564  40.461  1.00  0.00     0.017 C 
ATOM     15  C   UNL     1       5.230 -35.402  39.565  1.00  0.00    -0.020 C 
ATOM     16  C   UNL     1       6.588 -37.612  40.015  1.00  0.00     0.032 C 
ATOM     17  C   UNL     1       5.172 -36.961  39.938  1.00  0.00     0.006 C 
ATOM     18  C   UNL     1       4.611 -34.523  40.696  1.00  0.00     0.008 C 
ATOM     19  C   UNL     1       4.298 -35.220  38.328  1.00  0.00     0.012 C 
ATOM     20  C   UNL     1       4.239 -37.373  41.173  1.00  0.00    -0.025 C 
ATOM     21  C   UNL     1       4.812 -35.007  42.140  1.00  0.00     0.005 C 
ATOM     22  C   UNL     1       4.631 -36.537  42.453  1.00  0.00     0.003 C 
ATOM     23  C   UNL     1       2.720 -37.163  40.857  1.00  0.00     0.010 C 
ATOM     24  C   UNL     1       4.427 -38.913  41.391  1.00  0.00     0.012 C 
ATOM     25  C   UNL     1       3.690 -36.772  43.721  1.00  0.00    -0.006 C 
ATOM     26  C   UNL     1       1.787 -37.366  42.068  1.00  0.00     0.033 C 
ATOM     27  C   UNL     1       2.202 -36.541  43.302  1.00  0.00     0.120 C 
ATOM     28  C   UNL     1       3.881 -38.195  44.337  1.00  0.00     0.014 C 
ATOM     29  C   UNL     1       4.062 -35.785  44.876  1.00  0.00     0.014 C 
ENDROOT
BRANCH   1  30
ATOM     30  C   UNL     1       6.983 -35.537  35.226  1.00  0.00     0.048 C 
ATOM     31  O   UNL     1       7.093 -35.367  33.982  1.00  0.00    -0.550 OA
ATOM     32  O   UNL     1       6.059 -36.466  35.689  1.00  0.00    -0.550 OA
ENDBRANCH   1  30
BRANCH  27  33
ATOM     33  O   UNL     1       1.334 -36.857  44.362  1.00  0.00    -0.393 OA
ATOM     34  H   UNL     1       0.439 -36.495  44.128  1.00  0.00     0.210 HD
ENDBRANCH  27  33
TORSDOF 2
ENDMDL
MODEL 3
REMARK VINA RESULT:    -7.382      2.577      4.479
REMARK INTER + INTRA:          -7.848
REMARK INTER:                  -8.003
REMARK INTRA:                   0.155
REMARK UNBOUND:                 0.182
REMARK SMILES C[C@H]1[C@@H](C)CC[C@]2(C(=O)[O-])CC[C@]3(C)C(=CC[C@H]4[C@]5(C)CC[C@@H](O)C(C)(C)[C@@H]5CC[C@]43C)[C@@H]12
REMARK SMILES IDX 7 1 6 2 11 3 33 4 5 5 12 6 15 7 2 8 3 9 13 10 16 11 1 12
REMARK SMILES IDX 4 13 14 14 31 15 17 16 18 17 30 18 32 19 19 20 29 21 28 22
REMARK SMILES IDX 21 23 20 24 25 25 22 26 23 27 26 28 27 29 8 30 9 31 10 32
REMARK SMILES IDX 24 33
REMARK H PARENT 24 34
REMARK Flexibility Score: inf
ROOT
ATOM      1  C   UNL     1       9.267 -31.538  39.446  1.00  0.00     0.017 C 
ATOM      2  C   UNL     1       9.528 -30.365  38.447  1.00  0.00     0.014 C 
ATOM      3  C   UNL     1       8.649 -32.753  38.672  1.00  0.00     0.014 C 
ATOM      4  C   UNL     1       8.281 -30.995  40.532  1.00  0.00     0.030 C 
ATOM      5  C   UNL     1      10.039 -29.083  39.133  1.00  0.00     0.004 C 
ATOM      6  C   UNL     1       7.159 -33.044  38.970  1.00  0.00     0.013 C 
ATOM      7  C   UNL     1       7.581 -32.118  41.301  1.00  0.00    -0.063 C 
ATOM      8  C   UNL     1       8.816 -29.737  41.301  1.00  0.00    -0.003 C 
ATOM      9  C   UNL     1       9.095 -28.609  40.261  1.00  0.00    -0.011 C 
ATOM     10  C   UNL     1       6.738 -33.112  40.496  1.00  0.00    -0.006 C 
ATOM     11  C   UNL     1       7.481 -32.131  42.641  1.00  0.00    -0.027 C 
ATOM     12  C   UNL     1      10.033 -29.979  42.231  1.00  0.00     0.008 C 
ATOM     13  C   UNL     1       9.616 -27.316  40.905  1.00  0.00     0.008 C 
ATOM     14  C   UNL     1       5.275 -32.562  40.526  1.00  0.00     0.017 C 
ATOM     15  C   UNL     1       6.832 -34.600  41.142  1.00  0.00    -0.020 C 
ATOM     16  C   UNL     1       6.699 -33.185  43.359  1.00  0.00     0.032 C 
ATOM     17  C   UNL     1       6.901 -34.606  42.746  1.00  0.00     0.006 C 
ATOM     18  C   UNL     1       5.668 -35.498  40.620  1.00  0.00     0.008 C 
ATOM     19  C   UNL     1       8.147 -35.281  40.653  1.00  0.00     0.012 C 
ATOM     20  C   UNL     1       6.043 -35.728  43.501  1.00  0.00    -0.025 C 
ATOM     21  C   UNL     1       4.392 -35.548  41.475  1.00  0.00     0.005 C 
ATOM     22  C   UNL     1       4.536 -35.664  43.036  1.00  0.00     0.003 C 
ATOM     23  C   UNL     1       6.607 -37.166  43.249  1.00  0.00     0.010 C 
ATOM     24  C   UNL     1       6.201 -35.463  45.036  1.00  0.00     0.012 C 
ATOM     25  C   UNL     1       3.603 -36.815  43.630  1.00  0.00    -0.006 C 
ATOM     26  C   UNL     1       5.717 -38.301  43.796  1.00  0.00     0.033 C 
ATOM     27  C   UNL     1       4.251 -38.204  43.329  1.00  0.00     0.120 C 
ATOM     28  C   UNL     1       3.354 -36.636  45.162  1.00  0.00     0.014 C 
ATOM     29  C   UNL     1       2.178 -36.759  42.986  1.00  0.00     0.014 C 
ENDROOT
BRANCH   1  30
ATOM     30  C   UNL     1      10.583 -32.020  40.049  1.00  0.00     0.048 C 
ATOM     31  O   UNL     1      11.687 -31.612  39.599  1.00  0.00    -0.550 OA
ATOM     32  O   UNL     1      10.590 -33.011  41.023  1.00  0.00    -0.550 OA
ENDBRANCH   1  30
BRANCH  27  33
ATOM     33  O   UNL     1       3.519 -39.236  43.942  1.00  0.00    -0.393 OA
ATOM     34  H   UNL     1       4.138 -40.003  44.066  1.00  0.00     0.210 HD
ENDBRANCH  27  33
TORSDOF 2
ENDMDL
MODEL 4
REMARK VINA RESULT:    -7.305      4.348      9.805
REMARK INTER + INTRA:          -7.764
REMARK INTER:                  -7.918
REMARK INTRA:                   0.154
REMARK UNBOUND:                 0.182
REMARK SMILES C[C@H]1[C@@H](C)CC[C@]2(C(=O)[O-])CC[C@]3(C)C(=CC[C@H]4[C@]5(C)CC[C@@H](O)C(C)(C)[C@@H]5CC[C@]43C)[C@@H]12
REMARK SMILES IDX 7 1 6 2 11 3 33 4 5 5 12 6 15 7 2 8 3 9 13 10 16 11 1 12
REMARK SMILES IDX 4 13 14 14 31 15 17 16 18 17 30 18 32 19 19 20 29 21 28 22
REMARK SMILES IDX 21 23 20 24 25 25 22 26 23 27 26 28 27 29 8 30 9 31 10 32
REMARK SMILES IDX 24 33
REMARK H PARENT 24 34
REMARK Flexibility Score: inf
ROOT
ATOM      1  C   UNL     1       3.856 -36.532  43.253  1.00  0.00     0.017 C 
ATOM      2  C   UNL     1       2.633 -36.326  44.202  1.00  0.00     0.014 C 
ATOM      3  C   UNL     1       4.987 -35.513  43.633  1.00  0.00     0.014 C 
ATOM      4  C   UNL     1       3.342 -36.291  41.795  1.00  0.00     0.030 C 
ATOM      5  C   UNL     1       1.424 -37.211  43.839  1.00  0.00     0.004 C 
ATOM      6  C   UNL     1       5.227 -34.374  42.614  1.00  0.00     0.013 C 
ATOM      7  C   UNL     1       4.481 -36.007  40.812  1.00  0.00    -0.063 C 
ATOM      8  C   UNL     1       2.165 -37.239  41.375  1.00  0.00    -0.003 C 
ATOM      9  C   UNL     1       0.984 -37.024  42.370  1.00  0.00    -0.011 C 
ATOM     10  C   UNL     1       5.377 -34.797  41.095  1.00  0.00    -0.006 C 
ATOM     11  C   UNL     1       4.578 -36.612  39.617  1.00  0.00    -0.027 C 
ATOM     12  C   UNL     1       2.526 -38.739  41.220  1.00  0.00     0.008 C 
ATOM     13  C   UNL     1      -0.238 -37.898  42.048  1.00  0.00     0.008 C 
ATOM     14  C   UNL     1       4.763 -33.606  40.291  1.00  0.00     0.017 C 
ATOM     15  C   UNL     1       6.908 -35.101  40.641  1.00  0.00    -0.020 C 
ATOM     16  C   UNL     1       5.641 -36.237  38.632  1.00  0.00     0.032 C 
ATOM     17  C   UNL     1       7.025 -35.986  39.308  1.00  0.00     0.006 C 
ATOM     18  C   UNL     1       7.714 -33.770  40.512  1.00  0.00     0.008 C 
ATOM     19  C   UNL     1       7.615 -35.919  41.764  1.00  0.00     0.012 C 
ATOM     20  C   UNL     1       8.154 -35.560  38.255  1.00  0.00    -0.025 C 
ATOM     21  C   UNL     1       7.762 -33.119  39.121  1.00  0.00     0.005 C 
ATOM     22  C   UNL     1       7.989 -34.039  37.867  1.00  0.00     0.003 C 
ATOM     23  C   UNL     1       9.597 -35.804  38.811  1.00  0.00     0.010 C 
ATOM     24  C   UNL     1       8.001 -36.507  37.017  1.00  0.00     0.012 C 
ATOM     25  C   UNL     1       9.132 -33.463  36.913  1.00  0.00    -0.006 C 
ATOM     26  C   UNL     1      10.723 -35.241  37.919  1.00  0.00     0.033 C 
ATOM     27  C   UNL     1      10.527 -33.757  37.553  1.00  0.00     0.120 C 
ATOM     28  C   UNL     1       9.045 -34.055  35.470  1.00  0.00     0.014 C 
ATOM     29  C   UNL     1       8.966 -31.919  36.721  1.00  0.00     0.014 C 
ENDROOT
BRANCH   1  30
ATOM     30  C   UNL     1       4.439 -37.930  43.437  1.00  0.00     0.048 C 
ATOM     31  O   UNL     1       4.047 -38.673  44.376  1.00  0.00    -0.550 OA
ATOM     32  O   UNL     1       5.498 -38.361  42.648  1.00  0.00    -0.550 OA
ENDBRANCH   1  30
BRANCH  27  33
ATOM     33  O   UNL     1      11.562 -33.372  36.684  1.00  0.00    -0.393 OA
ATOM     34  H   UNL     1      12.093 -32.672  37.149  1.00  0.00     0.210 HD
ENDBRANCH  27  33
TORSDOF 2
ENDMDL
MODEL 5
REMARK VINA RESULT:    -7.258      1.509      8.088
REMARK INTER + INTRA:          -7.713
REMARK INTER:                  -7.872
REMARK INTRA:                   0.159
REMARK UNBOUND:                 0.182
REMARK SMILES C[C@H]1[C@@H](C)CC[C@]2(C(=O)[O-])CC[C@]3(C)C(=CC[C@H]4[C@]5(C)CC[C@@H](O)C(C)(C)[C@@H]5CC[C@]43C)[C@@H]12
REMARK SMILES IDX 7 1 6 2 11 3 33 4 5 5 12 6 15 7 2 8 3 9 13 10 16 11 1 12
REMARK SMILES IDX 4 13 14 14 31 15 17 16 18 17 30 18 32 19 19 20 29 21 28 22
REMARK SMILES IDX 21 23 20 24 25 25 22 26 23 27 26 28 27 29 8 30 9 31 10 32
REMARK SMILES IDX 24 33
REMARK H PARENT 24 34
REMARK Flexibility Score: inf
ROOT
ATOM      1  C   UNL     1       8.621 -32.163  43.835  1.00  0.00     0.017 C 
ATOM      2  C   UNL     1       8.058 -32.729  45.178  1.00  0.00     0.014 C 
ATOM      3  C   UNL     1       9.258 -30.753  44.091  1.00  0.00     0.014 C 
ATOM      4  C   UNL     1       7.415 -32.069  42.843  1.00  0.00     0.030 C 
ATOM      5  C   UNL     1       7.315 -34.069  45.010  1.00  0.00     0.004 C 
ATOM      6  C   UNL     1       8.478 -29.553  43.504  1.00  0.00     0.013 C 
ATOM      7  C   UNL     1       7.695 -31.129  41.668  1.00  0.00    -0.063 C 
ATOM      8  C   UNL     1       6.693 -33.439  42.593  1.00  0.00    -0.003 C 
ATOM      9  C   UNL     1       6.182 -33.980  43.963  1.00  0.00    -0.011 C 
ATOM     10  C   UNL     1       8.026 -29.669  41.990  1.00  0.00    -0.006 C 
ATOM     11  C   UNL     1       7.435 -31.461  40.392  1.00  0.00    -0.027 C 
ATOM     12  C   UNL     1       7.512 -34.505  41.820  1.00  0.00     0.008 C 
ATOM     13  C   UNL     1       5.443 -35.321  43.840  1.00  0.00     0.008 C 
ATOM     14  C   UNL     1       6.671 -28.892  41.923  1.00  0.00     0.017 C 
ATOM     15  C   UNL     1       9.108 -29.079  40.930  1.00  0.00    -0.020 C 
ATOM     16  C   UNL     1       7.618 -30.483  39.275  1.00  0.00     0.032 C 
ATOM     17  C   UNL     1       8.911 -29.624  39.434  1.00  0.00     0.006 C 
ATOM     18  C   UNL     1       9.118 -27.519  40.971  1.00  0.00     0.008 C 
ATOM     19  C   UNL     1      10.537 -29.525  41.366  1.00  0.00     0.012 C 
ATOM     20  C   UNL     1       9.090 -28.560  38.249  1.00  0.00    -0.025 C 
ATOM     21  C   UNL     1       8.209 -26.792  39.968  1.00  0.00     0.005 C 
ATOM     22  C   UNL     1       8.149 -27.317  38.488  1.00  0.00     0.003 C 
ATOM     23  C   UNL     1      10.573 -28.076  38.116  1.00  0.00     0.010 C 
ATOM     24  C   UNL     1       8.757 -29.308  36.914  1.00  0.00     0.012 C 
ATOM     25  C   UNL     1       8.327 -26.131  37.434  1.00  0.00    -0.006 C 
ATOM     26  C   UNL     1      10.773 -26.917  37.118  1.00  0.00     0.033 C 
ATOM     27  C   UNL     1       9.834 -25.723  37.375  1.00  0.00     0.120 C 
ATOM     28  C   UNL     1       7.799 -26.521  36.017  1.00  0.00     0.014 C 
ATOM     29  C   UNL     1       7.471 -24.889  37.850  1.00  0.00     0.014 C 
ENDROOT
BRANCH   1  30
ATOM     30  C   UNL     1       9.735 -33.063  43.307  1.00  0.00     0.048 C 
ATOM     31  O   UNL     1      10.176 -34.017  44.003  1.00  0.00    -0.550 OA
ATOM     32  O   UNL     1      10.364 -32.773  42.104  1.00  0.00    -0.550 OA
ENDBRANCH   1  30
BRANCH  27  33
ATOM     33  O   UNL     1      10.048 -24.763  36.370  1.00  0.00    -0.393 OA
ATOM     34  H   UNL     1      10.814 -24.199  36.659  1.00  0.00     0.210 HD
ENDBRANCH  27  33
TORSDOF 2
ENDMDL
MODEL 6
REMARK VINA RESULT:    -7.096      3.878      9.660
REMARK INTER + INTRA:          -7.536
REMARK INTER:                  -7.691
REMARK INTRA:                   0.155
REMARK UNBOUND:                 0.182
REMARK SMILES C[C@H]1[C@@H](C)CC[C@]2(C(=O)[O-])CC[C@]3(C)C(=CC[C@H]4[C@]5(C)CC[C@@H](O)C(C)(C)[C@@H]5CC[C@]43C)[C@@H]12
REMARK SMILES IDX 7 1 6 2 11 3 33 4 5 5 12 6 15 7 2 8 3 9 13 10 16 11 1 12
REMARK SMILES IDX 4 13 14 14 31 15 17 16 18 17 30 18 32 19 19 20 29 21 28 22
REMARK SMILES IDX 21 23 20 24 25 25 22 26 23 27 26 28 27 29 8 30 9 31 10 32
REMARK SMILES IDX 24 33
REMARK H PARENT 24 34
REMARK Flexibility Score: inf
ROOT
ATOM      1  C   UNL     1       4.519 -38.067  41.844  1.00  0.00     0.017 C 
ATOM      2  C   UNL     1       3.971 -38.838  43.088  1.00  0.00     0.014 C 
ATOM      3  C   UNL     1       6.079 -37.945  41.954  1.00  0.00     0.014 C 
ATOM      4  C   UNL     1       3.837 -36.659  41.848  1.00  0.00     0.030 C 
ATOM      5  C   UNL     1       2.432 -38.917  43.125  1.00  0.00     0.004 C 
ATOM      6  C   UNL     1       6.616 -36.524  42.244  1.00  0.00     0.013 C 
ATOM      7  C   UNL     1       4.590 -35.642  40.986  1.00  0.00    -0.063 C 
ATOM      8  C   UNL     1       2.271 -36.715  41.803  1.00  0.00    -0.003 C 
ATOM      9  C   UNL     1       1.773 -37.521  43.041  1.00  0.00    -0.011 C 
ATOM     10  C   UNL     1       6.050 -35.349  41.345  1.00  0.00    -0.006 C 
ATOM     11  C   UNL     1       3.973 -34.840  40.103  1.00  0.00    -0.027 C 
ATOM     12  C   UNL     1       1.649 -37.240  40.483  1.00  0.00     0.008 C 
ATOM     13  C   UNL     1       0.243 -37.633  43.110  1.00  0.00     0.008 C 
ATOM     14  C   UNL     1       6.022 -34.106  42.291  1.00  0.00     0.017 C 
ATOM     15  C   UNL     1       6.923 -35.064  40.004  1.00  0.00    -0.020 C 
ATOM     16  C   UNL     1       4.718 -33.781  39.352  1.00  0.00     0.032 C 
ATOM     17  C   UNL     1       6.121 -34.263  38.868  1.00  0.00     0.006 C 
ATOM     18  C   UNL     1       8.263 -34.350  40.366  1.00  0.00     0.008 C 
ATOM     19  C   UNL     1       7.327 -36.427  39.364  1.00  0.00     0.012 C 
ATOM     20  C   UNL     1       6.927 -33.119  38.087  1.00  0.00    -0.025 C 
ATOM     21  C   UNL     1       8.266 -32.815  40.317  1.00  0.00     0.005 C 
ATOM     22  C   UNL     1       7.553 -32.098  39.113  1.00  0.00     0.003 C 
ATOM     23  C   UNL     1       8.059 -33.713  37.183  1.00  0.00     0.010 C 
ATOM     24  C   UNL     1       5.910 -32.433  37.113  1.00  0.00     0.012 C 
ATOM     25  C   UNL     1       8.483 -30.977  38.460  1.00  0.00    -0.006 C 
ATOM     26  C   UNL     1       8.987 -32.654  36.552  1.00  0.00     0.033 C 
ATOM     27  C   UNL     1       9.574 -31.668  37.581  1.00  0.00     0.120 C 
ATOM     28  C   UNL     1       7.660 -29.948  37.620  1.00  0.00     0.014 C 
ATOM     29  C   UNL     1       9.179 -30.120  39.569  1.00  0.00     0.014 C 
ENDROOT
BRANCH   1  30
ATOM     30  C   UNL     1       4.225 -38.849  40.567  1.00  0.00     0.048 C 
ATOM     31  O   UNL     1       3.768 -40.022  40.619  1.00  0.00    -0.550 OA
ATOM     32  O   UNL     1       4.570 -38.326  39.327  1.00  0.00    -0.550 OA
ENDBRANCH   1  30
BRANCH  27  33
ATOM     33  O   UNL     1      10.338 -30.709  36.893  1.00  0.00    -0.393 OA
ATOM     34  H   UNL     1       9.708 -30.025  36.544  1.00  0.00     0.210 HD
ENDBRANCH  27  33
TORSDOF 2
ENDMDL
MODEL 7
REMARK VINA RESULT:    -7.085      3.377      5.715
REMARK INTER + INTRA:          -7.524
REMARK INTER:                  -7.677
REMARK INTRA:                   0.153
REMARK UNBOUND:                 0.182
REMARK SMILES C[C@H]1[C@@H](C)CC[C@]2(C(=O)[O-])CC[C@]3(C)C(=CC[C@H]4[C@]5(C)CC[C@@H](O)C(C)(C)[C@@H]5CC[C@]43C)[C@@H]12
REMARK SMILES IDX 7 1 6 2 11 3 33 4 5 5 12 6 15 7 2 8 3 9 13 10 16 11 1 12
REMARK SMILES IDX 4 13 14 14 31 15 17 16 18 17 30 18 32 19 19 20 29 21 28 22
REMARK SMILES IDX 21 23 20 24 25 25 22 26 23 27 26 28 27 29 8 30 9 31 10 32
REMARK SMILES IDX 24 33
REMARK H PARENT 24 34
REMARK Flexibility Score: inf
ROOT
ATOM      1  C   UNL     1       7.348 -22.949  38.210  1.00  0.00     0.017 C 
ATOM      2  C   UNL     1       6.931 -21.623  37.496  1.00  0.00     0.014 C 
ATOM      3  C   UNL     1       8.798 -23.346  37.764  1.00  0.00     0.014 C 
ATOM      4  C   UNL     1       6.306 -24.037  37.786  1.00  0.00     0.030 C 
ATOM      5  C   UNL     1       5.476 -21.206  37.787  1.00  0.00     0.004 C 
ATOM      6  C   UNL     1       8.896 -24.586  36.845  1.00  0.00     0.013 C 
ATOM      7  C   UNL     1       6.818 -25.461  38.020  1.00  0.00    -0.063 C 
ATOM      8  C   UNL     1       4.825 -23.670  38.148  1.00  0.00    -0.003 C 
ATOM      9  C   UNL     1       4.468 -22.325  37.443  1.00  0.00    -0.011 C 
ATOM     10  C   UNL     1       8.105 -25.879  37.304  1.00  0.00    -0.006 C 
ATOM     11  C   UNL     1       6.080 -26.409  38.620  1.00  0.00    -0.027 C 
ATOM     12  C   UNL     1       4.485 -23.638  39.660  1.00  0.00     0.008 C 
ATOM     13  C   UNL     1       3.027 -21.868  37.718  1.00  0.00     0.008 C 
ATOM     14  C   UNL     1       7.657 -26.562  35.971  1.00  0.00     0.017 C 
ATOM     15  C   UNL     1       8.975 -26.891  38.233  1.00  0.00    -0.020 C 
ATOM     16  C   UNL     1       6.564 -27.820  38.740  1.00  0.00     0.032 C 
ATOM     17  C   UNL     1       8.081 -27.907  39.096  1.00  0.00     0.006 C 
ATOM     18  C   UNL     1      10.030 -27.652  37.371  1.00  0.00     0.008 C 
ATOM     19  C   UNL     1       9.791 -26.054  39.264  1.00  0.00     0.012 C 
ATOM     20  C   UNL     1       8.603 -29.418  39.198  1.00  0.00    -0.025 C 
ATOM     21  C   UNL     1       9.615 -29.022  36.814  1.00  0.00     0.005 C 
ATOM     22  C   UNL     1       8.834 -30.012  37.754  1.00  0.00     0.003 C 
ATOM     23  C   UNL     1       9.926 -29.527  40.027  1.00  0.00     0.010 C 
ATOM     24  C   UNL     1       7.521 -30.218  40.001  1.00  0.00     0.012 C 
ATOM     25  C   UNL     1       9.471 -31.476  37.727  1.00  0.00    -0.006 C 
ATOM     26  C   UNL     1      10.575 -30.927  40.003  1.00  0.00     0.033 C 
ATOM     27  C   UNL     1      10.780 -31.479  38.580  1.00  0.00     0.120 C 
ATOM     28  C   UNL     1       8.469 -32.560  38.238  1.00  0.00     0.014 C 
ATOM     29  C   UNL     1       9.808 -31.905  36.260  1.00  0.00     0.014 C 
ENDROOT
BRANCH   1  30
ATOM     30  C   UNL     1       7.388 -22.745  39.721  1.00  0.00     0.048 C 
ATOM     31  O   UNL     1       7.281 -21.593  40.219  1.00  0.00    -0.550 OA
ATOM     32  O   UNL     1       7.666 -23.811  40.568  1.00  0.00    -0.550 OA
ENDBRANCH   1  30
BRANCH  27  33
ATOM     33  O   UNL     1      11.304 -32.780  38.678  1.00  0.00    -0.393 OA
ATOM     34  H   UNL     1      10.640 -33.329  39.173  1.00  0.00     0.210 HD
ENDBRANCH  27  33
TORSDOF 2
ENDMDL
MODEL 8
REMARK VINA RESULT:    -7.051      3.555      6.343
REMARK INTER + INTRA:          -7.488
REMARK INTER:                  -7.675
REMARK INTRA:                   0.187
REMARK UNBOUND:                 0.182
REMARK SMILES C[C@H]1[C@@H](C)CC[C@]2(C(=O)[O-])CC[C@]3(C)C(=CC[C@H]4[C@]5(C)CC[C@@H](O)C(C)(C)[C@@H]5CC[C@]43C)[C@@H]12
REMARK SMILES IDX 7 1 6 2 11 3 33 4 5 5 12 6 15 7 2 8 3 9 13 10 16 11 1 12
REMARK SMILES IDX 4 13 14 14 31 15 17 16 18 17 30 18 32 19 19 20 29 21 28 22
REMARK SMILES IDX 21 23 20 24 25 25 22 26 23 27 26 28 27 29 8 30 9 31 10 32
REMARK SMILES IDX 24 33
REMARK H PARENT 24 34
REMARK Flexibility Score: inf
ROOT
ATOM      1  C   UNL     1       9.014 -29.426  44.158  1.00  0.00     0.017 C 
ATOM      2  C   UNL     1       9.505 -29.102  45.606  1.00  0.00     0.014 C 
ATOM      3  C   UNL     1       8.104 -30.702  44.190  1.00  0.00     0.014 C 
ATOM      4  C   UNL     1      10.294 -29.663  43.290  1.00  0.00     0.030 C 
ATOM      5  C   UNL     1      10.496 -27.923  45.664  1.00  0.00     0.004 C 
ATOM      6  C   UNL     1       8.716 -31.973  43.557  1.00  0.00     0.013 C 
ATOM      7  C   UNL     1       9.991 -30.423  41.996  1.00  0.00    -0.063 C 
ATOM      8  C   UNL     1      11.279 -28.443  43.268  1.00  0.00    -0.003 C 
ATOM      9  C   UNL     1      11.711 -28.136  44.734  1.00  0.00    -0.011 C 
ATOM     10  C   UNL     1       9.362 -31.814  42.119  1.00  0.00    -0.006 C 
ATOM     11  C   UNL     1      10.460 -30.034  40.798  1.00  0.00    -0.027 C 
ATOM     12  C   UNL     1      10.769 -27.174  42.538  1.00  0.00     0.008 C 
ATOM     13  C   UNL     1      12.693 -26.959  44.836  1.00  0.00     0.008 C 
ATOM     14  C   UNL     1      10.550 -32.829  42.105  1.00  0.00     0.017 C 
ATOM     15  C   UNL     1       8.326 -32.085  40.896  1.00  0.00    -0.020 C 
ATOM     16  C   UNL     1      10.238 -30.855  39.566  1.00  0.00     0.032 C 
ATOM     17  C   UNL     1       8.800 -31.457  39.497  1.00  0.00     0.006 C 
ATOM     18  C   UNL     1       8.026 -33.610  40.762  1.00  0.00     0.008 C 
ATOM     19  C   UNL     1       6.961 -31.410  41.230  1.00  0.00     0.012 C 
ATOM     20  C   UNL     1       8.573 -32.356  38.190  1.00  0.00    -0.025 C 
ATOM     21  C   UNL     1       8.902 -34.408  39.784  1.00  0.00     0.005 C 
ATOM     22  C   UNL     1       9.235 -33.774  38.384  1.00  0.00     0.003 C 
ATOM     23  C   UNL     1       7.054 -32.529  37.854  1.00  0.00     0.010 C 
ATOM     24  C   UNL     1       9.196 -31.571  36.986  1.00  0.00     0.012 C 
ATOM     25  C   UNL     1       8.972 -34.805  37.194  1.00  0.00    -0.006 C 
ATOM     26  C   UNL     1       6.767 -33.533  36.718  1.00  0.00     0.033 C 
ATOM     27  C   UNL     1       7.434 -34.905  36.936  1.00  0.00     0.120 C 
ATOM     28  C   UNL     1       9.730 -34.400  35.889  1.00  0.00     0.014 C 
ATOM     29  C   UNL     1       9.529 -36.222  37.555  1.00  0.00     0.014 C 
ENDROOT
BRANCH   1  30
ATOM     30  C   UNL     1       8.157 -28.283  43.622  1.00  0.00     0.048 C 
ATOM     31  O   UNL     1       7.896 -27.281  44.341  1.00  0.00    -0.550 OA
ATOM     32  O   UNL     1       7.548 -28.382  42.378  1.00  0.00    -0.550 OA
ENDBRANCH   1  30
BRANCH  27  33
ATOM     33  O   UNL     1       7.171 -35.712  35.815  1.00  0.00    -0.393 OA
ATOM     34  H   UNL     1       6.905 -35.107  35.073  1.00  0.00     0.210 HD
ENDBRANCH  27  33
TORSDOF 2
ENDMDL
MODEL 9
REMARK VINA RESULT:    -7.043      4.641      9.992
REMARK INTER + INTRA:          -7.478
REMARK INTER:                  -7.632
REMARK INTRA:                   0.153
REMARK UNBOUND:                 0.182
REMARK SMILES C[C@H]1[C@@H](C)CC[C@]2(C(=O)[O-])CC[C@]3(C)C(=CC[C@H]4[C@]5(C)CC[C@@H](O)C(C)(C)[C@@H]5CC[C@]43C)[C@@H]12
REMARK SMILES IDX 7 1 6 2 11 3 33 4 5 5 12 6 15 7 2 8 3 9 13 10 16 11 1 12
REMARK SMILES IDX 4 13 14 14 31 15 17 16 18 17 30 18 32 19 19 20 29 21 28 22
REMARK SMILES IDX 21 23 20 24 25 25 22 26 23 27 26 28 27 29 8 30 9 31 10 32
REMARK SMILES IDX 24 33
REMARK H PARENT 24 34
REMARK Flexibility Score: inf
ROOT
ATOM      1  C   UNL     1       3.696 -37.131  41.266  1.00  0.00     0.017 C 
ATOM      2  C   UNL     1       2.527 -38.137  41.518  1.00  0.00     0.014 C 
ATOM      3  C   UNL     1       3.307 -36.165  40.094  1.00  0.00     0.014 C 
ATOM      4  C   UNL     1       4.956 -37.984  40.905  1.00  0.00     0.030 C 
ATOM      5  C   UNL     1       2.857 -39.200  42.585  1.00  0.00     0.004 C 
ATOM      6  C   UNL     1       4.083 -36.375  38.772  1.00  0.00     0.013 C 
ATOM      7  C   UNL     1       6.037 -37.161  40.198  1.00  0.00    -0.063 C 
ATOM      8  C   UNL     1       5.360 -39.017  42.013  1.00  0.00    -0.003 C 
ATOM      9  C   UNL     1       4.153 -39.974  42.255  1.00  0.00    -0.011 C 
ATOM     10  C   UNL     1       5.660 -36.477  38.881  1.00  0.00    -0.006 C 
ATOM     11  C   UNL     1       7.333 -37.208  40.549  1.00  0.00    -0.027 C 
ATOM     12  C   UNL     1       5.894 -38.414  43.339  1.00  0.00     0.008 C 
ATOM     13  C   UNL     1       4.439 -41.043  43.320  1.00  0.00     0.008 C 
ATOM     14  C   UNL     1       6.070 -37.470  37.745  1.00  0.00     0.017 C 
ATOM     15  C   UNL     1       6.426 -35.051  38.736  1.00  0.00    -0.020 C 
ATOM     16  C   UNL     1       8.382 -36.477  39.773  1.00  0.00     0.032 C 
ATOM     17  C   UNL     1       7.918 -35.055  39.327  1.00  0.00     0.006 C 
ATOM     18  C   UNL     1       6.403 -34.566  37.253  1.00  0.00     0.008 C 
ATOM     19  C   UNL     1       5.645 -33.973  39.548  1.00  0.00     0.012 C 
ATOM     20  C   UNL     1       9.034 -34.284  38.474  1.00  0.00    -0.025 C 
ATOM     21  C   UNL     1       7.608 -34.946  36.379  1.00  0.00     0.005 C 
ATOM     22  C   UNL     1       9.051 -34.821  36.991  1.00  0.00     0.003 C 
ATOM     23  C   UNL     1       8.801 -32.736  38.468  1.00  0.00     0.010 C 
ATOM     24  C   UNL     1      10.401 -34.514  39.204  1.00  0.00     0.012 C 
ATOM     25  C   UNL     1      10.042 -34.044  36.009  1.00  0.00    -0.006 C 
ATOM     26  C   UNL     1       9.733 -31.960  37.514  1.00  0.00     0.033 C 
ATOM     27  C   UNL     1       9.731 -32.515  36.076  1.00  0.00     0.120 C 
ATOM     28  C   UNL     1      11.541 -34.324  36.347  1.00  0.00     0.014 C 
ATOM     29  C   UNL     1       9.866 -34.544  34.537  1.00  0.00     0.014 C 
ENDROOT
BRANCH   1  30
ATOM     30  C   UNL     1       3.920 -36.262  42.501  1.00  0.00     0.048 C 
ATOM     31  O   UNL     1       3.115 -36.299  43.470  1.00  0.00    -0.550 OA
ATOM     32  O   UNL     1       4.946 -35.326  42.526  1.00  0.00    -0.550 OA
ENDBRANCH   1  30
BRANCH  27  33
ATOM     33  O   UNL     1      10.663 -31.786  35.316  1.00  0.00    -0.393 OA
ATOM     34  H   UNL     1      11.129 -31.166  35.937  1.00  0.00     0.210 HD
ENDBRANCH  27  33
TORSDOF 2
ENDMDL
