MODEL 1
REMARK VINA RESULT:    -4.148      0.000      0.000
REMARK INTER + INTRA:          -8.780
REMARK INTER:                  -7.057
REMARK INTRA:                  -1.723
REMARK UNBOUND:                -1.723
REMARK SMILES CCCCCCCCCCCCCC(=O)[O-]
REMARK SMILES IDX 8 1 9 2 10 3 11 4 12 5 13 6 14 7 15 8 16 9 7 10 6 11 5 12
REMARK SMILES IDX 4 13 3 14 2 15 1 16
REMARK H PARENT
REMARK Flexibility Score: inf
ROOT
ATOM      1  C   UNL     1     175.284 174.715 183.161  1.00  0.00     0.000 C 
ENDROOT
BRANCH   1   2
ATOM      2  C   UNL     1     174.218 174.869 182.067  1.00  0.00     0.000 C 
BRANCH   2   3
ATOM      3  C   UNL     1     172.998 175.676 182.538  1.00  0.00     0.000 C 
BRANCH   3   4
ATOM      4  C   UNL     1     173.190 177.191 182.376  1.00  0.00     0.000 C 
BRANCH   4   5
ATOM      5  C   UNL     1     171.858 177.933 182.536  1.00  0.00     0.006 C 
BRANCH   5   6
ATOM      6  C   UNL     1     170.719 176.957 182.844  1.00  0.00     0.053 C 
BRANCH   6   7
ATOM      7  C   UNL     1     169.642 177.065 181.811  1.00  0.00     0.041 C 
ATOM      8  O   UNL     1     169.833 177.739 180.765  1.00  0.00    -0.550 OA
ATOM      9  O   UNL     1     168.409 176.461 182.027  1.00  0.00    -0.550 OA
ENDBRANCH   6   7
ENDBRANCH   5   6
ENDBRANCH   4   5
ENDBRANCH   3   4
ENDBRANCH   2   3
ENDBRANCH   1   2
BRANCH   1  10
ATOM     10  C   UNL     1     176.615 175.340 182.724  1.00  0.00     0.000 C 
BRANCH  10  11
ATOM     11  C   UNL     1     176.695 176.813 183.143  1.00  0.00    -0.000 C 
BRANCH  11  12
ATOM     12  C   UNL     1     177.201 177.688 181.989  1.00  0.00    -0.000 C 
BRANCH  12  13
ATOM     13  C   UNL     1     177.014 176.979 180.638  1.00  0.00    -0.000 C 
BRANCH  13  14
ATOM     14  C   UNL     1     175.947 177.650 179.760  1.00  0.00    -0.000 C 
BRANCH  14  15
ATOM     15  C   UNL     1     175.143 176.639 178.929  1.00  0.00    -0.003 C 
ATOM     16  C   UNL     1     173.703 177.105 178.741  1.00  0.00     0.004 C 
ENDBRANCH  14  15
ENDBRANCH  13  14
ENDBRANCH  12  13
ENDBRANCH  11  12
ENDBRANCH  10  11
ENDBRANCH   1  10
TORSDOF 12
ENDMDL
MODEL 2
REMARK VINA RESULT:    -3.998      1.348      3.253
REMARK INTER + INTRA:          -8.525
REMARK INTER:                  -6.416
REMARK INTRA:                  -2.109
REMARK UNBOUND:                -1.723
REMARK SMILES CCCCCCCCCCCCCC(=O)[O-]
REMARK SMILES IDX 8 1 9 2 10 3 11 4 12 5 13 6 14 7 15 8 16 9 7 10 6 11 5 12
REMARK SMILES IDX 4 13 3 14 2 15 1 16
REMARK H PARENT
REMARK Flexibility Score: inf
ROOT
ATOM      1  C   UNL     1     176.565 176.867 179.753  1.00  0.00     0.000 C 
ENDROOT
BRANCH   1   2
ATOM      2  C   UNL     1     175.169 177.157 179.183  1.00  0.00     0.000 C 
BRANCH   2   3
ATOM      3  C   UNL     1     174.332 175.883 178.989  1.00  0.00     0.000 C 
BRANCH   3   4
ATOM      4  C   UNL     1     173.231 175.729 180.049  1.00  0.00     0.000 C 
BRANCH   4   5
ATOM      5  C   UNL     1     172.954 177.064 180.750  1.00  0.00     0.006 C 
BRANCH   5   6
ATOM      6  C   UNL     1     172.367 176.839 182.147  1.00  0.00     0.053 C 
BRANCH   6   7
ATOM      7  C   UNL     1     170.968 177.364 182.218  1.00  0.00     0.041 C 
ATOM      8  O   UNL     1     170.397 177.791 181.180  1.00  0.00    -0.550 OA
ATOM      9  O   UNL     1     170.311 177.428 183.441  1.00  0.00    -0.550 OA
ENDBRANCH   6   7
ENDBRANCH   5   6
ENDBRANCH   4   5
ENDBRANCH   3   4
ENDBRANCH   2   3
ENDBRANCH   1   2
BRANCH   1  10
ATOM     10  C   UNL     1     177.011 177.981 180.708  1.00  0.00     0.000 C 
BRANCH  10  11
ATOM     11  C   UNL     1     177.298 177.425 182.107  1.00  0.00    -0.000 C 
BRANCH  11  12
ATOM     12  C   UNL     1     176.015 176.908 182.770  1.00  0.00    -0.000 C 
BRANCH  12  13
ATOM     13  C   UNL     1     176.221 175.496 183.340  1.00  0.00    -0.000 C 
BRANCH  13  14
ATOM     14  C   UNL     1     175.337 174.445 182.652  1.00  0.00    -0.000 C 
BRANCH  14  15
ATOM     15  C   UNL     1     176.083 173.671 181.554  1.00  0.00    -0.003 C 
ATOM     16  C   UNL     1     177.588 173.679 181.804  1.00  0.00     0.004 C 
ENDBRANCH  14  15
ENDBRANCH  13  14
ENDBRANCH  12  13
ENDBRANCH  11  12
ENDBRANCH  10  11
ENDBRANCH   1  10
TORSDOF 12
ENDMDL
MODEL 3
REMARK VINA RESULT:    -3.972      2.769      5.891
REMARK INTER + INTRA:          -8.482
REMARK INTER:                  -6.966
REMARK INTRA:                  -1.516
REMARK UNBOUND:                -1.723
REMARK SMILES CCCCCCCCCCCCCC(=O)[O-]
REMARK SMILES IDX 8 1 9 2 10 3 11 4 12 5 13 6 14 7 15 8 16 9 7 10 6 11 5 12
REMARK SMILES IDX 4 13 3 14 2 15 1 16
REMARK H PARENT
REMARK Flexibility Score: inf
ROOT
ATOM      1  C   UNL     1     173.342 175.610 181.948  1.00  0.00     0.000 C 
ENDROOT
BRANCH   1   2
ATOM      2  C   UNL     1     173.972 174.547 182.859  1.00  0.00     0.000 C 
BRANCH   2   3
ATOM      3  C   UNL     1     175.244 173.929 182.257  1.00  0.00     0.000 C 
BRANCH   3   4
ATOM      4  C   UNL     1     176.510 174.732 182.594  1.00  0.00     0.000 C 
BRANCH   4   5
ATOM      5  C   UNL     1     177.125 175.341 181.329  1.00  0.00     0.006 C 
BRANCH   5   6
ATOM      6  C   UNL     1     177.034 176.870 181.355  1.00  0.00     0.053 C 
BRANCH   6   7
ATOM      7  C   UNL     1     176.784 177.403 179.980  1.00  0.00     0.041 C 
ATOM      8  O   UNL     1     177.747 177.608 179.194  1.00  0.00    -0.550 OA
ATOM      9  O   UNL     1     175.491 177.721 179.582  1.00  0.00    -0.550 OA
ENDBRANCH   6   7
ENDBRANCH   5   6
ENDBRANCH   4   5
ENDBRANCH   3   4
ENDBRANCH   2   3
ENDBRANCH   1   2
BRANCH   1  10
ATOM     10  C   UNL     1     173.567 177.019 182.511  1.00  0.00     0.000 C 
BRANCH  10  11
ATOM     11  C   UNL     1     172.240 177.772 182.657  1.00  0.00    -0.000 C 
BRANCH  11  12
ATOM     12  C   UNL     1     171.339 177.546 181.436  1.00  0.00    -0.000 C 
BRANCH  12  13
ATOM     13  C   UNL     1     169.918 177.152 181.866  1.00  0.00    -0.000 C 
BRANCH  13  14
ATOM     14  C   UNL     1     169.886 176.457 183.236  1.00  0.00    -0.000 C 
BRANCH  14  15
ATOM     15  C   UNL     1     169.795 174.928 183.123  1.00  0.00    -0.003 C 
ATOM     16  C   UNL     1     170.539 174.248 184.268  1.00  0.00     0.004 C 
ENDBRANCH  14  15
ENDBRANCH  13  14
ENDBRANCH  12  13
ENDBRANCH  11  12
ENDBRANCH  10  11
ENDBRANCH   1  10
TORSDOF 12
ENDMDL
MODEL 4
REMARK VINA RESULT:    -3.969      2.327      5.506
REMARK INTER + INTRA:          -8.476
REMARK INTER:                  -6.944
REMARK INTRA:                  -1.532
REMARK UNBOUND:                -1.723
REMARK SMILES CCCCCCCCCCCCCC(=O)[O-]
REMARK SMILES IDX 8 1 9 2 10 3 11 4 12 5 13 6 14 7 15 8 16 9 7 10 6 11 5 12
REMARK SMILES IDX 4 13 3 14 2 15 1 16
REMARK H PARENT
REMARK Flexibility Score: inf
ROOT
ATOM      1  C   UNL     1     173.992 174.902 182.855  1.00  0.00     0.000 C 
ENDROOT
BRANCH   1   2
ATOM      2  C   UNL     1     175.513 174.863 182.650  1.00  0.00     0.000 C 
BRANCH   2   3
ATOM      3  C   UNL     1     176.251 175.920 183.486  1.00  0.00     0.000 C 
BRANCH   3   4
ATOM      4  C   UNL     1     176.935 176.989 182.622  1.00  0.00     0.000 C 
BRANCH   4   5
ATOM      5  C   UNL     1     176.980 176.559 181.151  1.00  0.00     0.006 C 
BRANCH   5   6
ATOM      6  C   UNL     1     176.622 177.727 180.226  1.00  0.00     0.053 C 
BRANCH   6   7
ATOM      7  C   UNL     1     175.624 177.294 179.199  1.00  0.00     0.041 C 
ATOM      8  O   UNL     1     174.490 177.838 179.148  1.00  0.00    -0.550 OA
ATOM      9  O   UNL     1     175.929 176.256 178.327  1.00  0.00    -0.550 OA
ENDBRANCH   6   7
ENDBRANCH   5   6
ENDBRANCH   4   5
ENDBRANCH   3   4
ENDBRANCH   2   3
ENDBRANCH   1   2
BRANCH   1  10
ATOM     10  C   UNL     1     173.330 175.877 181.872  1.00  0.00     0.000 C 
BRANCH  10  11
ATOM     11  C   UNL     1     173.079 177.238 182.531  1.00  0.00    -0.000 C 
BRANCH  11  12
ATOM     12  C   UNL     1     171.694 177.784 182.159  1.00  0.00    -0.000 C 
BRANCH  12  13
ATOM     13  C   UNL     1     170.652 177.409 183.223  1.00  0.00    -0.000 C 
BRANCH  13  14
ATOM     14  C   UNL     1     169.439 176.674 182.630  1.00  0.00    -0.000 C 
BRANCH  14  15
ATOM     15  C   UNL     1     169.594 175.146 182.673  1.00  0.00    -0.003 C 
ATOM     16  C   UNL     1     170.317 174.703 183.941  1.00  0.00     0.004 C 
ENDBRANCH  14  15
ENDBRANCH  13  14
ENDBRANCH  12  13
ENDBRANCH  11  12
ENDBRANCH  10  11
ENDBRANCH   1  10
TORSDOF 12
ENDMDL
MODEL 5
REMARK VINA RESULT:    -3.961      0.744      1.529
REMARK INTER + INTRA:          -8.462
REMARK INTER:                  -6.836
REMARK INTRA:                  -1.626
REMARK UNBOUND:                -1.723
REMARK SMILES CCCCCCCCCCCCCC(=O)[O-]
REMARK SMILES IDX 8 1 9 2 10 3 11 4 12 5 13 6 14 7 15 8 16 9 7 10 6 11 5 12
REMARK SMILES IDX 4 13 3 14 2 15 1 16
REMARK H PARENT
REMARK Flexibility Score: inf
ROOT
ATOM      1  C   UNL     1     174.249 174.929 181.923  1.00  0.00     0.000 C 
ENDROOT
BRANCH   1   2
ATOM      2  C   UNL     1     173.017 175.666 182.467  1.00  0.00     0.000 C 
BRANCH   2   3
ATOM      3  C   UNL     1     173.025 177.165 182.126  1.00  0.00     0.000 C 
BRANCH   3   4
ATOM      4  C   UNL     1     171.795 177.904 182.674  1.00  0.00     0.000 C 
BRANCH   4   5
ATOM      5  C   UNL     1     170.796 176.921 183.296  1.00  0.00     0.006 C 
BRANCH   5   6
ATOM      6  C   UNL     1     169.407 177.078 182.669  1.00  0.00     0.053 C 
BRANCH   6   7
ATOM      7  C   UNL     1     169.466 176.826 181.196  1.00  0.00     0.041 C 
ATOM      8  O   UNL     1     169.219 177.756 180.383  1.00  0.00    -0.550 OA
ATOM      9  O   UNL     1     169.745 175.551 180.719  1.00  0.00    -0.550 OA
ENDBRANCH   6   7
ENDBRANCH   5   6
ENDBRANCH   4   5
ENDBRANCH   3   4
ENDBRANCH   2   3
ENDBRANCH   1   2
BRANCH   1  10
ATOM     10  C   UNL     1     175.250 174.629 183.046  1.00  0.00     0.000 C 
BRANCH  10  11
ATOM     11  C   UNL     1     176.615 175.260 182.750  1.00  0.00    -0.000 C 
BRANCH  11  12
ATOM     12  C   UNL     1     176.643 176.736 183.166  1.00  0.00    -0.000 C 
BRANCH  12  13
ATOM     13  C   UNL     1     177.162 177.621 182.022  1.00  0.00    -0.000 C 
BRANCH  13  14
ATOM     14  C   UNL     1     177.018 176.953 180.645  1.00  0.00    -0.000 C 
BRANCH  14  15
ATOM     15  C   UNL     1     175.955 177.630 179.767  1.00  0.00    -0.003 C 
ATOM     16  C   UNL     1     175.389 176.655 178.740  1.00  0.00     0.004 C 
ENDBRANCH  14  15
ENDBRANCH  13  14
ENDBRANCH  12  13
ENDBRANCH  11  12
ENDBRANCH  10  11
ENDBRANCH   1  10
TORSDOF 12
ENDMDL
MODEL 6
REMARK VINA RESULT:    -3.929      1.612      2.242
REMARK INTER + INTRA:          -8.409
REMARK INTER:                  -6.657
REMARK INTRA:                  -1.751
REMARK UNBOUND:                -1.723
REMARK SMILES CCCCCCCCCCCCCC(=O)[O-]
REMARK SMILES IDX 8 1 9 2 10 3 11 4 12 5 13 6 14 7 15 8 16 9 7 10 6 11 5 12
REMARK SMILES IDX 4 13 3 14 2 15 1 16
REMARK H PARENT
REMARK Flexibility Score: inf
ROOT
ATOM      1  C   UNL     1     174.358 174.821 182.048  1.00  0.00     0.000 C 
ENDROOT
BRANCH   1   2
ATOM      2  C   UNL     1     173.061 175.558 182.414  1.00  0.00     0.000 C 
BRANCH   2   3
ATOM      3  C   UNL     1     173.274 177.066 182.618  1.00  0.00     0.000 C 
BRANCH   3   4
ATOM      4  C   UNL     1     172.107 177.908 182.078  1.00  0.00     0.000 C 
BRANCH   4   5
ATOM      5  C   UNL     1     171.115 177.036 181.301  1.00  0.00     0.006 C 
BRANCH   5   6
ATOM      6  C   UNL     1     170.654 177.738 180.019  1.00  0.00     0.053 C 
BRANCH   6   7
ATOM      7  C   UNL     1     171.471 177.285 178.851  1.00  0.00     0.041 C 
ATOM      8  O   UNL     1     172.119 178.121 178.168  1.00  0.00    -0.550 OA
ATOM      9  O   UNL     1     171.479 175.944 178.486  1.00  0.00    -0.550 OA
ENDBRANCH   6   7
ENDBRANCH   5   6
ENDBRANCH   4   5
ENDBRANCH   3   4
ENDBRANCH   2   3
ENDBRANCH   1   2
BRANCH   1  10
ATOM     10  C   UNL     1     175.347 174.837 183.220  1.00  0.00     0.000 C 
BRANCH  10  11
ATOM     11  C   UNL     1     176.692 175.438 182.798  1.00  0.00    -0.000 C 
BRANCH  11  12
ATOM     12  C   UNL     1     176.732 176.947 183.071  1.00  0.00    -0.000 C 
BRANCH  12  13
ATOM     13  C   UNL     1     177.237 177.715 181.839  1.00  0.00    -0.000 C 
BRANCH  13  14
ATOM     14  C   UNL     1     176.964 176.969 180.524  1.00  0.00    -0.000 C 
BRANCH  14  15
ATOM     15  C   UNL     1     175.719 177.494 179.794  1.00  0.00    -0.003 C 
ATOM     16  C   UNL     1     175.180 176.457 178.813  1.00  0.00     0.004 C 
ENDBRANCH  14  15
ENDBRANCH  13  14
ENDBRANCH  12  13
ENDBRANCH  11  12
ENDBRANCH  10  11
ENDBRANCH   1  10
TORSDOF 12
ENDMDL
MODEL 7
REMARK VINA RESULT:    -3.929      1.667      3.587
REMARK INTER + INTRA:          -8.408
REMARK INTER:                  -6.623
REMARK INTRA:                  -1.786
REMARK UNBOUND:                -1.723
REMARK SMILES CCCCCCCCCCCCCC(=O)[O-]
REMARK SMILES IDX 8 1 9 2 10 3 11 4 12 5 13 6 14 7 15 8 16 9 7 10 6 11 5 12
REMARK SMILES IDX 4 13 3 14 2 15 1 16
REMARK H PARENT
REMARK Flexibility Score: inf
ROOT
ATOM      1  C   UNL     1     177.001 176.660 180.991  1.00  0.00     0.000 C 
ENDROOT
BRANCH   1   2
ATOM      2  C   UNL     1     176.775 177.611 179.807  1.00  0.00     0.000 C 
BRANCH   2   3
ATOM      3  C   UNL     1     175.368 177.480 179.202  1.00  0.00     0.000 C 
BRANCH   3   4
ATOM      4  C   UNL     1     174.537 176.373 179.868  1.00  0.00     0.000 C 
BRANCH   4   5
ATOM      5  C   UNL     1     173.435 176.969 180.750  1.00  0.00     0.006 C 
BRANCH   5   6
ATOM      6  C   UNL     1     172.067 176.377 180.397  1.00  0.00     0.053 C 
BRANCH   6   7
ATOM      7  C   UNL     1     171.117 177.459 179.993  1.00  0.00     0.041 C 
ATOM      8  O   UNL     1     170.129 177.740 180.721  1.00  0.00    -0.550 OA
ATOM      9  O   UNL     1     171.293 178.124 178.785  1.00  0.00    -0.550 OA
ENDBRANCH   6   7
ENDBRANCH   5   6
ENDBRANCH   4   5
ENDBRANCH   3   4
ENDBRANCH   2   3
ENDBRANCH   1   2
BRANCH   1  10
ATOM     10  C   UNL     1     177.016 177.429 182.318  1.00  0.00     0.000 C 
BRANCH  10  11
ATOM     11  C   UNL     1     176.171 176.713 183.378  1.00  0.00    -0.000 C 
BRANCH  11  12
ATOM     12  C   UNL     1     176.190 175.194 183.166  1.00  0.00    -0.000 C 
BRANCH  12  13
ATOM     13  C   UNL     1     174.763 174.633 183.078  1.00  0.00    -0.000 C 
BRANCH  13  14
ATOM     14  C   UNL     1     174.650 173.451 182.102  1.00  0.00    -0.000 C 
BRANCH  14  15
ATOM     15  C   UNL     1     176.018 172.868 181.719  1.00  0.00    -0.003 C 
ATOM     16  C   UNL     1     176.193 172.826 180.204  1.00  0.00     0.004 C 
ENDBRANCH  14  15
ENDBRANCH  13  14
ENDBRANCH  12  13
ENDBRANCH  11  12
ENDBRANCH  10  11
ENDBRANCH   1  10
TORSDOF 12
ENDMDL
MODEL 8
REMARK VINA RESULT:    -3.862      3.840      4.976
REMARK INTER + INTRA:          -8.294
REMARK INTER:                  -6.364
REMARK INTRA:                  -1.930
REMARK UNBOUND:                -1.723
REMARK SMILES CCCCCCCCCCCCCC(=O)[O-]
REMARK SMILES IDX 8 1 9 2 10 3 11 4 12 5 13 6 14 7 15 8 16 9 7 10 6 11 5 12
REMARK SMILES IDX 4 13 3 14 2 15 1 16
REMARK H PARENT
REMARK Flexibility Score: inf
ROOT
ATOM      1  C   UNL     1     174.650 176.991 182.883  1.00  0.00     0.000 C 
ENDROOT
BRANCH   1   2
ATOM      2  C   UNL     1     173.514 176.154 182.280  1.00  0.00     0.000 C 
BRANCH   2   3
ATOM      3  C   UNL     1     173.842 174.653 182.239  1.00  0.00     0.000 C 
BRANCH   3   4
ATOM      4  C   UNL     1     173.846 174.085 180.811  1.00  0.00     0.000 C 
BRANCH   4   5
ATOM      5  C   UNL     1     175.216 173.497 180.458  1.00  0.00     0.006 C 
BRANCH   5   6
ATOM      6  C   UNL     1     175.487 172.218 181.257  1.00  0.00     0.053 C 
BRANCH   6   7
ATOM      7  C   UNL     1     176.952 171.917 181.282  1.00  0.00     0.041 C 
ATOM      8  O   UNL     1     177.772 172.786 181.680  1.00  0.00    -0.550 OA
ATOM      9  O   UNL     1     177.418 170.692 180.820  1.00  0.00    -0.550 OA
ENDBRANCH   6   7
ENDBRANCH   5   6
ENDBRANCH   4   5
ENDBRANCH   3   4
ENDBRANCH   2   3
ENDBRANCH   1   2
BRANCH   1  10
ATOM     10  C   UNL     1     175.861 176.112 183.220  1.00  0.00     0.000 C 
BRANCH  10  11
ATOM     11  C   UNL     1     176.980 176.297 182.189  1.00  0.00    -0.000 C 
BRANCH  11  12
ATOM     12  C   UNL     1     177.009 177.736 181.657  1.00  0.00    -0.000 C 
BRANCH  12  13
ATOM     13  C   UNL     1     177.360 177.762 180.162  1.00  0.00    -0.000 C 
BRANCH  13  14
ATOM     14  C   UNL     1     176.415 176.894 179.317  1.00  0.00    -0.000 C 
BRANCH  14  15
ATOM     15  C   UNL     1     174.989 177.460 179.253  1.00  0.00    -0.003 C 
ATOM     16  C   UNL     1     174.230 176.903 178.052  1.00  0.00     0.004 C 
ENDBRANCH  14  15
ENDBRANCH  13  14
ENDBRANCH  12  13
ENDBRANCH  11  12
ENDBRANCH  10  11
ENDBRANCH   1  10
TORSDOF 12
ENDMDL
MODEL 9
REMARK VINA RESULT:    -3.813      1.400      2.456
REMARK INTER + INTRA:          -8.211
REMARK INTER:                  -6.060
REMARK INTRA:                  -2.151
REMARK UNBOUND:                -1.723
REMARK SMILES CCCCCCCCCCCCCC(=O)[O-]
REMARK SMILES IDX 8 1 9 2 10 3 11 4 12 5 13 6 14 7 15 8 16 9 7 10 6 11 5 12
REMARK SMILES IDX 4 13 3 14 2 15 1 16
REMARK H PARENT
REMARK Flexibility Score: inf
ROOT
ATOM      1  C   UNL     1     177.009 175.390 181.715  1.00  0.00     0.000 C 
ENDROOT
BRANCH   1   2
ATOM      2  C   UNL     1     175.958 175.208 182.820  1.00  0.00     0.000 C 
BRANCH   2   3
ATOM      3  C   UNL     1     175.027 176.423 182.957  1.00  0.00     0.000 C 
BRANCH   3   4
ATOM      4  C   UNL     1     173.593 176.127 182.491  1.00  0.00     0.000 C 
BRANCH   4   5
ATOM      5  C   UNL     1     172.795 177.423 182.313  1.00  0.00     0.006 C 
BRANCH   5   6
ATOM      6  C   UNL     1     171.869 177.336 181.096  1.00  0.00     0.053 C 
BRANCH   6   7
ATOM      7  C   UNL     1     170.437 177.322 181.527  1.00  0.00     0.041 C 
ATOM      8  O   UNL     1     170.126 176.925 182.680  1.00  0.00    -0.550 OA
ATOM      9  O   UNL     1     169.439 177.701 180.637  1.00  0.00    -0.550 OA
ENDBRANCH   6   7
ENDBRANCH   5   6
ENDBRANCH   4   5
ENDBRANCH   3   4
ENDBRANCH   2   3
ENDBRANCH   1   2
BRANCH   1  10
ATOM     10  C   UNL     1     177.092 176.856 181.272  1.00  0.00     0.000 C 
BRANCH  10  11
ATOM     11  C   UNL     1     176.839 176.992 179.767  1.00  0.00    -0.000 C 
BRANCH  11  12
ATOM     12  C   UNL     1     175.533 177.749 179.494  1.00  0.00    -0.000 C 
BRANCH  12  13
ATOM     13  C   UNL     1     174.587 176.915 178.616  1.00  0.00    -0.000 C 
BRANCH  13  14
ATOM     14  C   UNL     1     175.047 175.456 178.470  1.00  0.00    -0.000 C 
BRANCH  14  15
ATOM     15  C   UNL     1     174.183 174.480 179.283  1.00  0.00    -0.003 C 
ATOM     16  C   UNL     1     174.929 173.175 179.547  1.00  0.00     0.004 C 
ENDBRANCH  14  15
ENDBRANCH  13  14
ENDBRANCH  12  13
ENDBRANCH  11  12
ENDBRANCH  10  11
ENDBRANCH   1  10
TORSDOF 12
ENDMDL
