MODEL 1
REMARK VINA RESULT:    -7.113      0.000      0.000
REMARK INTER + INTRA:          -7.895
REMARK INTER:                  -7.737
REMARK INTRA:                  -0.158
REMARK UNBOUND:                -0.158
REMARK SMILES CC(=O)[C@@H]1CC[C@@H]2[C@H]3CC=C4C[C@H](O)CC[C@]4(C)[C@H]3CC[C@@]21C
REMARK SMILES IDX 4 1 5 2 6 3 7 4 22 5 21 6 20 7 19 8 8 9 9 10 10 11 11 12
REMARK SMILES IDX 17 13 16 14 15 15 13 16 12 17 18 18 23 19 2 20 1 21 3 22
REMARK SMILES IDX 14 23
REMARK H PARENT 14 24
REMARK Flexibility Score: inf
ROOT
ATOM      1  C   UNL     1     115.978 123.193 125.476  1.00  0.00     0.062 C 
ATOM      2  C   UNL     1     116.315 123.334 123.992  1.00  0.00     0.012 C 
ATOM      3  C   UNL     1     115.971 121.997 123.359  1.00  0.00     0.005 C 
ATOM      4  C   UNL     1     116.161 120.924 124.449  1.00  0.00    -0.001 C 
ATOM      5  C   UNL     1     116.250 121.688 125.810  1.00  0.00    -0.020 C 
ATOM      6  C   UNL     1     115.330 121.108 126.929  1.00  0.00     0.008 C 
ATOM      7  C   UNL     1     113.937 120.591 126.509  1.00  0.00     0.005 C 
ATOM      8  C   UNL     1     113.740 120.256 125.001  1.00  0.00     0.003 C 
ATOM      9  C   UNL     1     115.073 119.819 124.357  1.00  0.00     0.000 C 
ATOM     10  C   UNL     1     115.524 118.471 124.948  1.00  0.00     0.031 C 
ATOM     11  C   UNL     1     114.428 117.446 124.866  1.00  0.00    -0.027 C 
ATOM     12  C   UNL     1     113.109 117.754 124.826  1.00  0.00    -0.065 C 
ATOM     13  C   UNL     1     112.595 119.197 124.719  1.00  0.00    -0.008 C 
ATOM     14  C   UNL     1     112.052 119.379 123.262  1.00  0.00     0.014 C 
ATOM     15  C   UNL     1     111.084 118.261 122.803  1.00  0.00     0.033 C 
ATOM     16  C   UNL     1     111.653 116.846 123.026  1.00  0.00     0.118 C 
ATOM     17  C   UNL     1     112.126 116.658 124.478  1.00  0.00     0.063 C 
ATOM     18  C   UNL     1     111.410 119.421 125.704  1.00  0.00     0.016 C 
ATOM     19  C   UNL     1     117.709 121.585 126.333  1.00  0.00     0.012 C 
ENDROOT
BRANCH   1  20
ATOM     20  C   UNL     1     114.574 123.701 125.783  1.00  0.00     0.133 C 
ATOM     21  C   UNL     1     114.246 124.274 127.130  1.00  0.00     0.088 C 
ATOM     22  O   UNL     1     113.702 123.687 124.927  1.00  0.00    -0.300 OA
ENDBRANCH   1  20
BRANCH  16  23
ATOM     23  O   UNL     1     112.717 116.626 122.134  1.00  0.00    -0.393 OA
ATOM     24  H   UNL     1     113.475 117.183 122.449  1.00  0.00     0.210 HD
ENDBRANCH  16  23
TORSDOF 2
ENDMDL
MODEL 2
REMARK VINA RESULT:    -7.108      1.499      6.002
REMARK INTER + INTRA:          -7.889
REMARK INTER:                  -7.726
REMARK INTRA:                  -0.163
REMARK UNBOUND:                -0.158
REMARK SMILES CC(=O)[C@@H]1CC[C@@H]2[C@H]3CC=C4C[C@H](O)CC[C@]4(C)[C@H]3CC[C@@]21C
REMARK SMILES IDX 4 1 5 2 6 3 7 4 22 5 21 6 20 7 19 8 8 9 9 10 10 11 11 12
REMARK SMILES IDX 17 13 16 14 15 15 13 16 12 17 18 18 23 19 2 20 1 21 3 22
REMARK SMILES IDX 14 23
REMARK H PARENT 14 24
REMARK Flexibility Score: inf
ROOT
ATOM      1  C   UNL     1     111.921 117.705 124.711  1.00  0.00     0.062 C 
ATOM      2  C   UNL     1     111.447 118.236 123.358  1.00  0.00     0.012 C 
ATOM      3  C   UNL     1     112.166 119.558 123.156  1.00  0.00     0.005 C 
ATOM      4  C   UNL     1     112.424 120.146 124.557  1.00  0.00    -0.001 C 
ATOM      5  C   UNL     1     112.189 118.982 125.575  1.00  0.00    -0.020 C 
ATOM      6  C   UNL     1     113.330 118.813 126.626  1.00  0.00     0.008 C 
ATOM      7  C   UNL     1     114.780 119.037 126.144  1.00  0.00     0.005 C 
ATOM      8  C   UNL     1     114.963 119.847 124.828  1.00  0.00     0.003 C 
ATOM      9  C   UNL     1     113.807 120.850 124.635  1.00  0.00     0.000 C 
ATOM     10  C   UNL     1     113.873 121.942 125.717  1.00  0.00     0.031 C 
ATOM     11  C   UNL     1     115.237 122.570 125.775  1.00  0.00    -0.027 C 
ATOM     12  C   UNL     1     116.373 121.943 125.383  1.00  0.00    -0.065 C 
ATOM     13  C   UNL     1     116.370 120.567 124.703  1.00  0.00    -0.008 C 
ATOM     14  C   UNL     1     116.712 120.805 123.194  1.00  0.00     0.014 C 
ATOM     15  C   UNL     1     117.959 121.692 122.959  1.00  0.00     0.033 C 
ATOM     16  C   UNL     1     117.909 123.017 123.748  1.00  0.00     0.118 C 
ATOM     17  C   UNL     1     117.635 122.766 125.241  1.00  0.00     0.063 C 
ATOM     18  C   UNL     1     117.484 119.665 125.311  1.00  0.00     0.016 C 
ATOM     19  C   UNL     1     110.889 119.285 126.371  1.00  0.00     0.012 C 
ENDROOT
BRANCH   1  20
ATOM     20  C   UNL     1     113.096 116.746 124.556  1.00  0.00     0.133 C 
ATOM     21  C   UNL     1     113.288 115.610 125.517  1.00  0.00     0.088 C 
ATOM     22  O   UNL     1     113.880 116.862 123.625  1.00  0.00    -0.300 OA
ENDBRANCH   1  20
BRANCH  16  23
ATOM     23  O   UNL     1     116.915 123.847 123.201  1.00  0.00    -0.393 OA
ATOM     24  H   UNL     1     116.069 123.628 123.671  1.00  0.00     0.210 HD
ENDBRANCH  16  23
TORSDOF 2
ENDMDL
MODEL 3
REMARK VINA RESULT:    -6.875      2.661      5.849
REMARK INTER + INTRA:          -7.636
REMARK INTER:                  -7.473
REMARK INTRA:                  -0.163
REMARK UNBOUND:                -0.158
REMARK SMILES CC(=O)[C@@H]1CC[C@@H]2[C@H]3CC=C4C[C@H](O)CC[C@]4(C)[C@H]3CC[C@@]21C
REMARK SMILES IDX 4 1 5 2 6 3 7 4 22 5 21 6 20 7 19 8 8 9 9 10 10 11 11 12
REMARK SMILES IDX 17 13 16 14 15 15 13 16 12 17 18 18 23 19 2 20 1 21 3 22
REMARK SMILES IDX 14 23
REMARK H PARENT 14 24
REMARK Flexibility Score: inf
ROOT
ATOM      1  C   UNL     1     114.217 116.850 128.242  1.00  0.00     0.062 C 
ATOM      2  C   UNL     1     115.355 116.340 127.359  1.00  0.00     0.012 C 
ATOM      3  C   UNL     1     115.508 117.362 126.247  1.00  0.00     0.005 C 
ATOM      4  C   UNL     1     114.119 117.992 126.024  1.00  0.00    -0.001 C 
ATOM      5  C   UNL     1     113.251 117.599 127.264  1.00  0.00    -0.020 C 
ATOM      6  C   UNL     1     112.488 118.795 127.914  1.00  0.00     0.008 C 
ATOM      7  C   UNL     1     113.217 120.156 127.974  1.00  0.00     0.005 C 
ATOM      8  C   UNL     1     114.413 120.353 126.997  1.00  0.00     0.003 C 
ATOM      9  C   UNL     1     114.223 119.511 125.718  1.00  0.00     0.000 C 
ATOM     10  C   UNL     1     113.031 120.051 124.907  1.00  0.00     0.031 C 
ATOM     11  C   UNL     1     113.162 121.529 124.666  1.00  0.00    -0.027 C 
ATOM     12  C   UNL     1     113.862 122.365 125.470  1.00  0.00    -0.065 C 
ATOM     13  C   UNL     1     114.716 121.868 126.644  1.00  0.00    -0.008 C 
ATOM     14  C   UNL     1     116.213 122.023 126.214  1.00  0.00     0.014 C 
ATOM     15  C   UNL     1     116.566 123.417 125.640  1.00  0.00     0.033 C 
ATOM     16  C   UNL     1     115.603 123.867 124.523  1.00  0.00     0.118 C 
ATOM     17  C   UNL     1     114.137 123.770 124.979  1.00  0.00     0.063 C 
ATOM     18  C   UNL     1     114.482 122.762 127.897  1.00  0.00     0.016 C 
ATOM     19  C   UNL     1     112.174 116.579 126.804  1.00  0.00     0.012 C 
ENDROOT
BRANCH   1  20
ATOM     20  C   UNL     1     114.742 117.667 129.417  1.00  0.00     0.133 C 
ATOM     21  C   UNL     1     114.002 117.693 130.722  1.00  0.00     0.088 C 
ATOM     22  O   UNL     1     115.794 118.284 129.330  1.00  0.00    -0.300 OA
ENDBRANCH   1  20
BRANCH  16  23
ATOM     23  O   UNL     1     115.812 123.075 123.381  1.00  0.00    -0.393 OA
ATOM     24  H   UNL     1     116.519 123.523 122.848  1.00  0.00     0.210 HD
ENDBRANCH  16  23
TORSDOF 2
ENDMDL
MODEL 4
REMARK VINA RESULT:    -6.807      1.745      6.184
REMARK INTER + INTRA:          -7.563
REMARK INTER:                  -7.402
REMARK INTRA:                  -0.161
REMARK UNBOUND:                -0.158
REMARK SMILES CC(=O)[C@@H]1CC[C@@H]2[C@H]3CC=C4C[C@H](O)CC[C@]4(C)[C@H]3CC[C@@]21C
REMARK SMILES IDX 4 1 5 2 6 3 7 4 22 5 21 6 20 7 19 8 8 9 9 10 10 11 11 12
REMARK SMILES IDX 17 13 16 14 15 15 13 16 12 17 18 18 23 19 2 20 1 21 3 22
REMARK SMILES IDX 14 23
REMARK H PARENT 14 24
REMARK Flexibility Score: inf
ROOT
ATOM      1  C   UNL     1     113.165 115.882 125.526  1.00  0.00     0.062 C 
ATOM      2  C   UNL     1     112.003 116.305 124.628  1.00  0.00     0.012 C 
ATOM      3  C   UNL     1     111.839 117.800 124.839  1.00  0.00     0.005 C 
ATOM      4  C   UNL     1     112.306 118.103 126.276  1.00  0.00    -0.001 C 
ATOM      5  C   UNL     1     113.092 116.841 126.761  1.00  0.00    -0.020 C 
ATOM      6  C   UNL     1     114.478 117.160 127.404  1.00  0.00     0.008 C 
ATOM      7  C   UNL     1     115.308 118.301 126.776  1.00  0.00     0.005 C 
ATOM      8  C   UNL     1     114.535 119.324 125.892  1.00  0.00     0.003 C 
ATOM      9  C   UNL     1     113.069 119.454 126.356  1.00  0.00     0.000 C 
ATOM     10  C   UNL     1     113.015 120.102 127.750  1.00  0.00     0.031 C 
ATOM     11  C   UNL     1     113.794 121.387 127.784  1.00  0.00    -0.027 C 
ATOM     12  C   UNL     1     114.829 121.664 126.955  1.00  0.00    -0.065 C 
ATOM     13  C   UNL     1     115.230 120.746 125.792  1.00  0.00    -0.008 C 
ATOM     14  C   UNL     1     114.785 121.462 124.473  1.00  0.00     0.014 C 
ATOM     15  C   UNL     1     115.230 122.941 124.375  1.00  0.00     0.033 C 
ATOM     16  C   UNL     1     114.856 123.764 125.625  1.00  0.00     0.118 C 
ATOM     17  C   UNL     1     115.354 123.082 126.910  1.00  0.00     0.063 C 
ATOM     18  C   UNL     1     116.777 120.578 125.748  1.00  0.00     0.016 C 
ATOM     19  C   UNL     1     112.246 116.128 127.852  1.00  0.00     0.012 C 
ENDROOT
BRANCH   1  20
ATOM     20  C   UNL     1     114.487 115.874 124.766  1.00  0.00     0.133 C 
ATOM     21  C   UNL     1     115.574 114.907 125.133  1.00  0.00     0.088 C 
ATOM     22  O   UNL     1     114.670 116.627 123.822  1.00  0.00    -0.300 OA
ENDBRANCH   1  20
BRANCH  16  23
ATOM     23  O   UNL     1     113.461 123.934 125.671  1.00  0.00    -0.393 OA
ATOM     24  H   UNL     1     113.136 123.417 126.452  1.00  0.00     0.210 HD
ENDBRANCH  16  23
TORSDOF 2
ENDMDL
MODEL 5
REMARK VINA RESULT:    -6.796      1.874      6.046
REMARK INTER + INTRA:          -7.550
REMARK INTER:                  -7.389
REMARK INTRA:                  -0.161
REMARK UNBOUND:                -0.158
REMARK SMILES CC(=O)[C@@H]1CC[C@@H]2[C@H]3CC=C4C[C@H](O)CC[C@]4(C)[C@H]3CC[C@@]21C
REMARK SMILES IDX 4 1 5 2 6 3 7 4 22 5 21 6 20 7 19 8 8 9 9 10 10 11 11 12
REMARK SMILES IDX 17 13 16 14 15 15 13 16 12 17 18 18 23 19 2 20 1 21 3 22
REMARK SMILES IDX 14 23
REMARK H PARENT 14 24
REMARK Flexibility Score: inf
ROOT
ATOM      1  C   UNL     1     112.402 117.045 126.895  1.00  0.00     0.062 C 
ATOM      2  C   UNL     1     111.415 117.829 127.759  1.00  0.00     0.012 C 
ATOM      3  C   UNL     1     112.069 119.174 128.022  1.00  0.00     0.005 C 
ATOM      4  C   UNL     1     113.593 118.942 128.000  1.00  0.00    -0.001 C 
ATOM      5  C   UNL     1     113.817 117.537 127.351  1.00  0.00    -0.020 C 
ATOM      6  C   UNL     1     114.893 117.519 126.221  1.00  0.00     0.008 C 
ATOM      7  C   UNL     1     114.955 118.741 125.279  1.00  0.00     0.005 C 
ATOM      8  C   UNL     1     114.295 120.055 125.791  1.00  0.00     0.003 C 
ATOM      9  C   UNL     1     114.342 120.128 127.332  1.00  0.00     0.000 C 
ATOM     10  C   UNL     1     115.799 120.272 127.807  1.00  0.00     0.031 C 
ATOM     11  C   UNL     1     116.489 121.411 127.110  1.00  0.00    -0.027 C 
ATOM     12  C   UNL     1     116.132 121.874 125.887  1.00  0.00    -0.065 C 
ATOM     13  C   UNL     1     114.888 121.373 125.139  1.00  0.00    -0.008 C 
ATOM     14  C   UNL     1     113.826 122.520 125.205  1.00  0.00     0.014 C 
ATOM     15  C   UNL     1     114.370 123.911 124.794  1.00  0.00     0.033 C 
ATOM     16  C   UNL     1     115.667 124.291 125.538  1.00  0.00     0.118 C 
ATOM     17  C   UNL     1     116.726 123.182 125.414  1.00  0.00     0.063 C 
ATOM     18  C   UNL     1     115.228 121.117 123.642  1.00  0.00     0.016 C 
ATOM     19  C   UNL     1     114.312 116.562 128.455  1.00  0.00     0.012 C 
ENDROOT
BRANCH   1  20
ATOM     20  C   UNL     1     112.091 117.197 125.410  1.00  0.00     0.133 C 
ATOM     21  C   UNL     1     112.368 116.075 124.453  1.00  0.00     0.088 C 
ATOM     22  O   UNL     1     111.576 118.218 124.980  1.00  0.00    -0.300 OA
ENDBRANCH   1  20
BRANCH  16  23
ATOM     23  O   UNL     1     115.373 124.536 126.890  1.00  0.00    -0.393 OA
ATOM     24  H   UNL     1     114.389 124.653 126.953  1.00  0.00     0.210 HD
ENDBRANCH  16  23
TORSDOF 2
ENDMDL
MODEL 6
REMARK VINA RESULT:    -6.723      3.338      4.772
REMARK INTER + INTRA:          -7.471
REMARK INTER:                  -7.306
REMARK INTRA:                  -0.165
REMARK UNBOUND:                -0.158
REMARK SMILES CC(=O)[C@@H]1CC[C@@H]2[C@H]3CC=C4C[C@H](O)CC[C@]4(C)[C@H]3CC[C@@]21C
REMARK SMILES IDX 4 1 5 2 6 3 7 4 22 5 21 6 20 7 19 8 8 9 9 10 10 11 11 12
REMARK SMILES IDX 17 13 16 14 15 15 13 16 12 17 18 18 23 19 2 20 1 21 3 22
REMARK SMILES IDX 14 23
REMARK H PARENT 14 24
REMARK Flexibility Score: inf
ROOT
ATOM      1  C   UNL     1     116.001 121.996 125.422  1.00  0.00     0.062 C 
ATOM      2  C   UNL     1     116.415 122.673 126.728  1.00  0.00     0.012 C 
ATOM      3  C   UNL     1     115.554 122.048 127.811  1.00  0.00     0.005 C 
ATOM      4  C   UNL     1     114.230 121.627 127.144  1.00  0.00    -0.001 C 
ATOM      5  C   UNL     1     114.480 121.670 125.601  1.00  0.00    -0.020 C 
ATOM      6  C   UNL     1     114.010 120.390 124.843  1.00  0.00     0.008 C 
ATOM      7  C   UNL     1     114.214 119.030 125.546  1.00  0.00     0.005 C 
ATOM      8  C   UNL     1     114.423 119.064 127.088  1.00  0.00     0.003 C 
ATOM      9  C   UNL     1     113.707 120.280 127.713  1.00  0.00     0.000 C 
ATOM     10  C   UNL     1     112.182 120.116 127.581  1.00  0.00     0.031 C 
ATOM     11  C   UNL     1     111.730 118.785 128.115  1.00  0.00    -0.027 C 
ATOM     12  C   UNL     1     112.521 117.687 128.172  1.00  0.00    -0.065 C 
ATOM     13  C   UNL     1     114.016 117.721 127.825  1.00  0.00    -0.008 C 
ATOM     14  C   UNL     1     114.799 117.599 129.175  1.00  0.00     0.014 C 
ATOM     15  C   UNL     1     114.322 116.437 130.081  1.00  0.00     0.033 C 
ATOM     16  C   UNL     1     112.797 116.438 130.304  1.00  0.00     0.118 C 
ATOM     17  C   UNL     1     112.037 116.494 128.968  1.00  0.00     0.063 C 
ATOM     18  C   UNL     1     114.391 116.496 126.941  1.00  0.00     0.016 C 
ATOM     19  C   UNL     1     113.678 122.861 125.009  1.00  0.00     0.012 C 
ENDROOT
BRANCH   1  20
ATOM     20  C   UNL     1     116.903 120.811 125.094  1.00  0.00     0.133 C 
ATOM     21  C   UNL     1     117.192 120.442 123.669  1.00  0.00     0.088 C 
ATOM     22  O   UNL     1     117.436 120.165 125.984  1.00  0.00    -0.300 OA
ENDBRANCH   1  20
BRANCH  16  23
ATOM     23  O   UNL     1     112.445 117.533 131.112  1.00  0.00    -0.393 OA
ATOM     24  H   UNL     1     111.533 117.810 130.838  1.00  0.00     0.210 HD
ENDBRANCH  16  23
TORSDOF 2
ENDMDL
MODEL 7
REMARK VINA RESULT:    -6.695      2.129      6.023
REMARK INTER + INTRA:          -7.440
REMARK INTER:                  -7.278
REMARK INTRA:                  -0.162
REMARK UNBOUND:                -0.158
REMARK SMILES CC(=O)[C@@H]1CC[C@@H]2[C@H]3CC=C4C[C@H](O)CC[C@]4(C)[C@H]3CC[C@@]21C
REMARK SMILES IDX 4 1 5 2 6 3 7 4 22 5 21 6 20 7 19 8 8 9 9 10 10 11 11 12
REMARK SMILES IDX 17 13 16 14 15 15 13 16 12 17 18 18 23 19 2 20 1 21 3 22
REMARK SMILES IDX 14 23
REMARK H PARENT 14 24
REMARK Flexibility Score: inf
ROOT
ATOM      1  C   UNL     1     112.893 117.767 126.899  1.00  0.00     0.062 C 
ATOM      2  C   UNL     1     113.081 117.178 125.502  1.00  0.00     0.012 C 
ATOM      3  C   UNL     1     113.574 118.321 124.632  1.00  0.00     0.005 C 
ATOM      4  C   UNL     1     112.993 119.618 125.227  1.00  0.00    -0.001 C 
ATOM      5  C   UNL     1     112.475 119.256 126.657  1.00  0.00    -0.020 C 
ATOM      6  C   UNL     1     112.944 120.240 127.774  1.00  0.00     0.008 C 
ATOM      7  C   UNL     1     114.380 120.799 127.672  1.00  0.00     0.005 C 
ATOM      8  C   UNL     1     115.062 120.728 126.274  1.00  0.00     0.003 C 
ATOM      9  C   UNL     1     114.010 120.789 125.146  1.00  0.00     0.000 C 
ATOM     10  C   UNL     1     113.342 122.176 125.127  1.00  0.00     0.031 C 
ATOM     11  C   UNL     1     114.368 123.274 125.082  1.00  0.00    -0.027 C 
ATOM     12  C   UNL     1     115.632 123.144 125.551  1.00  0.00    -0.065 C 
ATOM     13  C   UNL     1     116.199 121.810 126.054  1.00  0.00    -0.008 C 
ATOM     14  C   UNL     1     117.207 121.305 124.968  1.00  0.00     0.014 C 
ATOM     15  C   UNL     1     118.236 122.371 124.516  1.00  0.00     0.033 C 
ATOM     16  C   UNL     1     117.578 123.704 124.108  1.00  0.00     0.118 C 
ATOM     17  C   UNL     1     116.638 124.222 125.210  1.00  0.00     0.063 C 
ATOM     18  C   UNL     1     116.989 122.026 127.378  1.00  0.00     0.016 C 
ATOM     19  C   UNL     1     110.922 119.305 126.641  1.00  0.00     0.012 C 
ENDROOT
BRANCH   1  20
ATOM     20  C   UNL     1     114.127 117.554 127.768  1.00  0.00     0.133 C 
ATOM     21  C   UNL     1     113.998 117.390 129.254  1.00  0.00     0.088 C 
ATOM     22  O   UNL     1     115.239 117.476 127.267  1.00  0.00    -0.300 OA
ENDBRANCH   1  20
BRANCH  16  23
ATOM     23  O   UNL     1     116.871 123.526 122.906  1.00  0.00    -0.393 OA
ATOM     24  H   UNL     1     115.927 123.771 123.091  1.00  0.00     0.210 HD
ENDBRANCH  16  23
TORSDOF 2
ENDMDL
MODEL 8
REMARK VINA RESULT:    -6.532      3.025      5.420
REMARK INTER + INTRA:          -7.263
REMARK INTER:                  -7.110
REMARK INTRA:                  -0.154
REMARK UNBOUND:                -0.158
REMARK SMILES CC(=O)[C@@H]1CC[C@@H]2[C@H]3CC=C4C[C@H](O)CC[C@]4(C)[C@H]3CC[C@@]21C
REMARK SMILES IDX 4 1 5 2 6 3 7 4 22 5 21 6 20 7 19 8 8 9 9 10 10 11 11 12
REMARK SMILES IDX 17 13 16 14 15 15 13 16 12 17 18 18 23 19 2 20 1 21 3 22
REMARK SMILES IDX 14 23
REMARK H PARENT 14 24
REMARK Flexibility Score: inf
ROOT
ATOM      1  C   UNL     1     112.965 119.023 128.133  1.00  0.00     0.062 C 
ATOM      2  C   UNL     1     112.739 117.898 129.142  1.00  0.00     0.012 C 
ATOM      3  C   UNL     1     112.802 116.607 128.345  1.00  0.00     0.005 C 
ATOM      4  C   UNL     1     112.323 116.938 126.918  1.00  0.00    -0.001 C 
ATOM      5  C   UNL     1     112.344 118.497 126.795  1.00  0.00    -0.020 C 
ATOM      6  C   UNL     1     113.055 119.027 125.511  1.00  0.00     0.008 C 
ATOM      7  C   UNL     1     114.314 118.272 125.032  1.00  0.00     0.005 C 
ATOM      8  C   UNL     1     114.500 116.818 125.557  1.00  0.00     0.003 C 
ATOM      9  C   UNL     1     113.135 116.159 125.847  1.00  0.00     0.000 C 
ATOM     10  C   UNL     1     112.364 115.948 124.533  1.00  0.00     0.031 C 
ATOM     11  C   UNL     1     113.202 115.220 123.520  1.00  0.00    -0.027 C 
ATOM     12  C   UNL     1     114.557 115.241 123.507  1.00  0.00    -0.065 C 
ATOM     13  C   UNL     1     115.388 115.901 124.617  1.00  0.00    -0.008 C 
ATOM     14  C   UNL     1     116.026 114.743 125.455  1.00  0.00     0.014 C 
ATOM     15  C   UNL     1     116.737 113.663 124.604  1.00  0.00     0.033 C 
ATOM     16  C   UNL     1     115.853 113.119 123.464  1.00  0.00     0.118 C 
ATOM     17  C   UNL     1     115.282 114.263 122.609  1.00  0.00     0.063 C 
ATOM     18  C   UNL     1     116.545 116.738 123.997  1.00  0.00     0.016 C 
ATOM     19  C   UNL     1     110.876 119.003 126.735  1.00  0.00     0.012 C 
ENDROOT
BRANCH   1  20
ATOM     20  C   UNL     1     114.431 119.435 128.071  1.00  0.00     0.133 C 
ATOM     21  C   UNL     1     114.817 120.834 127.691  1.00  0.00     0.088 C 
ATOM     22  O   UNL     1     115.316 118.645 128.366  1.00  0.00    -0.300 OA
ENDBRANCH   1  20
BRANCH  16  23
ATOM     23  O   UNL     1     114.810 112.350 124.010  1.00  0.00    -0.393 OA
ATOM     24  H   UNL     1     115.193 111.855 124.780  1.00  0.00     0.210 HD
ENDBRANCH  16  23
TORSDOF 2
ENDMDL
MODEL 9
REMARK VINA RESULT:    -6.211      2.257      3.706
REMARK INTER + INTRA:          -6.914
REMARK INTER:                  -6.835
REMARK INTRA:                  -0.079
REMARK UNBOUND:                -0.158
REMARK SMILES CC(=O)[C@@H]1CC[C@@H]2[C@H]3CC=C4C[C@H](O)CC[C@]4(C)[C@H]3CC[C@@]21C
REMARK SMILES IDX 4 1 5 2 6 3 7 4 22 5 21 6 20 7 19 8 8 9 9 10 10 11 11 12
REMARK SMILES IDX 17 13 16 14 15 15 13 16 12 17 18 18 23 19 2 20 1 21 3 22
REMARK SMILES IDX 14 23
REMARK H PARENT 14 24
REMARK Flexibility Score: inf
ROOT
ATOM      1  C   UNL     1     116.586 123.208 126.198  1.00  0.00     0.062 C 
ATOM      2  C   UNL     1     115.947 123.639 127.518  1.00  0.00     0.012 C 
ATOM      3  C   UNL     1     114.761 122.714 127.726  1.00  0.00     0.005 C 
ATOM      4  C   UNL     1     114.262 122.303 126.327  1.00  0.00    -0.001 C 
ATOM      5  C   UNL     1     115.396 122.691 125.322  1.00  0.00    -0.020 C 
ATOM      6  C   UNL     1     115.783 121.554 124.326  1.00  0.00     0.008 C 
ATOM      7  C   UNL     1     115.796 120.108 124.868  1.00  0.00     0.005 C 
ATOM      8  C   UNL     1     114.993 119.843 126.176  1.00  0.00     0.003 C 
ATOM      9  C   UNL     1     113.805 120.819 126.298  1.00  0.00     0.000 C 
ATOM     10  C   UNL     1     112.768 120.524 125.199  1.00  0.00     0.031 C 
ATOM     11  C   UNL     1     112.382 119.071 125.190  1.00  0.00    -0.027 C 
ATOM     12  C   UNL     1     113.181 118.076 125.644  1.00  0.00    -0.065 C 
ATOM     13  C   UNL     1     114.519 118.340 126.349  1.00  0.00    -0.008 C 
ATOM     14  C   UNL     1     114.303 118.025 127.867  1.00  0.00     0.014 C 
ATOM     15  C   UNL     1     113.633 116.656 128.140  1.00  0.00     0.033 C 
ATOM     16  C   UNL     1     112.341 116.448 127.325  1.00  0.00     0.118 C 
ATOM     17  C   UNL     1     112.580 116.699 125.826  1.00  0.00     0.063 C 
ATOM     18  C   UNL     1     115.612 117.373 125.809  1.00  0.00     0.016 C 
ATOM     19  C   UNL     1     114.899 123.887 124.464  1.00  0.00     0.012 C 
ENDROOT
BRANCH   1  20
ATOM     20  C   UNL     1     117.725 122.220 126.423  1.00  0.00     0.133 C 
ATOM     21  C   UNL     1     117.790 121.401 127.678  1.00  0.00     0.088 C 
ATOM     22  O   UNL     1     118.584 122.050 125.570  1.00  0.00    -0.300 OA
ENDBRANCH   1  20
BRANCH  16  23
ATOM     23  O   UNL     1     111.340 117.307 127.811  1.00  0.00    -0.393 OA
ATOM     24  H   UNL     1     110.650 116.733 128.233  1.00  0.00     0.210 HD
ENDBRANCH  16  23
TORSDOF 2
ENDMDL
