MODEL 1
REMARK VINA RESULT:    -6.233      0.000      0.000
REMARK INTER + INTRA:          -9.852
REMARK INTER:                  -8.965
REMARK INTRA:                  -0.887
REMARK UNBOUND:                -0.887
REMARK SMILES CC(C)=CCCC(C)=CCCC(C)=CCO
REMARK SMILES IDX 10 1 9 2 7 3 8 4 6 5 5 6 4 7 1 8 2 9 3 10 11 11 12 12 14 13
REMARK SMILES IDX 13 14 15 15 16 16
REMARK H PARENT 16 17
REMARK Flexibility Score: inf
ROOT
ATOM      1  C   UNL     1      24.022 140.344 352.921  1.00  0.00     0.032 C 
ENDROOT
BRANCH   1   2
ATOM      2  C   UNL     1      23.093 141.305 353.620  1.00  0.00    -0.028 C 
ATOM      3  C   UNL     1      22.260 142.161 352.986  1.00  0.00    -0.077 C 
ATOM      4  C   UNL     1      22.226 142.273 351.479  1.00  0.00     0.039 C 
BRANCH   3   5
ATOM      5  C   UNL     1      21.350 143.046 353.810  1.00  0.00     0.034 C 
BRANCH   5   6
ATOM      6  C   UNL     1      20.012 142.349 354.080  1.00  0.00     0.032 C 
BRANCH   6   7
ATOM      7  C   UNL     1      18.910 143.361 354.269  1.00  0.00    -0.028 C 
ATOM      8  C   UNL     1      18.368 143.465 351.825  1.00  0.00     0.039 C 
ATOM      9  C   UNL     1      18.142 143.848 353.267  1.00  0.00    -0.080 C 
ATOM     10  C   UNL     1      17.048 144.838 353.574  1.00  0.00     0.039 C 
ENDBRANCH   6   7
ENDBRANCH   5   6
ENDBRANCH   3   5
ENDBRANCH   1   2
BRANCH   1  11
ATOM     11  C   UNL     1      23.583 138.895 353.156  1.00  0.00     0.034 C 
BRANCH  11  12
ATOM     12  C   UNL     1      23.735 138.077 351.890  1.00  0.00    -0.075 C 
ATOM     13  C   UNL     1      24.640 137.082 351.766  1.00  0.00    -0.000 C 
ATOM     14  C   UNL     1      22.882 138.427 350.697  1.00  0.00     0.039 C 
BRANCH  13  15
ATOM     15  C   UNL     1      25.562 136.643 352.875  1.00  0.00     0.183 C 
BRANCH  15  16
ATOM     16  O   UNL     1      24.949 135.651 353.652  1.00  0.00    -0.392 OA
ATOM     17  H   UNL     1      24.001 135.603 353.356  1.00  0.00     0.210 HD
ENDBRANCH  15  16
ENDBRANCH  13  15
ENDBRANCH  11  12
ENDBRANCH   1  11
TORSDOF 8
ENDMDL
MODEL 2
REMARK VINA RESULT:    -6.156      3.588      4.898
REMARK INTER + INTRA:          -9.742
REMARK INTER:                  -8.933
REMARK INTRA:                  -0.809
REMARK UNBOUND:                -0.887
REMARK SMILES CC(C)=CCCC(C)=CCCC(C)=CCO
REMARK SMILES IDX 10 1 9 2 7 3 8 4 6 5 5 6 4 7 1 8 2 9 3 10 11 11 12 12 14 13
REMARK SMILES IDX 13 14 15 15 16 16
REMARK H PARENT 16 17
REMARK Flexibility Score: inf
ROOT
ATOM      1  C   UNL     1      22.234 142.512 350.522  1.00  0.00     0.032 C 
ENDROOT
BRANCH   1   2
ATOM      2  C   UNL     1      21.464 142.974 351.734  1.00  0.00    -0.028 C 
ATOM      3  C   UNL     1      21.598 142.448 352.972  1.00  0.00    -0.077 C 
ATOM      4  C   UNL     1      22.517 141.280 353.248  1.00  0.00     0.039 C 
BRANCH   3   5
ATOM      5  C   UNL     1      20.791 143.033 354.111  1.00  0.00     0.034 C 
BRANCH   5   6
ATOM      6  C   UNL     1      19.350 142.513 354.080  1.00  0.00     0.032 C 
BRANCH   6   7
ATOM      7  C   UNL     1      18.370 143.640 354.288  1.00  0.00    -0.028 C 
ATOM      8  C   UNL     1      18.073 144.048 351.835  1.00  0.00     0.039 C 
ATOM      9  C   UNL     1      17.764 144.318 353.286  1.00  0.00    -0.080 C 
ATOM     10  C   UNL     1      16.778 145.411 353.610  1.00  0.00     0.039 C 
ENDBRANCH   6   7
ENDBRANCH   5   6
ENDBRANCH   3   5
ENDBRANCH   1   2
BRANCH   1  11
ATOM     11  C   UNL     1      23.455 143.405 350.280  1.00  0.00     0.034 C 
BRANCH  11  12
ATOM     12  C   UNL     1      23.408 144.012 348.893  1.00  0.00    -0.075 C 
ATOM     13  C   UNL     1      24.485 144.061 348.079  1.00  0.00    -0.000 C 
ATOM     14  C   UNL     1      22.121 144.641 348.423  1.00  0.00     0.039 C 
BRANCH  13  15
ATOM     15  C   UNL     1      25.832 143.484 348.434  1.00  0.00     0.183 C 
BRANCH  15  16
ATOM     16  O   UNL     1      26.760 143.759 347.421  1.00  0.00    -0.392 OA
ATOM     17  H   UNL     1      26.803 142.948 346.848  1.00  0.00     0.210 HD
ENDBRANCH  15  16
ENDBRANCH  13  15
ENDBRANCH  11  12
ENDBRANCH   1  11
TORSDOF 8
ENDMDL
MODEL 3
REMARK VINA RESULT:    -6.030      3.649      5.202
REMARK INTER + INTRA:          -9.561
REMARK INTER:                  -8.713
REMARK INTRA:                  -0.848
REMARK UNBOUND:                -0.887
REMARK SMILES CC(C)=CCCC(C)=CCCC(C)=CCO
REMARK SMILES IDX 10 1 9 2 7 3 8 4 6 5 5 6 4 7 1 8 2 9 3 10 11 11 12 12 14 13
REMARK SMILES IDX 13 14 15 15 16 16
REMARK H PARENT 16 17
REMARK Flexibility Score: inf
ROOT
ATOM      1  C   UNL     1      23.516 142.580 351.019  1.00  0.00     0.032 C 
ENDROOT
BRANCH   1   2
ATOM      2  C   UNL     1      22.518 143.111 352.018  1.00  0.00    -0.028 C 
ATOM      3  C   UNL     1      22.065 142.419 353.088  1.00  0.00    -0.077 C 
ATOM      4  C   UNL     1      22.489 140.994 353.354  1.00  0.00     0.039 C 
BRANCH   3   5
ATOM      5  C   UNL     1      21.091 143.086 354.035  1.00  0.00     0.034 C 
BRANCH   5   6
ATOM      6  C   UNL     1      19.708 142.432 353.943  1.00  0.00     0.032 C 
BRANCH   6   7
ATOM      7  C   UNL     1      18.620 143.440 354.216  1.00  0.00    -0.028 C 
ATOM      8  C   UNL     1      18.276 143.964 351.791  1.00  0.00     0.039 C 
ATOM      9  C   UNL     1      17.946 144.113 353.255  1.00  0.00    -0.080 C 
ATOM     10  C   UNL     1      16.856 145.080 353.642  1.00  0.00     0.039 C 
ENDBRANCH   6   7
ENDBRANCH   5   6
ENDBRANCH   3   5
ENDBRANCH   1   2
BRANCH   1  11
ATOM     11  C   UNL     1      22.931 142.597 349.603  1.00  0.00     0.034 C 
BRANCH  11  12
ATOM     12  C   UNL     1      23.427 143.805 348.834  1.00  0.00    -0.075 C 
ATOM     13  C   UNL     1      22.593 144.693 348.250  1.00  0.00    -0.000 C 
ATOM     14  C   UNL     1      24.913 143.991 348.661  1.00  0.00     0.039 C 
BRANCH  13  15
ATOM     15  C   UNL     1      21.090 144.613 348.334  1.00  0.00     0.183 C 
BRANCH  15  16
ATOM     16  O   UNL     1      20.645 145.119 349.562  1.00  0.00    -0.392 OA
ATOM     17  H   UNL     1      20.636 144.355 350.198  1.00  0.00     0.210 HD
ENDBRANCH  15  16
ENDBRANCH  13  15
ENDBRANCH  11  12
ENDBRANCH   1  11
TORSDOF 8
ENDMDL
MODEL 4
REMARK VINA RESULT:    -5.991      3.415      9.187
REMARK INTER + INTRA:          -9.504
REMARK INTER:                  -8.773
REMARK INTRA:                  -0.731
REMARK UNBOUND:                -0.887
REMARK SMILES CC(C)=CCCC(C)=CCCC(C)=CCO
REMARK SMILES IDX 10 1 9 2 7 3 8 4 6 5 5 6 4 7 1 8 2 9 3 10 11 11 12 12 14 13
REMARK SMILES IDX 13 14 15 15 16 16
REMARK H PARENT 16 17
REMARK Flexibility Score: inf
ROOT
ATOM      1  C   UNL     1      23.800 137.785 352.707  1.00  0.00     0.032 C 
ENDROOT
BRANCH   1   2
ATOM      2  C   UNL     1      24.765 136.791 353.303  1.00  0.00    -0.028 C 
ATOM      3  C   UNL     1      25.688 136.103 352.595  1.00  0.00    -0.077 C 
ATOM      4  C   UNL     1      25.801 136.231 351.093  1.00  0.00     0.039 C 
BRANCH   3   5
ATOM      5  C   UNL     1      26.623 135.163 353.325  1.00  0.00     0.034 C 
BRANCH   5   6
ATOM      6  C   UNL     1      27.756 135.941 354.004  1.00  0.00     0.032 C 
BRANCH   6   7
ATOM      7  C   UNL     1      28.958 135.055 354.221  1.00  0.00    -0.028 C 
ATOM      8  C   UNL     1      29.588 135.047 351.796  1.00  0.00     0.039 C 
ATOM      9  C   UNL     1      29.808 134.671 353.241  1.00  0.00    -0.080 C 
ATOM     10  C   UNL     1      30.995 133.806 353.576  1.00  0.00     0.039 C 
ENDBRANCH   6   7
ENDBRANCH   5   6
ENDBRANCH   3   5
ENDBRANCH   1   2
BRANCH   1  11
ATOM     11  C   UNL     1      24.043 139.188 353.275  1.00  0.00     0.034 C 
BRANCH  11  12
ATOM     12  C   UNL     1      24.097 140.214 352.162  1.00  0.00    -0.075 C 
ATOM     13  C   UNL     1      23.411 141.377 352.206  1.00  0.00    -0.000 C 
ATOM     14  C   UNL     1      24.903 139.900 350.928  1.00  0.00     0.039 C 
BRANCH  13  15
ATOM     15  C   UNL     1      22.557 141.805 353.373  1.00  0.00     0.183 C 
BRANCH  15  16
ATOM     16  O   UNL     1      22.833 143.135 353.715  1.00  0.00    -0.392 OA
ATOM     17  H   UNL     1      22.644 143.225 354.686  1.00  0.00     0.210 HD
ENDBRANCH  15  16
ENDBRANCH  13  15
ENDBRANCH  11  12
ENDBRANCH   1  11
TORSDOF 8
ENDMDL
MODEL 5
REMARK VINA RESULT:    -5.970      6.046      9.159
REMARK INTER + INTRA:          -9.474
REMARK INTER:                  -8.529
REMARK INTRA:                  -0.945
REMARK UNBOUND:                -0.887
REMARK SMILES CC(C)=CCCC(C)=CCCC(C)=CCO
REMARK SMILES IDX 10 1 9 2 7 3 8 4 6 5 5 6 4 7 1 8 2 9 3 10 11 11 12 12 14 13
REMARK SMILES IDX 13 14 15 15 16 16
REMARK H PARENT 16 17
REMARK Flexibility Score: inf
ROOT
ATOM      1  C   UNL     1      25.089 137.166 350.374  1.00  0.00     0.032 C 
ENDROOT
BRANCH   1   2
ATOM      2  C   UNL     1      25.811 136.264 351.343  1.00  0.00    -0.028 C 
ATOM      3  C   UNL     1      25.708 136.349 352.688  1.00  0.00    -0.077 C 
ATOM      4  C   UNL     1      24.882 137.421 353.360  1.00  0.00     0.039 C 
BRANCH   3   5
ATOM      5  C   UNL     1      26.459 135.354 353.547  1.00  0.00     0.034 C 
BRANCH   5   6
ATOM      6  C   UNL     1      27.682 136.009 354.197  1.00  0.00     0.032 C 
BRANCH   6   7
ATOM      7  C   UNL     1      28.800 135.010 354.361  1.00  0.00    -0.028 C 
ATOM      8  C   UNL     1      29.592 135.268 351.999  1.00  0.00     0.039 C 
ATOM      9  C   UNL     1      29.686 134.691 353.390  1.00  0.00    -0.080 C 
ATOM     10  C   UNL     1      30.783 133.698 353.673  1.00  0.00     0.039 C 
ENDBRANCH   6   7
ENDBRANCH   5   6
ENDBRANCH   3   5
ENDBRANCH   1   2
BRANCH   1  11
ATOM     11  C   UNL     1      25.138 136.590 348.954  1.00  0.00     0.034 C 
BRANCH  11  12
ATOM     12  C   UNL     1      24.419 135.257 348.893  1.00  0.00    -0.075 C 
ATOM     13  C   UNL     1      25.042 134.105 348.560  1.00  0.00    -0.000 C 
ATOM     14  C   UNL     1      22.935 135.224 349.157  1.00  0.00     0.039 C 
BRANCH  13  15
ATOM     15  C   UNL     1      26.515 134.005 348.258  1.00  0.00     0.183 C 
BRANCH  15  16
ATOM     16  O   UNL     1      27.213 133.562 349.390  1.00  0.00    -0.392 OA
ATOM     17  H   UNL     1      26.704 133.882 350.181  1.00  0.00     0.210 HD
ENDBRANCH  15  16
ENDBRANCH  13  15
ENDBRANCH  11  12
ENDBRANCH   1  11
TORSDOF 8
ENDMDL
MODEL 6
REMARK VINA RESULT:    -5.852      9.183     11.016
REMARK INTER + INTRA:          -9.304
REMARK INTER:                  -8.423
REMARK INTRA:                  -0.881
REMARK UNBOUND:                -0.887
REMARK SMILES CC(C)=CCCC(C)=CCCC(C)=CCO
REMARK SMILES IDX 10 1 9 2 7 3 8 4 6 5 5 6 4 7 1 8 2 9 3 10 11 11 12 12 14 13
REMARK SMILES IDX 13 14 15 15 16 16
REMARK H PARENT 16 17
REMARK Flexibility Score: inf
ROOT
ATOM      1  C   UNL     1      23.494 138.362 342.908  1.00  0.00     0.032 C 
ENDROOT
BRANCH   1   2
ATOM      2  C   UNL     1      22.151 137.959 342.352  1.00  0.00    -0.028 C 
ATOM      3  C   UNL     1      21.006 137.923 343.071  1.00  0.00    -0.077 C 
ATOM      4  C   UNL     1      20.981 138.237 344.549  1.00  0.00     0.039 C 
BRANCH   3   5
ATOM      5  C   UNL     1      19.716 137.538 342.379  1.00  0.00     0.034 C 
BRANCH   5   6
ATOM      6  C   UNL     1      19.086 138.752 341.687  1.00  0.00     0.032 C 
BRANCH   6   7
ATOM      7  C   UNL     1      17.585 138.614 341.629  1.00  0.00    -0.028 C 
ATOM      8  C   UNL     1      17.207 140.166 343.559  1.00  0.00     0.039 C 
ATOM      9  C   UNL     1      16.727 139.269 342.444  1.00  0.00    -0.080 C 
ATOM     10  C   UNL     1      15.241 139.078 342.279  1.00  0.00     0.039 C 
ENDBRANCH   6   7
ENDBRANCH   5   6
ENDBRANCH   3   5
ENDBRANCH   1   2
BRANCH   1  11
ATOM     11  C   UNL     1      23.835 139.803 342.515  1.00  0.00     0.034 C 
BRANCH  11  12
ATOM     12  C   UNL     1      24.559 140.508 343.644  1.00  0.00    -0.075 C 
ATOM     13  C   UNL     1      25.814 140.991 343.519  1.00  0.00    -0.000 C 
ATOM     14  C   UNL     1      23.872 140.624 344.981  1.00  0.00     0.039 C 
BRANCH  13  15
ATOM     15  C   UNL     1      26.616 140.926 342.244  1.00  0.00     0.183 C 
BRANCH  15  16
ATOM     16  O   UNL     1      27.835 141.598 342.402  1.00  0.00    -0.392 OA
ATOM     17  H   UNL     1      28.266 141.619 341.507  1.00  0.00     0.210 HD
ENDBRANCH  15  16
ENDBRANCH  13  15
ENDBRANCH  11  12
ENDBRANCH   1  11
TORSDOF 8
ENDMDL
MODEL 7
REMARK VINA RESULT:    -5.796      4.344      7.470
REMARK INTER + INTRA:          -9.224
REMARK INTER:                  -8.233
REMARK INTRA:                  -0.991
REMARK UNBOUND:                -0.887
REMARK SMILES CC(C)=CCCC(C)=CCCC(C)=CCO
REMARK SMILES IDX 10 1 9 2 7 3 8 4 6 5 5 6 4 7 1 8 2 9 3 10 11 11 12 12 14 13
REMARK SMILES IDX 13 14 15 15 16 16
REMARK H PARENT 16 17
REMARK Flexibility Score: inf
ROOT
ATOM      1  C   UNL     1      27.904 135.141 351.219  1.00  0.00     0.032 C 
ENDROOT
BRANCH   1   2
ATOM      2  C   UNL     1      26.548 135.720 350.900  1.00  0.00    -0.028 C 
ATOM      3  C   UNL     1      25.866 135.483 349.757  1.00  0.00    -0.077 C 
ATOM      4  C   UNL     1      26.442 134.640 348.643  1.00  0.00     0.039 C 
BRANCH   3   5
ATOM      5  C   UNL     1      24.494 136.097 349.581  1.00  0.00     0.034 C 
BRANCH   5   6
ATOM      6  C   UNL     1      23.729 136.113 350.909  1.00  0.00     0.032 C 
BRANCH   6   7
ATOM      7  C   UNL     1      23.326 137.519 351.277  1.00  0.00    -0.028 C 
ATOM      8  C   UNL     1      24.463 137.431 353.508  1.00  0.00     0.039 C 
ATOM      9  C   UNL     1      23.676 138.135 352.430  1.00  0.00    -0.080 C 
ATOM     10  C   UNL     1      23.240 139.555 352.683  1.00  0.00     0.039 C 
ENDBRANCH   6   7
ENDBRANCH   5   6
ENDBRANCH   3   5
ENDBRANCH   1   2
BRANCH   1  11
ATOM     11  C   UNL     1      27.844 134.281 352.486  1.00  0.00     0.034 C 
BRANCH  11  12
ATOM     12  C   UNL     1      28.477 135.007 353.656  1.00  0.00    -0.075 C 
ATOM     13  C   UNL     1      29.782 134.873 353.981  1.00  0.00    -0.000 C 
ATOM     14  C   UNL     1      27.602 135.868 354.530  1.00  0.00     0.039 C 
BRANCH  13  15
ATOM     15  C   UNL     1      30.759 134.032 353.199  1.00  0.00     0.183 C 
BRANCH  15  16
ATOM     16  O   UNL     1      31.339 133.065 354.030  1.00  0.00    -0.392 OA
ATOM     17  H   UNL     1      31.158 132.183 353.609  1.00  0.00     0.210 HD
ENDBRANCH  15  16
ENDBRANCH  13  15
ENDBRANCH  11  12
ENDBRANCH   1  11
TORSDOF 8
ENDMDL
MODEL 8
REMARK VINA RESULT:    -5.786      1.357      1.923
REMARK INTER + INTRA:          -9.210
REMARK INTER:                  -8.611
REMARK INTRA:                  -0.599
REMARK UNBOUND:                -0.887
REMARK SMILES CC(C)=CCCC(C)=CCCC(C)=CCO
REMARK SMILES IDX 10 1 9 2 7 3 8 4 6 5 5 6 4 7 1 8 2 9 3 10 11 11 12 12 14 13
REMARK SMILES IDX 13 14 15 15 16 16
REMARK H PARENT 16 17
REMARK Flexibility Score: inf
ROOT
ATOM      1  C   UNL     1      24.228 140.257 353.344  1.00  0.00     0.032 C 
ENDROOT
BRANCH   1   2
ATOM      2  C   UNL     1      23.166 141.286 353.645  1.00  0.00    -0.028 C 
ATOM      3  C   UNL     1      22.705 142.192 352.753  1.00  0.00    -0.077 C 
ATOM      4  C   UNL     1      23.266 142.293 351.354  1.00  0.00     0.039 C 
BRANCH   3   5
ATOM      5  C   UNL     1      21.607 143.144 353.176  1.00  0.00     0.034 C 
BRANCH   5   6
ATOM      6  C   UNL     1      20.520 142.407 353.966  1.00  0.00     0.032 C 
BRANCH   6   7
ATOM      7  C   UNL     1      19.361 143.325 354.266  1.00  0.00    -0.028 C 
ATOM      8  C   UNL     1      18.388 143.109 351.968  1.00  0.00     0.039 C 
ATOM      9  C   UNL     1      18.378 143.624 353.386  1.00  0.00    -0.080 C 
ATOM     10  C   UNL     1      17.251 144.533 353.802  1.00  0.00     0.039 C 
ENDBRANCH   6   7
ENDBRANCH   5   6
ENDBRANCH   3   5
ENDBRANCH   1   2
BRANCH   1  11
ATOM     11  C   UNL     1      23.641 138.842 353.386  1.00  0.00     0.034 C 
BRANCH  11  12
ATOM     12  C   UNL     1      24.454 137.899 352.523  1.00  0.00    -0.075 C 
ATOM     13  C   UNL     1      24.258 137.773 351.193  1.00  0.00    -0.000 C 
ATOM     14  C   UNL     1      25.486 137.022 353.186  1.00  0.00     0.039 C 
BRANCH  13  15
ATOM     15  C   UNL     1      23.251 138.579 350.413  1.00  0.00     0.183 C 
BRANCH  15  16
ATOM     16  O   UNL     1      21.973 138.021 350.549  1.00  0.00    -0.392 OA
ATOM     17  H   UNL     1      21.502 138.173 349.687  1.00  0.00     0.210 HD
ENDBRANCH  15  16
ENDBRANCH  13  15
ENDBRANCH  11  12
ENDBRANCH   1  11
TORSDOF 8
ENDMDL
MODEL 9
REMARK VINA RESULT:    -5.733      3.626      7.314
REMARK INTER + INTRA:          -9.133
REMARK INTER:                  -7.962
REMARK INTRA:                  -1.171
REMARK UNBOUND:                -0.887
REMARK SMILES CC(C)=CCCC(C)=CCCC(C)=CCO
REMARK SMILES IDX 10 1 9 2 7 3 8 4 6 5 5 6 4 7 1 8 2 9 3 10 11 11 12 12 14 13
REMARK SMILES IDX 13 14 15 15 16 16
REMARK H PARENT 16 17
REMARK Flexibility Score: inf
ROOT
ATOM      1  C   UNL     1      20.035 143.459 351.409  1.00  0.00     0.032 C 
ENDROOT
BRANCH   1   2
ATOM      2  C   UNL     1      21.494 143.382 351.033  1.00  0.00    -0.028 C 
ATOM      3  C   UNL     1      21.985 142.623 350.029  1.00  0.00    -0.077 C 
ATOM      4  C   UNL     1      21.100 141.715 349.207  1.00  0.00     0.039 C 
BRANCH   3   5
ATOM      5  C   UNL     1      23.469 142.669 349.731  1.00  0.00     0.034 C 
BRANCH   5   6
ATOM      6  C   UNL     1      24.286 142.384 350.996  1.00  0.00     0.032 C 
BRANCH   6   7
ATOM      7  C   UNL     1      24.209 140.924 351.366  1.00  0.00    -0.028 C 
ATOM      8  C   UNL     1      23.089 141.374 353.561  1.00  0.00     0.039 C 
ATOM      9  C   UNL     1      23.644 140.454 352.502  1.00  0.00    -0.080 C 
ATOM     10  C   UNL     1      23.597 138.970 352.757  1.00  0.00     0.039 C 
ENDBRANCH   6   7
ENDBRANCH   5   6
ENDBRANCH   3   5
ENDBRANCH   1   2
BRANCH   1  11
ATOM     11  C   UNL     1      19.844 144.288 352.684  1.00  0.00     0.034 C 
BRANCH  11  12
ATOM     12  C   UNL     1      19.012 143.529 353.697  1.00  0.00    -0.075 C 
ATOM     13  C   UNL     1      17.731 143.851 353.980  1.00  0.00    -0.000 C 
ATOM     14  C   UNL     1      19.658 142.404 354.465  1.00  0.00     0.039 C 
BRANCH  13  15
ATOM     15  C   UNL     1      16.975 144.961 353.297  1.00  0.00     0.183 C 
BRANCH  15  16
ATOM     16  O   UNL     1      16.427 145.833 354.247  1.00  0.00    -0.392 OA
ATOM     17  H   UNL     1      17.095 146.554 354.390  1.00  0.00     0.210 HD
ENDBRANCH  15  16
ENDBRANCH  13  15
ENDBRANCH  11  12
ENDBRANCH   1  11
TORSDOF 8
ENDMDL
