MODEL 1
REMARK VINA RESULT:    -6.082      0.000      0.000
REMARK INTER + INTRA:          -7.634
REMARK INTER:                  -7.327
REMARK INTRA:                  -0.308
REMARK UNBOUND:                -0.308
REMARK SMILES O=c1c(O)c(-c2ccc(O)c(O)c2)oc2cc(O)cc(O)c12
REMARK SMILES IDX 5 1 3 2 2 3 1 4 22 5 20 6 19 7 17 8 16 9 15 10 14 11 6 12
REMARK SMILES IDX 7 13 8 14 9 15 13 16 11 17 10 18 12 20 4 22 21 24 18 26
REMARK H PARENT 10 19 12 21 4 23 21 25 18 27
REMARK Flexibility Score: inf
ROOT
ATOM      1  C   UNL     1      -3.344  14.192 -27.014  1.00  0.00     0.180 A 
ATOM      2  C   UNL     1      -4.188  13.251 -26.400  1.00  0.00     0.208 A 
ATOM      3  C   UNL     1      -4.691  12.187 -27.166  1.00  0.00     0.238 A 
ATOM      4  O   UNL     1      -5.489  11.377 -26.625  1.00  0.00    -0.285 OA
ATOM      5  C   UNL     1      -4.331  12.068 -28.530  1.00  0.00     0.111 A 
ATOM      6  C   UNL     1      -4.750  11.009 -29.390  1.00  0.00     0.134 A 
ATOM      7  C   UNL     1      -4.441  11.063 -30.754  1.00  0.00     0.093 A 
ATOM      8  C   UNL     1      -3.672  12.106 -31.278  1.00  0.00     0.123 A 
ATOM      9  C   UNL     1      -3.209  13.114 -30.435  1.00  0.00     0.094 A 
ATOM     10  C   UNL     1      -3.531  13.106 -29.077  1.00  0.00     0.146 A 
ATOM     11  O   UNL     1      -3.078  14.091 -28.311  1.00  0.00    -0.452 OA
ENDROOT
BRANCH   1  12
ATOM     12  C   UNL     1      -2.755  15.327 -26.266  1.00  0.00     0.025 A 
ATOM     13  C   UNL     1      -3.360  16.594 -26.264  1.00  0.00     0.016 A 
ATOM     14  C   UNL     1      -2.799  17.643 -25.532  1.00  0.00     0.051 A 
ATOM     15  C   UNL     1      -1.636  17.447 -24.779  1.00  0.00     0.157 A 
ATOM     16  C   UNL     1      -1.601  15.123 -25.494  1.00  0.00     0.062 A 
ATOM     17  C   UNL     1      -1.030  16.168 -24.757  1.00  0.00     0.158 A 
BRANCH  15  18
ATOM     18  O   UNL     1      -1.125  18.538 -24.074  1.00  0.00    -0.504 OA
ATOM     19  H   UNL     1      -0.372  19.122 -24.407  1.00  0.00     0.293 HD
ENDBRANCH  15  18
BRANCH  17  20
ATOM     20  O   UNL     1       0.125  15.894 -24.022  1.00  0.00    -0.504 OA
ATOM     21  H   UNL     1       0.124  15.614 -23.053  1.00  0.00     0.293 HD
ENDBRANCH  17  20
ENDBRANCH   1  12
BRANCH   2  22
ATOM     22  O   UNL     1      -4.547  13.398 -25.058  1.00  0.00    -0.502 OA
ATOM     23  H   UNL     1      -5.358  12.942 -24.658  1.00  0.00     0.293 HD
ENDBRANCH   2  22
BRANCH   6  24
ATOM     24  O   UNL     1      -5.442   9.877 -28.951  1.00  0.00    -0.507 OA
ATOM     25  H   UNL     1      -5.569   9.619 -27.985  1.00  0.00     0.293 HD
ENDBRANCH   6  24
BRANCH   8  26
ATOM     26  O   UNL     1      -3.355  12.145 -32.633  1.00  0.00    -0.508 OA
ATOM     27  H   UNL     1      -3.942  11.697 -33.328  1.00  0.00     0.293 HD
ENDBRANCH   8  26
TORSDOF 6
ENDMDL
MODEL 2
REMARK VINA RESULT:    -5.823      2.505      6.848
REMARK INTER + INTRA:          -7.322
REMARK INTER:                  -6.999
REMARK INTRA:                  -0.323
REMARK UNBOUND:                -0.308
REMARK SMILES O=c1c(O)c(-c2ccc(O)c(O)c2)oc2cc(O)cc(O)c12
REMARK SMILES IDX 5 1 3 2 2 3 1 4 22 5 20 6 19 7 17 8 16 9 15 10 14 11 6 12
REMARK SMILES IDX 7 13 8 14 9 15 13 16 11 17 10 18 12 20 4 22 21 24 18 26
REMARK H PARENT 10 19 12 21 4 23 21 25 18 27
REMARK Flexibility Score: inf
ROOT
ATOM      1  C   UNL     1      -3.858  14.897 -26.553  1.00  0.00     0.180 A 
ATOM      2  C   UNL     1      -4.184  15.656 -27.689  1.00  0.00     0.208 A 
ATOM      3  C   UNL     1      -3.523  16.876 -27.904  1.00  0.00     0.238 A 
ATOM      4  O   UNL     1      -3.856  17.579 -28.894  1.00  0.00    -0.285 OA
ATOM      5  C   UNL     1      -2.534  17.314 -26.990  1.00  0.00     0.111 A 
ATOM      6  C   UNL     1      -1.774  18.513 -27.130  1.00  0.00     0.134 A 
ATOM      7  C   UNL     1      -0.916  18.912 -26.097  1.00  0.00     0.093 A 
ATOM      8  C   UNL     1      -0.742  18.120 -24.959  1.00  0.00     0.123 A 
ATOM      9  C   UNL     1      -1.436  16.918 -24.840  1.00  0.00     0.094 A 
ATOM     10  C   UNL     1      -2.326  16.512 -25.837  1.00  0.00     0.146 A 
ATOM     11  O   UNL     1      -2.974  15.364 -25.679  1.00  0.00    -0.452 OA
ENDROOT
BRANCH   1  12
ATOM     12  C   UNL     1      -4.494  13.588 -26.272  1.00  0.00     0.025 A 
ATOM     13  C   UNL     1      -5.672  13.496 -25.514  1.00  0.00     0.016 A 
ATOM     14  C   UNL     1      -6.267  12.254 -25.282  1.00  0.00     0.051 A 
ATOM     15  C   UNL     1      -5.708  11.085 -25.811  1.00  0.00     0.157 A 
ATOM     16  C   UNL     1      -3.945  12.420 -26.822  1.00  0.00     0.062 A 
ATOM     17  C   UNL     1      -4.533  11.169 -26.595  1.00  0.00     0.158 A 
BRANCH  15  18
ATOM     18  O   UNL     1      -6.350   9.875 -25.538  1.00  0.00    -0.504 OA
ATOM     19  H   UNL     1      -7.336   9.792 -25.340  1.00  0.00     0.293 HD
ENDBRANCH  15  18
BRANCH  17  20
ATOM     20  O   UNL     1      -3.925  10.049 -27.163  1.00  0.00    -0.504 OA
ATOM     21  H   UNL     1      -2.969  10.029 -27.487  1.00  0.00     0.293 HD
ENDBRANCH  17  20
ENDBRANCH   1  12
BRANCH   2  22
ATOM     22  O   UNL     1      -5.177  15.217 -28.568  1.00  0.00    -0.502 OA
ATOM     23  H   UNL     1      -5.163  14.295 -28.989  1.00  0.00     0.293 HD
ENDBRANCH   2  22
BRANCH   6  24
ATOM     24  O   UNL     1      -1.804  19.327 -28.265  1.00  0.00    -0.507 OA
ATOM     25  H   UNL     1      -1.118  20.034 -28.484  1.00  0.00     0.293 HD
ENDBRANCH   6  24
BRANCH   8  26
ATOM     26  O   UNL     1       0.125  18.516 -23.944  1.00  0.00    -0.508 OA
ATOM     27  H   UNL     1       0.119  19.462 -23.580  1.00  0.00     0.293 HD
ENDBRANCH   8  26
TORSDOF 6
ENDMDL
MODEL 3
REMARK VINA RESULT:    -5.809      2.142      2.729
REMARK INTER + INTRA:          -7.306
REMARK INTER:                  -6.984
REMARK INTRA:                  -0.322
REMARK UNBOUND:                -0.308
REMARK SMILES O=c1c(O)c(-c2ccc(O)c(O)c2)oc2cc(O)cc(O)c12
REMARK SMILES IDX 5 1 3 2 2 3 1 4 22 5 20 6 19 7 17 8 16 9 15 10 14 11 6 12
REMARK SMILES IDX 7 13 8 14 9 15 13 16 11 17 10 18 12 20 4 22 21 24 18 26
REMARK H PARENT 10 19 12 21 4 23 21 25 18 27
REMARK Flexibility Score: inf
ROOT
ATOM      1  C   UNL     1      -3.225  15.442 -26.908  1.00  0.00     0.180 A 
ATOM      2  C   UNL     1      -4.459  15.255 -26.263  1.00  0.00     0.208 A 
ATOM      3  C   UNL     1      -5.003  13.963 -26.199  1.00  0.00     0.238 A 
ATOM      4  O   UNL     1      -6.134  13.809 -25.667  1.00  0.00    -0.285 OA
ATOM      5  C   UNL     1      -4.300  12.872 -26.765  1.00  0.00     0.111 A 
ATOM      6  C   UNL     1      -4.739  11.514 -26.723  1.00  0.00     0.134 A 
ATOM      7  C   UNL     1      -4.029  10.536 -27.430  1.00  0.00     0.093 A 
ATOM      8  C   UNL     1      -2.859  10.856 -28.124  1.00  0.00     0.123 A 
ATOM      9  C   UNL     1      -2.390  12.169 -28.122  1.00  0.00     0.094 A 
ATOM     10  C   UNL     1      -3.097  13.172 -27.456  1.00  0.00     0.146 A 
ATOM     11  O   UNL     1      -2.621  14.411 -27.487  1.00  0.00    -0.452 OA
ENDROOT
BRANCH   1  12
ATOM     12  C   UNL     1      -2.575  16.771 -26.995  1.00  0.00     0.025 A 
ATOM     13  C   UNL     1      -2.812  17.631 -28.080  1.00  0.00     0.016 A 
ATOM     14  C   UNL     1      -2.207  18.888 -28.129  1.00  0.00     0.051 A 
ATOM     15  C   UNL     1      -1.369  19.318 -27.093  1.00  0.00     0.157 A 
ATOM     16  C   UNL     1      -1.753  17.209 -25.946  1.00  0.00     0.062 A 
ATOM     17  C   UNL     1      -1.141  18.469 -25.985  1.00  0.00     0.158 A 
BRANCH  15  18
ATOM     18  O   UNL     1      -0.792  20.585 -27.206  1.00  0.00    -0.504 OA
ATOM     19  H   UNL     1      -0.616  21.196 -26.421  1.00  0.00     0.293 HD
ENDBRANCH  15  18
BRANCH  17  20
ATOM     20  O   UNL     1      -0.326  18.832 -24.912  1.00  0.00    -0.504 OA
ATOM     21  H   UNL     1      -0.535  19.586 -24.274  1.00  0.00     0.293 HD
ENDBRANCH  17  20
ENDBRANCH   1  12
BRANCH   2  22
ATOM     22  O   UNL     1      -5.146  16.348 -25.729  1.00  0.00    -0.502 OA
ATOM     23  H   UNL     1      -5.421  17.146 -26.290  1.00  0.00     0.293 HD
ENDBRANCH   2  22
BRANCH   6  24
ATOM     24  O   UNL     1      -5.841  11.074 -25.984  1.00  0.00    -0.507 OA
ATOM     25  H   UNL     1      -6.441  10.308 -26.249  1.00  0.00     0.293 HD
ENDBRANCH   6  24
BRANCH   8  26
ATOM     26  O   UNL     1      -2.150   9.875 -28.811  1.00  0.00    -0.508 OA
ATOM     27  H   UNL     1      -2.327   8.888 -28.660  1.00  0.00     0.293 HD
ENDBRANCH   8  26
TORSDOF 6
ENDMDL
MODEL 4
REMARK VINA RESULT:    -5.587      3.641      4.746
REMARK INTER + INTRA:          -7.038
REMARK INTER:                  -6.731
REMARK INTRA:                  -0.307
REMARK UNBOUND:                -0.308
REMARK SMILES O=c1c(O)c(-c2ccc(O)c(O)c2)oc2cc(O)cc(O)c12
REMARK SMILES IDX 5 1 3 2 2 3 1 4 22 5 20 6 19 7 17 8 16 9 15 10 14 11 6 12
REMARK SMILES IDX 7 13 8 14 9 15 13 16 11 17 10 18 12 20 4 22 21 24 18 26
REMARK H PARENT 10 19 12 21 4 23 21 25 18 27
REMARK Flexibility Score: inf
ROOT
ATOM      1  C   UNL     1      -5.029  15.612 -28.655  1.00  0.00     0.180 A 
ATOM      2  C   UNL     1      -5.442  15.265 -27.358  1.00  0.00     0.208 A 
ATOM      3  C   UNL     1      -5.172  13.972 -26.881  1.00  0.00     0.238 A 
ATOM      4  O   UNL     1      -5.592  13.649 -25.739  1.00  0.00    -0.285 OA
ATOM      5  C   UNL     1      -4.479  13.049 -27.701  1.00  0.00     0.111 A 
ATOM      6  C   UNL     1      -4.117  11.726 -27.305  1.00  0.00     0.134 A 
ATOM      7  C   UNL     1      -3.548  10.856 -28.244  1.00  0.00     0.093 A 
ATOM      8  C   UNL     1      -3.269  11.282 -29.545  1.00  0.00     0.123 A 
ATOM      9  C   UNL     1      -3.565  12.590 -29.923  1.00  0.00     0.094 A 
ATOM     10  C   UNL     1      -4.165  13.470 -29.020  1.00  0.00     0.146 A 
ATOM     11  O   UNL     1      -4.440  14.705 -29.424  1.00  0.00    -0.452 OA
ENDROOT
BRANCH   1  12
ATOM     12  C   UNL     1      -5.256  16.964 -29.218  1.00  0.00     0.025 A 
ATOM     13  C   UNL     1      -4.242  17.935 -29.218  1.00  0.00     0.016 A 
ATOM     14  C   UNL     1      -4.471  19.194 -29.776  1.00  0.00     0.051 A 
ATOM     15  C   UNL     1      -5.707  19.504 -30.356  1.00  0.00     0.157 A 
ATOM     16  C   UNL     1      -6.488  17.265 -29.819  1.00  0.00     0.062 A 
ATOM     17  C   UNL     1      -6.728  18.525 -30.381  1.00  0.00     0.158 A 
BRANCH  15  18
ATOM     18  O   UNL     1      -5.872  20.783 -30.893  1.00  0.00    -0.504 OA
ATOM     19  H   UNL     1      -5.125  21.456 -30.988  1.00  0.00     0.293 HD
ENDBRANCH  15  18
BRANCH  17  20
ATOM     20  O   UNL     1      -7.981  18.758 -30.950  1.00  0.00    -0.504 OA
ATOM     21  H   UNL     1      -8.823  18.916 -30.416  1.00  0.00     0.293 HD
ENDBRANCH  17  20
ENDBRANCH   1  12
BRANCH   2  22
ATOM     22  O   UNL     1      -6.144  16.184 -26.573  1.00  0.00    -0.502 OA
ATOM     23  H   UNL     1      -7.113  16.048 -26.311  1.00  0.00     0.293 HD
ENDBRANCH   2  22
BRANCH   6  24
ATOM     24  O   UNL     1      -4.268  11.232 -26.007  1.00  0.00    -0.507 OA
ATOM     25  H   UNL     1      -3.506  10.994 -25.390  1.00  0.00     0.293 HD
ENDBRANCH   6  24
BRANCH   8  26
ATOM     26  O   UNL     1      -2.689  10.415 -30.467  1.00  0.00    -0.508 OA
ATOM     27  H   UNL     1      -2.162   9.601 -30.172  1.00  0.00     0.293 HD
ENDBRANCH   8  26
TORSDOF 6
ENDMDL
MODEL 5
REMARK VINA RESULT:    -5.385      2.245      6.923
REMARK INTER + INTRA:          -6.795
REMARK INTER:                  -6.476
REMARK INTRA:                  -0.319
REMARK UNBOUND:                -0.308
REMARK SMILES O=c1c(O)c(-c2ccc(O)c(O)c2)oc2cc(O)cc(O)c12
REMARK SMILES IDX 5 1 3 2 2 3 1 4 22 5 20 6 19 7 17 8 16 9 15 10 14 11 6 12
REMARK SMILES IDX 7 13 8 14 9 15 13 16 11 17 10 18 12 20 4 22 21 24 18 26
REMARK H PARENT 10 19 12 21 4 23 21 25 18 27
REMARK Flexibility Score: inf
ROOT
ATOM      1  C   UNL     1      -2.409  15.608 -26.530  1.00  0.00     0.180 A 
ATOM      2  C   UNL     1      -1.403  15.810 -25.569  1.00  0.00     0.208 A 
ATOM      3  C   UNL     1      -0.813  17.079 -25.459  1.00  0.00     0.238 A 
ATOM      4  O   UNL     1       0.125  17.241 -24.635  1.00  0.00    -0.285 OA
ATOM      5  C   UNL     1      -1.245  18.134 -26.299  1.00  0.00     0.111 A 
ATOM      6  C   UNL     1      -0.745  19.469 -26.247  1.00  0.00     0.134 A 
ATOM      7  C   UNL     1      -1.152  20.398 -27.213  1.00  0.00     0.093 A 
ATOM      8  C   UNL     1      -2.091  20.056 -28.190  1.00  0.00     0.123 A 
ATOM      9  C   UNL     1      -2.630  18.771 -28.212  1.00  0.00     0.094 A 
ATOM     10  C   UNL     1      -2.216  17.814 -27.284  1.00  0.00     0.146 A 
ATOM     11  O   UNL     1      -2.747  16.598 -27.347  1.00  0.00    -0.452 OA
ENDROOT
BRANCH   1  12
ATOM     12  C   UNL     1      -3.096  14.305 -26.688  1.00  0.00     0.025 A 
ATOM     13  C   UNL     1      -2.636  13.344 -27.602  1.00  0.00     0.016 A 
ATOM     14  C   UNL     1      -3.286  12.113 -27.718  1.00  0.00     0.051 A 
ATOM     15  C   UNL     1      -4.393  11.812 -26.916  1.00  0.00     0.157 A 
ATOM     16  C   UNL     1      -4.192  13.997 -25.869  1.00  0.00     0.062 A 
ATOM     17  C   UNL     1      -4.851  12.765 -25.977  1.00  0.00     0.158 A 
BRANCH  15  18
ATOM     18  O   UNL     1      -5.000  10.565 -27.084  1.00  0.00    -0.504 OA
ATOM     19  H   UNL     1      -4.586   9.802 -27.600  1.00  0.00     0.293 HD
ENDBRANCH  15  18
BRANCH  17  20
ATOM     20  O   UNL     1      -5.942  12.533 -25.137  1.00  0.00    -0.504 OA
ATOM     21  H   UNL     1      -6.811  12.120 -25.442  1.00  0.00     0.293 HD
ENDBRANCH  17  20
ENDBRANCH   1  12
BRANCH   2  22
ATOM     22  O   UNL     1      -0.976  14.751 -24.764  1.00  0.00    -0.502 OA
ATOM     23  H   UNL     1      -1.545  14.371 -24.017  1.00  0.00     0.293 HD
ENDBRANCH   2  22
BRANCH   6  24
ATOM     24  O   UNL     1       0.125  19.938 -25.259  1.00  0.00    -0.507 OA
ATOM     25  H   UNL     1       0.764  20.710 -25.374  1.00  0.00     0.293 HD
ENDBRANCH   6  24
BRANCH   8  26
ATOM     26  O   UNL     1      -2.503  20.990 -29.137  1.00  0.00    -0.508 OA
ATOM     27  H   UNL     1      -3.479  21.240 -29.246  1.00  0.00     0.293 HD
ENDBRANCH   8  26
TORSDOF 6
ENDMDL
MODEL 6
REMARK VINA RESULT:    -5.289      1.537      3.402
REMARK INTER + INTRA:          -6.679
REMARK INTER:                  -6.565
REMARK INTRA:                  -0.114
REMARK UNBOUND:                -0.308
REMARK SMILES O=c1c(O)c(-c2ccc(O)c(O)c2)oc2cc(O)cc(O)c12
REMARK SMILES IDX 5 1 3 2 2 3 1 4 22 5 20 6 19 7 17 8 16 9 15 10 14 11 6 12
REMARK SMILES IDX 7 13 8 14 9 15 13 16 11 17 10 18 12 20 4 22 21 24 18 26
REMARK H PARENT 10 19 12 21 4 23 21 25 18 27
REMARK Flexibility Score: inf
ROOT
ATOM      1  C   UNL     1      -3.172  14.248 -26.840  1.00  0.00     0.180 A 
ATOM      2  C   UNL     1      -3.204  13.788 -28.167  1.00  0.00     0.208 A 
ATOM      3  C   UNL     1      -3.903  12.608 -28.462  1.00  0.00     0.238 A 
ATOM      4  O   UNL     1      -3.883  12.171 -29.643  1.00  0.00    -0.285 OA
ATOM      5  C   UNL     1      -4.576  11.910 -27.429  1.00  0.00     0.111 A 
ATOM      6  C   UNL     1      -5.349  10.725 -27.621  1.00  0.00     0.134 A 
ATOM      7  C   UNL     1      -5.861  10.047 -26.508  1.00  0.00     0.093 A 
ATOM      8  C   UNL     1      -5.684  10.547 -25.215  1.00  0.00     0.123 A 
ATOM      9  C   UNL     1      -4.981  11.735 -25.023  1.00  0.00     0.094 A 
ATOM     10  C   UNL     1      -4.428  12.414 -26.111  1.00  0.00     0.146 A 
ATOM     11  O   UNL     1      -3.757  13.537 -25.883  1.00  0.00    -0.452 OA
ENDROOT
BRANCH   1  12
ATOM     12  C   UNL     1      -2.476  15.498 -26.455  1.00  0.00     0.025 A 
ATOM     13  C   UNL     1      -2.811  16.730 -27.039  1.00  0.00     0.016 A 
ATOM     14  C   UNL     1      -2.158  17.899 -26.643  1.00  0.00     0.051 A 
ATOM     15  C   UNL     1      -1.171  17.865 -25.651  1.00  0.00     0.157 A 
ATOM     16  C   UNL     1      -1.503  15.465 -25.445  1.00  0.00     0.062 A 
ATOM     17  C   UNL     1      -0.841  16.632 -25.041  1.00  0.00     0.158 A 
BRANCH  15  18
ATOM     18  O   UNL     1      -0.553  19.069 -25.305  1.00  0.00    -0.504 OA
ATOM     19  H   UNL     1       0.445  19.181 -25.205  1.00  0.00     0.293 HD
ENDBRANCH  15  18
BRANCH  17  20
ATOM     20  O   UNL     1       0.125  16.521 -24.039  1.00  0.00    -0.504 OA
ATOM     21  H   UNL     1       0.247  15.703 -23.461  1.00  0.00     0.293 HD
ENDBRANCH  17  20
ENDBRANCH   1  12
BRANCH   2  22
ATOM     22  O   UNL     1      -2.516  14.480 -29.168  1.00  0.00    -0.502 OA
ATOM     23  H   UNL     1      -2.289  15.465 -29.091  1.00  0.00     0.293 HD
ENDBRANCH   2  22
BRANCH   6  24
ATOM     24  O   UNL     1      -5.662  10.193 -28.875  1.00  0.00    -0.507 OA
ATOM     25  H   UNL     1      -6.126   9.311 -29.025  1.00  0.00     0.293 HD
ENDBRANCH   6  24
BRANCH   8  26
ATOM     26  O   UNL     1      -6.210   9.876 -24.115  1.00  0.00    -0.508 OA
ATOM     27  H   UNL     1      -7.055  10.193 -23.654  1.00  0.00     0.293 HD
ENDBRANCH   8  26
TORSDOF 6
ENDMDL
MODEL 7
REMARK VINA RESULT:    -5.271      3.582      6.271
REMARK INTER + INTRA:          -6.657
REMARK INTER:                  -6.323
REMARK INTRA:                  -0.334
REMARK UNBOUND:                -0.308
REMARK SMILES O=c1c(O)c(-c2ccc(O)c(O)c2)oc2cc(O)cc(O)c12
REMARK SMILES IDX 5 1 3 2 2 3 1 4 22 5 20 6 19 7 17 8 16 9 15 10 14 11 6 12
REMARK SMILES IDX 7 13 8 14 9 15 13 16 11 17 10 18 12 20 4 22 21 24 18 26
REMARK H PARENT 10 19 12 21 4 23 21 25 18 27
REMARK Flexibility Score: inf
ROOT
ATOM      1  C   UNL     1      -4.687  15.125 -27.838  1.00  0.00     0.180 A 
ATOM      2  C   UNL     1      -3.532  15.922 -27.774  1.00  0.00     0.208 A 
ATOM      3  C   UNL     1      -3.530  17.170 -28.417  1.00  0.00     0.238 A 
ATOM      4  O   UNL     1      -2.475  17.857 -28.402  1.00  0.00    -0.285 OA
ATOM      5  C   UNL     1      -4.688  17.613 -29.102  1.00  0.00     0.111 A 
ATOM      6  C   UNL     1      -4.810  18.876 -29.755  1.00  0.00     0.134 A 
ATOM      7  C   UNL     1      -5.955  19.153 -30.513  1.00  0.00     0.093 A 
ATOM      8  C   UNL     1      -7.009  18.239 -30.588  1.00  0.00     0.123 A 
ATOM      9  C   UNL     1      -6.923  17.027 -29.905  1.00  0.00     0.094 A 
ATOM     10  C   UNL     1      -5.779  16.707 -29.171  1.00  0.00     0.146 A 
ATOM     11  O   UNL     1      -5.734  15.538 -28.544  1.00  0.00    -0.452 OA
ENDROOT
BRANCH   1  12
ATOM     12  C   UNL     1      -4.774  13.808 -27.165  1.00  0.00     0.025 A 
ATOM     13  C   UNL     1      -5.207  13.695 -25.834  1.00  0.00     0.016 A 
ATOM     14  C   UNL     1      -5.304  12.441 -25.228  1.00  0.00     0.051 A 
ATOM     15  C   UNL     1      -4.986  11.278 -25.938  1.00  0.00     0.157 A 
ATOM     16  C   UNL     1      -4.476  12.642 -27.885  1.00  0.00     0.062 A 
ATOM     17  C   UNL     1      -4.570  11.379 -27.286  1.00  0.00     0.158 A 
BRANCH  15  18
ATOM     18  O   UNL     1      -5.100  10.056 -25.271  1.00  0.00    -0.504 OA
ATOM     19  H   UNL     1      -5.022   9.157 -25.725  1.00  0.00     0.293 HD
ENDBRANCH  15  18
BRANCH  17  20
ATOM     20  O   UNL     1      -4.245  10.264 -28.060  1.00  0.00    -0.504 OA
ATOM     21  H   UNL     1      -4.912   9.745 -28.612  1.00  0.00     0.293 HD
ENDBRANCH  17  20
ENDBRANCH   1  12
BRANCH   2  22
ATOM     22  O   UNL     1      -2.393  15.458 -27.110  1.00  0.00    -0.502 OA
ATOM     23  H   UNL     1      -1.929  14.594 -27.364  1.00  0.00     0.293 HD
ENDBRANCH   2  22
BRANCH   6  24
ATOM     24  O   UNL     1      -3.858  19.894 -29.668  1.00  0.00    -0.507 OA
ATOM     25  H   UNL     1      -3.257  20.186 -30.424  1.00  0.00     0.293 HD
ENDBRANCH   6  24
BRANCH   8  26
ATOM     26  O   UNL     1      -8.150  18.529 -31.330  1.00  0.00    -0.508 OA
ATOM     27  H   UNL     1      -8.364  18.034 -32.189  1.00  0.00     0.293 HD
ENDBRANCH   8  26
TORSDOF 6
ENDMDL
MODEL 8
REMARK VINA RESULT:    -4.906      2.272      3.671
REMARK INTER + INTRA:          -6.218
REMARK INTER:                  -5.915
REMARK INTRA:                  -0.302
REMARK UNBOUND:                -0.308
REMARK SMILES O=c1c(O)c(-c2ccc(O)c(O)c2)oc2cc(O)cc(O)c12
REMARK SMILES IDX 5 1 3 2 2 3 1 4 22 5 20 6 19 7 17 8 16 9 15 10 14 11 6 12
REMARK SMILES IDX 7 13 8 14 9 15 13 16 11 17 10 18 12 20 4 22 21 24 18 26
REMARK H PARENT 10 19 12 21 4 23 21 25 18 27
REMARK Flexibility Score: inf
ROOT
ATOM      1  C   UNL     1      -1.872  14.504 -26.372  1.00  0.00     0.180 A 
ATOM      2  C   UNL     1      -1.143  13.723 -27.285  1.00  0.00     0.208 A 
ATOM      3  C   UNL     1      -1.690  12.509 -27.730  1.00  0.00     0.238 A 
ATOM      4  O   UNL     1      -1.010  11.787 -28.506  1.00  0.00    -0.285 OA
ATOM      5  C   UNL     1      -2.965  12.098 -27.269  1.00  0.00     0.111 A 
ATOM      6  C   UNL     1      -3.632  10.907 -27.684  1.00  0.00     0.134 A 
ATOM      7  C   UNL     1      -4.832  10.536 -27.064  1.00  0.00     0.093 A 
ATOM      8  C   UNL     1      -5.421  11.346 -26.090  1.00  0.00     0.123 A 
ATOM      9  C   UNL     1      -4.806  12.541 -25.721  1.00  0.00     0.094 A 
ATOM     10  C   UNL     1      -3.591  12.920 -26.295  1.00  0.00     0.146 A 
ATOM     11  O   UNL     1      -3.034  14.061 -25.908  1.00  0.00    -0.452 OA
ENDROOT
BRANCH   1  12
ATOM     12  C   UNL     1      -1.372  15.807 -25.876  1.00  0.00     0.025 A 
ATOM     13  C   UNL     1      -0.446  15.883 -24.824  1.00  0.00     0.016 A 
ATOM     14  C   UNL     1       0.030  17.122 -24.390  1.00  0.00     0.051 A 
ATOM     15  C   UNL     1      -0.396  18.305 -25.003  1.00  0.00     0.157 A 
ATOM     16  C   UNL     1      -1.784  16.991 -26.508  1.00  0.00     0.062 A 
ATOM     17  C   UNL     1      -1.313  18.239 -26.079  1.00  0.00     0.158 A 
BRANCH  15  18
ATOM     18  O   UNL     1       0.114  19.511 -24.518  1.00  0.00    -0.504 OA
ATOM     19  H   UNL     1       0.730  20.115 -25.043  1.00  0.00     0.293 HD
ENDBRANCH  15  18
BRANCH  17  20
ATOM     20  O   UNL     1      -1.776  19.375 -26.746  1.00  0.00    -0.504 OA
ATOM     21  H   UNL     1      -2.280  20.126 -26.299  1.00  0.00     0.293 HD
ENDBRANCH  17  20
ENDBRANCH   1  12
BRANCH   2  22
ATOM     22  O   UNL     1       0.122  14.135 -27.711  1.00  0.00    -0.502 OA
ATOM     23  H   UNL     1       0.659  13.620 -28.399  1.00  0.00     0.293 HD
ENDBRANCH   2  22
BRANCH   6  24
ATOM     24  O   UNL     1      -3.178  10.076 -28.711  1.00  0.00    -0.507 OA
ATOM     25  H   UNL     1      -3.770   9.502 -29.292  1.00  0.00     0.293 HD
ENDBRANCH   6  24
BRANCH   8  26
ATOM     26  O   UNL     1      -6.622  10.978 -25.490  1.00  0.00    -0.508 OA
ATOM     27  H   UNL     1      -7.372  11.645 -25.351  1.00  0.00     0.293 HD
ENDBRANCH   8  26
TORSDOF 6
ENDMDL
MODEL 9
REMARK VINA RESULT:    -4.885      3.017      4.688
REMARK INTER + INTRA:          -6.192
REMARK INTER:                  -6.107
REMARK INTRA:                  -0.085
REMARK UNBOUND:                -0.308
REMARK SMILES O=c1c(O)c(-c2ccc(O)c(O)c2)oc2cc(O)cc(O)c12
REMARK SMILES IDX 5 1 3 2 2 3 1 4 22 5 20 6 19 7 17 8 16 9 15 10 14 11 6 12
REMARK SMILES IDX 7 13 8 14 9 15 13 16 11 17 10 18 12 20 4 22 21 24 18 26
REMARK H PARENT 10 19 12 21 4 23 21 25 18 27
REMARK Flexibility Score: inf
ROOT
ATOM      1  C   UNL     1      -2.372  16.581 -26.528  1.00  0.00     0.180 A 
ATOM      2  C   UNL     1      -1.650  15.388 -26.701  1.00  0.00     0.208 A 
ATOM      3  C   UNL     1      -2.323  14.162 -26.581  1.00  0.00     0.238 A 
ATOM      4  O   UNL     1      -1.662  13.096 -26.683  1.00  0.00    -0.285 OA
ATOM      5  C   UNL     1      -3.713  14.144 -26.305  1.00  0.00     0.111 A 
ATOM      6  C   UNL     1      -4.503  12.961 -26.202  1.00  0.00     0.134 A 
ATOM      7  C   UNL     1      -5.841  13.057 -25.796  1.00  0.00     0.093 A 
ATOM      8  C   UNL     1      -6.432  14.300 -25.554  1.00  0.00     0.123 A 
ATOM      9  C   UNL     1      -5.684  15.465 -25.710  1.00  0.00     0.094 A 
ATOM     10  C   UNL     1      -4.338  15.398 -26.078  1.00  0.00     0.146 A 
ATOM     11  O   UNL     1      -3.659  16.532 -26.206  1.00  0.00    -0.452 OA
ENDROOT
BRANCH   1  12
ATOM     12  C   UNL     1      -1.736  17.913 -26.664  1.00  0.00     0.025 A 
ATOM     13  C   UNL     1      -0.642  18.285 -25.867  1.00  0.00     0.016 A 
ATOM     14  C   UNL     1      -0.044  19.537 -26.030  1.00  0.00     0.051 A 
ATOM     15  C   UNL     1      -0.514  20.433 -26.997  1.00  0.00     0.157 A 
ATOM     16  C   UNL     1      -2.195  18.800 -27.649  1.00  0.00     0.062 A 
ATOM     17  C   UNL     1      -1.602  20.058 -27.820  1.00  0.00     0.158 A 
BRANCH  15  18
ATOM     18  O   UNL     1       0.125  21.669 -27.105  1.00  0.00    -0.504 OA
ATOM     19  H   UNL     1       0.817  21.887 -27.807  1.00  0.00     0.293 HD
ENDBRANCH  15  18
BRANCH  17  20
ATOM     20  O   UNL     1      -2.120  20.894 -28.811  1.00  0.00    -0.504 OA
ATOM     21  H   UNL     1      -2.420  20.574 -29.720  1.00  0.00     0.293 HD
ENDBRANCH  17  20
ENDBRANCH   1  12
BRANCH   2  22
ATOM     22  O   UNL     1      -0.276  15.427 -26.952  1.00  0.00    -0.502 OA
ATOM     23  H   UNL     1       0.131  16.026 -27.660  1.00  0.00     0.293 HD
ENDBRANCH   2  22
BRANCH   6  24
ATOM     24  O   UNL     1      -4.036  11.681 -26.510  1.00  0.00    -0.507 OA
ATOM     25  H   UNL     1      -4.215  11.197 -27.376  1.00  0.00     0.293 HD
ENDBRANCH   6  24
BRANCH   8  26
ATOM     26  O   UNL     1      -7.767  14.388 -25.167  1.00  0.00    -0.508 OA
ATOM     27  H   UNL     1      -8.047  14.279 -24.198  1.00  0.00     0.293 HD
ENDBRANCH   8  26
TORSDOF 6
ENDMDL
