MODEL 1
REMARK VINA RESULT:    -4.326      0.000      0.000
REMARK INTER + INTRA:          -4.452
REMARK INTER:                  -4.452
REMARK INTRA:                   0.000
REMARK UNBOUND:                 0.000
REMARK SMILES C=C1[C@@H](O)C[C@@]23C[C@@H]1C(C)(C)[C@H]2CC[C@H]3C
REMARK SMILES IDX 16 1 15 2 14 3 13 4 12 5 6 6 7 7 8 8 9 9 10 10 11 11 2 12
REMARK SMILES IDX 1 13 3 14 5 15 4 16
REMARK H PARENT 4 17
REMARK Flexibility Score: inf
ROOT
ATOM      1  C   UNL     1       3.223   3.220  -5.453  1.00  0.00     0.008 C 
ATOM      2  C   UNL     1       1.856   3.300  -4.756  1.00  0.00    -0.008 C 
ATOM      3  C   UNL     1       1.435   1.967  -4.065  1.00  0.00     0.004 C 
ATOM      4  C   UNL     1      -0.114   1.906  -4.114  1.00  0.00     0.005 C 
ATOM      5  C   UNL     1      -0.468   3.281  -4.652  1.00  0.00     0.002 C 
ATOM      6  C   UNL     1       0.636   3.627  -5.645  1.00  0.00    -0.020 C 
ATOM      7  C   UNL     1       0.231   5.060  -5.957  1.00  0.00     0.016 C 
ATOM      8  C   UNL     1      -1.269   4.838  -6.305  1.00  0.00     0.023 C 
ATOM      9  C   UNL     1      -1.795   3.760  -5.274  1.00  0.00    -0.025 C 
ATOM     10  C   UNL     1      -2.682   4.457  -4.215  1.00  0.00     0.012 C 
ATOM     11  C   UNL     1      -2.618   2.589  -5.870  1.00  0.00     0.012 C 
ATOM     12  C   UNL     1      -1.310   4.314  -7.722  1.00  0.00    -0.045 C 
ATOM     13  C   UNL     1      -2.300   4.672  -8.555  1.00  0.00     0.011 C 
ATOM     14  C   UNL     1      -0.244   3.331  -8.169  1.00  0.00     0.140 C 
ATOM     15  C   UNL     1       0.611   2.772  -6.986  1.00  0.00     0.044 C 
ENDROOT
BRANCH  14  16
ATOM     16  O   UNL     1       0.604   3.967  -9.092  1.00  0.00    -0.389 OA
ATOM     17  H   UNL     1       0.044   4.240  -9.866  1.00  0.00     0.211 HD
ENDBRANCH  14  16
TORSDOF 1
ENDMDL
MODEL 2
REMARK VINA RESULT:    -4.168      1.978      4.563
REMARK INTER + INTRA:          -4.290
REMARK INTER:                  -4.290
REMARK INTRA:                   0.000
REMARK UNBOUND:                 0.000
REMARK SMILES C=C1[C@@H](O)C[C@@]23C[C@@H]1C(C)(C)[C@H]2CC[C@H]3C
REMARK SMILES IDX 16 1 15 2 14 3 13 4 12 5 6 6 7 7 8 8 9 9 10 10 11 11 2 12
REMARK SMILES IDX 1 13 3 14 5 15 4 16
REMARK H PARENT 4 17
REMARK Flexibility Score: inf
ROOT
ATOM      1  C   UNL     1      -3.387   4.764  -4.144  1.00  0.00     0.008 C 
ATOM      2  C   UNL     1      -2.387   5.082  -5.265  1.00  0.00    -0.008 C 
ATOM      3  C   UNL     1      -2.904   4.694  -6.683  1.00  0.00     0.004 C 
ATOM      4  C   UNL     1      -1.658   4.325  -7.530  1.00  0.00     0.005 C 
ATOM      5  C   UNL     1      -0.520   4.709  -6.602  1.00  0.00     0.002 C 
ATOM      6  C   UNL     1      -1.012   4.382  -5.196  1.00  0.00    -0.020 C 
ATOM      7  C   UNL     1       0.147   4.964  -4.399  1.00  0.00     0.016 C 
ATOM      8  C   UNL     1       1.337   4.277  -5.129  1.00  0.00     0.023 C 
ATOM      9  C   UNL     1       0.961   4.285  -6.666  1.00  0.00    -0.025 C 
ATOM     10  C   UNL     1       1.811   5.355  -7.393  1.00  0.00     0.012 C 
ATOM     11  C   UNL     1       1.154   2.946  -7.424  1.00  0.00     0.012 C 
ATOM     12  C   UNL     1       1.420   2.869  -4.588  1.00  0.00    -0.045 C 
ATOM     13  C   UNL     1       2.610   2.274  -4.411  1.00  0.00     0.011 C 
ATOM     14  C   UNL     1       0.132   2.119  -4.302  1.00  0.00     0.140 C 
ATOM     15  C   UNL     1      -1.134   2.827  -4.883  1.00  0.00     0.044 C 
ENDROOT
BRANCH  14  16
ATOM     16  O   UNL     1      -0.013   1.977  -2.911  1.00  0.00    -0.389 OA
ATOM     17  H   UNL     1      -0.934   1.644  -2.745  1.00  0.00     0.211 HD
ENDBRANCH  14  16
TORSDOF 1
ENDMDL
MODEL 3
REMARK VINA RESULT:    -4.150      1.872      3.285
REMARK INTER + INTRA:          -4.272
REMARK INTER:                  -4.272
REMARK INTRA:                   0.000
REMARK UNBOUND:                 0.000
REMARK SMILES C=C1[C@@H](O)C[C@@]23C[C@@H]1C(C)(C)[C@H]2CC[C@H]3C
REMARK SMILES IDX 16 1 15 2 14 3 13 4 12 5 6 6 7 7 8 8 9 9 10 10 11 11 2 12
REMARK SMILES IDX 1 13 3 14 5 15 4 16
REMARK H PARENT 4 17
REMARK Flexibility Score: inf
ROOT
ATOM      1  C   UNL     1       0.188   1.910  -4.088  1.00  0.00     0.008 C 
ATOM      2  C   UNL     1       0.373   3.107  -5.032  1.00  0.00    -0.008 C 
ATOM      3  C   UNL     1       0.335   4.483  -4.301  1.00  0.00     0.004 C 
ATOM      4  C   UNL     1      -0.239   5.513  -5.309  1.00  0.00     0.005 C 
ATOM      5  C   UNL     1      -0.307   4.697  -6.588  1.00  0.00     0.002 C 
ATOM      6  C   UNL     1      -0.676   3.284  -6.152  1.00  0.00    -0.020 C 
ATOM      7  C   UNL     1      -0.544   2.580  -7.495  1.00  0.00     0.016 C 
ATOM      8  C   UNL     1      -1.422   3.521  -8.370  1.00  0.00     0.023 C 
ATOM      9  C   UNL     1      -1.103   4.990  -7.876  1.00  0.00    -0.025 C 
ATOM     10  C   UNL     1      -0.215   5.700  -8.926  1.00  0.00     0.012 C 
ATOM     11  C   UNL     1      -2.329   5.902  -7.611  1.00  0.00     0.012 C 
ATOM     12  C   UNL     1      -2.860   3.145  -8.098  1.00  0.00    -0.045 C 
ATOM     13  C   UNL     1      -3.773   3.181  -9.081  1.00  0.00     0.011 C 
ATOM     14  C   UNL     1      -3.265   2.783  -6.681  1.00  0.00     0.140 C 
ATOM     15  C   UNL     1      -2.168   3.123  -5.622  1.00  0.00     0.044 C 
ENDROOT
BRANCH  14  16
ATOM     16  O   UNL     1      -3.549   1.407  -6.627  1.00  0.00    -0.389 OA
ATOM     17  H   UNL     1      -4.237   1.277  -5.923  1.00  0.00     0.211 HD
ENDBRANCH  14  16
TORSDOF 1
ENDMDL
MODEL 4
REMARK VINA RESULT:    -4.051      1.952      3.543
REMARK INTER + INTRA:          -4.169
REMARK INTER:                  -4.169
REMARK INTRA:                   0.000
REMARK UNBOUND:                 0.000
REMARK SMILES C=C1[C@@H](O)C[C@@]23C[C@@H]1C(C)(C)[C@H]2CC[C@H]3C
REMARK SMILES IDX 16 1 15 2 14 3 13 4 12 5 6 6 7 7 8 8 9 9 10 10 11 11 2 12
REMARK SMILES IDX 1 13 3 14 5 15 4 16
REMARK H PARENT 4 17
REMARK Flexibility Score: inf
ROOT
ATOM      1  C   UNL     1      -1.478   7.838  -4.273  1.00  0.00     0.008 C 
ATOM      2  C   UNL     1      -0.750   6.504  -4.054  1.00  0.00    -0.008 C 
ATOM      3  C   UNL     1       0.761   6.554  -4.435  1.00  0.00     0.004 C 
ATOM      4  C   UNL     1       1.152   5.131  -4.913  1.00  0.00     0.005 C 
ATOM      5  C   UNL     1      -0.101   4.335  -4.593  1.00  0.00     0.002 C 
ATOM      6  C   UNL     1      -1.265   5.285  -4.851  1.00  0.00    -0.020 C 
ATOM      7  C   UNL     1      -2.401   4.412  -4.338  1.00  0.00     0.016 C 
ATOM      8  C   UNL     1      -2.102   3.104  -5.127  1.00  0.00     0.023 C 
ATOM      9  C   UNL     1      -0.527   2.952  -5.125  1.00  0.00    -0.025 C 
ATOM     10  C   UNL     1      -0.124   1.832  -4.137  1.00  0.00     0.012 C 
ATOM     11  C   UNL     1       0.129   2.625  -6.491  1.00  0.00     0.012 C 
ATOM     12  C   UNL     1      -2.636   3.312  -6.525  1.00  0.00    -0.045 C 
ATOM     13  C   UNL     1      -3.193   2.296  -7.201  1.00  0.00     0.011 C 
ATOM     14  C   UNL     1      -2.479   4.676  -7.172  1.00  0.00     0.140 C 
ATOM     15  C   UNL     1      -1.516   5.622  -6.386  1.00  0.00     0.044 C 
ENDROOT
BRANCH  14  16
ATOM     16  O   UNL     1      -3.744   5.281  -7.272  1.00  0.00    -0.389 OA
ATOM     17  H   UNL     1      -4.364   4.605  -7.652  1.00  0.00     0.211 HD
ENDBRANCH  14  16
TORSDOF 1
ENDMDL
MODEL 5
REMARK VINA RESULT:    -3.960     12.908     14.990
REMARK INTER + INTRA:          -4.076
REMARK INTER:                  -4.076
REMARK INTRA:                   0.000
REMARK UNBOUND:                 0.000
REMARK SMILES C=C1[C@@H](O)C[C@@]23C[C@@H]1C(C)(C)[C@H]2CC[C@H]3C
REMARK SMILES IDX 16 1 15 2 14 3 13 4 12 5 6 6 7 7 8 8 9 9 10 10 11 11 2 12
REMARK SMILES IDX 1 13 3 14 5 15 4 16
REMARK H PARENT 4 17
REMARK Flexibility Score: inf
ROOT
ATOM      1  C   UNL     1      -5.683   0.668   8.512  1.00  0.00     0.008 C 
ATOM      2  C   UNL     1      -4.558   0.105   7.631  1.00  0.00    -0.008 C 
ATOM      3  C   UNL     1      -4.288  -1.412   7.869  1.00  0.00     0.004 C 
ATOM      4  C   UNL     1      -2.782  -1.650   7.586  1.00  0.00     0.005 C 
ATOM      5  C   UNL     1      -2.348  -0.306   7.030  1.00  0.00     0.002 C 
ATOM      6  C   UNL     1      -3.157   0.734   7.798  1.00  0.00    -0.020 C 
ATOM      7  C   UNL     1      -2.738   1.977   7.026  1.00  0.00     0.016 C 
ATOM      8  C   UNL     1      -1.192   1.807   7.078  1.00  0.00     0.023 C 
ATOM      9  C   UNL     1      -0.922   0.261   6.879  1.00  0.00    -0.025 C 
ATOM     10  C   UNL     1      -0.379   0.018   5.450  1.00  0.00     0.012 C 
ATOM     11  C   UNL     1       0.074  -0.392   7.871  1.00  0.00     0.012 C 
ATOM     12  C   UNL     1      -0.752   2.273   8.447  1.00  0.00    -0.045 C 
ATOM     13  C   UNL     1       0.411   2.924   8.606  1.00  0.00     0.011 C 
ATOM     14  C   UNL     1      -1.621   1.942   9.645  1.00  0.00     0.140 C 
ATOM     15  C   UNL     1      -2.740   0.900   9.325  1.00  0.00     0.044 C 
ENDROOT
BRANCH  14  16
ATOM     16  O   UNL     1      -2.213   3.126  10.120  1.00  0.00    -0.389 OA
ATOM     17  H   UNL     1      -3.153   2.910  10.355  1.00  0.00     0.211 HD
ENDBRANCH  14  16
TORSDOF 1
ENDMDL
MODEL 6
REMARK VINA RESULT:    -3.958      1.277      3.849
REMARK INTER + INTRA:          -4.073
REMARK INTER:                  -4.073
REMARK INTRA:                   0.000
REMARK UNBOUND:                 0.000
REMARK SMILES C=C1[C@@H](O)C[C@@]23C[C@@H]1C(C)(C)[C@H]2CC[C@H]3C
REMARK SMILES IDX 16 1 15 2 14 3 13 4 12 5 6 6 7 7 8 8 9 9 10 10 11 11 2 12
REMARK SMILES IDX 1 13 3 14 5 15 4 16
REMARK H PARENT 4 17
REMARK Flexibility Score: inf
ROOT
ATOM      1  C   UNL     1      -4.163   4.469  -7.394  1.00  0.00     0.008 C 
ATOM      2  C   UNL     1      -3.364   3.853  -6.236  1.00  0.00    -0.008 C 
ATOM      3  C   UNL     1      -3.547   4.611  -4.886  1.00  0.00     0.004 C 
ATOM      4  C   UNL     1      -2.224   4.444  -4.093  1.00  0.00     0.005 C 
ATOM      5  C   UNL     1      -1.462   3.454  -4.956  1.00  0.00     0.002 C 
ATOM      6  C   UNL     1      -1.828   3.800  -6.395  1.00  0.00    -0.020 C 
ATOM      7  C   UNL     1      -1.133   2.645  -7.100  1.00  0.00     0.016 C 
ATOM      8  C   UNL     1       0.283   2.766  -6.467  1.00  0.00     0.023 C 
ATOM      9  C   UNL     1       0.044   3.126  -4.945  1.00  0.00    -0.025 C 
ATOM     10  C   UNL     1       0.332   1.879  -4.075  1.00  0.00     0.012 C 
ATOM     11  C   UNL     1       0.892   4.294  -4.378  1.00  0.00     0.012 C 
ATOM     12  C   UNL     1       0.987   3.887  -7.196  1.00  0.00    -0.045 C 
ATOM     13  C   UNL     1       2.303   3.818  -7.449  1.00  0.00     0.011 C 
ATOM     14  C   UNL     1       0.190   5.118  -7.587  1.00  0.00     0.140 C 
ATOM     15  C   UNL     1      -1.221   5.175  -6.919  1.00  0.00     0.044 C 
ENDROOT
BRANCH  14  16
ATOM     16  O   UNL     1       0.043   5.141  -8.984  1.00  0.00    -0.389 OA
ATOM     17  H   UNL     1      -0.805   4.670  -9.198  1.00  0.00     0.211 HD
ENDBRANCH  14  16
TORSDOF 1
ENDMDL
MODEL 7
REMARK VINA RESULT:    -3.920     10.602     12.685
REMARK INTER + INTRA:          -4.035
REMARK INTER:                  -4.035
REMARK INTRA:                   0.000
REMARK UNBOUND:                 0.000
REMARK SMILES C=C1[C@@H](O)C[C@@]23C[C@@H]1C(C)(C)[C@H]2CC[C@H]3C
REMARK SMILES IDX 16 1 15 2 14 3 13 4 12 5 6 6 7 7 8 8 9 9 10 10 11 11 2 12
REMARK SMILES IDX 1 13 3 14 5 15 4 16
REMARK H PARENT 4 17
REMARK Flexibility Score: inf
ROOT
ATOM      1  C   UNL     1       5.708  -7.424  -1.140  1.00  0.00     0.008 C 
ATOM      2  C   UNL     1       4.668  -6.333  -0.841  1.00  0.00    -0.008 C 
ATOM      3  C   UNL     1       5.049  -5.432   0.372  1.00  0.00     0.004 C 
ATOM      4  C   UNL     1       3.719  -4.973   1.026  1.00  0.00     0.005 C 
ATOM      5  C   UNL     1       2.688  -5.483   0.035  1.00  0.00     0.002 C 
ATOM      6  C   UNL     1       3.241  -6.805  -0.485  1.00  0.00    -0.020 C 
ATOM      7  C   UNL     1       2.199  -7.092  -1.557  1.00  0.00     0.016 C 
ATOM      8  C   UNL     1       0.903  -6.917  -0.715  1.00  0.00     0.023 C 
ATOM      9  C   UNL     1       1.173  -5.682   0.238  1.00  0.00    -0.025 C 
ATOM     10  C   UNL     1       0.380  -4.458  -0.278  1.00  0.00     0.012 C 
ATOM     11  C   UNL     1       0.803  -5.879   1.731  1.00  0.00     0.012 C 
ATOM     12  C   UNL     1       0.725  -8.195   0.073  1.00  0.00    -0.045 C 
ATOM     13  C   UNL     1      -0.501  -8.690   0.302  1.00  0.00     0.011 C 
ATOM     14  C   UNL     1       1.953  -8.875   0.649  1.00  0.00     0.140 C 
ATOM     15  C   UNL     1       3.237  -7.988   0.579  1.00  0.00     0.044 C 
ENDROOT
BRANCH  14  16
ATOM     16  O   UNL     1       2.179 -10.074  -0.050  1.00  0.00    -0.389 OA
ATOM     17  H   UNL     1       3.142 -10.294   0.048  1.00  0.00     0.211 HD
ENDBRANCH  14  16
TORSDOF 1
ENDMDL
MODEL 8
REMARK VINA RESULT:    -3.896      2.044      3.411
REMARK INTER + INTRA:          -4.009
REMARK INTER:                  -4.009
REMARK INTRA:                   0.000
REMARK UNBOUND:                 0.000
REMARK SMILES C=C1[C@@H](O)C[C@@]23C[C@@H]1C(C)(C)[C@H]2CC[C@H]3C
REMARK SMILES IDX 16 1 15 2 14 3 13 4 12 5 6 6 7 7 8 8 9 9 10 10 11 11 2 12
REMARK SMILES IDX 1 13 3 14 5 15 4 16
REMARK H PARENT 4 17
REMARK Flexibility Score: inf
ROOT
ATOM      1  C   UNL     1       1.311   3.006  -4.485  1.00  0.00     0.008 C 
ATOM      2  C   UNL     1       0.544   2.602  -5.753  1.00  0.00    -0.008 C 
ATOM      3  C   UNL     1       1.324   2.901  -7.069  1.00  0.00     0.004 C 
ATOM      4  C   UNL     1       0.264   3.198  -8.162  1.00  0.00     0.005 C 
ATOM      5  C   UNL     1      -1.032   2.864  -7.444  1.00  0.00     0.002 C 
ATOM      6  C   UNL     1      -0.818   3.289  -5.996  1.00  0.00    -0.020 C 
ATOM      7  C   UNL     1      -2.109   2.749  -5.398  1.00  0.00     0.016 C 
ATOM      8  C   UNL     1      -3.136   3.372  -6.387  1.00  0.00     0.023 C 
ATOM      9  C   UNL     1      -2.472   3.266  -7.819  1.00  0.00    -0.025 C 
ATOM     10  C   UNL     1      -3.169   2.140  -8.621  1.00  0.00     0.012 C 
ATOM     11  C   UNL     1      -2.514   4.549  -8.688  1.00  0.00     0.012 C 
ATOM     12  C   UNL     1      -3.318   4.813  -5.967  1.00  0.00    -0.045 C 
ATOM     13  C   UNL     1      -4.519   5.405  -6.062  1.00  0.00     0.011 C 
ATOM     14  C   UNL     1      -2.108   5.595  -5.492  1.00  0.00     0.140 C 
ATOM     15  C   UNL     1      -0.755   4.864  -5.771  1.00  0.00     0.044 C 
ENDROOT
BRANCH  14  16
ATOM     16  O   UNL     1      -2.231   5.830  -4.112  1.00  0.00    -0.389 OA
ATOM     17  H   UNL     1      -1.327   6.057  -3.771  1.00  0.00     0.211 HD
ENDBRANCH  14  16
TORSDOF 1
ENDMDL
MODEL 9
REMARK VINA RESULT:    -3.854      1.650      4.598
REMARK INTER + INTRA:          -3.966
REMARK INTER:                  -3.966
REMARK INTRA:                   0.000
REMARK UNBOUND:                 0.000
REMARK SMILES C=C1[C@@H](O)C[C@@]23C[C@@H]1C(C)(C)[C@H]2CC[C@H]3C
REMARK SMILES IDX 16 1 15 2 14 3 13 4 12 5 6 6 7 7 8 8 9 9 10 10 11 11 2 12
REMARK SMILES IDX 1 13 3 14 5 15 4 16
REMARK H PARENT 4 17
REMARK Flexibility Score: inf
ROOT
ATOM      1  C   UNL     1      -4.145   3.390  -9.726  1.00  0.00     0.008 C 
ATOM      2  C   UNL     1      -4.230   4.083  -8.358  1.00  0.00    -0.008 C 
ATOM      3  C   UNL     1      -4.208   5.639  -8.450  1.00  0.00     0.004 C 
ATOM      4  C   UNL     1      -3.536   6.157  -7.152  1.00  0.00     0.005 C 
ATOM      5  C   UNL     1      -3.399   4.882  -6.337  1.00  0.00     0.002 C 
ATOM      6  C   UNL     1      -3.100   3.782  -7.349  1.00  0.00    -0.020 C 
ATOM      7  C   UNL     1      -3.155   2.581  -6.415  1.00  0.00     0.016 C 
ATOM      8  C   UNL     1      -2.193   3.075  -5.298  1.00  0.00     0.023 C 
ATOM      9  C   UNL     1      -2.506   4.615  -5.110  1.00  0.00    -0.025 C 
ATOM     10  C   UNL     1      -3.297   4.817  -3.795  1.00  0.00     0.012 C 
ATOM     11  C   UNL     1      -1.278   5.560  -5.062  1.00  0.00     0.012 C 
ATOM     12  C   UNL     1      -0.788   2.855  -5.810  1.00  0.00    -0.045 C 
ATOM     13  C   UNL     1       0.194   2.482  -4.974  1.00  0.00     0.011 C 
ATOM     14  C   UNL     1      -0.495   3.119  -7.275  1.00  0.00     0.140 C 
ATOM     15  C   UNL     1      -1.655   3.865  -8.010  1.00  0.00     0.044 C 
ENDROOT
BRANCH  14  16
ATOM     16  O   UNL     1      -0.252   1.893  -7.919  1.00  0.00    -0.389 OA
ATOM     17  H   UNL     1      -0.234   2.072  -8.895  1.00  0.00     0.211 HD
ENDBRANCH  14  16
TORSDOF 1
ENDMDL
