MODEL 1
REMARK VINA RESULT:     4.278      0.000      0.000
REMARK INTER + INTRA:           5.746
REMARK INTER:                   6.028
REMARK INTRA:                  -0.282
REMARK UNBOUND:                -0.282
REMARK SMILES CCCCCCCCC(=O)[O-]
REMARK SMILES IDX 6 1 7 2 8 3 9 4 10 5 11 6 5 7 4 8 3 9 2 10 1 11
REMARK H PARENT
REMARK Flexibility Score: inf
ROOT
ATOM      1  C   UNL     1       9.426  17.562  28.564  1.00  0.00     0.000 C 
ENDROOT
BRANCH   1   2
ATOM      2  C   UNL     1       8.691  17.912  27.261  1.00  0.00     0.006 C 
BRANCH   2   3
ATOM      3  C   UNL     1       7.428  17.065  27.062  1.00  0.00     0.053 C 
BRANCH   3   4
ATOM      4  C   UNL     1       6.227  17.917  26.789  1.00  0.00     0.041 C 
ATOM      5  O   UNL     1       5.186  17.788  27.485  1.00  0.00    -0.550 OA
ATOM      6  O   UNL     1       6.246  18.831  25.744  1.00  0.00    -0.550 OA
ENDBRANCH   3   4
ENDBRANCH   2   3
ENDBRANCH   1   2
BRANCH   1   7
ATOM      7  C   UNL     1       8.444  17.455  29.737  1.00  0.00     0.000 C 
BRANCH   7   8
ATOM      8  C   UNL     1       9.092  17.927  31.044  1.00  0.00    -0.000 C 
BRANCH   8   9
ATOM      9  C   UNL     1       8.608  17.085  32.233  1.00  0.00    -0.000 C 
BRANCH   9  10
ATOM     10  C   UNL     1       7.610  17.840  33.125  1.00  0.00    -0.003 C 
ATOM     11  C   UNL     1       7.558  19.337  32.819  1.00  0.00     0.004 C 
ENDBRANCH   9  10
ENDBRANCH   8   9
ENDBRANCH   7   8
ENDBRANCH   1   7
TORSDOF 7
ENDMDL
MODEL 2
REMARK VINA RESULT:     4.279      3.040      5.363
REMARK INTER + INTRA:           5.749
REMARK INTER:                   6.051
REMARK INTRA:                  -0.302
REMARK UNBOUND:                -0.282
REMARK SMILES CCCCCCCCC(=O)[O-]
REMARK SMILES IDX 6 1 7 2 8 3 9 4 10 5 11 6 5 7 4 8 3 9 2 10 1 11
REMARK H PARENT
REMARK Flexibility Score: inf
ROOT
ATOM      1  C   UNL     1       9.639  17.907  29.161  1.00  0.00     0.000 C 
ENDROOT
BRANCH   1   2
ATOM      2  C   UNL     1       8.616  17.474  30.221  1.00  0.00     0.006 C 
BRANCH   2   3
ATOM      3  C   UNL     1       9.169  17.598  31.646  1.00  0.00     0.053 C 
BRANCH   3   4
ATOM      4  C   UNL     1       8.086  17.476  32.674  1.00  0.00     0.041 C 
ATOM      5  O   UNL     1       7.751  16.344  33.111  1.00  0.00    -0.550 OA
ATOM      6  O   UNL     1       7.425  18.611  33.125  1.00  0.00    -0.550 OA
ENDBRANCH   3   4
ENDBRANCH   2   3
ENDBRANCH   1   2
BRANCH   1   7
ATOM      7  C   UNL     1       9.275  17.344  27.781  1.00  0.00     0.000 C 
BRANCH   7   8
ATOM      8  C   UNL     1       7.758  17.171  27.639  1.00  0.00    -0.000 C 
BRANCH   8   9
ATOM      9  C   UNL     1       7.294  17.536  26.221  1.00  0.00    -0.000 C 
BRANCH   9  10
ATOM     10  C   UNL     1       6.057  18.447  26.221  1.00  0.00    -0.003 C 
ATOM     11  C   UNL     1       4.945  17.935  27.136  1.00  0.00     0.004 C 
ENDBRANCH   9  10
ENDBRANCH   8   9
ENDBRANCH   7   8
ENDBRANCH   1   7
TORSDOF 7
ENDMDL
MODEL 3
REMARK VINA RESULT:     4.284      1.250      1.930
REMARK INTER + INTRA:           5.755
REMARK INTER:                   6.101
REMARK INTRA:                  -0.347
REMARK UNBOUND:                -0.282
REMARK SMILES CCCCCCCCC(=O)[O-]
REMARK SMILES IDX 6 1 7 2 8 3 9 4 10 5 11 6 5 7 4 8 3 9 2 10 1 11
REMARK H PARENT
REMARK Flexibility Score: inf
ROOT
ATOM      1  C   UNL     1       8.540  17.491  29.948  1.00  0.00     0.000 C 
ENDROOT
BRANCH   1   2
ATOM      2  C   UNL     1       9.564  17.577  28.806  1.00  0.00     0.006 C 
BRANCH   2   3
ATOM      3  C   UNL     1       8.947  18.125  27.513  1.00  0.00     0.053 C 
BRANCH   3   4
ATOM      4  C   UNL     1       7.837  17.252  27.014  1.00  0.00     0.041 C 
ATOM      5  O   UNL     1       8.047  16.034  26.772  1.00  0.00    -0.550 OA
ATOM      6  O   UNL     1       6.577  17.791  26.787  1.00  0.00    -0.550 OA
ENDBRANCH   3   4
ENDBRANCH   2   3
ENDBRANCH   1   2
BRANCH   1   7
ATOM      7  C   UNL     1       9.185  17.848  31.293  1.00  0.00     0.000 C 
BRANCH   7   8
ATOM      8  C   UNL     1       8.482  17.129  32.450  1.00  0.00    -0.000 C 
BRANCH   8   9
ATOM      9  C   UNL     1       7.404  18.023  33.079  1.00  0.00    -0.000 C 
BRANCH   9  10
ATOM     10  C   UNL     1       7.792  19.510  33.073  1.00  0.00    -0.003 C 
ATOM     11  C   UNL     1       6.578  20.438  33.123  1.00  0.00     0.004 C 
ENDBRANCH   9  10
ENDBRANCH   8   9
ENDBRANCH   7   8
ENDBRANCH   1   7
TORSDOF 7
ENDMDL
MODEL 4
REMARK VINA RESULT:     5.534      2.847      5.352
REMARK INTER + INTRA:           7.517
REMARK INTER:                   7.668
REMARK INTRA:                  -0.151
REMARK UNBOUND:                -0.282
REMARK SMILES CCCCCCCCC(=O)[O-]
REMARK SMILES IDX 6 1 7 2 8 3 9 4 10 5 11 6 5 7 4 8 3 9 2 10 1 11
REMARK H PARENT
REMARK Flexibility Score: inf
ROOT
ATOM      1  C   UNL     1       8.151  17.158  30.724  1.00  0.00     0.000 C 
ENDROOT
BRANCH   1   2
ATOM      2  C   UNL     1       8.628  17.146  32.184  1.00  0.00     0.006 C 
BRANCH   2   3
ATOM      3  C   UNL     1       7.674  17.908  33.113  1.00  0.00     0.053 C 
BRANCH   3   4
ATOM      4  C   UNL     1       7.601  19.362  32.759  1.00  0.00     0.041 C 
ATOM      5  O   UNL     1       8.617  19.961  32.320  1.00  0.00    -0.550 OA
ATOM      6  O   UNL     1       6.416  20.063  32.946  1.00  0.00    -0.550 OA
ENDBRANCH   3   4
ENDBRANCH   2   3
ENDBRANCH   1   2
BRANCH   1   7
ATOM      7  C   UNL     1       9.156  17.888  29.823  1.00  0.00     0.000 C 
BRANCH   7   8
ATOM      8  C   UNL     1       9.373  17.127  28.510  1.00  0.00    -0.000 C 
BRANCH   8   9
ATOM      9  C   UNL     1       8.678  17.838  27.341  1.00  0.00    -0.000 C 
BRANCH   9  10
ATOM     10  C   UNL     1       7.438  17.080  26.840  1.00  0.00    -0.003 C 
ATOM     11  C   UNL     1       6.210  17.979  26.703  1.00  0.00     0.004 C 
ENDBRANCH   9  10
ENDBRANCH   8   9
ENDBRANCH   7   8
ENDBRANCH   1   7
TORSDOF 7
ENDMDL
MODEL 5
REMARK VINA RESULT:     6.603     15.095     16.157
REMARK INTER + INTRA:           9.023
REMARK INTER:                   9.197
REMARK INTRA:                  -0.174
REMARK UNBOUND:                -0.282
REMARK SMILES CCCCCCCCC(=O)[O-]
REMARK SMILES IDX 6 1 7 2 8 3 9 4 10 5 11 6 5 7 4 8 3 9 2 10 1 11
REMARK H PARENT
REMARK Flexibility Score: inf
ROOT
ATOM      1  C   UNL     1      -4.279   6.214  32.592  1.00  0.00     0.000 C 
ENDROOT
BRANCH   1   2
ATOM      2  C   UNL     1      -2.838   6.726  32.737  1.00  0.00     0.006 C 
BRANCH   2   3
ATOM      3  C   UNL     1      -1.989   6.429  31.495  1.00  0.00     0.053 C 
BRANCH   3   4
ATOM      4  C   UNL     1      -1.691   7.674  30.718  1.00  0.00     0.041 C 
ATOM      5  O   UNL     1      -0.501   7.975  30.434  1.00  0.00    -0.550 OA
ATOM      6  O   UNL     1      -2.724   8.519  30.334  1.00  0.00    -0.550 OA
ENDBRANCH   3   4
ENDBRANCH   2   3
ENDBRANCH   1   2
BRANCH   1   7
ATOM      7  C   UNL     1      -5.285   7.244  33.124  1.00  0.00     0.000 C 
BRANCH   7   8
ATOM      8  C   UNL     1      -5.050   8.621  32.493  1.00  0.00    -0.000 C 
BRANCH   8   9
ATOM      9  C   UNL     1      -5.997   8.851  31.306  1.00  0.00    -0.000 C 
BRANCH   9  10
ATOM     10  C   UNL     1      -6.119   7.616  30.400  1.00  0.00    -0.003 C 
ATOM     11  C   UNL     1      -5.879   7.938  28.925  1.00  0.00     0.004 C 
ENDBRANCH   9  10
ENDBRANCH   8   9
ENDBRANCH   7   8
ENDBRANCH   1   7
TORSDOF 7
ENDMDL
