MODEL 1
REMARK VINA RESULT:    -5.416      0.000      0.000
REMARK INTER + INTRA:          -9.203
REMARK INTER:                  -8.266
REMARK INTRA:                  -0.937
REMARK UNBOUND:                -0.937
REMARK SMILES OC[C@@H]1O[C@H](O[C@@]2(CO)O[C@@H](CO)[C@H](O)[C@@H]2O)[C@@H](O)[C@H](O)[C@H]1O
REMARK SMILES IDX 6 1 5 2 3 3 22 4 4 5 20 6 18 7 2 8 1 9 23 11 21 13 19 15
REMARK SMILES IDX 7 17 16 18 10 19 14 20 11 21 8 22 9 23 17 25 15 27 12 29
REMARK SMILES IDX 13 30
REMARK H PARENT 1 10 23 12 21 14 19 16 9 24 17 26 15 28 13 31
REMARK Flexibility Score: inf
ROOT
ATOM      1  O   UNL     1      11.731  42.329  57.923  1.00  0.00    -0.313 OA
ENDROOT
BRANCH   1   2
ATOM      2  C   UNL     1      12.942  42.847  58.457  1.00  0.00     0.285 C 
ATOM      3  C   UNL     1      14.771  42.300  59.799  1.00  0.00     0.178 C 
ATOM      4  C   UNL     1      15.809  42.753  58.745  1.00  0.00     0.177 C 
ATOM      5  O   UNL     1      13.603  41.811  59.163  1.00  0.00    -0.341 OA
ATOM      6  C   UNL     1      15.178  43.811  57.820  1.00  0.00     0.179 C 
ATOM      7  C   UNL     1      13.828  43.310  57.285  1.00  0.00     0.202 C 
BRANCH   3   8
ATOM      8  C   UNL     1      15.335  41.197  60.709  1.00  0.00     0.191 C 
BRANCH   8   9
ATOM      9  O   UNL     1      14.504  40.978  61.818  1.00  0.00    -0.394 OA
ATOM     10  H   UNL     1      13.948  41.793  61.924  1.00  0.00     0.210 HD
ENDBRANCH   8   9
ENDBRANCH   3   8
BRANCH   4  11
ATOM     11  O   UNL     1      16.931  43.297  59.393  1.00  0.00    -0.387 OA
ATOM     12  H   UNL     1      17.288  42.593  59.994  1.00  0.00     0.211 HD
ENDBRANCH   4  11
BRANCH   6  13
ATOM     13  O   UNL     1      16.032  44.075  56.736  1.00  0.00    -0.387 OA
ATOM     14  H   UNL     1      16.750  43.389  56.761  1.00  0.00     0.211 HD
ENDBRANCH   6  13
BRANCH   7  15
ATOM     15  O   UNL     1      13.199  44.348  56.580  1.00  0.00    -0.385 OA
ATOM     16  H   UNL     1      12.959  43.985  55.687  1.00  0.00     0.211 HD
ENDBRANCH   7  15
ENDBRANCH   1   2
BRANCH   1  17
ATOM     17  C   UNL     1      10.553  42.970  58.414  1.00  0.00     0.224 C 
ATOM     18  C   UNL     1      10.965  43.747  59.682  1.00  0.00     0.208 C 
ATOM     19  O   UNL     1       9.599  41.999  58.811  1.00  0.00    -0.337 OA
ATOM     20  C   UNL     1      10.822  42.689  60.753  1.00  0.00     0.180 C 
ATOM     21  C   UNL     1       9.669  41.845  60.216  1.00  0.00     0.179 C 
BRANCH  17  22
ATOM     22  C   UNL     1       9.934  43.901  57.337  1.00  0.00     0.225 C 
BRANCH  22  23
ATOM     23  O   UNL     1      10.619  45.124  57.276  1.00  0.00    -0.391 OA
ATOM     24  H   UNL     1      10.646  45.486  58.200  1.00  0.00     0.210 HD
ENDBRANCH  22  23
ENDBRANCH  17  22
BRANCH  18  25
ATOM     25  O   UNL     1      10.147  44.867  59.943  1.00  0.00    -0.385 OA
ATOM     26  H   UNL     1      10.383  45.588  59.301  1.00  0.00     0.211 HD
ENDBRANCH  18  25
BRANCH  20  27
ATOM     27  O   UNL     1      10.513  43.235  62.008  1.00  0.00    -0.387 OA
ATOM     28  H   UNL     1       9.522  43.272  62.060  1.00  0.00     0.211 HD
ENDBRANCH  20  27
BRANCH  21  29
ATOM     29  C   UNL     1       9.819  40.365  60.584  1.00  0.00     0.191 C 
BRANCH  29  30
ATOM     30  O   UNL     1      10.134  40.228  61.944  1.00  0.00    -0.394 OA
ATOM     31  H   UNL     1      11.118  40.111  61.998  1.00  0.00     0.210 HD
ENDBRANCH  29  30
ENDBRANCH  21  29
ENDBRANCH   1  17
TORSDOF 13
ENDMDL
MODEL 2
REMARK VINA RESULT:    -5.396      1.950      3.838
REMARK INTER + INTRA:          -9.172
REMARK INTER:                  -7.643
REMARK INTRA:                  -1.529
REMARK UNBOUND:                -0.937
REMARK SMILES OC[C@@H]1O[C@H](O[C@@]2(CO)O[C@@H](CO)[C@H](O)[C@@H]2O)[C@@H](O)[C@H](O)[C@H]1O
REMARK SMILES IDX 6 1 5 2 3 3 22 4 4 5 20 6 18 7 2 8 1 9 23 11 21 13 19 15
REMARK SMILES IDX 7 17 16 18 10 19 14 20 11 21 8 22 9 23 17 25 15 27 12 29
REMARK SMILES IDX 13 30
REMARK H PARENT 1 10 23 12 21 14 19 16 9 24 17 26 15 28 13 31
REMARK Flexibility Score: inf
ROOT
ATOM      1  O   UNL     1      14.218  43.930  57.894  1.00  0.00    -0.313 OA
ENDROOT
BRANCH   1   2
ATOM      2  C   UNL     1      15.503  43.325  57.929  1.00  0.00     0.285 C 
ATOM      3  C   UNL     1      17.339  42.769  56.600  1.00  0.00     0.178 C 
ATOM      4  C   UNL     1      18.358  43.455  57.541  1.00  0.00     0.177 C 
ATOM      5  O   UNL     1      16.093  43.443  56.646  1.00  0.00    -0.341 OA
ATOM      6  C   UNL     1      17.788  43.503  58.972  1.00  0.00     0.179 C 
ATOM      7  C   UNL     1      16.365  44.084  58.957  1.00  0.00     0.202 C 
BRANCH   3   8
ATOM      8  C   UNL     1      17.836  42.753  55.145  1.00  0.00     0.191 C 
BRANCH   8   9
ATOM      9  O   UNL     1      18.517  43.937  54.827  1.00  0.00    -0.394 OA
ATOM     10  H   UNL     1      19.175  43.708  54.120  1.00  0.00     0.210 HD
ENDBRANCH   8   9
ENDBRANCH   3   8
BRANCH   4  11
ATOM     11  O   UNL     1      19.564  42.735  57.534  1.00  0.00    -0.387 OA
ATOM     12  H   UNL     1      19.664  42.329  58.434  1.00  0.00     0.211 HD
ENDBRANCH   4  11
BRANCH   6  13
ATOM     13  O   UNL     1      18.603  44.306  59.788  1.00  0.00    -0.387 OA
ATOM     14  H   UNL     1      18.638  43.869  60.679  1.00  0.00     0.211 HD
ENDBRANCH   6  13
BRANCH   7  15
ATOM     15  O   UNL     1      15.808  43.968  60.240  1.00  0.00    -0.385 OA
ATOM     16  H   UNL     1      16.303  44.598  60.827  1.00  0.00     0.211 HD
ENDBRANCH   7  15
ENDBRANCH   1   2
BRANCH   1  17
ATOM     17  C   UNL     1      13.144  43.009  57.698  1.00  0.00     0.224 C 
ATOM     18  C   UNL     1      11.975  43.494  58.580  1.00  0.00     0.208 C 
ATOM     19  O   UNL     1      13.513  41.722  58.165  1.00  0.00    -0.337 OA
ATOM     20  C   UNL     1      12.288  42.829  59.901  1.00  0.00     0.180 C 
ATOM     21  C   UNL     1      12.963  41.534  59.455  1.00  0.00     0.179 C 
BRANCH  17  22
ATOM     22  C   UNL     1      12.745  42.927  56.199  1.00  0.00     0.225 C 
BRANCH  22  23
ATOM     23  O   UNL     1      12.459  44.200  55.685  1.00  0.00    -0.391 OA
ATOM     24  H   UNL     1      13.027  44.846  56.180  1.00  0.00     0.210 HD
ENDBRANCH  22  23
ENDBRANCH  17  22
BRANCH  18  25
ATOM     25  O   UNL     1      10.707  43.111  58.091  1.00  0.00    -0.385 OA
ATOM     26  H   UNL     1      10.800  42.245  57.615  1.00  0.00     0.211 HD
ENDBRANCH  18  25
BRANCH  20  27
ATOM     27  O   UNL     1      11.135  42.567  60.657  1.00  0.00    -0.387 OA
ATOM     28  H   UNL     1      11.148  43.205  61.417  1.00  0.00     0.211 HD
ENDBRANCH  20  27
BRANCH  21  29
ATOM     29  C   UNL     1      14.050  41.084  60.438  1.00  0.00     0.191 C 
BRANCH  29  30
ATOM     30  O   UNL     1      14.138  41.978  61.514  1.00  0.00    -0.394 OA
ATOM     31  H   UNL     1      15.093  42.233  61.597  1.00  0.00     0.210 HD
ENDBRANCH  29  30
ENDBRANCH  21  29
ENDBRANCH   1  17
TORSDOF 13
ENDMDL
MODEL 3
REMARK VINA RESULT:    -5.238     16.949     18.285
REMARK INTER + INTRA:          -8.930
REMARK INTER:                  -7.400
REMARK INTRA:                  -1.529
REMARK UNBOUND:                -0.937
REMARK SMILES OC[C@@H]1O[C@H](O[C@@]2(CO)O[C@@H](CO)[C@H](O)[C@@H]2O)[C@@H](O)[C@H](O)[C@H]1O
REMARK SMILES IDX 6 1 5 2 3 3 22 4 4 5 20 6 18 7 2 8 1 9 23 11 21 13 19 15
REMARK SMILES IDX 7 17 16 18 10 19 14 20 11 21 8 22 9 23 17 25 15 27 12 29
REMARK SMILES IDX 13 30
REMARK H PARENT 1 10 23 12 21 14 19 16 9 24 17 26 15 28 13 31
REMARK Flexibility Score: inf
ROOT
ATOM      1  O   UNL     1      16.281  25.145  54.717  1.00  0.00    -0.313 OA
ENDROOT
BRANCH   1   2
ATOM      2  C   UNL     1      17.231  25.809  55.539  1.00  0.00     0.285 C 
ATOM      3  C   UNL     1      17.668  26.446  57.741  1.00  0.00     0.178 C 
ATOM      4  C   UNL     1      19.077  25.810  57.754  1.00  0.00     0.177 C 
ATOM      5  O   UNL     1      16.804  25.716  56.888  1.00  0.00    -0.341 OA
ATOM      6  C   UNL     1      19.624  25.738  56.315  1.00  0.00     0.179 C 
ATOM      7  C   UNL     1      18.586  25.092  55.385  1.00  0.00     0.202 C 
BRANCH   3   8
ATOM      8  C   UNL     1      17.052  26.483  59.149  1.00  0.00     0.191 C 
BRANCH   8   9
ATOM      9  O   UNL     1      17.642  25.526  59.988  1.00  0.00    -0.394 OA
ATOM     10  H   UNL     1      18.607  25.499  59.757  1.00  0.00     0.210 HD
ENDBRANCH   8   9
ENDBRANCH   3   8
BRANCH   4  11
ATOM     11  O   UNL     1      19.937  26.585  58.550  1.00  0.00    -0.387 OA
ATOM     12  H   UNL     1      19.878  26.227  59.473  1.00  0.00     0.211 HD
ENDBRANCH   4  11
BRANCH   6  13
ATOM     13  O   UNL     1      20.805  24.975  56.285  1.00  0.00    -0.387 OA
ATOM     14  H   UNL     1      20.891  24.613  55.365  1.00  0.00     0.211 HD
ENDBRANCH   6  13
BRANCH   7  15
ATOM     15  O   UNL     1      19.037  25.184  54.058  1.00  0.00    -0.385 OA
ATOM     16  H   UNL     1      18.280  24.909  53.478  1.00  0.00     0.211 HD
ENDBRANCH   7  15
ENDBRANCH   1   2
BRANCH   1  17
ATOM     17  C   UNL     1      15.303  26.010  54.137  1.00  0.00     0.224 C 
ATOM     18  C   UNL     1      15.047  25.496  52.705  1.00  0.00     0.208 C 
ATOM     19  O   UNL     1      15.823  27.325  54.022  1.00  0.00    -0.337 OA
ATOM     20  C   UNL     1      16.126  26.209  51.923  1.00  0.00     0.180 C 
ATOM     21  C   UNL     1      16.264  27.521  52.691  1.00  0.00     0.179 C 
BRANCH  17  22
ATOM     22  C   UNL     1      14.004  26.035  54.988  1.00  0.00     0.225 C 
BRANCH  22  23
ATOM     23  O   UNL     1      13.895  24.877  55.772  1.00  0.00    -0.391 OA
ATOM     24  H   UNL     1      13.028  24.452  55.540  1.00  0.00     0.210 HD
ENDBRANCH  22  23
ENDBRANCH  17  22
BRANCH  18  25
ATOM     25  O   UNL     1      13.758  25.808  52.221  1.00  0.00    -0.385 OA
ATOM     26  H   UNL     1      13.090  25.291  52.743  1.00  0.00     0.211 HD
ENDBRANCH  18  25
BRANCH  20  27
ATOM     27  O   UNL     1      15.758  26.438  50.588  1.00  0.00    -0.387 OA
ATOM     28  H   UNL     1      14.931  26.986  50.616  1.00  0.00     0.211 HD
ENDBRANCH  20  27
BRANCH  21  29
ATOM     29  C   UNL     1      17.704  28.046  52.679  1.00  0.00     0.191 C 
BRANCH  29  30
ATOM     30  O   UNL     1      18.552  27.133  52.036  1.00  0.00    -0.394 OA
ATOM     31  H   UNL     1      18.821  27.550  51.177  1.00  0.00     0.210 HD
ENDBRANCH  29  30
ENDBRANCH  21  29
ENDBRANCH   1  17
TORSDOF 13
ENDMDL
MODEL 4
REMARK VINA RESULT:    -5.202      1.576      3.039
REMARK INTER + INTRA:          -8.875
REMARK INTER:                  -7.303
REMARK INTRA:                  -1.572
REMARK UNBOUND:                -0.937
REMARK SMILES OC[C@@H]1O[C@H](O[C@@]2(CO)O[C@@H](CO)[C@H](O)[C@@H]2O)[C@@H](O)[C@H](O)[C@H]1O
REMARK SMILES IDX 6 1 5 2 3 3 22 4 4 5 20 6 18 7 2 8 1 9 23 11 21 13 19 15
REMARK SMILES IDX 7 17 16 18 10 19 14 20 11 21 8 22 9 23 17 25 15 27 12 29
REMARK SMILES IDX 13 30
REMARK H PARENT 1 10 23 12 21 14 19 16 9 24 17 26 15 28 13 31
REMARK Flexibility Score: inf
ROOT
ATOM      1  O   UNL     1      10.745  43.190  59.029  1.00  0.00    -0.313 OA
ENDROOT
BRANCH   1   2
ATOM      2  C   UNL     1      12.076  42.762  59.284  1.00  0.00     0.285 C 
ATOM      3  C   UNL     1      14.231  42.744  58.389  1.00  0.00     0.178 C 
ATOM      4  C   UNL     1      14.876  43.339  59.663  1.00  0.00     0.177 C 
ATOM      5  O   UNL     1      12.908  43.225  58.233  1.00  0.00    -0.341 OA
ATOM      6  C   UNL     1      14.001  43.007  60.887  1.00  0.00     0.179 C 
ATOM      7  C   UNL     1      12.538  43.389  60.613  1.00  0.00     0.202 C 
BRANCH   3   8
ATOM      8  C   UNL     1      15.036  43.102  57.129  1.00  0.00     0.191 C 
BRANCH   8   9
ATOM      9  O   UNL     1      15.654  44.354  57.259  1.00  0.00    -0.394 OA
ATOM     10  H   UNL     1      15.927  44.441  58.209  1.00  0.00     0.210 HD
ENDBRANCH   8   9
ENDBRANCH   3   8
BRANCH   4  11
ATOM     11  O   UNL     1      16.160  42.799  59.838  1.00  0.00    -0.387 OA
ATOM     12  H   UNL     1      16.225  42.505  60.783  1.00  0.00     0.211 HD
ENDBRANCH   4  11
BRANCH   6  13
ATOM     13  O   UNL     1      14.457  43.716  62.012  1.00  0.00    -0.387 OA
ATOM     14  H   UNL     1      15.449  43.679  61.994  1.00  0.00     0.211 HD
ENDBRANCH   6  13
BRANCH   7  15
ATOM     15  O   UNL     1      11.737  42.932  61.671  1.00  0.00    -0.385 OA
ATOM     16  H   UNL     1      10.859  42.682  61.280  1.00  0.00     0.211 HD
ENDBRANCH   7  15
ENDBRANCH   1   2
BRANCH   1  17
ATOM     17  C   UNL     1       9.922  42.201  58.409  1.00  0.00     0.224 C 
ATOM     18  C   UNL     1       8.502  42.379  58.985  1.00  0.00     0.208 C 
ATOM     19  O   UNL     1      10.360  40.902  58.775  1.00  0.00    -0.337 OA
ATOM     20  C   UNL     1       8.565  41.529  60.233  1.00  0.00     0.180 C 
ATOM     21  C   UNL     1       9.532  40.423  59.817  1.00  0.00     0.179 C 
BRANCH  17  22
ATOM     22  C   UNL     1       9.944  42.343  56.863  1.00  0.00     0.225 C 
BRANCH  22  23
ATOM     23  O   UNL     1       9.424  43.584  56.466  1.00  0.00    -0.391 OA
ATOM     24  H   UNL     1       8.503  43.641  56.832  1.00  0.00     0.210 HD
ENDBRANCH  22  23
ENDBRANCH  17  22
BRANCH  18  25
ATOM     25  O   UNL     1       7.483  41.946  58.109  1.00  0.00    -0.385 OA
ATOM     26  H   UNL     1       6.729  41.592  58.651  1.00  0.00     0.211 HD
ENDBRANCH  18  25
BRANCH  20  27
ATOM     27  O   UNL     1       7.313  41.002  60.587  1.00  0.00    -0.387 OA
ATOM     28  H   UNL     1       7.340  40.852  61.568  1.00  0.00     0.211 HD
ENDBRANCH  20  27
BRANCH  21  29
ATOM     29  C   UNL     1      10.384  39.932  60.993  1.00  0.00     0.191 C 
BRANCH  29  30
ATOM     30  O   UNL     1      10.108  40.683  62.144  1.00  0.00    -0.394 OA
ATOM     31  H   UNL     1      10.160  40.057  62.913  1.00  0.00     0.210 HD
ENDBRANCH  29  30
ENDBRANCH  21  29
ENDBRANCH   1  17
TORSDOF 13
ENDMDL
MODEL 5
REMARK VINA RESULT:    -5.100      1.724      6.235
REMARK INTER + INTRA:          -8.720
REMARK INTER:                  -7.168
REMARK INTRA:                  -1.552
REMARK UNBOUND:                -0.937
REMARK SMILES OC[C@@H]1O[C@H](O[C@@]2(CO)O[C@@H](CO)[C@H](O)[C@@H]2O)[C@@H](O)[C@H](O)[C@H]1O
REMARK SMILES IDX 6 1 5 2 3 3 22 4 4 5 20 6 18 7 2 8 1 9 23 11 21 13 19 15
REMARK SMILES IDX 7 17 16 18 10 19 14 20 11 21 8 22 9 23 17 25 15 27 12 29
REMARK SMILES IDX 13 30
REMARK H PARENT 1 10 23 12 21 14 19 16 9 24 17 26 15 28 13 31
REMARK Flexibility Score: inf
ROOT
ATOM      1  O   UNL     1      14.878  41.911  58.682  1.00  0.00    -0.313 OA
ENDROOT
BRANCH   1   2
ATOM      2  C   UNL     1      13.828  42.763  59.120  1.00  0.00     0.285 C 
ATOM      3  C   UNL     1      11.785  43.686  58.475  1.00  0.00     0.178 C 
ATOM      4  C   UNL     1      11.052  43.215  59.753  1.00  0.00     0.177 C 
ATOM      5  O   UNL     1      12.813  42.774  58.130  1.00  0.00    -0.341 OA
ATOM      6  C   UNL     1      12.069  43.044  60.898  1.00  0.00     0.179 C 
ATOM      7  C   UNL     1      13.255  42.188  60.430  1.00  0.00     0.202 C 
BRANCH   3   8
ATOM      8  C   UNL     1      10.820  43.811  57.284  1.00  0.00     0.191 C 
BRANCH   8   9
ATOM      9  O   UNL     1      10.344  45.124  57.150  1.00  0.00    -0.394 OA
ATOM     10  H   UNL     1       9.710  45.122  56.387  1.00  0.00     0.210 HD
ENDBRANCH   8   9
ENDBRANCH   3   8
BRANCH   4  11
ATOM     11  O   UNL     1      10.082  44.164  60.116  1.00  0.00    -0.387 OA
ATOM     12  H   UNL     1      10.006  44.804  59.362  1.00  0.00     0.211 HD
ENDBRANCH   4  11
BRANCH   6  13
ATOM     13  O   UNL     1      11.456  42.419  61.997  1.00  0.00    -0.387 OA
ATOM     14  H   UNL     1      10.750  41.823  61.633  1.00  0.00     0.211 HD
ENDBRANCH   6  13
BRANCH   7  15
ATOM     15  O   UNL     1      14.240  42.181  61.430  1.00  0.00    -0.385 OA
ATOM     16  H   UNL     1      14.784  41.362  61.292  1.00  0.00     0.211 HD
ENDBRANCH   7  15
ENDBRANCH   1   2
BRANCH   1  17
ATOM     17  C   UNL     1      16.155  42.546  58.610  1.00  0.00     0.224 C 
ATOM     18  C   UNL     1      16.943  41.835  57.490  1.00  0.00     0.208 C 
ATOM     19  O   UNL     1      16.870  42.342  59.817  1.00  0.00    -0.337 OA
ATOM     20  C   UNL     1      17.571  40.682  58.239  1.00  0.00     0.180 C 
ATOM     21  C   UNL     1      17.787  41.281  59.626  1.00  0.00     0.179 C 
BRANCH  17  22
ATOM     22  C   UNL     1      16.008  44.068  58.340  1.00  0.00     0.225 C 
BRANCH  22  23
ATOM     23  O   UNL     1      15.789  44.318  56.977  1.00  0.00    -0.391 OA
ATOM     24  H   UNL     1      15.024  44.947  56.919  1.00  0.00     0.210 HD
ENDBRANCH  22  23
ENDBRANCH  17  22
BRANCH  18  25
ATOM     25  O   UNL     1      17.918  42.656  56.883  1.00  0.00    -0.385 OA
ATOM     26  H   UNL     1      17.821  43.578  57.238  1.00  0.00     0.211 HD
ENDBRANCH  18  25
BRANCH  20  27
ATOM     27  O   UNL     1      18.786  40.270  57.668  1.00  0.00    -0.387 OA
ATOM     28  H   UNL     1      19.050  39.439  58.142  1.00  0.00     0.211 HD
ENDBRANCH  20  27
BRANCH  21  29
ATOM     29  C   UNL     1      17.629  40.234  60.735  1.00  0.00     0.191 C 
BRANCH  29  30
ATOM     30  O   UNL     1      16.284  40.121  61.114  1.00  0.00    -0.394 OA
ATOM     31  H   UNL     1      15.930  41.046  61.191  1.00  0.00     0.210 HD
ENDBRANCH  29  30
ENDBRANCH  21  29
ENDBRANCH   1  17
TORSDOF 13
ENDMDL
MODEL 6
REMARK VINA RESULT:    -5.059      1.658      3.143
REMARK INTER + INTRA:          -8.658
REMARK INTER:                  -7.129
REMARK INTRA:                  -1.529
REMARK UNBOUND:                -0.937
REMARK SMILES OC[C@@H]1O[C@H](O[C@@]2(CO)O[C@@H](CO)[C@H](O)[C@@H]2O)[C@@H](O)[C@H](O)[C@H]1O
REMARK SMILES IDX 6 1 5 2 3 3 22 4 4 5 20 6 18 7 2 8 1 9 23 11 21 13 19 15
REMARK SMILES IDX 7 17 16 18 10 19 14 20 11 21 8 22 9 23 17 25 15 27 12 29
REMARK SMILES IDX 13 30
REMARK H PARENT 1 10 23 12 21 14 19 16 9 24 17 26 15 28 13 31
REMARK Flexibility Score: inf
ROOT
ATOM      1  O   UNL     1      13.258  43.175  60.356  1.00  0.00    -0.313 OA
ENDROOT
BRANCH   1   2
ATOM      2  C   UNL     1      14.374  42.447  59.861  1.00  0.00     0.285 C 
ATOM      3  C   UNL     1      16.564  42.687  59.093  1.00  0.00     0.178 C 
ATOM      4  C   UNL     1      17.129  41.620  60.061  1.00  0.00     0.177 C 
ATOM      5  O   UNL     1      15.454  43.346  59.678  1.00  0.00    -0.341 OA
ATOM      6  C   UNL     1      16.014  40.628  60.443  1.00  0.00     0.179 C 
ATOM      7  C   UNL     1      14.764  41.389  60.912  1.00  0.00     0.202 C 
BRANCH   3   8
ATOM      8  C   UNL     1      17.625  43.739  58.731  1.00  0.00     0.191 C 
BRANCH   8   9
ATOM      9  O   UNL     1      18.413  44.071  59.843  1.00  0.00    -0.394 OA
ATOM     10  H   UNL     1      17.802  44.114  60.624  1.00  0.00     0.210 HD
ENDBRANCH   8   9
ENDBRANCH   3   8
BRANCH   4  11
ATOM     11  O   UNL     1      18.184  40.932  59.439  1.00  0.00    -0.387 OA
ATOM     12  H   UNL     1      18.735  40.534  60.161  1.00  0.00     0.211 HD
ENDBRANCH   4  11
BRANCH   6  13
ATOM     13  O   UNL     1      16.453  39.785  61.478  1.00  0.00    -0.387 OA
ATOM     14  H   UNL     1      16.578  40.355  62.282  1.00  0.00     0.211 HD
ENDBRANCH   6  13
BRANCH   7  15
ATOM     15  O   UNL     1      13.713  40.478  61.099  1.00  0.00    -0.385 OA
ATOM     16  H   UNL     1      13.007  40.715  60.442  1.00  0.00     0.211 HD
ENDBRANCH   7  15
ENDBRANCH   1   2
BRANCH   1  17
ATOM     17  C   UNL     1      12.096  43.097  59.530  1.00  0.00     0.224 C 
ATOM     18  C   UNL     1      11.166  44.251  59.958  1.00  0.00     0.208 C 
ATOM     19  O   UNL     1      11.400  41.886  59.780  1.00  0.00    -0.337 OA
ATOM     20  C   UNL     1      10.390  43.619  61.091  1.00  0.00     0.180 C 
ATOM     21  C   UNL     1      10.321  42.158  60.654  1.00  0.00     0.179 C 
BRANCH  17  22
ATOM     22  C   UNL     1      12.473  43.182  58.026  1.00  0.00     0.225 C 
BRANCH  22  23
ATOM     23  O   UNL     1      11.474  42.607  57.225  1.00  0.00    -0.391 OA
ATOM     24  H   UNL     1      11.248  43.273  56.525  1.00  0.00     0.210 HD
ENDBRANCH  22  23
ENDBRANCH  17  22
BRANCH  18  25
ATOM     25  O   UNL     1      10.313  44.697  58.926  1.00  0.00    -0.385 OA
ATOM     26  H   UNL     1      10.495  44.159  58.111  1.00  0.00     0.211 HD
ENDBRANCH  18  25
BRANCH  20  27
ATOM     27  O   UNL     1       9.106  44.168  61.233  1.00  0.00    -0.387 OA
ATOM     28  H   UNL     1       8.802  44.408  60.320  1.00  0.00     0.211 HD
ENDBRANCH  20  27
BRANCH  21  29
ATOM     29  C   UNL     1      10.349  41.198  61.850  1.00  0.00     0.191 C 
BRANCH  29  30
ATOM     30  O   UNL     1      10.185  41.906  63.049  1.00  0.00    -0.394 OA
ATOM     31  H   UNL     1       9.222  42.142  63.111  1.00  0.00     0.210 HD
ENDBRANCH  29  30
ENDBRANCH  21  29
ENDBRANCH   1  17
TORSDOF 13
ENDMDL
MODEL 7
REMARK VINA RESULT:    -5.045      1.320      3.020
REMARK INTER + INTRA:          -8.635
REMARK INTER:                  -7.162
REMARK INTRA:                  -1.473
REMARK UNBOUND:                -0.937
REMARK SMILES OC[C@@H]1O[C@H](O[C@@]2(CO)O[C@@H](CO)[C@H](O)[C@@H]2O)[C@@H](O)[C@H](O)[C@H]1O
REMARK SMILES IDX 6 1 5 2 3 3 22 4 4 5 20 6 18 7 2 8 1 9 23 11 21 13 19 15
REMARK SMILES IDX 7 17 16 18 10 19 14 20 11 21 8 22 9 23 17 25 15 27 12 29
REMARK SMILES IDX 13 30
REMARK H PARENT 1 10 23 12 21 14 19 16 9 24 17 26 15 28 13 31
REMARK Flexibility Score: inf
ROOT
ATOM      1  O   UNL     1      11.719  42.379  57.966  1.00  0.00    -0.313 OA
ENDROOT
BRANCH   1   2
ATOM      2  C   UNL     1      12.935  42.888  58.494  1.00  0.00     0.285 C 
ATOM      3  C   UNL     1      14.782  42.321  59.804  1.00  0.00     0.178 C 
ATOM      4  C   UNL     1      15.806  42.790  58.744  1.00  0.00     0.177 C 
ATOM      5  O   UNL     1      13.606  41.841  59.175  1.00  0.00    -0.341 OA
ATOM      6  C   UNL     1      15.164  43.862  57.843  1.00  0.00     0.179 C 
ATOM      7  C   UNL     1      13.807  43.369  57.317  1.00  0.00     0.202 C 
BRANCH   3   8
ATOM      8  C   UNL     1      15.356  41.204  60.689  1.00  0.00     0.191 C 
BRANCH   8   9
ATOM      9  O   UNL     1      14.521  40.943  61.785  1.00  0.00    -0.394 OA
ATOM     10  H   UNL     1      13.632  41.325  61.565  1.00  0.00     0.210 HD
ENDBRANCH   8   9
ENDBRANCH   3   8
BRANCH   4  11
ATOM     11  O   UNL     1      16.936  43.324  59.386  1.00  0.00    -0.387 OA
ATOM     12  H   UNL     1      17.530  42.562  59.610  1.00  0.00     0.211 HD
ENDBRANCH   4  11
BRANCH   6  13
ATOM     13  O   UNL     1      16.004  44.143  56.753  1.00  0.00    -0.387 OA
ATOM     14  H   UNL     1      16.346  45.066  56.881  1.00  0.00     0.211 HD
ENDBRANCH   6  13
BRANCH   7  15
ATOM     15  O   UNL     1      13.169  44.418  56.636  1.00  0.00    -0.385 OA
ATOM     16  H   UNL     1      13.862  44.867  56.086  1.00  0.00     0.211 HD
ENDBRANCH   7  15
ENDBRANCH   1   2
BRANCH   1  17
ATOM     17  C   UNL     1      10.555  43.097  58.381  1.00  0.00     0.224 C 
ATOM     18  C   UNL     1       9.399  42.077  58.439  1.00  0.00     0.208 C 
ATOM     19  O   UNL     1      10.208  44.067  57.406  1.00  0.00    -0.337 OA
ATOM     20  C   UNL     1       8.893  42.102  57.015  1.00  0.00     0.180 C 
ATOM     21  C   UNL     1       9.163  43.548  56.605  1.00  0.00     0.179 C 
BRANCH  17  22
ATOM     22  C   UNL     1      10.786  43.792  59.750  1.00  0.00     0.225 C 
BRANCH  22  23
ATOM     23  O   UNL     1       9.959  44.916  59.888  1.00  0.00    -0.391 OA
ATOM     24  H   UNL     1      10.555  45.698  60.026  1.00  0.00     0.210 HD
ENDBRANCH  22  23
ENDBRANCH  17  22
BRANCH  18  25
ATOM     25  O   UNL     1       8.388  42.428  59.359  1.00  0.00    -0.385 OA
ATOM     26  H   UNL     1       7.506  42.209  58.958  1.00  0.00     0.211 HD
ENDBRANCH  18  25
BRANCH  20  27
ATOM     27  O   UNL     1       7.527  41.795  56.926  1.00  0.00    -0.387 OA
ATOM     28  H   UNL     1       7.187  41.759  57.857  1.00  0.00     0.211 HD
ENDBRANCH  20  27
BRANCH  21  29
ATOM     29  C   UNL     1       9.521  43.667  55.119  1.00  0.00     0.191 C 
BRANCH  29  30
ATOM     30  O   UNL     1      10.912  43.644  54.948  1.00  0.00    -0.394 OA
ATOM     31  H   UNL     1      11.175  44.545  54.623  1.00  0.00     0.210 HD
ENDBRANCH  29  30
ENDBRANCH  21  29
ENDBRANCH   1  17
TORSDOF 13
ENDMDL
MODEL 8
REMARK VINA RESULT:    -5.005      3.036      7.568
REMARK INTER + INTRA:          -8.575
REMARK INTER:                  -7.023
REMARK INTRA:                  -1.552
REMARK UNBOUND:                -0.937
REMARK SMILES OC[C@@H]1O[C@H](O[C@@]2(CO)O[C@@H](CO)[C@H](O)[C@@H]2O)[C@@H](O)[C@H](O)[C@H]1O
REMARK SMILES IDX 6 1 5 2 3 3 22 4 4 5 20 6 18 7 2 8 1 9 23 11 21 13 19 15
REMARK SMILES IDX 7 17 16 18 10 19 14 20 11 21 8 22 9 23 17 25 15 27 12 29
REMARK SMILES IDX 13 30
REMARK H PARENT 1 10 23 12 21 14 19 16 9 24 17 26 15 28 13 31
REMARK Flexibility Score: inf
ROOT
ATOM      1  O   UNL     1      18.012  44.004  58.512  1.00  0.00    -0.313 OA
ENDROOT
BRANCH   1   2
ATOM      2  C   UNL     1      16.815  43.248  58.393  1.00  0.00     0.285 C 
ATOM      3  C   UNL     1      15.089  42.282  59.632  1.00  0.00     0.178 C 
ATOM      4  C   UNL     1      13.974  42.953  58.795  1.00  0.00     0.177 C 
ATOM      5  O   UNL     1      16.237  43.111  59.681  1.00  0.00    -0.341 OA
ATOM      6  C   UNL     1      14.508  43.270  57.384  1.00  0.00     0.179 C 
ATOM      7  C   UNL     1      15.844  44.022  57.480  1.00  0.00     0.202 C 
BRANCH   3   8
ATOM      8  C   UNL     1      14.624  42.003  61.070  1.00  0.00     0.191 C 
BRANCH   8   9
ATOM      9  O   UNL     1      13.741  42.995  61.522  1.00  0.00    -0.394 OA
ATOM     10  H   UNL     1      14.080  43.301  62.403  1.00  0.00     0.210 HD
ENDBRANCH   8   9
ENDBRANCH   3   8
BRANCH   4  11
ATOM     11  O   UNL     1      12.871  42.088  58.701  1.00  0.00    -0.387 OA
ATOM     12  H   UNL     1      13.211  41.168  58.851  1.00  0.00     0.211 HD
ENDBRANCH   4  11
BRANCH   6  13
ATOM     13  O   UNL     1      13.583  44.064  56.686  1.00  0.00    -0.387 OA
ATOM     14  H   UNL     1      14.108  44.713  56.147  1.00  0.00     0.211 HD
ENDBRANCH   6  13
BRANCH   7  15
ATOM     15  O   UNL     1      16.390  44.157  56.194  1.00  0.00    -0.385 OA
ATOM     16  H   UNL     1      17.107  43.475  56.113  1.00  0.00     0.211 HD
ENDBRANCH   7  15
ENDBRANCH   1   2
BRANCH   1  17
ATOM     17  C   UNL     1      19.201  43.214  58.550  1.00  0.00     0.224 C 
ATOM     18  C   UNL     1      20.295  44.019  57.819  1.00  0.00     0.208 C 
ATOM     19  O   UNL     1      19.011  42.011  57.823  1.00  0.00    -0.337 OA
ATOM     20  C   UNL     1      20.077  43.602  56.382  1.00  0.00     0.180 C 
ATOM     21  C   UNL     1      19.584  42.165  56.538  1.00  0.00     0.179 C 
BRANCH  17  22
ATOM     22  C   UNL     1      19.604  42.881  60.013  1.00  0.00     0.225 C 
BRANCH  22  23
ATOM     23  O   UNL     1      19.805  44.053  60.757  1.00  0.00    -0.391 OA
ATOM     24  H   UNL     1      19.011  44.629  60.607  1.00  0.00     0.210 HD
ENDBRANCH  22  23
ENDBRANCH  17  22
BRANCH  18  25
ATOM     25  O   UNL     1      21.602  43.716  58.258  1.00  0.00    -0.385 OA
ATOM     26  H   UNL     1      22.130  44.557  58.280  1.00  0.00     0.211 HD
ENDBRANCH  18  25
BRANCH  20  27
ATOM     27  O   UNL     1      21.256  43.655  55.623  1.00  0.00    -0.387 OA
ATOM     28  H   UNL     1      21.484  42.716  55.395  1.00  0.00     0.211 HD
ENDBRANCH  20  27
BRANCH  21  29
ATOM     29  C   UNL     1      18.570  41.784  55.453  1.00  0.00     0.191 C 
BRANCH  29  30
ATOM     30  O   UNL     1      18.490  42.793  54.483  1.00  0.00    -0.394 OA
ATOM     31  H   UNL     1      17.794  42.510  53.833  1.00  0.00     0.210 HD
ENDBRANCH  29  30
ENDBRANCH  21  29
ENDBRANCH   1  17
TORSDOF 13
ENDMDL
MODEL 9
REMARK VINA RESULT:    -4.975      1.757      5.816
REMARK INTER + INTRA:          -8.529
REMARK INTER:                  -6.948
REMARK INTRA:                  -1.581
REMARK UNBOUND:                -0.937
REMARK SMILES OC[C@@H]1O[C@H](O[C@@]2(CO)O[C@@H](CO)[C@H](O)[C@@H]2O)[C@@H](O)[C@H](O)[C@H]1O
REMARK SMILES IDX 6 1 5 2 3 3 22 4 4 5 20 6 18 7 2 8 1 9 23 11 21 13 19 15
REMARK SMILES IDX 7 17 16 18 10 19 14 20 11 21 8 22 9 23 17 25 15 27 12 29
REMARK SMILES IDX 13 30
REMARK H PARENT 1 10 23 12 21 14 19 16 9 24 17 26 15 28 13 31
REMARK Flexibility Score: inf
ROOT
ATOM      1  O   UNL     1      12.175  41.917  58.916  1.00  0.00    -0.313 OA
ENDROOT
BRANCH   1   2
ATOM      2  C   UNL     1      11.109  42.517  59.638  1.00  0.00     0.285 C 
ATOM      3  C   UNL     1       8.799  42.443  59.957  1.00  0.00     0.178 C 
ATOM      4  C   UNL     1       8.911  42.335  61.496  1.00  0.00     0.177 C 
ATOM      5  O   UNL     1       9.911  41.823  59.335  1.00  0.00    -0.341 OA
ATOM      6  C   UNL     1      10.242  42.955  61.961  1.00  0.00     0.179 C 
ATOM      7  C   UNL     1      11.409  42.380  61.144  1.00  0.00     0.202 C 
BRANCH   3   8
ATOM      8  C   UNL     1       7.513  41.780  59.436  1.00  0.00     0.191 C 
BRANCH   8   9
ATOM      9  O   UNL     1       6.966  40.910  60.391  1.00  0.00    -0.394 OA
ATOM     10  H   UNL     1       7.724  40.567  60.932  1.00  0.00     0.210 HD
ENDBRANCH   8   9
ENDBRANCH   3   8
BRANCH   4  11
ATOM     11  O   UNL     1       7.836  43.013  62.095  1.00  0.00    -0.387 OA
ATOM     12  H   UNL     1       7.764  42.675  63.025  1.00  0.00     0.211 HD
ENDBRANCH   4  11
BRANCH   6  13
ATOM     13  O   UNL     1      10.454  42.676  63.322  1.00  0.00    -0.387 OA
ATOM     14  H   UNL     1      11.435  42.707  63.474  1.00  0.00     0.211 HD
ENDBRANCH   6  13
BRANCH   7  15
ATOM     15  O   UNL     1      12.585  43.073  61.470  1.00  0.00    -0.385 OA
ATOM     16  H   UNL     1      12.701  42.997  62.454  1.00  0.00     0.211 HD
ENDBRANCH   7  15
ENDBRANCH   1   2
BRANCH   1  17
ATOM     17  C   UNL     1      12.845  42.803  58.018  1.00  0.00     0.224 C 
ATOM     18  C   UNL     1      13.668  41.923  57.054  1.00  0.00     0.208 C 
ATOM     19  O   UNL     1      13.765  43.615  58.729  1.00  0.00    -0.337 OA
ATOM     20  C   UNL     1      14.957  41.745  57.823  1.00  0.00     0.180 C 
ATOM     21  C   UNL     1      15.060  43.064  58.584  1.00  0.00     0.179 C 
BRANCH  17  22
ATOM     22  C   UNL     1      11.831  43.702  57.260  1.00  0.00     0.225 C 
BRANCH  22  23
ATOM     23  O   UNL     1      12.467  44.827  56.715  1.00  0.00    -0.391 OA
ATOM     24  H   UNL     1      12.917  44.529  55.883  1.00  0.00     0.210 HD
ENDBRANCH  22  23
ENDBRANCH  17  22
BRANCH  18  25
ATOM     25  O   UNL     1      13.889  42.524  55.796  1.00  0.00    -0.385 OA
ATOM     26  H   UNL     1      14.626  43.183  55.886  1.00  0.00     0.211 HD
ENDBRANCH  18  25
BRANCH  20  27
ATOM     27  O   UNL     1      16.063  41.557  56.979  1.00  0.00    -0.387 OA
ATOM     28  H   UNL     1      16.740  41.064  57.511  1.00  0.00     0.211 HD
ENDBRANCH  20  27
BRANCH  21  29
ATOM     29  C   UNL     1      15.721  42.887  59.956  1.00  0.00     0.191 C 
BRANCH  29  30
ATOM     30  O   UNL     1      15.306  43.899  60.833  1.00  0.00    -0.394 OA
ATOM     31  H   UNL     1      15.829  43.785  61.669  1.00  0.00     0.210 HD
ENDBRANCH  29  30
ENDBRANCH  21  29
ENDBRANCH   1  17
TORSDOF 13
ENDMDL
