MODEL 1
REMARK VINA RESULT:    -1.806      0.000      0.000
REMARK INTER + INTRA:          -2.795
REMARK INTER:                  -2.756
REMARK INTRA:                  -0.039
REMARK UNBOUND:                -0.039
REMARK SMILES CC1=CCC[C@H](C)C(=O)C[C@@H](C(C)C)C(=O)C1
REMARK SMILES IDX 8 1 9 2 6 3 7 4 5 5 4 6 3 7 2 8 1 9 10 11 11 12 15 13 16 14
REMARK SMILES IDX 17 15 12 17 13 18 14 19
REMARK H PARENT
REMARK Flexibility Score: 70.00
ROOT
ATOM      1  C   UNL     1      52.636   1.910  23.568  1.00  0.00     0.136 C 
ATOM      2  O   UNL     1      52.924   1.597  24.715  1.00  0.00    -0.299 OA
ENDROOT
BRANCH   1   3
ATOM      3  C   UNL     1      51.192   2.288  23.258  1.00  0.00     0.053 C 
ATOM      4  C   UNL     1      50.582   3.080  24.427  1.00  0.00     0.016 C 
BRANCH   3   5
ATOM      5  C   UNL     1      51.086   3.115  21.955  1.00  0.00     0.015 C 
BRANCH   5   6
ATOM      6  C   UNL     1      50.757   2.284  20.704  1.00  0.00     0.028 C 
BRANCH   6   7
ATOM      7  C   UNL     1      50.236   0.911  21.056  1.00  0.00    -0.028 C 
ATOM      8  C   UNL     1      50.930  -0.251  20.992  1.00  0.00    -0.070 CG0
ATOM      9  C   UNL     1      50.222  -1.513  21.417  1.00  0.00     0.039 C 
ATOM     10  G   UNL     1      52.384  -0.352  20.561  1.00  0.00     0.000 G0
ENDBRANCH   6   7
ENDBRANCH   5   6
ENDBRANCH   3   5
ENDBRANCH   1   3
BRANCH   1  11
ATOM     11  C   UNL     1      53.777   2.026  22.570  1.00  0.00     0.087 C 
BRANCH  11  12
ATOM     12  C   UNL     1      54.361   0.720  21.963  1.00  0.00     0.066 C 
BRANCH  12  13
ATOM     13  C   UNL     1      53.327  -0.379  21.744  1.00  0.00     0.140 C 
ATOM     14  O   UNL     1      53.308  -1.358  22.478  1.00  0.00    -0.299 OA
BRANCH  13  15
ATOM     15  C   UNL     1      52.388  -0.351  20.560  1.00  0.00     0.106 CG0
ATOM     16  G   UNL     1      50.938  -0.232  21.004  1.00  0.00     0.000 G0
ENDBRANCH  13  15
ENDBRANCH  12  13
BRANCH  12  17
ATOM     17  C   UNL     1      55.685   0.211  22.630  1.00  0.00    -0.006 C 
ATOM     18  C   UNL     1      56.185   1.076  23.799  1.00  0.00     0.008 C 
ATOM     19  C   UNL     1      56.814   0.019  21.604  1.00  0.00     0.008 C 
ENDBRANCH  12  17
ENDBRANCH  11  12
ENDBRANCH   1  11
TORSDOF 1
ENDMDL
MODEL 2
REMARK VINA RESULT:    -1.746      1.752      3.443
REMARK INTER + INTRA:          -2.703
REMARK INTER:                  -3.443
REMARK INTRA:                   0.740
REMARK UNBOUND:                -0.039
REMARK SMILES CC1=CCC[C@H](C)C(=O)C[C@@H](C(C)C)C(=O)C1
REMARK SMILES IDX 8 1 9 2 6 3 7 4 5 5 4 6 3 7 2 8 1 9 10 11 11 12 15 13 16 14
REMARK SMILES IDX 17 15 12 17 13 18 14 19
REMARK H PARENT
REMARK Flexibility Score: 70.00
ROOT
ATOM      1  C   UNL     1      52.806  -0.497  21.489  1.00  0.00     0.136 C 
ATOM      2  O   UNL     1      52.730  -1.360  22.353  1.00  0.00    -0.299 OA
ENDROOT
BRANCH   1   3
ATOM      3  C   UNL     1      51.518  -0.004  20.839  1.00  0.00     0.053 C 
ATOM      4  C   UNL     1      50.293  -0.574  21.574  1.00  0.00     0.016 C 
BRANCH   3   5
ATOM      5  C   UNL     1      51.444   1.541  20.819  1.00  0.00     0.015 C 
BRANCH   5   6
ATOM      6  C   UNL     1      50.477   2.141  21.852  1.00  0.00     0.028 C 
BRANCH   6   7
ATOM      7  C   UNL     1      51.142   2.362  23.190  1.00  0.00    -0.028 C 
ATOM      8  C   UNL     1      52.441   2.686  23.397  1.00  0.00    -0.070 CG0
ATOM      9  C   UNL     1      52.895   2.887  24.821  1.00  0.00     0.039 C 
ATOM     10  G   UNL     1      53.453   2.899  22.282  1.00  0.00     0.000 G0
ENDBRANCH   6   7
ENDBRANCH   5   6
ENDBRANCH   3   5
ENDBRANCH   1   3
BRANCH   1  11
ATOM     11  C   UNL     1      54.175   0.111  21.230  1.00  0.00     0.087 C 
BRANCH  11  12
ATOM     12  C   UNL     1      54.948   0.724  22.432  1.00  0.00     0.066 C 
BRANCH  12  13
ATOM     13  C   UNL     1      54.782   2.234  22.571  1.00  0.00     0.140 C 
ATOM     14  O   UNL     1      55.695   2.911  23.024  1.00  0.00    -0.299 OA
BRANCH  13  15
ATOM     15  C   UNL     1      53.465   2.911  22.273  1.00  0.00     0.106 CG0
ATOM     16  G   UNL     1      52.456   2.679  23.387  1.00  0.00     0.000 G0
ENDBRANCH  13  15
ENDBRANCH  12  13
BRANCH  12  17
ATOM     17  C   UNL     1      56.431   0.239  22.584  1.00  0.00    -0.006 C 
ATOM     18  C   UNL     1      57.087  -0.231  21.275  1.00  0.00     0.008 C 
ATOM     19  C   UNL     1      56.577  -0.849  23.660  1.00  0.00     0.008 C 
ENDBRANCH  12  17
ENDBRANCH  11  12
ENDBRANCH   1  11
TORSDOF 1
ENDMDL
MODEL 3
REMARK VINA RESULT:    -1.685      2.197      4.655
REMARK INTER + INTRA:          -2.610
REMARK INTER:                  -3.849
REMARK INTRA:                   1.239
REMARK UNBOUND:                -0.039
REMARK SMILES CC1=CCC[C@H](C)C(=O)C[C@@H](C(C)C)C(=O)C1
REMARK SMILES IDX 8 1 9 2 6 3 7 4 5 5 4 6 3 7 2 8 1 9 10 11 11 12 15 13 16 14
REMARK SMILES IDX 17 15 12 17 13 18 14 19
REMARK H PARENT
REMARK Flexibility Score: 70.00
ROOT
ATOM      1  C   UNL     1      55.655   0.521  22.312  1.00  0.00     0.136 C 
ATOM      2  O   UNL     1      56.303   0.292  21.300  1.00  0.00    -0.299 OA
ENDROOT
BRANCH   1   3
ATOM      3  C   UNL     1      56.342   1.237  23.470  1.00  0.00     0.053 C 
ATOM      4  C   UNL     1      56.636   2.700  23.097  1.00  0.00     0.016 C 
BRANCH   3   5
ATOM      5  C   UNL     1      55.488   1.187  24.759  1.00  0.00     0.015 C 
BRANCH   5   6
ATOM      6  C   UNL     1      54.815   2.520  25.124  1.00  0.00     0.028 C 
BRANCH   6   7
ATOM      7  C   UNL     1      53.322   2.481  24.904  1.00  0.00    -0.028 C 
ATOM      8  C   UNL     1      52.678   2.700  23.733  1.00  0.00    -0.070 CG0
ATOM      9  C   UNL     1      51.174   2.586  23.729  1.00  0.00     0.039 C 
ATOM     10  G   UNL     1      53.379   3.012  22.421  1.00  0.00     0.000 G0
ENDBRANCH   6   7
ENDBRANCH   5   6
ENDBRANCH   3   5
ENDBRANCH   1   3
BRANCH   1  11
ATOM     11  C   UNL     1      54.171   0.191  22.279  1.00  0.00     0.087 C 
BRANCH  11  12
ATOM     12  C   UNL     1      53.321   0.738  21.098  1.00  0.00     0.066 C 
BRANCH  12  13
ATOM     13  C   UNL     1      52.860   2.180  21.281  1.00  0.00     0.140 C 
ATOM     14  O   UNL     1      52.133   2.702  20.446  1.00  0.00    -0.299 OA
BRANCH  13  15
ATOM     15  C   UNL     1      53.375   3.032  22.418  1.00  0.00     0.106 CG0
ATOM     16  G   UNL     1      52.672   2.698  23.724  1.00  0.00     0.000 G0
ENDBRANCH  13  15
ENDBRANCH  12  13
BRANCH  12  17
ATOM     17  C   UNL     1      52.191  -0.223  20.592  1.00  0.00    -0.006 C 
ATOM     18  C   UNL     1      51.021   0.482  19.886  1.00  0.00     0.008 C 
ATOM     19  C   UNL     1      51.653  -1.127  21.714  1.00  0.00     0.008 C 
ENDBRANCH  12  17
ENDBRANCH  11  12
ENDBRANCH   1  11
TORSDOF 1
ENDMDL
MODEL 4
REMARK VINA RESULT:    -1.494     21.088     23.033
REMARK INTER + INTRA:          -2.319
REMARK INTER:                  -2.960
REMARK INTRA:                   0.641
REMARK UNBOUND:                -0.039
REMARK SMILES CC1=CCC[C@H](C)C(=O)C[C@@H](C(C)C)C(=O)C1
REMARK SMILES IDX 8 1 9 2 6 3 7 4 5 5 4 6 3 7 2 8 1 9 10 11 11 12 15 13 16 14
REMARK SMILES IDX 17 15 12 17 13 18 14 19
REMARK H PARENT
REMARK Flexibility Score: 70.00
ROOT
ATOM      1  C   UNL     1      54.045 -16.466   7.278  1.00  0.00     0.136 C 
ATOM      2  O   UNL     1      53.593 -15.343   7.457  1.00  0.00    -0.299 OA
ENDROOT
BRANCH   1   3
ATOM      3  C   UNL     1      53.978 -17.062   5.877  1.00  0.00     0.053 C 
ATOM      4  C   UNL     1      52.736 -16.545   5.132  1.00  0.00     0.016 C 
BRANCH   3   5
ATOM      5  C   UNL     1      55.251 -16.739   5.058  1.00  0.00     0.015 C 
BRANCH   5   6
ATOM      6  C   UNL     1      55.977 -15.458   5.498  1.00  0.00     0.028 C 
BRANCH   6   7
ATOM      7  C   UNL     1      57.478 -15.620   5.476  1.00  0.00    -0.028 C 
ATOM      8  C   UNL     1      58.232 -16.238   6.416  1.00  0.00    -0.070 CG0
ATOM      9  C   UNL     1      59.720 -16.312   6.184  1.00  0.00     0.039 C 
ATOM     10  G   UNL     1      57.665 -16.897   7.664  1.00  0.00     0.000 G0
ENDBRANCH   6   7
ENDBRANCH   5   6
ENDBRANCH   3   5
ENDBRANCH   1   3
BRANCH   1  11
ATOM     11  C   UNL     1      54.762 -17.122   8.447  1.00  0.00     0.087 C 
BRANCH  11  12
ATOM     12  C   UNL     1      55.719 -16.251   9.309  1.00  0.00     0.066 C 
BRANCH  12  13
ATOM     13  C   UNL     1      57.049 -15.936   8.632  1.00  0.00     0.140 C 
ATOM     14  O   UNL     1      57.566 -14.837   8.780  1.00  0.00    -0.299 OA
BRANCH  13  15
ATOM     15  C   UNL     1      57.697 -16.913   7.679  1.00  0.00     0.106 CG0
ATOM     16  G   UNL     1      58.199 -16.216   6.425  1.00  0.00     0.000 G0
ENDBRANCH  13  15
ENDBRANCH  12  13
BRANCH  12  17
ATOM     17  C   UNL     1      55.865 -16.703  10.802  1.00  0.00    -0.006 C 
ATOM     18  C   UNL     1      55.281 -15.719  11.828  1.00  0.00     0.008 C 
ATOM     19  C   UNL     1      57.321 -17.034  11.167  1.00  0.00     0.008 C 
ENDBRANCH  12  17
ENDBRANCH  11  12
ENDBRANCH   1  11
TORSDOF 1
ENDMDL
MODEL 5
REMARK VINA RESULT:    -1.173      2.205      4.762
REMARK INTER + INTRA:          -1.828
REMARK INTER:                  -1.910
REMARK INTRA:                   0.082
REMARK UNBOUND:                -0.039
REMARK SMILES CC1=CCC[C@H](C)C(=O)C[C@@H](C(C)C)C(=O)C1
REMARK SMILES IDX 8 1 9 2 6 3 7 4 5 5 4 6 3 7 2 8 1 9 10 11 11 12 15 13 16 14
REMARK SMILES IDX 17 15 12 17 13 18 14 19
REMARK H PARENT
REMARK Flexibility Score: 70.00
ROOT
ATOM      1  C   UNL     1      54.155   2.626  22.769  1.00  0.00     0.136 C 
ATOM      2  O   UNL     1      54.941   3.108  21.964  1.00  0.00    -0.299 OA
ENDROOT
BRANCH   1   3
ATOM      3  C   UNL     1      54.372   2.903  24.252  1.00  0.00     0.053 C 
ATOM      4  C   UNL     1      53.417   2.049  25.103  1.00  0.00     0.016 C 
BRANCH   3   5
ATOM      5  C   UNL     1      55.835   2.631  24.676  1.00  0.00     0.015 C 
BRANCH   5   6
ATOM      6  C   UNL     1      56.121   1.170  25.057  1.00  0.00     0.028 C 
BRANCH   6   7
ATOM      7  C   UNL     1      57.018   0.487  24.052  1.00  0.00    -0.028 C 
ATOM      8  C   UNL     1      56.631  -0.398  23.103  1.00  0.00    -0.070 CG0
ATOM      9  C   UNL     1      57.691  -0.944  22.179  1.00  0.00     0.039 C 
ATOM     10  G   UNL     1      55.192  -0.840  22.887  1.00  0.00     0.000 G0
ENDBRANCH   6   7
ENDBRANCH   5   6
ENDBRANCH   3   5
ENDBRANCH   1   3
BRANCH   1  11
ATOM     11  C   UNL     1      52.944   1.898  22.209  1.00  0.00     0.087 C 
BRANCH  11  12
ATOM     12  C   UNL     1      53.065   0.374  21.926  1.00  0.00     0.066 C 
BRANCH  12  13
ATOM     13  C   UNL     1      54.501  -0.114  21.766  1.00  0.00     0.140 C 
ATOM     14  O   UNL     1      55.080   0.024  20.696  1.00  0.00    -0.299 OA
BRANCH  13  15
ATOM     15  C   UNL     1      55.200  -0.879  22.866  1.00  0.00     0.106 CG0
ATOM     16  G   UNL     1      56.620  -0.379  23.074  1.00  0.00     0.000 G0
ENDBRANCH  13  15
ENDBRANCH  12  13
BRANCH  12  17
ATOM     17  C   UNL     1      52.089  -0.178  20.832  1.00  0.00    -0.006 C 
ATOM     18  C   UNL     1      51.399   0.904  19.985  1.00  0.00     0.008 C 
ATOM     19  C   UNL     1      51.034  -1.128  21.422  1.00  0.00     0.008 C 
ENDBRANCH  12  17
ENDBRANCH  11  12
ENDBRANCH   1  11
TORSDOF 1
ENDMDL
MODEL 6
REMARK VINA RESULT:    -1.072      2.127      3.688
REMARK INTER + INTRA:          -1.675
REMARK INTER:                  -2.287
REMARK INTRA:                   0.612
REMARK UNBOUND:                -0.039
REMARK SMILES CC1=CCC[C@H](C)C(=O)C[C@@H](C(C)C)C(=O)C1
REMARK SMILES IDX 8 1 9 2 6 3 7 4 5 5 4 6 3 7 2 8 1 9 10 11 11 12 15 13 16 14
REMARK SMILES IDX 17 15 12 17 13 18 14 19
REMARK H PARENT
REMARK Flexibility Score: 70.00
ROOT
ATOM      1  C   UNL     1      56.654   0.584  24.720  1.00  0.00     0.136 C 
ATOM      2  O   UNL     1      57.720   0.128  25.109  1.00  0.00    -0.299 OA
ENDROOT
BRANCH   1   3
ATOM      3  C   UNL     1      56.293   2.016  25.101  1.00  0.00     0.053 C 
ATOM      4  C   UNL     1      57.251   3.010  24.422  1.00  0.00     0.016 C 
BRANCH   3   5
ATOM      5  C   UNL     1      54.832   2.356  24.724  1.00  0.00     0.015 C 
BRANCH   5   6
ATOM      6  C   UNL     1      54.660   2.913  23.301  1.00  0.00     0.028 C 
BRANCH   6   7
ATOM      7  C   UNL     1      53.229   2.825  22.827  1.00  0.00    -0.028 C 
ATOM      8  C   UNL     1      52.567   1.694  22.480  1.00  0.00    -0.070 CG0
ATOM      9  C   UNL     1      51.126   1.828  22.057  1.00  0.00     0.039 C 
ATOM     10  G   UNL     1      53.175   0.302  22.532  1.00  0.00     0.000 G0
ENDBRANCH   6   7
ENDBRANCH   5   6
ENDBRANCH   3   5
ENDBRANCH   1   3
BRANCH   1  11
ATOM     11  C   UNL     1      55.833  -0.274  23.771  1.00  0.00     0.087 C 
BRANCH  11  12
ATOM     12  C   UNL     1      55.797   0.118  22.267  1.00  0.00     0.066 C 
BRANCH  12  13
ATOM     13  C   UNL     1      54.396   0.133  21.663  1.00  0.00     0.140 C 
ATOM     14  O   UNL     1      54.253   0.129  20.448  1.00  0.00    -0.299 OA
BRANCH  13  15
ATOM     15  C   UNL     1      53.167   0.274  22.531  1.00  0.00     0.106 CG0
ATOM     16  G   UNL     1      52.590   1.678  22.452  1.00  0.00     0.000 G0
ENDBRANCH  13  15
ENDBRANCH  12  13
BRANCH  12  17
ATOM     17  C   UNL     1      56.860  -0.601  21.368  1.00  0.00    -0.006 C 
ATOM     18  C   UNL     1      57.799  -1.554  22.126  1.00  0.00     0.008 C 
ATOM     19  C   UNL     1      57.687   0.394  20.539  1.00  0.00     0.008 C 
ENDBRANCH  12  17
ENDBRANCH  11  12
ENDBRANCH   1  11
TORSDOF 1
ENDMDL
MODEL 7
REMARK VINA RESULT:    -0.940      1.674      2.304
REMARK INTER + INTRA:          -1.473
REMARK INTER:                  -2.044
REMARK INTRA:                   0.571
REMARK UNBOUND:                -0.039
REMARK SMILES CC1=CCC[C@H](C)C(=O)C[C@@H](C(C)C)C(=O)C1
REMARK SMILES IDX 8 1 9 2 6 3 7 4 5 5 4 6 3 7 2 8 1 9 10 11 11 12 15 13 16 14
REMARK SMILES IDX 17 15 12 17 13 18 14 19
REMARK H PARENT
REMARK Flexibility Score: 70.00
ROOT
ATOM      1  C   UNL     1      55.326   1.372  23.991  1.00  0.00     0.136 C 
ATOM      2  O   UNL     1      55.691   1.085  25.123  1.00  0.00    -0.299 OA
ENDROOT
BRANCH   1   3
ATOM      3  C   UNL     1      54.004   2.113  23.819  1.00  0.00     0.053 C 
ATOM      4  C   UNL     1      53.629   2.849  25.117  1.00  0.00     0.016 C 
BRANCH   3   5
ATOM      5  C   UNL     1      54.062   3.119  22.645  1.00  0.00     0.015 C 
BRANCH   5   6
ATOM      6  C   UNL     1      52.960   2.925  21.591  1.00  0.00     0.028 C 
BRANCH   6   7
ATOM      7  C   UNL     1      52.146   1.678  21.844  1.00  0.00    -0.028 C 
ATOM      8  C   UNL     1      52.509   0.408  21.543  1.00  0.00    -0.070 CG0
ATOM      9  C   UNL     1      51.552  -0.699  21.908  1.00  0.00     0.039 C 
ATOM     10  G   UNL     1      53.835   0.031  20.901  1.00  0.00     0.000 G0
ENDBRANCH   6   7
ENDBRANCH   5   6
ENDBRANCH   3   5
ENDBRANCH   1   3
BRANCH   1  11
ATOM     11  C   UNL     1      56.291   1.083  22.852  1.00  0.00     0.087 C 
BRANCH  11  12
ATOM     12  C   UNL     1      56.186  -0.288  22.127  1.00  0.00     0.066 C 
BRANCH  12  13
ATOM     13  C   UNL     1      54.754  -0.740  21.860  1.00  0.00     0.140 C 
ATOM     14  O   UNL     1      54.338  -1.780  22.352  1.00  0.00    -0.299 OA
BRANCH  13  15
ATOM     15  C   UNL     1      53.860   0.007  20.898  1.00  0.00     0.106 CG0
ATOM     16  G   UNL     1      52.539   0.388  21.549  1.00  0.00     0.000 G0
ENDBRANCH  13  15
ENDBRANCH  12  13
BRANCH  12  17
ATOM     17  C   UNL     1      57.103  -1.418  22.707  1.00  0.00    -0.006 C 
ATOM     18  C   UNL     1      57.933  -1.002  23.933  1.00  0.00     0.008 C 
ATOM     19  C   UNL     1      58.024  -2.025  21.636  1.00  0.00     0.008 C 
ENDBRANCH  12  17
ENDBRANCH  11  12
ENDBRANCH   1  11
TORSDOF 1
ENDMDL
MODEL 8
REMARK VINA RESULT:    -0.702      1.845      3.536
REMARK INTER + INTRA:          -1.109
REMARK INTER:                  -2.403
REMARK INTRA:                   1.294
REMARK UNBOUND:                -0.039
REMARK SMILES CC1=CCC[C@H](C)C(=O)C[C@@H](C(C)C)C(=O)C1
REMARK SMILES IDX 8 1 9 2 6 3 7 4 5 5 4 6 3 7 2 8 1 9 10 11 11 12 15 13 16 14
REMARK SMILES IDX 17 15 12 17 13 18 14 19
REMARK H PARENT
REMARK Flexibility Score: 70.00
ROOT
ATOM      1  C   UNL     1      54.111  -0.220  21.844  1.00  0.00     0.136 C 
ATOM      2  O   UNL     1      54.875  -1.083  22.255  1.00  0.00    -0.299 OA
ENDROOT
BRANCH   1   3
ATOM      3  C   UNL     1      52.749  -0.649  21.310  1.00  0.00     0.053 C 
ATOM      4  C   UNL     1      51.780  -0.926  22.472  1.00  0.00     0.016 C 
BRANCH   3   5
ATOM      5  C   UNL     1      52.144   0.419  20.368  1.00  0.00     0.015 C 
BRANCH   5   6
ATOM      6  C   UNL     1      52.103   1.836  20.961  1.00  0.00     0.028 C 
BRANCH   6   7
ATOM      7  C   UNL     1      51.008   1.990  21.989  1.00  0.00    -0.028 C 
ATOM      8  C   UNL     1      51.136   2.535  23.222  1.00  0.00    -0.070 CG0
ATOM      9  C   UNL     1      49.902   2.616  24.085  1.00  0.00     0.039 C 
ATOM     10  G   UNL     1      52.435   3.106  23.770  1.00  0.00     0.000 G0
ENDBRANCH   6   7
ENDBRANCH   5   6
ENDBRANCH   3   5
ENDBRANCH   1   3
BRANCH   1  11
ATOM     11  C   UNL     1      54.534   1.229  22.027  1.00  0.00     0.087 C 
BRANCH  11  12
ATOM     12  C   UNL     1      54.715   1.767  23.474  1.00  0.00     0.066 C 
BRANCH  12  13
ATOM     13  C   UNL     1      53.404   2.023  24.209  1.00  0.00     0.140 C 
ATOM     14  O   UNL     1      53.058   1.284  25.121  1.00  0.00    -0.299 OA
BRANCH  13  15
ATOM     15  C   UNL     1      52.451   3.107  23.763  1.00  0.00     0.106 CG0
ATOM     16  G   UNL     1      51.148   2.522  23.243  1.00  0.00     0.000 G0
ENDBRANCH  13  15
ENDBRANCH  12  13
BRANCH  12  17
ATOM     17  C   UNL     1      55.757   2.927  23.625  1.00  0.00    -0.006 C 
ATOM     18  C   UNL     1      56.803   2.998  22.500  1.00  0.00     0.008 C 
ATOM     19  C   UNL     1      56.463   2.899  24.991  1.00  0.00     0.008 C 
ENDBRANCH  12  17
ENDBRANCH  11  12
ENDBRANCH   1  11
TORSDOF 1
ENDMDL
MODEL 9
REMARK VINA RESULT:    -0.699      2.275      4.436
REMARK INTER + INTRA:          -1.105
REMARK INTER:                  -2.161
REMARK INTRA:                   1.056
REMARK UNBOUND:                -0.039
REMARK SMILES CC1=CCC[C@H](C)C(=O)C[C@@H](C(C)C)C(=O)C1
REMARK SMILES IDX 8 1 9 2 6 3 7 4 5 5 4 6 3 7 2 8 1 9 10 11 11 12 15 13 16 14
REMARK SMILES IDX 17 15 12 17 13 18 14 19
REMARK H PARENT
REMARK Flexibility Score: 70.00
ROOT
ATOM      1  C   UNL     1      56.871   0.676  21.517  1.00  0.00     0.136 C 
ATOM      2  O   UNL     1      57.773   0.817  20.703  1.00  0.00    -0.299 OA
ENDROOT
BRANCH   1   3
ATOM      3  C   UNL     1      56.342  -0.730  21.779  1.00  0.00     0.053 C 
ATOM      4  C   UNL     1      57.352  -1.536  22.614  1.00  0.00     0.016 C 
BRANCH   3   5
ATOM      5  C   UNL     1      54.974  -0.700  22.500  1.00  0.00     0.015 C 
BRANCH   5   6
ATOM      6  C   UNL     1      53.806  -0.225  21.619  1.00  0.00     0.028 C 
BRANCH   6   7
ATOM      7  C   UNL     1      52.618   0.215  22.441  1.00  0.00    -0.028 C 
ATOM      8  C   UNL     1      52.432   1.439  22.990  1.00  0.00    -0.070 CG0
ATOM      9  C   UNL     1      51.155   1.677  23.756  1.00  0.00     0.039 C 
ATOM     10  G   UNL     1      53.410   2.595  22.845  1.00  0.00     0.000 G0
ENDBRANCH   6   7
ENDBRANCH   5   6
ENDBRANCH   3   5
ENDBRANCH   1   3
BRANCH   1  11
ATOM     11  C   UNL     1      56.442   1.904  22.303  1.00  0.00     0.087 C 
BRANCH  11  12
ATOM     12  C   UNL     1      55.752   1.694  23.681  1.00  0.00     0.066 C 
BRANCH  12  13
ATOM     13  C   UNL     1      54.502   2.543  23.884  1.00  0.00     0.140 C 
ATOM     14  O   UNL     1      54.323   3.125  24.946  1.00  0.00    -0.299 OA
BRANCH  13  15
ATOM     15  C   UNL     1      53.408   2.595  22.843  1.00  0.00     0.106 CG0
ATOM     16  G   UNL     1      52.441   1.431  22.996  1.00  0.00     0.000 G0
ENDBRANCH  13  15
ENDBRANCH  12  13
BRANCH  12  17
ATOM     17  C   UNL     1      56.719   1.694  24.914  1.00  0.00    -0.006 C 
ATOM     18  C   UNL     1      57.785   2.802  24.891  1.00  0.00     0.008 C 
ATOM     19  C   UNL     1      57.391   0.328  25.124  1.00  0.00     0.008 C 
ENDBRANCH  12  17
ENDBRANCH  11  12
ENDBRANCH   1  11
TORSDOF 1
ENDMDL
