MODEL 1
REMARK VINA RESULT:    -7.972      0.000      0.000
REMARK INTER + INTRA:          -8.205
REMARK INTER:                  -8.205
REMARK INTRA:                   0.000
REMARK UNBOUND:                 0.000
REMARK SMILES C=C1CCC[C@@]2(C)C[C@]3(O)OC(=O)C(C)=C3C[C@H]12
REMARK SMILES IDX 15 1 14 2 16 3 17 4 18 5 2 6 1 7 3 8 4 9 5 10 6 11 8 12 9 13
REMARK SMILES IDX 11 14 12 15 13 16 7 17 10 18
REMARK H PARENT 10 19
REMARK Flexibility Score: inf
ROOT
ATOM      1  C   UNL     1     108.013 105.367 105.909  1.00  0.00     0.052 C 
ATOM      2  C   UNL     1     106.534 105.517 105.728  1.00  0.00     0.040 C 
ATOM      3  C   UNL     1     105.619 105.551 106.693  1.00  0.00     0.012 C 
ATOM      4  C   UNL     1     105.884 105.429 108.164  1.00  0.00     0.047 C 
ATOM      5  C   UNL     1     104.577 105.051 108.910  1.00  0.00     0.025 C 
ATOM      6  C   UNL     1     104.761 104.711 110.391  1.00  0.00    -0.073 C 
ATOM      7  C   UNL     1     105.908 104.921 111.065  1.00  0.00     0.008 C 
ATOM      8  C   UNL     1     103.526 104.290 111.153  1.00  0.00     0.031 C 
ATOM      9  C   UNL     1     102.778 103.180 110.414  1.00  0.00     0.005 C 
ATOM     10  C   UNL     1     102.508 103.561 108.950  1.00  0.00     0.008 C 
ATOM     11  C   UNL     1     103.803 103.907 108.157  1.00  0.00    -0.019 C 
ATOM     12  C   UNL     1     103.392 104.360 106.704  1.00  0.00     0.092 C 
ATOM     13  C   UNL     1     104.225 105.531 106.123  1.00  0.00     0.235 C 
ATOM     14  O   UNL     1     104.450 105.376 104.720  1.00  0.00    -0.426 OA
ATOM     15  C   UNL     1     105.812 105.391 104.482  1.00  0.00     0.336 C 
ATOM     16  O   UNL     1     106.328 105.276 103.340  1.00  0.00    -0.246 OA
ATOM     17  C   UNL     1     104.689 102.634 108.042  1.00  0.00     0.012 C 
ENDROOT
BRANCH  13  18
ATOM     18  O   UNL     1     103.607 106.766 106.378  1.00  0.00    -0.353 OA
ATOM     19  H   UNL     1     102.686 106.710 106.011  1.00  0.00     0.215 HD
ENDBRANCH  13  18
TORSDOF 1
ENDMDL
MODEL 2
REMARK VINA RESULT:    -7.944      2.349      4.106
REMARK INTER + INTRA:          -8.176
REMARK INTER:                  -8.176
REMARK INTRA:                   0.000
REMARK UNBOUND:                 0.000
REMARK SMILES C=C1CCC[C@@]2(C)C[C@]3(O)OC(=O)C(C)=C3C[C@H]12
REMARK SMILES IDX 15 1 14 2 16 3 17 4 18 5 2 6 1 7 3 8 4 9 5 10 6 11 8 12 9 13
REMARK SMILES IDX 11 14 12 15 13 16 7 17 10 18
REMARK H PARENT 10 19
REMARK Flexibility Score: inf
ROOT
ATOM      1  C   UNL     1     101.657 103.409 105.622  1.00  0.00     0.052 C 
ATOM      2  C   UNL     1     103.013 102.880 105.269  1.00  0.00     0.040 C 
ATOM      3  C   UNL     1     104.086 102.866 106.055  1.00  0.00     0.012 C 
ATOM      4  C   UNL     1     104.159 103.398 107.456  1.00  0.00     0.047 C 
ATOM      5  C   UNL     1     105.639 103.628 107.859  1.00  0.00     0.025 C 
ATOM      6  C   UNL     1     105.833 104.348 109.196  1.00  0.00    -0.073 C 
ATOM      7  C   UNL     1     104.832 104.580 110.068  1.00  0.00     0.008 C 
ATOM      8  C   UNL     1     107.255 104.642 109.615  1.00  0.00     0.031 C 
ATOM      9  C   UNL     1     108.025 105.335 108.490  1.00  0.00     0.005 C 
ATOM     10  C   UNL     1     107.910 104.561 107.167  1.00  0.00     0.008 C 
ATOM     11  C   UNL     1     106.437 104.345 106.709  1.00  0.00    -0.019 C 
ATOM     12  C   UNL     1     106.448 103.474 105.396  1.00  0.00     0.092 C 
ATOM     13  C   UNL     1     105.310 102.423 105.298  1.00  0.00     0.235 C 
ATOM     14  O   UNL     1     104.832 102.284 103.958  1.00  0.00    -0.426 OA
ATOM     15  C   UNL     1     103.471 102.530 103.943  1.00  0.00     0.336 C 
ATOM     16  O   UNL     1     102.759 102.483 102.906  1.00  0.00    -0.246 OA
ATOM     17  C   UNL     1     105.797 105.723 106.378  1.00  0.00     0.012 C 
ENDROOT
BRANCH  13  18
ATOM     18  O   UNL     1     105.730 101.178 105.791  1.00  0.00    -0.353 OA
ATOM     19  H   UNL     1     105.179 100.984 106.594  1.00  0.00     0.215 HD
ENDBRANCH  13  18
TORSDOF 1
ENDMDL
MODEL 3
REMARK VINA RESULT:    -7.905      2.585      5.447
REMARK INTER + INTRA:          -8.136
REMARK INTER:                  -8.136
REMARK INTRA:                   0.000
REMARK UNBOUND:                 0.000
REMARK SMILES C=C1CCC[C@@]2(C)C[C@]3(O)OC(=O)C(C)=C3C[C@H]12
REMARK SMILES IDX 15 1 14 2 16 3 17 4 18 5 2 6 1 7 3 8 4 9 5 10 6 11 8 12 9 13
REMARK SMILES IDX 11 14 12 15 13 16 7 17 10 18
REMARK H PARENT 10 19
REMARK Flexibility Score: inf
ROOT
ATOM      1  C   UNL     1     101.713 104.604 108.680  1.00  0.00     0.052 C 
ATOM      2  C   UNL     1     103.043 104.800 109.340  1.00  0.00     0.040 C 
ATOM      3  C   UNL     1     104.138 105.305 108.778  1.00  0.00     0.012 C 
ATOM      4  C   UNL     1     104.267 105.766 107.356  1.00  0.00     0.047 C 
ATOM      5  C   UNL     1     105.764 105.842 106.957  1.00  0.00     0.025 C 
ATOM      6  C   UNL     1     106.017 106.116 105.473  1.00  0.00    -0.073 C 
ATOM      7  C   UNL     1     105.049 106.477 104.608  1.00  0.00     0.008 C 
ATOM      8  C   UNL     1     107.458 106.152 105.020  1.00  0.00     0.031 C 
ATOM      9  C   UNL     1     108.213 104.910 105.495  1.00  0.00     0.005 C 
ATOM     10  C   UNL     1     108.038 104.687 107.005  1.00  0.00     0.008 C 
ATOM     11  C   UNL     1     106.547 104.565 107.439  1.00  0.00    -0.019 C 
ATOM     12  C   UNL     1     106.495 104.425 109.008  1.00  0.00     0.092 C 
ATOM     13  C   UNL     1     105.327 105.180 109.694  1.00  0.00     0.235 C 
ATOM     14  O   UNL     1     104.805 104.450 110.807  1.00  0.00    -0.426 OA
ATOM     15  C   UNL     1     103.452 104.245 110.610  1.00  0.00     0.336 C 
ATOM     16  O   UNL     1     102.709 103.632 111.420  1.00  0.00    -0.246 OA
ATOM     17  C   UNL     1     105.934 103.281 106.811  1.00  0.00     0.012 C 
ENDROOT
BRANCH  13  18
ATOM     18  O   UNL     1     105.727 106.462 110.104  1.00  0.00    -0.353 OA
ATOM     19  H   UNL     1     105.537 106.528 111.076  1.00  0.00     0.215 HD
ENDBRANCH  13  18
TORSDOF 1
ENDMDL
MODEL 4
REMARK VINA RESULT:    -7.887      1.313      1.734
REMARK INTER + INTRA:          -8.117
REMARK INTER:                  -8.117
REMARK INTRA:                   0.000
REMARK UNBOUND:                 0.000
REMARK SMILES C=C1CCC[C@@]2(C)C[C@]3(O)OC(=O)C(C)=C3C[C@H]12
REMARK SMILES IDX 15 1 14 2 16 3 17 4 18 5 2 6 1 7 3 8 4 9 5 10 6 11 8 12 9 13
REMARK SMILES IDX 11 14 12 15 13 16 7 17 10 18
REMARK H PARENT 10 19
REMARK Flexibility Score: inf
ROOT
ATOM      1  C   UNL     1     107.448 105.699 105.612  1.00  0.00     0.052 C 
ATOM      2  C   UNL     1     106.075 106.156 105.228  1.00  0.00     0.040 C 
ATOM      3  C   UNL     1     104.989 106.132 105.996  1.00  0.00     0.012 C 
ATOM      4  C   UNL     1     104.917 105.622 107.405  1.00  0.00     0.047 C 
ATOM      5  C   UNL     1     103.443 105.328 107.788  1.00  0.00     0.025 C 
ATOM      6  C   UNL     1     103.261 104.622 109.134  1.00  0.00    -0.073 C 
ATOM      7  C   UNL     1     104.256 104.454 110.026  1.00  0.00     0.008 C 
ATOM      8  C   UNL     1     101.847 104.269 109.535  1.00  0.00     0.031 C 
ATOM      9  C   UNL     1     101.131 103.520 108.410  1.00  0.00     0.005 C 
ATOM     10  C   UNL     1     101.232 104.275 107.076  1.00  0.00     0.008 C 
ATOM     11  C   UNL     1     102.700 104.553 106.638  1.00  0.00    -0.019 C 
ATOM     12  C   UNL     1     102.671 105.401 105.309  1.00  0.00     0.092 C 
ATOM     13  C   UNL     1     103.758 106.502 105.211  1.00  0.00     0.235 C 
ATOM     14  O   UNL     1     104.253 106.641 103.877  1.00  0.00    -0.426 OA
ATOM     15  C   UNL     1     105.624 106.460 103.888  1.00  0.00     0.336 C 
ATOM     16  O   UNL     1     106.350 106.523 102.863  1.00  0.00    -0.246 OA
ATOM     17  C   UNL     1     103.411 103.202 106.342  1.00  0.00     0.012 C 
ENDROOT
BRANCH  13  18
ATOM     18  O   UNL     1     103.272 107.735 105.675  1.00  0.00    -0.353 OA
ATOM     19  H   UNL     1     103.666 108.438 105.097  1.00  0.00     0.215 HD
ENDBRANCH  13  18
TORSDOF 1
ENDMDL
MODEL 5
REMARK VINA RESULT:    -7.873      3.889      5.937
REMARK INTER + INTRA:          -8.104
REMARK INTER:                  -8.104
REMARK INTRA:                   0.000
REMARK UNBOUND:                 0.000
REMARK SMILES C=C1CCC[C@@]2(C)C[C@]3(O)OC(=O)C(C)=C3C[C@H]12
REMARK SMILES IDX 15 1 14 2 16 3 17 4 18 5 2 6 1 7 3 8 4 9 5 10 6 11 8 12 9 13
REMARK SMILES IDX 11 14 12 15 13 16 7 17 10 18
REMARK H PARENT 10 19
REMARK Flexibility Score: inf
ROOT
ATOM      1  C   UNL     1     100.569 104.230 105.409  1.00  0.00     0.052 C 
ATOM      2  C   UNL     1     102.006 103.882 105.180  1.00  0.00     0.040 C 
ATOM      3  C   UNL     1     103.030 104.731 105.143  1.00  0.00     0.012 C 
ATOM      4  C   UNL     1     102.947 106.219 105.307  1.00  0.00     0.047 C 
ATOM      5  C   UNL     1     104.231 106.887 104.750  1.00  0.00     0.025 C 
ATOM      6  C   UNL     1     104.181 108.416 104.688  1.00  0.00    -0.073 C 
ATOM      7  C   UNL     1     103.209 109.152 105.260  1.00  0.00     0.008 C 
ATOM      8  C   UNL     1     105.389 109.116 104.109  1.00  0.00     0.031 C 
ATOM      9  C   UNL     1     105.773 108.514 102.756  1.00  0.00     0.005 C 
ATOM     10  C   UNL     1     105.918 106.987 102.840  1.00  0.00     0.008 C 
ATOM     11  C   UNL     1     104.632 106.277 103.357  1.00  0.00    -0.019 C 
ATOM     12  C   UNL     1     104.930 104.734 103.478  1.00  0.00     0.092 C 
ATOM     13  C   UNL     1     104.296 104.039 104.711  1.00  0.00     0.235 C 
ATOM     14  O   UNL     1     103.855 102.714 104.405  1.00  0.00    -0.426 OA
ATOM     15  C   UNL     1     102.509 102.613 104.703  1.00  0.00     0.336 C 
ATOM     16  O   UNL     1     101.830 101.565 104.543  1.00  0.00    -0.246 OA
ATOM     17  C   UNL     1     103.485 106.476 102.325  1.00  0.00     0.012 C 
ENDROOT
BRANCH  13  18
ATOM     18  O   UNL     1     105.194 104.010 105.790  1.00  0.00    -0.353 OA
ATOM     19  H   UNL     1     105.366 104.953 106.049  1.00  0.00     0.215 HD
ENDBRANCH  13  18
TORSDOF 1
ENDMDL
MODEL 6
REMARK VINA RESULT:    -7.831      3.034      4.802
REMARK INTER + INTRA:          -8.060
REMARK INTER:                  -8.060
REMARK INTRA:                   0.000
REMARK UNBOUND:                 0.000
REMARK SMILES C=C1CCC[C@@]2(C)C[C@]3(O)OC(=O)C(C)=C3C[C@H]12
REMARK SMILES IDX 15 1 14 2 16 3 17 4 18 5 2 6 1 7 3 8 4 9 5 10 6 11 8 12 9 13
REMARK SMILES IDX 11 14 12 15 13 16 7 17 10 18
REMARK H PARENT 10 19
REMARK Flexibility Score: inf
ROOT
ATOM      1  C   UNL     1     107.229 104.520 108.495  1.00  0.00     0.052 C 
ATOM      2  C   UNL     1     105.892 104.336 109.144  1.00  0.00     0.040 C 
ATOM      3  C   UNL     1     104.818 103.771 108.598  1.00  0.00     0.012 C 
ATOM      4  C   UNL     1     104.725 103.217 107.207  1.00  0.00     0.047 C 
ATOM      5  C   UNL     1     103.238 103.081 106.789  1.00  0.00     0.025 C 
ATOM      6  C   UNL     1     103.018 102.706 105.322  1.00  0.00    -0.073 C 
ATOM      7  C   UNL     1     104.008 102.312 104.498  1.00  0.00     0.008 C 
ATOM      8  C   UNL     1     101.586 102.607 104.849  1.00  0.00     0.031 C 
ATOM      9  C   UNL     1     100.796 103.860 105.229  1.00  0.00     0.005 C 
ATOM     10  C   UNL     1     100.939 104.183 106.725  1.00  0.00     0.008 C 
ATOM     11  C   UNL     1     102.419 104.368 107.174  1.00  0.00    -0.019 C 
ATOM     12  C   UNL     1     102.440 104.610 108.731  1.00  0.00     0.092 C 
ATOM     13  C   UNL     1     103.611 103.928 109.485  1.00  0.00     0.235 C 
ATOM     14  O   UNL     1     104.096 104.739 110.556  1.00  0.00    -0.426 OA
ATOM     15  C   UNL     1     105.448 104.963 110.369  1.00  0.00     0.336 C 
ATOM     16  O   UNL     1     106.163 105.644 111.149  1.00  0.00    -0.246 OA
ATOM     17  C   UNL     1     103.014 105.622 106.474  1.00  0.00     0.012 C 
ENDROOT
BRANCH  13  18
ATOM     18  O   UNL     1     103.232 102.666 109.970  1.00  0.00    -0.353 OA
ATOM     19  H   UNL     1     104.067 102.164 110.156  1.00  0.00     0.215 HD
ENDBRANCH  13  18
TORSDOF 1
ENDMDL
MODEL 7
REMARK VINA RESULT:    -7.790      1.638      3.177
REMARK INTER + INTRA:          -8.018
REMARK INTER:                  -8.018
REMARK INTRA:                   0.000
REMARK UNBOUND:                 0.000
REMARK SMILES C=C1CCC[C@@]2(C)C[C@]3(O)OC(=O)C(C)=C3C[C@H]12
REMARK SMILES IDX 15 1 14 2 16 3 17 4 18 5 2 6 1 7 3 8 4 9 5 10 6 11 8 12 9 13
REMARK SMILES IDX 11 14 12 15 13 16 7 17 10 18
REMARK H PARENT 10 19
REMARK Flexibility Score: inf
ROOT
ATOM      1  C   UNL     1     102.749 107.754 104.288  1.00  0.00     0.052 C 
ATOM      2  C   UNL     1     103.914 106.897 104.676  1.00  0.00     0.040 C 
ATOM      3  C   UNL     1     103.893 105.865 105.515  1.00  0.00     0.012 C 
ATOM      4  C   UNL     1     102.693 105.360 106.260  1.00  0.00     0.047 C 
ATOM      5  C   UNL     1     103.142 104.479 107.455  1.00  0.00     0.025 C 
ATOM      6  C   UNL     1     102.014 104.062 108.402  1.00  0.00    -0.073 C 
ATOM      7  C   UNL     1     100.708 104.247 108.130  1.00  0.00     0.008 C 
ATOM      8  C   UNL     1     102.404 103.242 109.610  1.00  0.00     0.031 C 
ATOM      9  C   UNL     1     103.557 103.901 110.370  1.00  0.00     0.005 C 
ATOM     10  C   UNL     1     104.730 104.233 109.436  1.00  0.00     0.008 C 
ATOM     11  C   UNL     1     104.325 105.151 108.244  1.00  0.00    -0.019 C 
ATOM     12  C   UNL     1     105.585 105.350 107.318  1.00  0.00     0.092 C 
ATOM     13  C   UNL     1     105.285 105.363 105.797  1.00  0.00     0.235 C 
ATOM     14  O   UNL     1     106.114 106.296 105.101  1.00  0.00    -0.426 OA
ATOM     15  C   UNL     1     105.307 107.188 104.420  1.00  0.00     0.336 C 
ATOM     16  O   UNL     1     105.744 108.131 103.710  1.00  0.00    -0.246 OA
ATOM     17  C   UNL     1     103.894 106.542 108.792  1.00  0.00     0.012 C 
ENDROOT
BRANCH  13  18
ATOM     18  O   UNL     1     105.431 104.081 105.243  1.00  0.00    -0.353 OA
ATOM     19  H   UNL     1     104.617 103.904 104.704  1.00  0.00     0.215 HD
ENDBRANCH  13  18
TORSDOF 1
ENDMDL
MODEL 8
REMARK VINA RESULT:    -7.779      2.677      4.383
REMARK INTER + INTRA:          -8.006
REMARK INTER:                  -8.006
REMARK INTRA:                   0.000
REMARK UNBOUND:                 0.000
REMARK SMILES C=C1CCC[C@@]2(C)C[C@]3(O)OC(=O)C(C)=C3C[C@H]12
REMARK SMILES IDX 15 1 14 2 16 3 17 4 18 5 2 6 1 7 3 8 4 9 5 10 6 11 8 12 9 13
REMARK SMILES IDX 11 14 12 15 13 16 7 17 10 18
REMARK H PARENT 10 19
REMARK Flexibility Score: inf
ROOT
ATOM      1  C   UNL     1     107.890 104.969 105.489  1.00  0.00     0.052 C 
ATOM      2  C   UNL     1     107.081 104.460 106.641  1.00  0.00     0.040 C 
ATOM      3  C   UNL     1     105.878 103.896 106.576  1.00  0.00     0.012 C 
ATOM      4  C   UNL     1     105.078 103.670 105.327  1.00  0.00     0.047 C 
ATOM      5  C   UNL     1     103.588 103.433 105.687  1.00  0.00     0.025 C 
ATOM      6  C   UNL     1     102.640 103.380 104.486  1.00  0.00    -0.073 C 
ATOM      7  C   UNL     1     103.062 103.325 103.208  1.00  0.00     0.008 C 
ATOM      8  C   UNL     1     101.170 103.199 104.784  1.00  0.00     0.031 C 
ATOM      9  C   UNL     1     100.694 104.211 105.827  1.00  0.00     0.005 C 
ATOM     10  C   UNL     1     101.589 104.197 107.075  1.00  0.00     0.008 C 
ATOM     11  C   UNL     1     103.089 104.472 106.757  1.00  0.00    -0.019 C 
ATOM     12  C   UNL     1     103.912 104.350 108.096  1.00  0.00     0.092 C 
ATOM     13  C   UNL     1     105.303 103.678 107.950  1.00  0.00     0.235 C 
ATOM     14  O   UNL     1     106.274 104.279 108.809  1.00  0.00    -0.426 OA
ATOM     15  C   UNL     1     107.336 104.721 108.041  1.00  0.00     0.336 C 
ATOM     16  O   UNL     1     108.353 105.294 108.510  1.00  0.00    -0.246 OA
ATOM     17  C   UNL     1     103.241 105.924 106.219  1.00  0.00     0.012 C 
ENDROOT
BRANCH  13  18
ATOM     18  O   UNL     1     105.225 102.298 108.201  1.00  0.00    -0.353 OA
ATOM     19  H   UNL     1     104.895 102.191 109.132  1.00  0.00     0.215 HD
ENDBRANCH  13  18
TORSDOF 1
ENDMDL
MODEL 9
REMARK VINA RESULT:    -7.773      2.357      5.166
REMARK INTER + INTRA:          -8.000
REMARK INTER:                  -8.000
REMARK INTRA:                   0.000
REMARK UNBOUND:                 0.000
REMARK SMILES C=C1CCC[C@@]2(C)C[C@]3(O)OC(=O)C(C)=C3C[C@H]12
REMARK SMILES IDX 15 1 14 2 16 3 17 4 18 5 2 6 1 7 3 8 4 9 5 10 6 11 8 12 9 13
REMARK SMILES IDX 11 14 12 15 13 16 7 17 10 18
REMARK H PARENT 10 19
REMARK Flexibility Score: inf
ROOT
ATOM      1  C   UNL     1     101.163 104.229 105.567  1.00  0.00     0.052 C 
ATOM      2  C   UNL     1     102.003 104.605 106.747  1.00  0.00     0.040 C 
ATOM      3  C   UNL     1     103.218 105.148 106.714  1.00  0.00     0.012 C 
ATOM      4  C   UNL     1     104.001 105.480 105.478  1.00  0.00     0.047 C 
ATOM      5  C   UNL     1     105.501 105.650 105.831  1.00  0.00     0.025 C 
ATOM      6  C   UNL     1     106.429 105.801 104.623  1.00  0.00    -0.073 C 
ATOM      7  C   UNL     1     105.987 105.990 103.365  1.00  0.00     0.008 C 
ATOM      8  C   UNL     1     107.909 105.922 104.908  1.00  0.00     0.031 C 
ATOM      9  C   UNL     1     108.380 104.802 105.838  1.00  0.00     0.005 C 
ATOM     10  C   UNL     1     107.506 104.712 107.099  1.00  0.00     0.008 C 
ATOM     11  C   UNL     1     105.996 104.500 106.784  1.00  0.00    -0.019 C 
ATOM     12  C   UNL     1     105.198 104.507 108.144  1.00  0.00     0.092 C 
ATOM     13  C   UNL     1     103.821 105.218 108.092  1.00  0.00     0.235 C 
ATOM     14  O   UNL     1     102.851 104.555 108.906  1.00  0.00    -0.426 OA
ATOM     15  C   UNL     1     101.767 104.213 108.119  1.00  0.00     0.336 C 
ATOM     16  O   UNL     1     100.746 103.617 108.549  1.00  0.00    -0.246 OA
ATOM     17  C   UNL     1     105.802 103.112 106.110  1.00  0.00     0.012 C 
ENDROOT
BRANCH  13  18
ATOM     18  O   UNL     1     103.934 106.564 108.476  1.00  0.00    -0.353 OA
ATOM     19  H   UNL     1     103.368 106.684 109.283  1.00  0.00     0.215 HD
ENDBRANCH  13  18
TORSDOF 1
ENDMDL
