MODEL 1
REMARK VINA RESULT:    -5.214      0.000      0.000
REMARK INTER + INTRA:         -10.049
REMARK INTER:                  -7.958
REMARK INTRA:                  -2.091
REMARK UNBOUND:                -2.091
REMARK SMILES CC(=O)CCC=C(C)CCC=C(C)CCC=C(C)C
REMARK SMILES IDX 10 1 11 2 12 3 13 4 14 5 15 6 16 7 18 8 17 9 19 10 9 11 7 12
REMARK SMILES IDX 6 13 8 14 5 15 4 16 2 17 3 18 1 19
REMARK H PARENT
REMARK Flexibility Score: inf
ROOT
ATOM      1  C   UNL     1     -16.308  13.627 -31.679  1.00  0.00     0.032 C 
ENDROOT
BRANCH   1   2
ATOM      2  C   UNL     1     -17.395  12.669 -31.247  1.00  0.00    -0.028 C 
ATOM      3  C   UNL     1     -17.818  12.470 -29.978  1.00  0.00    -0.077 C 
ATOM      4  C   UNL     1     -18.949  11.496 -29.754  1.00  0.00     0.039 C 
BRANCH   3   5
ATOM      5  C   UNL     1     -17.208  13.165 -28.770  1.00  0.00     0.034 C 
BRANCH   5   6
ATOM      6  C   UNL     1     -16.417  12.207 -27.865  1.00  0.00     0.032 C 
BRANCH   6   7
ATOM      7  C   UNL     1     -14.969  12.089 -28.281  1.00  0.00    -0.028 C 
ATOM      8  C   UNL     1     -12.968  11.048 -29.249  1.00  0.00     0.039 C 
ATOM      9  C   UNL     1     -14.444  11.038 -28.947  1.00  0.00    -0.080 C 
ATOM     10  C   UNL     1     -15.290   9.876 -29.410  1.00  0.00     0.039 C 
ENDBRANCH   6   7
ENDBRANCH   5   6
ENDBRANCH   3   5
ENDBRANCH   1   2
BRANCH   1  11
ATOM     11  C   UNL     1     -15.005  12.878 -31.998  1.00  0.00     0.034 C 
BRANCH  11  12
ATOM     12  C   UNL     1     -13.785  13.761 -31.839  1.00  0.00    -0.077 C 
ATOM     13  C   UNL     1     -12.784  13.677 -32.743  1.00  0.00    -0.028 C 
ATOM     14  C   UNL     1     -13.707  14.711 -30.666  1.00  0.00     0.039 C 
BRANCH  13  15
ATOM     15  C   UNL     1     -11.531  14.518 -32.668  1.00  0.00     0.035 C 
BRANCH  15  16
ATOM     16  C   UNL     1     -10.262  13.679 -32.868  1.00  0.00     0.079 C 
BRANCH  16  17
ATOM     17  C   UNL     1     -10.588  12.248 -33.213  1.00  0.00     0.130 C 
ATOM     18  O   UNL     1     -10.832  11.950 -34.373  1.00  0.00    -0.300 OA
ATOM     19  C   UNL     1     -10.634  11.180 -32.161  1.00  0.00     0.087 C 
ENDBRANCH  16  17
ENDBRANCH  15  16
ENDBRANCH  13  15
ENDBRANCH  11  12
ENDBRANCH   1  11
TORSDOF 9
ENDMDL
MODEL 2
REMARK VINA RESULT:    -4.993      1.300      2.084
REMARK INTER + INTRA:          -9.711
REMARK INTER:                  -7.563
REMARK INTRA:                  -2.148
REMARK UNBOUND:                -2.091
REMARK SMILES CC(=O)CCC=C(C)CCC=C(C)CCC=C(C)C
REMARK SMILES IDX 10 1 11 2 12 3 13 4 14 5 15 6 16 7 18 8 17 9 19 10 9 11 7 12
REMARK SMILES IDX 6 13 8 14 5 15 4 16 2 17 3 18 1 19
REMARK H PARENT
REMARK Flexibility Score: inf
ROOT
ATOM      1  C   UNL     1     -16.351  13.723 -29.150  1.00  0.00     0.032 C 
ENDROOT
BRANCH   1   2
ATOM      2  C   UNL     1     -17.706  13.055 -29.206  1.00  0.00    -0.028 C 
ATOM      3  C   UNL     1     -17.949  11.785 -29.603  1.00  0.00    -0.077 C 
ATOM      4  C   UNL     1     -19.372  11.288 -29.549  1.00  0.00     0.039 C 
BRANCH   3   5
ATOM      5  C   UNL     1     -16.868  10.842 -30.111  1.00  0.00     0.034 C 
BRANCH   5   6
ATOM      6  C   UNL     1     -16.220  10.016 -28.988  1.00  0.00     0.032 C 
BRANCH   6   7
ATOM      7  C   UNL     1     -14.727  10.234 -28.905  1.00  0.00    -0.028 C 
ATOM      8  C   UNL     1     -12.609  11.086 -28.003  1.00  0.00     0.039 C 
ATOM      9  C   UNL     1     -14.103  10.914 -27.919  1.00  0.00    -0.080 C 
ATOM     10  C   UNL     1     -14.852  11.482 -26.736  1.00  0.00     0.039 C 
ENDBRANCH   6   7
ENDBRANCH   5   6
ENDBRANCH   3   5
ENDBRANCH   1   2
BRANCH   1  11
ATOM     11  C   UNL     1     -15.998  14.373 -30.496  1.00  0.00     0.034 C 
BRANCH  11  12
ATOM     12  C   UNL     1     -14.536  14.198 -30.850  1.00  0.00    -0.077 C 
ATOM     13  C   UNL     1     -14.102  13.000 -31.300  1.00  0.00    -0.028 C 
ATOM     14  C   UNL     1     -13.590  15.365 -30.683  1.00  0.00     0.039 C 
BRANCH  13  15
ATOM     15  C   UNL     1     -12.664  12.732 -31.678  1.00  0.00     0.035 C 
BRANCH  15  16
ATOM     16  C   UNL     1     -12.383  13.068 -33.149  1.00  0.00     0.079 C 
BRANCH  16  17
ATOM     17  C   UNL     1     -10.973  13.565 -33.347  1.00  0.00     0.130 C 
ATOM     18  O   UNL     1     -10.133  12.816 -33.823  1.00  0.00    -0.300 OA
ATOM     19  C   UNL     1     -10.573  14.958 -32.961  1.00  0.00     0.087 C 
ENDBRANCH  16  17
ENDBRANCH  15  16
ENDBRANCH  13  15
ENDBRANCH  11  12
ENDBRANCH   1  11
TORSDOF 9
ENDMDL
MODEL 3
REMARK VINA RESULT:    -4.876      2.956      6.618
REMARK INTER + INTRA:          -9.533
REMARK INTER:                  -7.142
REMARK INTRA:                  -2.391
REMARK UNBOUND:                -2.091
REMARK SMILES CC(=O)CCC=C(C)CCC=C(C)CCC=C(C)C
REMARK SMILES IDX 10 1 11 2 12 3 13 4 14 5 15 6 16 7 18 8 17 9 19 10 9 11 7 12
REMARK SMILES IDX 6 13 8 14 5 15 4 16 2 17 3 18 1 19
REMARK H PARENT
REMARK Flexibility Score: inf
ROOT
ATOM      1  C   UNL     1     -12.953  11.963 -30.009  1.00  0.00     0.032 C 
ENDROOT
BRANCH   1   2
ATOM      2  C   UNL     1     -12.669  12.120 -31.486  1.00  0.00    -0.028 C 
ATOM      3  C   UNL     1     -12.425  13.286 -32.128  1.00  0.00    -0.077 C 
ATOM      4  C   UNL     1     -12.122  13.229 -33.604  1.00  0.00     0.039 C 
BRANCH   3   5
ATOM      5  C   UNL     1     -12.453  14.643 -31.443  1.00  0.00     0.034 C 
BRANCH   5   6
ATOM      6  C   UNL     1     -13.815  15.346 -31.563  1.00  0.00     0.032 C 
BRANCH   6   7
ATOM      7  C   UNL     1     -14.721  15.041 -30.393  1.00  0.00    -0.028 C 
ATOM      8  C   UNL     1     -16.636  14.068 -29.205  1.00  0.00     0.039 C 
ATOM      9  C   UNL     1     -15.802  14.233 -30.448  1.00  0.00    -0.080 C 
ATOM     10  C   UNL     1     -16.182  13.484 -31.704  1.00  0.00     0.039 C 
ENDBRANCH   6   7
ENDBRANCH   5   6
ENDBRANCH   3   5
ENDBRANCH   1   2
BRANCH   1  11
ATOM     11  C   UNL     1     -13.630  10.616 -29.715  1.00  0.00     0.034 C 
BRANCH  11  12
ATOM     12  C   UNL     1     -14.905  10.780 -28.915  1.00  0.00    -0.077 C 
ATOM     13  C   UNL     1     -16.079  10.376 -29.449  1.00  0.00    -0.028 C 
ATOM     14  C   UNL     1     -14.840  11.399 -27.538  1.00  0.00     0.039 C 
BRANCH  13  15
ATOM     15  C   UNL     1     -17.401  10.498 -28.726  1.00  0.00     0.035 C 
BRANCH  15  16
ATOM     16  C   UNL     1     -18.583  10.093 -29.616  1.00  0.00     0.079 C 
BRANCH  16  17
ATOM     17  C   UNL     1     -19.747  11.039 -29.461  1.00  0.00     0.130 C 
ATOM     18  O   UNL     1     -20.768  10.652 -28.911  1.00  0.00    -0.300 OA
ATOM     19  C   UNL     1     -19.686  12.445 -29.979  1.00  0.00     0.087 C 
ENDBRANCH  16  17
ENDBRANCH  15  16
ENDBRANCH  13  15
ENDBRANCH  11  12
ENDBRANCH   1  11
TORSDOF 9
ENDMDL
MODEL 4
REMARK VINA RESULT:    -4.760     10.913     13.647
REMARK INTER + INTRA:          -9.355
REMARK INTER:                  -8.405
REMARK INTRA:                  -0.950
REMARK UNBOUND:                -2.091
REMARK SMILES CC(=O)CCC=C(C)CCC=C(C)CCC=C(C)C
REMARK SMILES IDX 10 1 11 2 12 3 13 4 14 5 15 6 16 7 18 8 17 9 19 10 9 11 7 12
REMARK SMILES IDX 6 13 8 14 5 15 4 16 2 17 3 18 1 19
REMARK H PARENT
REMARK Flexibility Score: inf
ROOT
ATOM      1  C   UNL     1     -28.770  15.659 -32.796  1.00  0.00     0.032 C 
ENDROOT
BRANCH   1   2
ATOM      2  C   UNL     1     -29.350  14.770 -31.719  1.00  0.00    -0.028 C 
ATOM      3  C   UNL     1     -28.683  13.809 -31.041  1.00  0.00    -0.077 C 
ATOM      4  C   UNL     1     -29.430  13.053 -29.970  1.00  0.00     0.039 C 
BRANCH   3   5
ATOM      5  C   UNL     1     -27.231  13.444 -31.309  1.00  0.00     0.034 C 
BRANCH   5   6
ATOM      6  C   UNL     1     -26.308  13.745 -30.117  1.00  0.00     0.032 C 
BRANCH   6   7
ATOM      7  C   UNL     1     -25.251  12.681 -29.928  1.00  0.00    -0.028 C 
ATOM      8  C   UNL     1     -24.185  10.696 -28.954  1.00  0.00     0.039 C 
ATOM      9  C   UNL     1     -25.347  11.649 -29.062  1.00  0.00    -0.080 C 
ATOM     10  C   UNL     1     -26.582  11.414 -28.224  1.00  0.00     0.039 C 
ENDBRANCH   6   7
ENDBRANCH   5   6
ENDBRANCH   3   5
ENDBRANCH   1   2
BRANCH   1  11
ATOM     11  C   UNL     1     -29.736  16.799 -33.152  1.00  0.00     0.034 C 
BRANCH  11  12
ATOM     12  C   UNL     1     -29.012  18.105 -33.405  1.00  0.00    -0.077 C 
ATOM     13  C   UNL     1     -27.681  18.178 -33.182  1.00  0.00    -0.028 C 
ATOM     14  C   UNL     1     -29.795  19.303 -33.892  1.00  0.00     0.039 C 
BRANCH  13  15
ATOM     15  C   UNL     1     -26.875  19.436 -33.406  1.00  0.00     0.035 C 
BRANCH  15  16
ATOM     16  C   UNL     1     -25.404  19.256 -33.007  1.00  0.00     0.079 C 
BRANCH  16  17
ATOM     17  C   UNL     1     -24.476  19.948 -33.973  1.00  0.00     0.130 C 
ATOM     18  O   UNL     1     -24.836  20.133 -35.126  1.00  0.00    -0.300 OA
ATOM     19  C   UNL     1     -23.110  20.405 -33.554  1.00  0.00     0.087 C 
ENDBRANCH  16  17
ENDBRANCH  15  16
ENDBRANCH  13  15
ENDBRANCH  11  12
ENDBRANCH   1  11
TORSDOF 9
ENDMDL
MODEL 5
REMARK VINA RESULT:    -4.706     10.475     12.768
REMARK INTER + INTRA:          -9.272
REMARK INTER:                  -7.553
REMARK INTRA:                  -1.719
REMARK UNBOUND:                -2.091
REMARK SMILES CC(=O)CCC=C(C)CCC=C(C)CCC=C(C)C
REMARK SMILES IDX 10 1 11 2 12 3 13 4 14 5 15 6 16 7 18 8 17 9 19 10 9 11 7 12
REMARK SMILES IDX 6 13 8 14 5 15 4 16 2 17 3 18 1 19
REMARK H PARENT
REMARK Flexibility Score: inf
ROOT
ATOM      1  C   UNL     1     -25.158  12.774 -30.435  1.00  0.00     0.032 C 
ENDROOT
BRANCH   1   2
ATOM      2  C   UNL     1     -25.303  11.962 -29.168  1.00  0.00    -0.028 C 
ATOM      3  C   UNL     1     -25.924  10.765 -29.059  1.00  0.00    -0.077 C 
ATOM      4  C   UNL     1     -25.927  10.091 -27.710  1.00  0.00     0.039 C 
BRANCH   3   5
ATOM      5  C   UNL     1     -26.627  10.075 -30.218  1.00  0.00     0.034 C 
BRANCH   5   6
ATOM      6  C   UNL     1     -28.158  10.197 -30.147  1.00  0.00     0.032 C 
BRANCH   6   7
ATOM      7  C   UNL     1     -28.656  11.507 -30.712  1.00  0.00    -0.028 C 
ATOM      8  C   UNL     1     -29.590  13.777 -30.684  1.00  0.00     0.039 C 
ATOM      9  C   UNL     1     -29.076  12.554 -29.970  1.00  0.00    -0.080 C 
ATOM     10  C   UNL     1     -29.026  12.540 -28.460  1.00  0.00     0.039 C 
ENDBRANCH   6   7
ENDBRANCH   5   6
ENDBRANCH   3   5
ENDBRANCH   1   2
BRANCH   1  11
ATOM     11  C   UNL     1     -25.890  14.119 -30.318  1.00  0.00     0.034 C 
BRANCH  11  12
ATOM     12  C   UNL     1     -25.025  15.281 -30.759  1.00  0.00    -0.077 C 
ATOM     13  C   UNL     1     -25.520  16.537 -30.695  1.00  0.00    -0.028 C 
ATOM     14  C   UNL     1     -23.629  15.012 -31.269  1.00  0.00     0.039 C 
BRANCH  13  15
ATOM     15  C   UNL     1     -24.732  17.757 -31.111  1.00  0.00     0.035 C 
BRANCH  15  16
ATOM     16  C   UNL     1     -25.378  18.483 -32.298  1.00  0.00     0.079 C 
BRANCH  16  17
ATOM     17  C   UNL     1     -24.382  19.342 -33.037  1.00  0.00     0.130 C 
ATOM     18  O   UNL     1     -24.730  19.932 -34.048  1.00  0.00    -0.300 OA
ATOM     19  C   UNL     1     -22.966  19.478 -32.563  1.00  0.00     0.087 C 
ENDBRANCH  16  17
ENDBRANCH  15  16
ENDBRANCH  13  15
ENDBRANCH  11  12
ENDBRANCH   1  11
TORSDOF 9
ENDMDL
MODEL 6
REMARK VINA RESULT:    -4.702     10.710     14.178
REMARK INTER + INTRA:          -9.267
REMARK INTER:                  -8.377
REMARK INTRA:                  -0.890
REMARK UNBOUND:                -2.091
REMARK SMILES CC(=O)CCC=C(C)CCC=C(C)CCC=C(C)C
REMARK SMILES IDX 10 1 11 2 12 3 13 4 14 5 15 6 16 7 18 8 17 9 19 10 9 11 7 12
REMARK SMILES IDX 6 13 8 14 5 15 4 16 2 17 3 18 1 19
REMARK H PARENT
REMARK Flexibility Score: inf
ROOT
ATOM      1  C   UNL     1     -25.306  17.491 -31.531  1.00  0.00     0.032 C 
ENDROOT
BRANCH   1   2
ATOM      2  C   UNL     1     -24.067  18.328 -31.304  1.00  0.00    -0.028 C 
ATOM      3  C   UNL     1     -23.464  19.117 -32.222  1.00  0.00    -0.077 C 
ATOM      4  C   UNL     1     -22.255  19.908 -31.788  1.00  0.00     0.039 C 
BRANCH   3   5
ATOM      5  C   UNL     1     -23.931  19.236 -33.665  1.00  0.00     0.034 C 
BRANCH   5   6
ATOM      6  C   UNL     1     -24.996  20.327 -33.859  1.00  0.00     0.032 C 
BRANCH   6   7
ATOM      7  C   UNL     1     -26.395  19.757 -33.927  1.00  0.00    -0.028 C 
ATOM      8  C   UNL     1     -28.843  19.735 -33.747  1.00  0.00     0.039 C 
ATOM      9  C   UNL     1     -27.523  20.460 -33.688  1.00  0.00    -0.080 C 
ATOM     10  C   UNL     1     -27.500  21.940 -33.386  1.00  0.00     0.039 C 
ENDBRANCH   6   7
ENDBRANCH   5   6
ENDBRANCH   3   5
ENDBRANCH   1   2
BRANCH   1  11
ATOM     11  C   UNL     1     -25.590  16.583 -30.325  1.00  0.00     0.034 C 
BRANCH  11  12
ATOM     12  C   UNL     1     -25.293  15.128 -30.622  1.00  0.00    -0.077 C 
ATOM     13  C   UNL     1     -26.254  14.201 -30.418  1.00  0.00    -0.028 C 
ATOM     14  C   UNL     1     -23.923  14.743 -31.132  1.00  0.00     0.039 C 
BRANCH  13  15
ATOM     15  C   UNL     1     -26.050  12.728 -30.687  1.00  0.00     0.035 C 
BRANCH  15  16
ATOM     16  C   UNL     1     -27.330  11.916 -30.451  1.00  0.00     0.079 C 
BRANCH  16  17
ATOM     17  C   UNL     1     -27.714  11.892 -28.993  1.00  0.00     0.130 C 
ATOM     18  O   UNL     1     -26.955  11.385 -28.180  1.00  0.00    -0.300 OA
ATOM     19  C   UNL     1     -29.015  12.466 -28.518  1.00  0.00     0.087 C 
ENDBRANCH  16  17
ENDBRANCH  15  16
ENDBRANCH  13  15
ENDBRANCH  11  12
ENDBRANCH   1  11
TORSDOF 9
ENDMDL
MODEL 7
REMARK VINA RESULT:    -4.646      2.750      6.009
REMARK INTER + INTRA:          -9.181
REMARK INTER:                  -7.191
REMARK INTRA:                  -1.990
REMARK UNBOUND:                -2.091
REMARK SMILES CC(=O)CCC=C(C)CCC=C(C)CCC=C(C)C
REMARK SMILES IDX 10 1 11 2 12 3 13 4 14 5 15 6 16 7 18 8 17 9 19 10 9 11 7 12
REMARK SMILES IDX 6 13 8 14 5 15 4 16 2 17 3 18 1 19
REMARK H PARENT
REMARK Flexibility Score: inf
ROOT
ATOM      1  C   UNL     1     -13.636  14.979 -30.437  1.00  0.00     0.032 C 
ENDROOT
BRANCH   1   2
ATOM      2  C   UNL     1     -12.579  14.819 -31.506  1.00  0.00    -0.028 C 
ATOM      3  C   UNL     1     -12.309  13.685 -32.192  1.00  0.00    -0.077 C 
ATOM      4  C   UNL     1     -11.239  13.739 -33.254  1.00  0.00     0.039 C 
BRANCH   3   5
ATOM      5  C   UNL     1     -13.017  12.362 -31.940  1.00  0.00     0.034 C 
BRANCH   5   6
ATOM      6  C   UNL     1     -12.499  11.636 -30.688  1.00  0.00     0.032 C 
BRANCH   6   7
ATOM      7  C   UNL     1     -13.577  10.819 -30.012  1.00  0.00    -0.028 C 
ATOM      8  C   UNL     1     -15.063  10.086 -28.201  1.00  0.00     0.039 C 
ATOM      9  C   UNL     1     -14.013  11.017 -28.749  1.00  0.00    -0.080 C 
ATOM     10  C   UNL     1     -13.498  12.147 -27.889  1.00  0.00     0.039 C 
ENDBRANCH   6   7
ENDBRANCH   5   6
ENDBRANCH   3   5
ENDBRANCH   1   2
BRANCH   1  11
ATOM     11  C   UNL     1     -15.035  15.112 -31.057  1.00  0.00     0.034 C 
BRANCH  11  12
ATOM     12  C   UNL     1     -15.953  13.981 -30.645  1.00  0.00    -0.077 C 
ATOM     13  C   UNL     1     -16.394  13.915 -29.370  1.00  0.00    -0.028 C 
ATOM     14  C   UNL     1     -16.351  12.942 -31.668  1.00  0.00     0.039 C 
BRANCH  13  15
ATOM     15  C   UNL     1     -17.313  12.825 -28.868  1.00  0.00     0.035 C 
BRANCH  15  16
ATOM     16  C   UNL     1     -18.672  12.846 -29.578  1.00  0.00     0.079 C 
BRANCH  16  17
ATOM     17  C   UNL     1     -19.328  11.488 -29.567  1.00  0.00     0.130 C 
ATOM     18  O   UNL     1     -20.547  11.409 -29.578  1.00  0.00    -0.300 OA
ATOM     19  C   UNL     1     -18.515  10.228 -29.529  1.00  0.00     0.087 C 
ENDBRANCH  16  17
ENDBRANCH  15  16
ENDBRANCH  13  15
ENDBRANCH  11  12
ENDBRANCH   1  11
TORSDOF 9
ENDMDL
MODEL 8
REMARK VINA RESULT:    -4.612      0.978      3.018
REMARK INTER + INTRA:          -9.130
REMARK INTER:                  -7.671
REMARK INTRA:                  -1.459
REMARK UNBOUND:                -2.091
REMARK SMILES CC(=O)CCC=C(C)CCC=C(C)CCC=C(C)C
REMARK SMILES IDX 10 1 11 2 12 3 13 4 14 5 15 6 16 7 18 8 17 9 19 10 9 11 7 12
REMARK SMILES IDX 6 13 8 14 5 15 4 16 2 17 3 18 1 19
REMARK H PARENT
REMARK Flexibility Score: inf
ROOT
ATOM      1  C   UNL     1     -14.900  12.160 -31.588  1.00  0.00     0.032 C 
ENDROOT
BRANCH   1   2
ATOM      2  C   UNL     1     -13.912  11.902 -30.472  1.00  0.00    -0.028 C 
ATOM      3  C   UNL     1     -13.975  10.891 -29.576  1.00  0.00    -0.077 C 
ATOM      4  C   UNL     1     -12.866  10.778 -28.559  1.00  0.00     0.039 C 
BRANCH   3   5
ATOM      5  C   UNL     1     -15.106   9.875 -29.532  1.00  0.00     0.034 C 
BRANCH   5   6
ATOM      6  C   UNL     1     -16.221  10.263 -28.548  1.00  0.00     0.032 C 
BRANCH   6   7
ATOM      7  C   UNL     1     -17.444  10.806 -29.252  1.00  0.00    -0.028 C 
ATOM      8  C   UNL     1     -19.088  12.482 -29.968  1.00  0.00     0.039 C 
ATOM      9  C   UNL     1     -17.813  12.105 -29.260  1.00  0.00    -0.080 C 
ATOM     10  C   UNL     1     -16.981  13.181 -28.603  1.00  0.00     0.039 C 
ENDBRANCH   6   7
ENDBRANCH   5   6
ENDBRANCH   3   5
ENDBRANCH   1   2
BRANCH   1  11
ATOM     11  C   UNL     1     -15.128  13.666 -31.787  1.00  0.00     0.034 C 
BRANCH  11  12
ATOM     12  C   UNL     1     -13.837  14.455 -31.715  1.00  0.00    -0.077 C 
ATOM     13  C   UNL     1     -12.867  14.221 -32.626  1.00  0.00    -0.028 C 
ATOM     14  C   UNL     1     -13.658  15.481 -30.621  1.00  0.00     0.039 C 
BRANCH  13  15
ATOM     15  C   UNL     1     -11.548  14.959 -32.634  1.00  0.00     0.035 C 
BRANCH  15  16
ATOM     16  C   UNL     1     -10.371  14.031 -32.967  1.00  0.00     0.079 C 
BRANCH  16  17
ATOM     17  C   UNL     1     -10.840  12.647 -33.337  1.00  0.00     0.130 C 
ATOM     18  O   UNL     1     -11.387  12.465 -34.414  1.00  0.00    -0.300 OA
ATOM     19  C   UNL     1     -10.661  11.486 -32.404  1.00  0.00     0.087 C 
ENDBRANCH  16  17
ENDBRANCH  15  16
ENDBRANCH  13  15
ENDBRANCH  11  12
ENDBRANCH   1  11
TORSDOF 9
ENDMDL
MODEL 9
REMARK VINA RESULT:    -4.567      5.642      9.181
REMARK INTER + INTRA:          -9.061
REMARK INTER:                  -8.035
REMARK INTRA:                  -1.025
REMARK UNBOUND:                -2.091
REMARK SMILES CC(=O)CCC=C(C)CCC=C(C)CCC=C(C)C
REMARK SMILES IDX 10 1 11 2 12 3 13 4 14 5 15 6 16 7 18 8 17 9 19 10 9 11 7 12
REMARK SMILES IDX 6 13 8 14 5 15 4 16 2 17 3 18 1 19
REMARK H PARENT
REMARK Flexibility Score: inf
ROOT
ATOM      1  C   UNL     1     -22.153  10.080 -29.088  1.00  0.00     0.032 C 
ENDROOT
BRANCH   1   2
ATOM      2  C   UNL     1     -23.357   9.885 -28.195  1.00  0.00    -0.028 C 
ATOM      3  C   UNL     1     -24.627  10.254 -28.483  1.00  0.00    -0.077 C 
ATOM      4  C   UNL     1     -25.701   9.934 -27.473  1.00  0.00     0.039 C 
BRANCH   3   5
ATOM      5  C   UNL     1     -25.021  10.980 -29.759  1.00  0.00     0.034 C 
BRANCH   5   6
ATOM      6  C   UNL     1     -25.396  12.452 -29.519  1.00  0.00     0.032 C 
BRANCH   6   7
ATOM      7  C   UNL     1     -26.679  12.838 -30.218  1.00  0.00    -0.028 C 
ATOM      8  C   UNL     1     -29.093  13.194 -30.487  1.00  0.00     0.039 C 
ATOM      9  C   UNL     1     -27.901  12.828 -29.642  1.00  0.00    -0.080 C 
ATOM     10  C   UNL     1     -28.100  12.482 -28.185  1.00  0.00     0.039 C 
ENDBRANCH   6   7
ENDBRANCH   5   6
ENDBRANCH   3   5
ENDBRANCH   1   2
BRANCH   1  11
ATOM     11  C   UNL     1     -20.846   9.894 -28.304  1.00  0.00     0.034 C 
BRANCH  11  12
ATOM     12  C   UNL     1     -19.665  10.538 -28.999  1.00  0.00    -0.077 C 
ATOM     13  C   UNL     1     -18.462   9.925 -28.968  1.00  0.00    -0.028 C 
ATOM     14  C   UNL     1     -19.855  11.861 -29.705  1.00  0.00     0.039 C 
BRANCH  13  15
ATOM     15  C   UNL     1     -17.228  10.491 -29.632  1.00  0.00     0.035 C 
BRANCH  15  16
ATOM     16  C   UNL     1     -16.241  11.074 -28.614  1.00  0.00     0.079 C 
BRANCH  16  17
ATOM     17  C   UNL     1     -15.789  12.459 -29.005  1.00  0.00     0.130 C 
ATOM     18  O   UNL     1     -14.637  12.633 -29.375  1.00  0.00    -0.300 OA
ATOM     19  C   UNL     1     -16.719  13.633 -28.940  1.00  0.00     0.087 C 
ENDBRANCH  16  17
ENDBRANCH  15  16
ENDBRANCH  13  15
ENDBRANCH  11  12
ENDBRANCH   1  11
TORSDOF 9
ENDMDL
