MODEL 1
REMARK VINA RESULT:    -3.956      0.000      0.000
REMARK INTER + INTRA:          -5.353
REMARK INTER:                  -4.881
REMARK INTRA:                  -0.471
REMARK UNBOUND:                -0.471
REMARK SMILES C=CC(=C)CCC=C(C)C
REMARK SMILES IDX 5 1 6 2 7 3 9 4 8 5 10 6 3 7 4 8 2 9 1 10
REMARK H PARENT
REMARK Flexibility Score: inf
ROOT
ATOM      1  C   UNL     1      18.648  64.804  17.020  1.00  0.00     0.039 C 
ENDROOT
BRANCH   1   2
ATOM      2  C   UNL     1      17.601  65.657  16.295  1.00  0.00     0.032 C 
BRANCH   2   3
ATOM      3  C   UNL     1      16.211  65.136  16.560  1.00  0.00    -0.028 C 
ATOM      4  C   UNL     1      15.459  65.466  14.194  1.00  0.00     0.039 C 
ATOM      5  C   UNL     1      15.246  65.020  15.622  1.00  0.00    -0.080 C 
ATOM      6  C   UNL     1      13.914  64.442  16.028  1.00  0.00     0.039 C 
ENDBRANCH   2   3
ENDBRANCH   1   2
BRANCH   1   7
ATOM      7  C   UNL     1      19.528  64.075  16.027  1.00  0.00    -0.055 C 
ATOM      8  C   UNL     1      20.711  63.603  16.434  1.00  0.00     0.012 C 
BRANCH   7   9
ATOM      9  C   UNL     1      19.103  63.822  14.626  1.00  0.00    -0.005 C 
ATOM     10  C   UNL     1      19.443  62.739  13.928  1.00  0.00     0.009 C 
ENDBRANCH   7   9
ENDBRANCH   1   7
TORSDOF 4
ENDMDL
MODEL 2
REMARK VINA RESULT:    -3.915      1.077      2.210
REMARK INTER + INTRA:          -5.302
REMARK INTER:                  -4.825
REMARK INTRA:                  -0.476
REMARK UNBOUND:                -0.471
REMARK SMILES C=CC(=C)CCC=C(C)C
REMARK SMILES IDX 5 1 6 2 7 3 9 4 8 5 10 6 3 7 4 8 2 9 1 10
REMARK H PARENT
REMARK Flexibility Score: inf
ROOT
ATOM      1  C   UNL     1      18.744  63.993  14.644  1.00  0.00     0.039 C 
ENDROOT
BRANCH   1   2
ATOM      2  C   UNL     1      17.937  65.200  15.136  1.00  0.00     0.032 C 
BRANCH   2   3
ATOM      3  C   UNL     1      16.457  64.933  15.022  1.00  0.00    -0.028 C 
ATOM      4  C   UNL     1      16.106  64.912  17.502  1.00  0.00     0.039 C 
ATOM      5  C   UNL     1      15.617  64.827  16.075  1.00  0.00    -0.080 C 
ATOM      6  C   UNL     1      14.151  64.599  15.805  1.00  0.00     0.039 C 
ENDBRANCH   2   3
ENDBRANCH   1   2
BRANCH   1   7
ATOM      7  C   UNL     1      19.915  63.719  15.564  1.00  0.00    -0.055 C 
ATOM      8  C   UNL     1      21.047  63.233  15.045  1.00  0.00     0.012 C 
BRANCH   7   9
ATOM      9  C   UNL     1      19.868  64.018  17.018  1.00  0.00    -0.005 C 
ATOM     10  C   UNL     1      20.278  63.176  17.967  1.00  0.00     0.009 C 
ENDBRANCH   7   9
ENDBRANCH   1   7
TORSDOF 4
ENDMDL
MODEL 3
REMARK VINA RESULT:    -3.886      1.312      2.173
REMARK INTER + INTRA:          -5.266
REMARK INTER:                  -4.808
REMARK INTRA:                  -0.458
REMARK UNBOUND:                -0.471
REMARK SMILES C=CC(=C)CCC=C(C)C
REMARK SMILES IDX 5 1 6 2 7 3 9 4 8 5 10 6 3 7 4 8 2 9 1 10
REMARK H PARENT
REMARK Flexibility Score: inf
ROOT
ATOM      1  C   UNL     1      19.889  63.923  15.908  1.00  0.00     0.039 C 
ENDROOT
BRANCH   1   2
ATOM      2  C   UNL     1      18.964  65.111  15.621  1.00  0.00     0.032 C 
BRANCH   2   3
ATOM      3  C   UNL     1      17.782  65.107  16.558  1.00  0.00    -0.028 C 
ATOM      4  C   UNL     1      16.110  64.855  14.710  1.00  0.00     0.039 C 
ATOM      5  C   UNL     1      16.497  64.967  16.167  1.00  0.00    -0.080 C 
ATOM      6  C   UNL     1      15.422  64.941  17.224  1.00  0.00     0.039 C 
ENDBRANCH   2   3
ENDBRANCH   1   2
BRANCH   1   7
ATOM      7  C   UNL     1      20.225  63.183  14.632  1.00  0.00    -0.055 C 
ATOM      8  C   UNL     1      19.230  62.694  13.884  1.00  0.00     0.012 C 
BRANCH   7   9
ATOM      9  C   UNL     1      21.622  63.023  14.153  1.00  0.00    -0.005 C 
ATOM     10  C   UNL     1      22.696  63.132  14.936  1.00  0.00     0.009 C 
ENDBRANCH   7   9
ENDBRANCH   1   7
TORSDOF 4
ENDMDL
MODEL 4
REMARK VINA RESULT:    -3.815      1.167      4.670
REMARK INTER + INTRA:          -5.179
REMARK INTER:                  -4.780
REMARK INTRA:                  -0.399
REMARK UNBOUND:                -0.471
REMARK SMILES C=CC(=C)CCC=C(C)C
REMARK SMILES IDX 5 1 6 2 7 3 9 4 8 5 10 6 3 7 4 8 2 9 1 10
REMARK H PARENT
REMARK Flexibility Score: inf
ROOT
ATOM      1  C   UNL     1      18.544  65.313  16.108  1.00  0.00     0.039 C 
ENDROOT
BRANCH   1   2
ATOM      2  C   UNL     1      19.299  64.085  16.628  1.00  0.00     0.032 C 
BRANCH   2   3
ATOM      3  C   UNL     1      20.563  63.861  15.837  1.00  0.00    -0.028 C 
ATOM      4  C   UNL     1      19.402  62.557  14.041  1.00  0.00     0.039 C 
ATOM      5  C   UNL     1      20.621  63.199  14.661  1.00  0.00    -0.080 C 
ATOM      6  C   UNL     1      21.953  63.089  13.963  1.00  0.00     0.039 C 
ENDBRANCH   2   3
ENDBRANCH   1   2
BRANCH   1   7
ATOM      7  C   UNL     1      17.056  65.041  16.041  1.00  0.00    -0.055 C 
ATOM      8  C   UNL     1      16.348  65.025  17.175  1.00  0.00     0.012 C 
BRANCH   7   9
ATOM      9  C   UNL     1      16.344  64.838  14.753  1.00  0.00    -0.005 C 
ATOM     10  C   UNL     1      15.045  65.078  14.572  1.00  0.00     0.009 C 
ENDBRANCH   7   9
ENDBRANCH   1   7
TORSDOF 4
ENDMDL
MODEL 5
REMARK VINA RESULT:    -3.807      3.627      5.938
REMARK INTER + INTRA:          -5.169
REMARK INTER:                  -4.773
REMARK INTRA:                  -0.396
REMARK UNBOUND:                -0.471
REMARK SMILES C=CC(=C)CCC=C(C)C
REMARK SMILES IDX 5 1 6 2 7 3 9 4 8 5 10 6 3 7 4 8 2 9 1 10
REMARK H PARENT
REMARK Flexibility Score: inf
ROOT
ATOM      1  C   UNL     1      24.019  62.723  14.160  1.00  0.00     0.039 C 
ENDROOT
BRANCH   1   2
ATOM      2  C   UNL     1      22.511  62.697  13.887  1.00  0.00     0.032 C 
BRANCH   2   3
ATOM      3  C   UNL     1      21.748  63.283  15.049  1.00  0.00    -0.028 C 
ATOM      4  C   UNL     1      19.510  62.742  14.063  1.00  0.00     0.039 C 
ATOM      5  C   UNL     1      20.401  63.288  15.154  1.00  0.00    -0.080 C 
ATOM      6  C   UNL     1      19.779  63.875  16.396  1.00  0.00     0.039 C 
ENDBRANCH   2   3
ENDBRANCH   1   2
BRANCH   1   7
ATOM      7  C   UNL     1      24.531  61.335  14.478  1.00  0.00    -0.055 C 
ATOM      8  C   UNL     1      24.659  60.448  13.486  1.00  0.00     0.012 C 
BRANCH   7   9
ATOM      9  C   UNL     1      24.946  60.938  15.848  1.00  0.00    -0.005 C 
ATOM     10  C   UNL     1      24.249  61.219  16.949  1.00  0.00     0.009 C 
ENDBRANCH   7   9
ENDBRANCH   1   7
TORSDOF 4
ENDMDL
MODEL 6
REMARK VINA RESULT:    -3.776      3.591      5.273
REMARK INTER + INTRA:          -5.130
REMARK INTER:                  -4.502
REMARK INTRA:                  -0.628
REMARK UNBOUND:                -0.471
REMARK SMILES C=CC(=C)CCC=C(C)C
REMARK SMILES IDX 5 1 6 2 7 3 9 4 8 5 10 6 3 7 4 8 2 9 1 10
REMARK H PARENT
REMARK Flexibility Score: inf
ROOT
ATOM      1  C   UNL     1      21.939  62.761  17.853  1.00  0.00     0.039 C 
ENDROOT
BRANCH   1   2
ATOM      2  C   UNL     1      21.411  63.942  17.031  1.00  0.00     0.032 C 
BRANCH   2   3
ATOM      3  C   UNL     1      20.348  63.485  16.063  1.00  0.00    -0.028 C 
ATOM      4  C   UNL     1      21.970  63.167  14.180  1.00  0.00     0.039 C 
ATOM      5  C   UNL     1      20.587  63.110  14.787  1.00  0.00    -0.080 C 
ATOM      6  C   UNL     1      19.427  62.637  13.948  1.00  0.00     0.039 C 
ENDBRANCH   2   3
ENDBRANCH   1   2
BRANCH   1   7
ATOM      7  C   UNL     1      23.432  62.601  17.666  1.00  0.00    -0.055 C 
ATOM      8  C   UNL     1      24.246  63.583  18.070  1.00  0.00     0.012 C 
BRANCH   7   9
ATOM      9  C   UNL     1      24.032  61.368  17.094  1.00  0.00    -0.005 C 
ATOM     10  C   UNL     1      24.727  61.336  15.956  1.00  0.00     0.009 C 
ENDBRANCH   7   9
ENDBRANCH   1   7
TORSDOF 4
ENDMDL
MODEL 7
REMARK VINA RESULT:    -3.731      2.645      6.515
REMARK INTER + INTRA:          -5.074
REMARK INTER:                  -4.552
REMARK INTRA:                  -0.523
REMARK UNBOUND:                -0.471
REMARK SMILES C=CC(=C)CCC=C(C)C
REMARK SMILES IDX 5 1 6 2 7 3 9 4 8 5 10 6 3 7 4 8 2 9 1 10
REMARK H PARENT
REMARK Flexibility Score: inf
ROOT
ATOM      1  C   UNL     1      21.627  63.048  14.081  1.00  0.00     0.039 C 
ENDROOT
BRANCH   1   2
ATOM      2  C   UNL     1      22.631  63.652  15.069  1.00  0.00     0.032 C 
BRANCH   2   3
ATOM      3  C   UNL     1      23.630  62.614  15.517  1.00  0.00    -0.028 C 
ATOM      4  C   UNL     1      22.795  62.593  17.878  1.00  0.00     0.039 C 
ATOM      5  C   UNL     1      23.699  62.111  16.769  1.00  0.00    -0.080 C 
ATOM      6  C   UNL     1      24.727  61.046  17.059  1.00  0.00     0.039 C 
ENDBRANCH   2   3
ENDBRANCH   1   2
BRANCH   1   7
ATOM      7  C   UNL     1      20.214  63.167  14.611  1.00  0.00    -0.055 C 
ATOM      8  C   UNL     1      19.207  62.664  13.890  1.00  0.00     0.012 C 
BRANCH   7   9
ATOM      9  C   UNL     1      19.910  63.781  15.929  1.00  0.00    -0.005 C 
ATOM     10  C   UNL     1      18.929  64.660  16.134  1.00  0.00     0.009 C 
ENDBRANCH   7   9
ENDBRANCH   1   7
TORSDOF 4
ENDMDL
MODEL 8
REMARK VINA RESULT:    -3.730      1.145      5.119
REMARK INTER + INTRA:          -5.074
REMARK INTER:                  -4.752
REMARK INTRA:                  -0.322
REMARK UNBOUND:                -0.471
REMARK SMILES C=CC(=C)CCC=C(C)C
REMARK SMILES IDX 5 1 6 2 7 3 9 4 8 5 10 6 3 7 4 8 2 9 1 10
REMARK H PARENT
REMARK Flexibility Score: inf
ROOT
ATOM      1  C   UNL     1      16.441  64.675  14.951  1.00  0.00     0.039 C 
ENDROOT
BRANCH   1   2
ATOM      2  C   UNL     1      17.825  65.048  15.493  1.00  0.00     0.032 C 
BRANCH   2   3
ATOM      3  C   UNL     1      18.911  64.368  14.697  1.00  0.00    -0.028 C 
ATOM      4  C   UNL     1      20.193  63.672  16.733  1.00  0.00     0.039 C 
ATOM      5  C   UNL     1      19.967  63.724  15.240  1.00  0.00    -0.080 C 
ATOM      6  C   UNL     1      20.953  63.055  14.316  1.00  0.00     0.039 C 
ENDBRANCH   2   3
ENDBRANCH   1   2
BRANCH   1   7
ATOM      7  C   UNL     1      15.389  64.799  16.033  1.00  0.00    -0.055 C 
ATOM      8  C   UNL     1      14.098  64.742  15.692  1.00  0.00     0.012 C 
BRANCH   7   9
ATOM      9  C   UNL     1      15.742  64.933  17.470  1.00  0.00    -0.005 C 
ATOM     10  C   UNL     1      15.304  65.916  18.257  1.00  0.00     0.009 C 
ENDBRANCH   7   9
ENDBRANCH   1   7
TORSDOF 4
ENDMDL
MODEL 9
REMARK VINA RESULT:    -3.687      3.615      5.646
REMARK INTER + INTRA:          -5.021
REMARK INTER:                  -4.347
REMARK INTRA:                  -0.674
REMARK UNBOUND:                -0.471
REMARK SMILES C=CC(=C)CCC=C(C)C
REMARK SMILES IDX 5 1 6 2 7 3 9 4 8 5 10 6 3 7 4 8 2 9 1 10
REMARK H PARENT
REMARK Flexibility Score: inf
ROOT
ATOM      1  C   UNL     1      24.103  62.229  14.943  1.00  0.00     0.039 C 
ENDROOT
BRANCH   1   2
ATOM      2  C   UNL     1      23.162  63.336  14.455  1.00  0.00     0.032 C 
BRANCH   2   3
ATOM      3  C   UNL     1      21.821  62.765  14.069  1.00  0.00    -0.028 C 
ATOM      4  C   UNL     1      20.534  64.551  15.265  1.00  0.00     0.039 C 
ATOM      5  C   UNL     1      20.632  63.314  14.404  1.00  0.00    -0.080 C 
ATOM      6  C   UNL     1      19.371  62.651  13.910  1.00  0.00     0.039 C 
ENDBRANCH   2   3
ENDBRANCH   1   2
BRANCH   1   7
ATOM      7  C   UNL     1      23.959  62.021  16.435  1.00  0.00    -0.055 C 
ATOM      8  C   UNL     1      24.489  60.926  16.992  1.00  0.00     0.012 C 
BRANCH   7   9
ATOM      9  C   UNL     1      23.291  63.015  17.314  1.00  0.00    -0.005 C 
ATOM     10  C   UNL     1      22.248  62.738  18.096  1.00  0.00     0.009 C 
ENDBRANCH   7   9
ENDBRANCH   1   7
TORSDOF 4
ENDMDL
