MODEL 1
REMARK VINA RESULT:    -3.603      0.000      0.000
REMARK INTER + INTRA:          -8.099
REMARK INTER:                  -6.657
REMARK INTRA:                  -1.442
REMARK UNBOUND:                -1.442
REMARK SMILES CCCCCCCCCCCCCCCCO
REMARK SMILES IDX 9 1 8 2 7 3 6 4 5 5 4 6 3 7 2 8 1 9 10 10 11 11 12 12 13 13
REMARK SMILES IDX 14 14 15 15 16 16 17 17
REMARK H PARENT 17 18
REMARK Flexibility Score: inf
ROOT
ATOM      1  C   UNL     1     -11.012  -5.044  -7.614  1.00  0.00     0.000 C 
ENDROOT
BRANCH   1   2
ATOM      2  C   UNL     1     -10.418  -4.762  -9.008  1.00  0.00    -0.000 C 
BRANCH   2   3
ATOM      3  C   UNL     1      -9.880  -6.000  -9.750  1.00  0.00    -0.000 C 
BRANCH   3   4
ATOM      4  C   UNL     1      -8.348  -5.989  -9.895  1.00  0.00    -0.000 C 
BRANCH   4   5
ATOM      5  C   UNL     1      -7.658  -5.167  -8.793  1.00  0.00    -0.000 C 
BRANCH   5   6
ATOM      6  C   UNL     1      -7.382  -5.994  -7.525  1.00  0.00    -0.000 C 
BRANCH   6   7
ATOM      7  C   UNL     1      -6.260  -5.395  -6.664  1.00  0.00    -0.000 C 
BRANCH   7   8
ATOM      8  C   UNL     1      -5.787  -6.351  -5.558  1.00  0.00    -0.003 C 
ATOM      9  C   UNL     1      -6.927  -7.244  -5.079  1.00  0.00     0.004 C 
ENDBRANCH   7   8
ENDBRANCH   6   7
ENDBRANCH   5   6
ENDBRANCH   4   5
ENDBRANCH   3   4
ENDBRANCH   2   3
ENDBRANCH   1   2
BRANCH   1  10
ATOM     10  C   UNL     1     -11.105  -6.534  -7.227  1.00  0.00     0.000 C 
BRANCH  10  11
ATOM     11  C   UNL     1     -10.575  -6.878  -5.823  1.00  0.00     0.000 C 
BRANCH  11  12
ATOM     12  C   UNL     1     -11.066  -5.895  -4.745  1.00  0.00     0.000 C 
BRANCH  12  13
ATOM     13  C   UNL     1      -9.977  -4.897  -4.320  1.00  0.00     0.000 C 
BRANCH  13  14
ATOM     14  C   UNL     1     -10.557  -3.562  -3.819  1.00  0.00     0.002 C 
BRANCH  14  15
ATOM     15  C   UNL     1     -10.415  -3.392  -2.298  1.00  0.00     0.028 C 
BRANCH  15  16
ATOM     16  C   UNL     1      -9.006  -3.710  -1.795  1.00  0.00     0.156 C 
BRANCH  16  17
ATOM     17  O   UNL     1      -8.128  -2.698  -2.203  1.00  0.00    -0.396 OA
ATOM     18  H   UNL     1      -7.280  -2.854  -1.711  1.00  0.00     0.210 HD
ENDBRANCH  16  17
ENDBRANCH  15  16
ENDBRANCH  14  15
ENDBRANCH  13  14
ENDBRANCH  12  13
ENDBRANCH  11  12
ENDBRANCH  10  11
ENDBRANCH   1  10
TORSDOF 15
ENDMDL
MODEL 2
REMARK VINA RESULT:    -3.579      1.754      2.808
REMARK INTER + INTRA:          -8.055
REMARK INTER:                  -6.740
REMARK INTRA:                  -1.315
REMARK UNBOUND:                -1.442
REMARK SMILES CCCCCCCCCCCCCCCCO
REMARK SMILES IDX 9 1 8 2 7 3 6 4 5 5 4 6 3 7 2 8 1 9 10 10 11 11 12 12 13 13
REMARK SMILES IDX 14 14 15 15 16 16 17 17
REMARK H PARENT 17 18
REMARK Flexibility Score: inf
ROOT
ATOM      1  C   UNL     1      -9.419  -6.856  -8.546  1.00  0.00     0.000 C 
ENDROOT
BRANCH   1   2
ATOM      2  C   UNL     1      -8.430  -5.756  -8.980  1.00  0.00    -0.000 C 
BRANCH   2   3
ATOM      3  C   UNL     1      -7.120  -5.703  -8.175  1.00  0.00    -0.000 C 
BRANCH   3   4
ATOM      4  C   UNL     1      -7.353  -5.733  -6.654  1.00  0.00    -0.000 C 
BRANCH   4   5
ATOM      5  C   UNL     1      -6.068  -6.043  -5.867  1.00  0.00    -0.000 C 
BRANCH   5   6
ATOM      6  C   UNL     1      -4.923  -5.070  -6.199  1.00  0.00    -0.000 C 
BRANCH   6   7
ATOM      7  C   UNL     1      -3.568  -5.546  -5.653  1.00  0.00    -0.000 C 
BRANCH   7   8
ATOM      8  C   UNL     1      -2.648  -4.382  -5.255  1.00  0.00    -0.003 C 
ATOM      9  C   UNL     1      -3.315  -3.037  -5.526  1.00  0.00     0.004 C 
ENDBRANCH   7   8
ENDBRANCH   6   7
ENDBRANCH   5   6
ENDBRANCH   4   5
ENDBRANCH   3   4
ENDBRANCH   2   3
ENDBRANCH   1   2
BRANCH   1  10
ATOM     10  C   UNL     1     -10.699  -6.352  -7.848  1.00  0.00     0.000 C 
BRANCH  10  11
ATOM     11  C   UNL     1     -10.779  -4.826  -7.655  1.00  0.00     0.000 C 
BRANCH  11  12
ATOM     12  C   UNL     1     -10.877  -4.417  -6.175  1.00  0.00     0.000 C 
BRANCH  12  13
ATOM     13  C   UNL     1     -11.108  -5.620  -5.247  1.00  0.00     0.000 C 
BRANCH  13  14
ATOM     14  C   UNL     1     -10.751  -5.317  -3.781  1.00  0.00     0.002 C 
BRANCH  14  15
ATOM     15  C   UNL     1      -9.447  -4.513  -3.647  1.00  0.00     0.028 C 
BRANCH  15  16
ATOM     16  C   UNL     1      -9.237  -3.959  -2.236  1.00  0.00     0.156 C 
BRANCH  16  17
ATOM     17  O   UNL     1      -8.281  -4.735  -1.570  1.00  0.00    -0.396 OA
ATOM     18  H   UNL     1      -8.247  -4.393  -0.639  1.00  0.00     0.210 HD
ENDBRANCH  16  17
ENDBRANCH  15  16
ENDBRANCH  14  15
ENDBRANCH  13  14
ENDBRANCH  12  13
ENDBRANCH  11  12
ENDBRANCH  10  11
ENDBRANCH   1  10
TORSDOF 15
ENDMDL
MODEL 3
REMARK VINA RESULT:    -3.571      1.716      5.159
REMARK INTER + INTRA:          -8.040
REMARK INTER:                  -6.899
REMARK INTRA:                  -1.141
REMARK UNBOUND:                -1.442
REMARK SMILES CCCCCCCCCCCCCCCCO
REMARK SMILES IDX 9 1 8 2 7 3 6 4 5 5 4 6 3 7 2 8 1 9 10 10 11 11 12 12 13 13
REMARK SMILES IDX 14 14 15 15 16 16 17 17
REMARK H PARENT 17 18
REMARK Flexibility Score: inf
ROOT
ATOM      1  C   UNL     1     -10.386  -7.748  -8.715  1.00  0.00     0.000 C 
ENDROOT
BRANCH   1   2
ATOM      2  C   UNL     1     -11.120  -6.994  -7.587  1.00  0.00    -0.000 C 
BRANCH   2   3
ATOM      3  C   UNL     1     -10.441  -7.064  -6.207  1.00  0.00    -0.000 C 
BRANCH   3   4
ATOM      4  C   UNL     1     -11.125  -6.166  -5.161  1.00  0.00    -0.000 C 
BRANCH   4   5
ATOM      5  C   UNL     1     -10.543  -4.742  -5.135  1.00  0.00    -0.000 C 
BRANCH   5   6
ATOM      6  C   UNL     1     -11.075  -3.909  -3.956  1.00  0.00    -0.000 C 
BRANCH   6   7
ATOM      7  C   UNL     1     -10.258  -4.115  -2.672  1.00  0.00    -0.000 C 
BRANCH   7   8
ATOM      8  C   UNL     1     -10.608  -3.097  -1.576  1.00  0.00    -0.003 C 
ATOM      9  C   UNL     1     -11.093  -3.797  -0.310  1.00  0.00     0.004 C 
ENDBRANCH   7   8
ENDBRANCH   6   7
ENDBRANCH   5   6
ENDBRANCH   4   5
ENDBRANCH   3   4
ENDBRANCH   2   3
ENDBRANCH   1   2
BRANCH   1  10
ATOM     10  C   UNL     1      -9.461  -6.880  -9.592  1.00  0.00     0.000 C 
BRANCH  10  11
ATOM     11  C   UNL     1      -9.675  -5.361  -9.462  1.00  0.00     0.000 C 
BRANCH  11  12
ATOM     12  C   UNL     1      -8.445  -4.634  -8.889  1.00  0.00     0.000 C 
BRANCH  12  13
ATOM     13  C   UNL     1      -7.211  -5.546  -8.802  1.00  0.00     0.000 C 
BRANCH  13  14
ATOM     14  C   UNL     1      -6.589  -5.570  -7.394  1.00  0.00     0.002 C 
BRANCH  14  15
ATOM     15  C   UNL     1      -7.444  -6.353  -6.385  1.00  0.00     0.028 C 
BRANCH  15  16
ATOM     16  C   UNL     1      -6.658  -6.770  -5.141  1.00  0.00     0.156 C 
BRANCH  16  17
ATOM     17  O   UNL     1      -5.294  -6.527  -5.350  1.00  0.00    -0.396 OA
ATOM     18  H   UNL     1      -5.234  -5.623  -5.755  1.00  0.00     0.210 HD
ENDBRANCH  16  17
ENDBRANCH  15  16
ENDBRANCH  14  15
ENDBRANCH  13  14
ENDBRANCH  12  13
ENDBRANCH  11  12
ENDBRANCH  10  11
ENDBRANCH   1  10
TORSDOF 15
ENDMDL
MODEL 4
REMARK VINA RESULT:    -3.513      1.787      5.257
REMARK INTER + INTRA:          -7.932
REMARK INTER:                  -6.562
REMARK INTRA:                  -1.370
REMARK UNBOUND:                -1.442
REMARK SMILES CCCCCCCCCCCCCCCCO
REMARK SMILES IDX 9 1 8 2 7 3 6 4 5 5 4 6 3 7 2 8 1 9 10 10 11 11 12 12 13 13
REMARK SMILES IDX 14 14 15 15 16 16 17 17
REMARK H PARENT 17 18
REMARK Flexibility Score: inf
ROOT
ATOM      1  C   UNL     1     -10.574  -3.198  -8.314  1.00  0.00     0.000 C 
ENDROOT
BRANCH   1   2
ATOM      2  C   UNL     1     -10.883  -4.526  -7.595  1.00  0.00    -0.000 C 
BRANCH   2   3
ATOM      3  C   UNL     1     -11.125  -4.406  -6.079  1.00  0.00    -0.000 C 
BRANCH   3   4
ATOM      4  C   UNL     1     -10.849  -5.720  -5.326  1.00  0.00    -0.000 C 
BRANCH   4   5
ATOM      5  C   UNL     1     -10.499  -5.489  -3.847  1.00  0.00    -0.000 C 
BRANCH   5   6
ATOM      6  C   UNL     1      -9.423  -4.406  -3.657  1.00  0.00    -0.000 C 
BRANCH   6   7
ATOM      7  C   UNL     1      -9.386  -3.856  -2.223  1.00  0.00    -0.000 C 
BRANCH   7   8
ATOM      8  C   UNL     1     -10.785  -3.535  -1.675  1.00  0.00    -0.003 C 
ATOM      9  C   UNL     1     -10.870  -3.827  -0.180  1.00  0.00     0.004 C 
ENDBRANCH   7   8
ENDBRANCH   6   7
ENDBRANCH   5   6
ENDBRANCH   4   5
ENDBRANCH   3   4
ENDBRANCH   2   3
ENDBRANCH   1   2
BRANCH   1  10
ATOM     10  C   UNL     1     -10.233  -3.326  -9.813  1.00  0.00     0.000 C 
BRANCH  10  11
ATOM     11  C   UNL     1      -8.748  -3.585 -10.125  1.00  0.00     0.000 C 
BRANCH  11  12
ATOM     12  C   UNL     1      -8.369  -5.073 -10.025  1.00  0.00     0.000 C 
BRANCH  12  13
ATOM     13  C   UNL     1      -7.376  -5.352  -8.885  1.00  0.00     0.000 C 
BRANCH  13  14
ATOM     14  C   UNL     1      -7.994  -6.186  -7.749  1.00  0.00     0.002 C 
BRANCH  14  15
ATOM     15  C   UNL     1      -7.347  -5.895  -6.385  1.00  0.00     0.028 C 
BRANCH  15  16
ATOM     16  C   UNL     1      -7.200  -7.148  -5.520  1.00  0.00     0.156 C 
BRANCH  16  17
ATOM     17  O   UNL     1      -6.074  -7.015  -4.698  1.00  0.00    -0.396 OA
ATOM     18  H   UNL     1      -6.285  -6.287  -4.057  1.00  0.00     0.210 HD
ENDBRANCH  16  17
ENDBRANCH  15  16
ENDBRANCH  14  15
ENDBRANCH  13  14
ENDBRANCH  12  13
ENDBRANCH  11  12
ENDBRANCH  10  11
ENDBRANCH   1  10
TORSDOF 15
ENDMDL
MODEL 5
REMARK VINA RESULT:    -3.411      1.231      3.355
REMARK INTER + INTRA:          -7.745
REMARK INTER:                  -5.862
REMARK INTRA:                  -1.883
REMARK UNBOUND:                -1.442
REMARK SMILES CCCCCCCCCCCCCCCCO
REMARK SMILES IDX 9 1 8 2 7 3 6 4 5 5 4 6 3 7 2 8 1 9 10 10 11 11 12 12 13 13
REMARK SMILES IDX 14 14 15 15 16 16 17 17
REMARK H PARENT 17 18
REMARK Flexibility Score: inf
ROOT
ATOM      1  C   UNL     1      -6.930  -6.288  -6.203  1.00  0.00     0.000 C 
ENDROOT
BRANCH   1   2
ATOM      2  C   UNL     1      -6.603  -5.422  -7.436  1.00  0.00    -0.000 C 
BRANCH   2   3
ATOM      3  C   UNL     1      -7.464  -5.708  -8.680  1.00  0.00    -0.000 C 
BRANCH   3   4
ATOM      4  C   UNL     1      -8.353  -4.516  -9.077  1.00  0.00    -0.000 C 
BRANCH   4   5
ATOM      5  C   UNL     1      -9.811  -4.691  -8.620  1.00  0.00    -0.000 C 
BRANCH   5   6
ATOM      6  C   UNL     1     -10.785  -4.843  -9.801  1.00  0.00    -0.000 C 
BRANCH   6   7
ATOM      7  C   UNL     1     -11.093  -6.314 -10.125  1.00  0.00    -0.000 C 
BRANCH   7   8
ATOM      8  C   UNL     1     -10.811  -7.253  -8.943  1.00  0.00    -0.003 C 
ATOM      9  C   UNL     1      -9.843  -8.363  -9.342  1.00  0.00     0.004 C 
ENDBRANCH   7   8
ENDBRANCH   6   7
ENDBRANCH   5   6
ENDBRANCH   4   5
ENDBRANCH   3   4
ENDBRANCH   2   3
ENDBRANCH   1   2
BRANCH   1  10
ATOM     10  C   UNL     1      -8.172  -5.848  -5.401  1.00  0.00     0.000 C 
BRANCH  10  11
ATOM     11  C   UNL     1      -9.394  -6.777  -5.529  1.00  0.00     0.000 C 
BRANCH  11  12
ATOM     12  C   UNL     1     -10.695  -6.121  -5.035  1.00  0.00     0.000 C 
BRANCH  12  13
ATOM     13  C   UNL     1     -10.733  -4.610  -5.313  1.00  0.00     0.000 C 
BRANCH  13  14
ATOM     14  C   UNL     1     -11.110  -3.787  -4.068  1.00  0.00     0.002 C 
BRANCH  14  15
ATOM     15  C   UNL     1     -10.601  -4.422  -2.764  1.00  0.00     0.028 C 
BRANCH  15  16
ATOM     16  C   UNL     1      -9.455  -3.632  -2.130  1.00  0.00     0.156 C 
BRANCH  16  17
ATOM     17  O   UNL     1      -8.500  -3.330  -3.109  1.00  0.00    -0.396 OA
ATOM     18  H   UNL     1      -8.647  -3.979  -3.846  1.00  0.00     0.210 HD
ENDBRANCH  16  17
ENDBRANCH  15  16
ENDBRANCH  14  15
ENDBRANCH  13  14
ENDBRANCH  12  13
ENDBRANCH  11  12
ENDBRANCH  10  11
ENDBRANCH   1  10
TORSDOF 15
ENDMDL
MODEL 6
REMARK VINA RESULT:    -3.305      2.583      6.108
REMARK INTER + INTRA:          -7.548
REMARK INTER:                  -5.939
REMARK INTRA:                  -1.609
REMARK UNBOUND:                -1.442
REMARK SMILES CCCCCCCCCCCCCCCCO
REMARK SMILES IDX 9 1 8 2 7 3 6 4 5 5 4 6 3 7 2 8 1 9 10 10 11 11 12 12 13 13
REMARK SMILES IDX 14 14 15 15 16 16 17 17
REMARK H PARENT 17 18
REMARK Flexibility Score: inf
ROOT
ATOM      1  C   UNL     1      -6.804  -6.375  -5.867  1.00  0.00     0.000 C 
ENDROOT
BRANCH   1   2
ATOM      2  C   UNL     1      -8.161  -7.081  -6.060  1.00  0.00    -0.000 C 
BRANCH   2   3
ATOM      3  C   UNL     1      -9.321  -6.502  -5.229  1.00  0.00    -0.000 C 
BRANCH   3   4
ATOM      4  C   UNL     1     -10.385  -5.807  -6.096  1.00  0.00    -0.000 C 
BRANCH   4   5
ATOM      5  C   UNL     1     -10.903  -4.505  -5.462  1.00  0.00    -0.000 C 
BRANCH   5   6
ATOM      6  C   UNL     1     -10.926  -4.565  -3.925  1.00  0.00    -0.000 C 
BRANCH   6   7
ATOM      7  C   UNL     1     -10.789  -3.178  -3.278  1.00  0.00    -0.000 C 
BRANCH   7   8
ATOM      8  C   UNL     1     -10.313  -3.248  -1.819  1.00  0.00    -0.003 C 
ATOM      9  C   UNL     1      -9.016  -4.043  -1.703  1.00  0.00     0.004 C 
ENDBRANCH   7   8
ENDBRANCH   6   7
ENDBRANCH   5   6
ENDBRANCH   4   5
ENDBRANCH   3   4
ENDBRANCH   2   3
ENDBRANCH   1   2
BRANCH   1  10
ATOM     10  C   UNL     1      -6.452  -5.322  -6.938  1.00  0.00     0.000 C 
BRANCH  10  11
ATOM     11  C   UNL     1      -6.841  -5.701  -8.379  1.00  0.00     0.000 C 
BRANCH  11  12
ATOM     12  C   UNL     1      -8.029  -4.880  -8.910  1.00  0.00     0.000 C 
BRANCH  12  13
ATOM     13  C   UNL     1      -8.741  -5.569 -10.085  1.00  0.00     0.000 C 
BRANCH  13  14
ATOM     14  C   UNL     1     -10.151  -6.063  -9.718  1.00  0.00     0.002 C 
BRANCH  14  15
ATOM     15  C   UNL     1     -10.152  -7.510  -9.200  1.00  0.00     0.028 C 
BRANCH  15  16
ATOM     16  C   UNL     1      -9.338  -8.456 -10.085  1.00  0.00     0.156 C 
BRANCH  16  17
ATOM     17  O   UNL     1      -8.330  -9.055  -9.319  1.00  0.00    -0.396 OA
ATOM     18  H   UNL     1      -8.413  -8.675  -8.407  1.00  0.00     0.210 HD
ENDBRANCH  16  17
ENDBRANCH  15  16
ENDBRANCH  14  15
ENDBRANCH  13  14
ENDBRANCH  12  13
ENDBRANCH  11  12
ENDBRANCH  10  11
ENDBRANCH   1  10
TORSDOF 15
ENDMDL
MODEL 7
REMARK VINA RESULT:    -3.197      1.714      5.722
REMARK INTER + INTRA:          -7.349
REMARK INTER:                  -5.799
REMARK INTRA:                  -1.551
REMARK UNBOUND:                -1.442
REMARK SMILES CCCCCCCCCCCCCCCCO
REMARK SMILES IDX 9 1 8 2 7 3 6 4 5 5 4 6 3 7 2 8 1 9 10 10 11 11 12 12 13 13
REMARK SMILES IDX 14 14 15 15 16 16 17 17
REMARK H PARENT 17 18
REMARK Flexibility Score: inf
ROOT
ATOM      1  C   UNL     1      -6.985  -6.458  -5.272  1.00  0.00     0.000 C 
ENDROOT
BRANCH   1   2
ATOM      2  C   UNL     1      -8.077  -7.496  -5.598  1.00  0.00    -0.000 C 
BRANCH   2   3
ATOM      3  C   UNL     1      -9.516  -6.949  -5.609  1.00  0.00    -0.000 C 
BRANCH   3   4
ATOM      4  C   UNL     1      -9.650  -5.611  -4.862  1.00  0.00    -0.000 C 
BRANCH   4   5
ATOM      5  C   UNL     1     -11.083  -5.352  -4.368  1.00  0.00    -0.000 C 
BRANCH   5   6
ATOM      6  C   UNL     1     -11.124  -4.449  -3.123  1.00  0.00    -0.000 C 
BRANCH   6   7
ATOM      7  C   UNL     1      -9.854  -3.598  -2.969  1.00  0.00    -0.000 C 
BRANCH   7   8
ATOM      8  C   UNL     1      -9.558  -3.234  -1.507  1.00  0.00    -0.003 C 
ATOM      9  C   UNL     1     -10.676  -3.711  -0.584  1.00  0.00     0.004 C 
ENDBRANCH   7   8
ENDBRANCH   6   7
ENDBRANCH   5   6
ENDBRANCH   4   5
ENDBRANCH   3   4
ENDBRANCH   2   3
ENDBRANCH   1   2
BRANCH   1  10
ATOM     10  C   UNL     1      -6.161  -5.969  -6.480  1.00  0.00     0.000 C 
BRANCH  10  11
ATOM     11  C   UNL     1      -6.943  -5.129  -7.507  1.00  0.00     0.000 C 
BRANCH  11  12
ATOM     12  C   UNL     1      -6.989  -5.784  -8.899  1.00  0.00     0.000 C 
BRANCH  12  13
ATOM     13  C   UNL     1      -8.305  -6.538  -9.150  1.00  0.00     0.000 C 
BRANCH  13  14
ATOM     14  C   UNL     1      -9.406  -5.634  -9.735  1.00  0.00     0.002 C 
BRANCH  14  15
ATOM     15  C   UNL     1     -10.648  -5.560  -8.833  1.00  0.00     0.028 C 
BRANCH  15  16
ATOM     16  C   UNL     1     -11.097  -4.123  -8.561  1.00  0.00     0.156 C 
BRANCH  16  17
ATOM     17  O   UNL     1     -10.463  -3.649  -7.405  1.00  0.00    -0.396 OA
ATOM     18  H   UNL     1     -10.829  -4.181  -6.652  1.00  0.00     0.210 HD
ENDBRANCH  16  17
ENDBRANCH  15  16
ENDBRANCH  14  15
ENDBRANCH  13  14
ENDBRANCH  12  13
ENDBRANCH  11  12
ENDBRANCH  10  11
ENDBRANCH   1  10
TORSDOF 15
ENDMDL
MODEL 8
REMARK VINA RESULT:    -3.139      1.096      2.337
REMARK INTER + INTRA:          -7.242
REMARK INTER:                  -5.887
REMARK INTRA:                  -1.355
REMARK UNBOUND:                -1.442
REMARK SMILES CCCCCCCCCCCCCCCCO
REMARK SMILES IDX 9 1 8 2 7 3 6 4 5 5 4 6 3 7 2 8 1 9 10 10 11 11 12 12 13 13
REMARK SMILES IDX 14 14 15 15 16 16 17 17
REMARK H PARENT 17 18
REMARK Flexibility Score: inf
ROOT
ATOM      1  C   UNL     1     -10.261  -6.428  -5.835  1.00  0.00     0.000 C 
ENDROOT
BRANCH   1   2
ATOM      2  C   UNL     1     -11.031  -7.128  -6.972  1.00  0.00    -0.000 C 
BRANCH   2   3
ATOM      3  C   UNL     1     -10.715  -6.613  -8.388  1.00  0.00    -0.000 C 
BRANCH   3   4
ATOM      4  C   UNL     1     -10.673  -5.077  -8.468  1.00  0.00    -0.000 C 
BRANCH   4   5
ATOM      5  C   UNL     1      -9.303  -4.548  -8.926  1.00  0.00    -0.000 C 
BRANCH   5   6
ATOM      6  C   UNL     1      -8.348  -5.675  -9.354  1.00  0.00    -0.000 C 
BRANCH   6   7
ATOM      7  C   UNL     1      -6.973  -5.572  -8.676  1.00  0.00    -0.000 C 
BRANCH   7   8
ATOM      8  C   UNL     1      -7.047  -5.754  -7.152  1.00  0.00    -0.003 C 
ATOM      9  C   UNL     1      -5.704  -5.447  -6.496  1.00  0.00     0.004 C 
ENDBRANCH   7   8
ENDBRANCH   6   7
ENDBRANCH   5   6
ENDBRANCH   4   5
ENDBRANCH   3   4
ENDBRANCH   2   3
ENDBRANCH   1   2
BRANCH   1  10
ATOM     10  C   UNL     1     -11.115  -5.525  -4.921  1.00  0.00     0.000 C 
BRANCH  10  11
ATOM     11  C   UNL     1     -10.924  -4.012  -5.134  1.00  0.00     0.000 C 
BRANCH  11  12
ATOM     12  C   UNL     1     -10.831  -3.231  -3.812  1.00  0.00     0.000 C 
BRANCH  12  13
ATOM     13  C   UNL     1     -11.125  -4.112  -2.587  1.00  0.00     0.000 C 
BRANCH  13  14
ATOM     14  C   UNL     1     -10.154  -3.853  -1.421  1.00  0.00     0.002 C 
BRANCH  14  15
ATOM     15  C   UNL     1      -8.770  -3.387  -1.900  1.00  0.00     0.028 C 
BRANCH  15  16
ATOM     16  C   UNL     1      -8.222  -2.219  -1.078  1.00  0.00     0.156 C 
BRANCH  16  17
ATOM     17  O   UNL     1      -7.345  -1.465  -1.869  1.00  0.00    -0.396 OA
ATOM     18  H   UNL     1      -7.488  -0.517  -1.612  1.00  0.00     0.210 HD
ENDBRANCH  16  17
ENDBRANCH  15  16
ENDBRANCH  14  15
ENDBRANCH  13  14
ENDBRANCH  12  13
ENDBRANCH  11  12
ENDBRANCH  10  11
ENDBRANCH   1  10
TORSDOF 15
ENDMDL
MODEL 9
REMARK VINA RESULT:    -3.007     18.307     21.005
REMARK INTER + INTRA:          -6.997
REMARK INTER:                  -5.819
REMARK INTRA:                  -1.178
REMARK UNBOUND:                -1.442
REMARK SMILES CCCCCCCCCCCCCCCCO
REMARK SMILES IDX 9 1 8 2 7 3 6 4 5 5 4 6 3 7 2 8 1 9 10 10 11 11 12 12 13 13
REMARK SMILES IDX 14 14 15 15 16 16 17 17
REMARK H PARENT 17 18
REMARK Flexibility Score: inf
ROOT
ATOM      1  C   UNL     1      -6.119   7.174   7.431  1.00  0.00     0.000 C 
ENDROOT
BRANCH   1   2
ATOM      2  C   UNL     1      -6.978   7.515   8.665  1.00  0.00    -0.000 C 
BRANCH   2   3
ATOM      3  C   UNL     1      -7.162   9.019   8.936  1.00  0.00    -0.000 C 
BRANCH   3   4
ATOM      4  C   UNL     1      -8.627   9.472   8.811  1.00  0.00    -0.000 C 
BRANCH   4   5
ATOM      5  C   UNL     1      -9.619   8.302   8.921  1.00  0.00    -0.000 C 
BRANCH   5   6
ATOM      6  C   UNL     1     -10.705   8.344   7.832  1.00  0.00    -0.000 C 
BRANCH   6   7
ATOM      7  C   UNL     1     -10.993   9.771   7.342  1.00  0.00    -0.000 C 
BRANCH   7   8
ATOM      8  C   UNL     1     -11.094   9.864   5.812  1.00  0.00    -0.003 C 
ATOM      9  C   UNL     1     -11.124   8.476   5.178  1.00  0.00     0.004 C 
ENDBRANCH   7   8
ENDBRANCH   6   7
ENDBRANCH   5   6
ENDBRANCH   4   5
ENDBRANCH   3   4
ENDBRANCH   2   3
ENDBRANCH   1   2
BRANCH   1  10
ATOM     10  C   UNL     1      -4.681   7.730   7.457  1.00  0.00     0.000 C 
BRANCH  10  11
ATOM     11  C   UNL     1      -3.642   6.824   8.143  1.00  0.00     0.000 C 
BRANCH  11  12
ATOM     12  C   UNL     1      -2.995   7.485   9.373  1.00  0.00     0.000 C 
BRANCH  12  13
ATOM     13  C   UNL     1      -3.262   8.997   9.437  1.00  0.00     0.000 C 
BRANCH  13  14
ATOM     14  C   UNL     1      -1.969   9.831   9.403  1.00  0.00     0.002 C 
BRANCH  14  15
ATOM     15  C   UNL     1      -0.748   9.044   9.905  1.00  0.00     0.028 C 
BRANCH  15  16
ATOM     16  C   UNL     1       0.444   9.128   8.949  1.00  0.00     0.156 C 
BRANCH  16  17
ATOM     17  O   UNL     1       0.837   7.835   8.582  1.00  0.00    -0.396 OA
ATOM     18  H   UNL     1       1.762   7.916   8.233  1.00  0.00     0.210 HD
ENDBRANCH  16  17
ENDBRANCH  15  16
ENDBRANCH  14  15
ENDBRANCH  13  14
ENDBRANCH  12  13
ENDBRANCH  11  12
ENDBRANCH  10  11
ENDBRANCH   1  10
TORSDOF 15
ENDMDL
