MODEL 1
REMARK VINA RESULT:    -3.034      0.000      0.000
REMARK INTER + INTRA:          -4.693
REMARK INTER:                  -4.631
REMARK INTRA:                  -0.062
REMARK UNBOUND:                -0.062
REMARK SMILES CC1=CCC[C@H](C)C(=O)C[C@@H](C(C)C)C(=O)C1
REMARK SMILES IDX 8 1 9 2 6 3 7 4 5 5 4 6 3 7 2 8 1 9 10 11 11 12 15 13 16 14
REMARK SMILES IDX 17 15 12 17 13 18 14 19
REMARK H PARENT
REMARK Flexibility Score: 70.00
ROOT
ATOM      1  C   UNL     1     160.435 163.542 196.679  1.00  0.00     0.136 C 
ATOM      2  O   UNL     1     161.550 163.931 196.361  1.00  0.00    -0.299 OA
ENDROOT
BRANCH   1   3
ATOM      3  C   UNL     1     160.172 162.052 196.791  1.00  0.00     0.053 C 
ATOM      4  C   UNL     1     160.729 161.348 195.545  1.00  0.00     0.016 C 
BRANCH   3   5
ATOM      5  C   UNL     1     160.810 161.474 198.084  1.00  0.00     0.015 C 
BRANCH   5   6
ATOM      6  C   UNL     1     159.848 160.789 199.088  1.00  0.00     0.028 C 
BRANCH   6   7
ATOM      7  C   UNL     1     158.482 160.388 198.575  1.00  0.00    -0.028 C 
ATOM      8  C   UNL     1     157.338 161.081 198.764  1.00  0.00    -0.070 CG0
ATOM      9  C   UNL     1     156.037 160.391 198.435  1.00  0.00     0.039 C 
ATOM     10  G   UNL     1     157.311 162.451 199.412  1.00  0.00     0.000 G0
ENDBRANCH   6   7
ENDBRANCH   5   6
ENDBRANCH   3   5
ENDBRANCH   1   3
BRANCH   1  11
ATOM     11  C   UNL     1     159.322 164.545 196.859  1.00  0.00     0.087 C 
BRANCH  11  12
ATOM     12  C   UNL     1     158.664 164.513 198.271  1.00  0.00     0.066 C 
BRANCH  12  13
ATOM     13  C   UNL     1     157.443 163.587 198.395  1.00  0.00     0.140 C 
ATOM     14  O   UNL     1     156.461 163.820 197.706  1.00  0.00    -0.299 OA
BRANCH  13  15
ATOM     15  C   UNL     1     157.319 162.464 199.404  1.00  0.00     0.106 CG0
ATOM     16  G   UNL     1     157.343 161.089 198.767  1.00  0.00     0.000 G0
ENDBRANCH  13  15
ENDBRANCH  12  13
BRANCH  12  17
ATOM     17  C   UNL     1     158.384 165.980 198.757  1.00  0.00    -0.006 C 
ATOM     18  C   UNL     1     158.528 167.023 197.635  1.00  0.00     0.008 C 
ATOM     19  C   UNL     1     159.218 166.388 199.980  1.00  0.00     0.008 C 
ENDBRANCH  12  17
ENDBRANCH  11  12
ENDBRANCH   1  11
TORSDOF 1
ENDMDL
MODEL 2
REMARK VINA RESULT:    -3.000      6.750      9.594
REMARK INTER + INTRA:          -4.641
REMARK INTER:                  -4.380
REMARK INTRA:                  -0.261
REMARK UNBOUND:                -0.062
REMARK SMILES CC1=CCC[C@H](C)C(=O)C[C@@H](C(C)C)C(=O)C1
REMARK SMILES IDX 8 1 9 2 6 3 7 4 5 5 4 6 3 7 2 8 1 9 10 11 11 12 15 13 16 14
REMARK SMILES IDX 17 15 12 17 13 18 14 19
REMARK H PARENT
REMARK Flexibility Score: 70.00
ROOT
ATOM      1  C   UNL     1     150.667 159.880 200.677  1.00  0.00     0.136 C 
ATOM      2  O   UNL     1     150.793 160.868 201.387  1.00  0.00    -0.299 OA
ENDROOT
BRANCH   1   3
ATOM      3  C   UNL     1     149.506 159.808 199.702  1.00  0.00     0.053 C 
ATOM      4  C   UNL     1     148.213 160.200 200.431  1.00  0.00     0.016 C 
BRANCH   3   5
ATOM      5  C   UNL     1     149.754 160.732 198.479  1.00  0.00     0.015 C 
BRANCH   5   6
ATOM      6  C   UNL     1     150.293 160.054 197.194  1.00  0.00     0.028 C 
BRANCH   6   7
ATOM      7  C   UNL     1     149.836 158.639 196.912  1.00  0.00    -0.028 C 
ATOM      8  C   UNL     1     150.634 157.550 196.867  1.00  0.00    -0.070 CG0
ATOM      9  C   UNL     1     150.057 156.281 196.293  1.00  0.00     0.039 C 
ATOM     10  G   UNL     1     152.103 157.599 197.240  1.00  0.00     0.000 G0
ENDBRANCH   6   7
ENDBRANCH   5   6
ENDBRANCH   3   5
ENDBRANCH   1   3
BRANCH   1  11
ATOM     11  C   UNL     1     151.610 158.715 200.854  1.00  0.00     0.087 C 
BRANCH  11  12
ATOM     12  C   UNL     1     152.649 158.563 199.702  1.00  0.00     0.066 C 
BRANCH  12  13
ATOM     13  C   UNL     1     152.364 157.413 198.722  1.00  0.00     0.140 C 
ATOM     14  O   UNL     1     152.430 156.265 199.133  1.00  0.00    -0.299 OA
BRANCH  13  15
ATOM     15  C   UNL     1     152.119 157.594 197.237  1.00  0.00     0.106 CG0
ATOM     16  G   UNL     1     150.651 157.536 196.867  1.00  0.00     0.000 G0
ENDBRANCH  13  15
ENDBRANCH  12  13
BRANCH  12  17
ATOM     17  C   UNL     1     154.100 158.523 200.301  1.00  0.00    -0.006 C 
ATOM     18  C   UNL     1     154.121 158.191 201.803  1.00  0.00     0.008 C 
ATOM     19  C   UNL     1     154.911 159.797 200.022  1.00  0.00     0.008 C 
ENDBRANCH  12  17
ENDBRANCH  11  12
ENDBRANCH   1  11
TORSDOF 1
ENDMDL
MODEL 3
REMARK VINA RESULT:    -2.968      8.372      9.577
REMARK INTER + INTRA:          -4.592
REMARK INTER:                  -4.564
REMARK INTRA:                  -0.027
REMARK UNBOUND:                -0.062
REMARK SMILES CC1=CCC[C@H](C)C(=O)C[C@@H](C(C)C)C(=O)C1
REMARK SMILES IDX 8 1 9 2 6 3 7 4 5 5 4 6 3 7 2 8 1 9 10 11 11 12 15 13 16 14
REMARK SMILES IDX 17 15 12 17 13 18 14 19
REMARK H PARENT
REMARK Flexibility Score: 70.00
ROOT
ATOM      1  C   UNL     1     150.501 160.319 200.281  1.00  0.00     0.136 C 
ATOM      2  O   UNL     1     149.286 160.221 200.385  1.00  0.00    -0.299 OA
ENDROOT
BRANCH   1   3
ATOM      3  C   UNL     1     151.320 160.725 201.492  1.00  0.00     0.053 C 
ATOM      4  C   UNL     1     150.407 160.767 202.725  1.00  0.00     0.016 C 
BRANCH   3   5
ATOM      5  C   UNL     1     152.503 159.743 201.713  1.00  0.00     0.015 C 
BRANCH   5   6
ATOM      6  C   UNL     1     152.138 158.251 201.916  1.00  0.00     0.028 C 
BRANCH   6   7
ATOM      7  C   UNL     1     153.144 157.221 201.450  1.00  0.00    -0.028 C 
ATOM      8  C   UNL     1     152.997 156.407 200.382  1.00  0.00    -0.070 CG0
ATOM      9  C   UNL     1     153.962 155.256 200.240  1.00  0.00     0.039 C 
ATOM     10  G   UNL     1     151.834 156.527 199.418  1.00  0.00     0.000 G0
ENDBRANCH   6   7
ENDBRANCH   5   6
ENDBRANCH   3   5
ENDBRANCH   1   3
BRANCH   1  11
ATOM     11  C   UNL     1     151.147 160.126 198.931  1.00  0.00     0.087 C 
BRANCH  11  12
ATOM     12  C   UNL     1     150.842 158.746 198.275  1.00  0.00     0.066 C 
BRANCH  12  13
ATOM     13  C   UNL     1     151.938 157.685 198.461  1.00  0.00     0.140 C 
ATOM     14  O   UNL     1     152.919 157.724 197.733  1.00  0.00    -0.299 OA
BRANCH  13  15
ATOM     15  C   UNL     1     151.840 156.508 199.411  1.00  0.00     0.106 CG0
ATOM     16  G   UNL     1     153.018 156.412 200.360  1.00  0.00     0.000 G0
ENDBRANCH  13  15
ENDBRANCH  12  13
BRANCH  12  17
ATOM     17  C   UNL     1     150.426 158.954 196.776  1.00  0.00    -0.006 C 
ATOM     18  C   UNL     1     149.626 160.249 196.548  1.00  0.00     0.008 C 
ATOM     19  C   UNL     1     149.683 157.752 196.175  1.00  0.00     0.008 C 
ENDBRANCH  12  17
ENDBRANCH  11  12
ENDBRANCH   1  11
TORSDOF 1
ENDMDL
MODEL 4
REMARK VINA RESULT:    -2.872      6.184      8.197
REMARK INTER + INTRA:          -4.446
REMARK INTER:                  -4.501
REMARK INTRA:                   0.055
REMARK UNBOUND:                -0.062
REMARK SMILES CC1=CCC[C@H](C)C(=O)C[C@@H](C(C)C)C(=O)C1
REMARK SMILES IDX 8 1 9 2 6 3 7 4 5 5 4 6 3 7 2 8 1 9 10 11 11 12 15 13 16 14
REMARK SMILES IDX 17 15 12 17 13 18 14 19
REMARK H PARENT
REMARK Flexibility Score: 70.00
ROOT
ATOM      1  C   UNL     1     154.513 159.671 199.653  1.00  0.00     0.136 C 
ATOM      2  O   UNL     1     155.205 160.643 199.383  1.00  0.00    -0.299 OA
ENDROOT
BRANCH   1   3
ATOM      3  C   UNL     1     155.183 158.376 200.074  1.00  0.00     0.053 C 
ATOM      4  C   UNL     1     156.531 158.249 199.348  1.00  0.00     0.016 C 
BRANCH   3   5
ATOM      5  C   UNL     1     155.377 158.330 201.613  1.00  0.00     0.015 C 
BRANCH   5   6
ATOM      6  C   UNL     1     154.732 157.134 202.360  1.00  0.00     0.028 C 
BRANCH   6   7
ATOM      7  C   UNL     1     154.139 156.028 201.515  1.00  0.00    -0.028 C 
ATOM      8  C   UNL     1     152.823 155.854 201.261  1.00  0.00    -0.070 CG0
ATOM      9  C   UNL     1     152.395 154.545 200.646  1.00  0.00     0.039 C 
ATOM     10  G   UNL     1     151.769 156.854 201.692  1.00  0.00     0.000 G0
ENDBRANCH   6   7
ENDBRANCH   5   6
ENDBRANCH   3   5
ENDBRANCH   1   3
BRANCH   1  11
ATOM     11  C   UNL     1     153.018 159.751 199.471  1.00  0.00     0.087 C 
BRANCH  11  12
ATOM     12  C   UNL     1     152.203 159.353 200.739  1.00  0.00     0.066 C 
BRANCH  12  13
ATOM     13  C   UNL     1     151.538 157.969 200.672  1.00  0.00     0.140 C 
ATOM     14  O   UNL     1     150.709 157.761 199.799  1.00  0.00    -0.299 OA
BRANCH  13  15
ATOM     15  C   UNL     1     151.749 156.868 201.692  1.00  0.00     0.106 CG0
ATOM     16  G   UNL     1     152.822 155.879 201.283  1.00  0.00     0.000 G0
ENDBRANCH  13  15
ENDBRANCH  12  13
BRANCH  12  17
ATOM     17  C   UNL     1     151.205 160.506 201.108  1.00  0.00    -0.006 C 
ATOM     18  C   UNL     1     150.528 160.301 202.475  1.00  0.00     0.008 C 
ATOM     19  C   UNL     1     150.152 160.774 200.023  1.00  0.00     0.008 C 
ENDBRANCH  12  17
ENDBRANCH  11  12
ENDBRANCH   1  11
TORSDOF 1
ENDMDL
MODEL 5
REMARK VINA RESULT:    -2.866      5.014      8.688
REMARK INTER + INTRA:          -4.436
REMARK INTER:                  -4.085
REMARK INTRA:                  -0.351
REMARK UNBOUND:                -0.062
REMARK SMILES CC1=CCC[C@H](C)C(=O)C[C@@H](C(C)C)C(=O)C1
REMARK SMILES IDX 8 1 9 2 6 3 7 4 5 5 4 6 3 7 2 8 1 9 10 11 11 12 15 13 16 14
REMARK SMILES IDX 17 15 12 17 13 18 14 19
REMARK H PARENT
REMARK Flexibility Score: 70.00
ROOT
ATOM      1  C   UNL     1     150.537 159.956 199.959  1.00  0.00     0.136 C 
ATOM      2  O   UNL     1     149.381 159.574 200.083  1.00  0.00    -0.299 OA
ENDROOT
BRANCH   1   3
ATOM      3  C   UNL     1     151.423 160.055 201.187  1.00  0.00     0.053 C 
ATOM      4  C   UNL     1     150.597 160.603 202.359  1.00  0.00     0.016 C 
BRANCH   3   5
ATOM      5  C   UNL     1     152.034 158.672 201.540  1.00  0.00     0.015 C 
BRANCH   5   6
ATOM      6  C   UNL     1     153.388 158.319 200.872  1.00  0.00     0.028 C 
BRANCH   6   7
ATOM      7  C   UNL     1     154.287 159.470 200.476  1.00  0.00    -0.028 C 
ATOM      8  C   UNL     1     154.756 159.707 199.232  1.00  0.00    -0.070 CG0
ATOM      9  C   UNL     1     155.861 160.722 199.081  1.00  0.00     0.039 C 
ATOM     10  G   UNL     1     154.313 158.903 198.025  1.00  0.00     0.000 G0
ENDBRANCH   6   7
ENDBRANCH   5   6
ENDBRANCH   3   5
ENDBRANCH   1   3
BRANCH   1  11
ATOM     11  C   UNL     1     151.027 160.409 198.605  1.00  0.00     0.087 C 
BRANCH  11  12
ATOM     12  C   UNL     1     151.641 159.267 197.740  1.00  0.00     0.066 C 
BRANCH  12  13
ATOM     13  C   UNL     1     153.100 159.493 197.313  1.00  0.00     0.140 C 
ATOM     14  O   UNL     1     153.319 160.121 196.288  1.00  0.00    -0.299 OA
BRANCH  13  15
ATOM     15  C   UNL     1     154.300 158.887 198.013  1.00  0.00     0.106 CG0
ATOM     16  G   UNL     1     154.773 159.706 199.197  1.00  0.00     0.000 G0
ENDBRANCH  13  15
ENDBRANCH  12  13
BRANCH  12  17
ATOM     17  C   UNL     1     150.684 158.944 196.538  1.00  0.00    -0.006 C 
ATOM     18  C   UNL     1     149.561 159.981 196.366  1.00  0.00     0.008 C 
ATOM     19  C   UNL     1     150.100 157.524 196.587  1.00  0.00     0.008 C 
ENDBRANCH  12  17
ENDBRANCH  11  12
ENDBRANCH   1  11
TORSDOF 1
ENDMDL
MODEL 6
REMARK VINA RESULT:    -2.802      6.505      8.300
REMARK INTER + INTRA:          -4.339
REMARK INTER:                  -4.487
REMARK INTRA:                   0.148
REMARK UNBOUND:                -0.062
REMARK SMILES CC1=CCC[C@H](C)C(=O)C[C@@H](C(C)C)C(=O)C1
REMARK SMILES IDX 8 1 9 2 6 3 7 4 5 5 4 6 3 7 2 8 1 9 10 11 11 12 15 13 16 14
REMARK SMILES IDX 17 15 12 17 13 18 14 19
REMARK H PARENT
REMARK Flexibility Score: 70.00
ROOT
ATOM      1  C   UNL     1     151.238 158.837 198.685  1.00  0.00     0.136 C 
ATOM      2  O   UNL     1     150.812 157.848 199.266  1.00  0.00    -0.299 OA
ENDROOT
BRANCH   1   3
ATOM      3  C   UNL     1     152.087 158.660 197.440  1.00  0.00     0.053 C 
ATOM      4  C   UNL     1     151.169 158.364 196.245  1.00  0.00     0.016 C 
BRANCH   3   5
ATOM      5  C   UNL     1     152.949 159.924 197.175  1.00  0.00     0.015 C 
BRANCH   5   6
ATOM      6  C   UNL     1     154.354 159.956 197.830  1.00  0.00     0.028 C 
BRANCH   6   7
ATOM      7  C   UNL     1     154.763 158.755 198.654  1.00  0.00    -0.028 C 
ATOM      8  C   UNL     1     154.678 158.660 199.999  1.00  0.00    -0.070 CG0
ATOM      9  C   UNL     1     155.394 157.513 200.667  1.00  0.00     0.039 C 
ATOM     10  G   UNL     1     154.016 159.723 200.853  1.00  0.00     0.000 G0
ENDBRANCH   6   7
ENDBRANCH   5   6
ENDBRANCH   3   5
ENDBRANCH   1   3
BRANCH   1  11
ATOM     11  C   UNL     1     150.990 160.205 199.271  1.00  0.00     0.087 C 
BRANCH  11  12
ATOM     12  C   UNL     1     151.390 160.332 200.772  1.00  0.00     0.066 C 
BRANCH  12  13
ATOM     13  C   UNL     1     152.574 159.451 201.203  1.00  0.00     0.140 C 
ATOM     14  O   UNL     1     152.359 158.507 201.948  1.00  0.00    -0.299 OA
BRANCH  13  15
ATOM     15  C   UNL     1     154.023 159.738 200.864  1.00  0.00     0.106 CG0
ATOM     16  G   UNL     1     154.659 158.655 200.015  1.00  0.00     0.000 G0
ENDBRANCH  13  15
ENDBRANCH  12  13
BRANCH  12  17
ATOM     17  C   UNL     1     150.119 160.150 201.675  1.00  0.00    -0.006 C 
ATOM     18  C   UNL     1     148.808 160.489 200.944  1.00  0.00     0.008 C 
ATOM     19  C   UNL     1     150.202 160.910 203.007  1.00  0.00     0.008 C 
ENDBRANCH  12  17
ENDBRANCH  11  12
ENDBRANCH   1  11
TORSDOF 1
ENDMDL
MODEL 7
REMARK VINA RESULT:    -2.754      7.004      9.500
REMARK INTER + INTRA:          -4.265
REMARK INTER:                  -3.939
REMARK INTRA:                  -0.326
REMARK UNBOUND:                -0.062
REMARK SMILES CC1=CCC[C@H](C)C(=O)C[C@@H](C(C)C)C(=O)C1
REMARK SMILES IDX 8 1 9 2 6 3 7 4 5 5 4 6 3 7 2 8 1 9 10 11 11 12 15 13 16 14
REMARK SMILES IDX 17 15 12 17 13 18 14 19
REMARK H PARENT
REMARK Flexibility Score: 70.00
ROOT
ATOM      1  C   UNL     1     151.795 158.129 201.546  1.00  0.00     0.136 C 
ATOM      2  O   UNL     1     151.743 157.892 202.745  1.00  0.00    -0.299 OA
ENDROOT
BRANCH   1   3
ATOM      3  C   UNL     1     151.850 159.571 201.075  1.00  0.00     0.053 C 
ATOM      4  C   UNL     1     151.007 160.440 202.019  1.00  0.00     0.016 C 
BRANCH   3   5
ATOM      5  C   UNL     1     153.316 160.077 201.017  1.00  0.00     0.015 C 
BRANCH   5   6
ATOM      6  C   UNL     1     154.035 159.972 199.648  1.00  0.00     0.028 C 
BRANCH   6   7
ATOM      7  C   UNL     1     153.169 159.765 198.424  1.00  0.00    -0.028 C 
ATOM      8  C   UNL     1     153.220 158.697 197.598  1.00  0.00    -0.070 CG0
ATOM      9  C   UNL     1     152.493 158.794 196.281  1.00  0.00     0.039 C 
ATOM     10  G   UNL     1     154.081 157.483 197.886  1.00  0.00     0.000 G0
ENDBRANCH   6   7
ENDBRANCH   5   6
ENDBRANCH   3   5
ENDBRANCH   1   3
BRANCH   1  11
ATOM     11  C   UNL     1     151.706 156.990 200.561  1.00  0.00     0.087 C 
BRANCH  11  12
ATOM     12  C   UNL     1     153.089 156.401 200.149  1.00  0.00     0.066 C 
BRANCH  12  13
ATOM     13  C   UNL     1     153.360 156.382 198.636  1.00  0.00     0.140 C 
ATOM     14  O   UNL     1     153.064 155.381 198.002  1.00  0.00    -0.299 OA
BRANCH  13  15
ATOM     15  C   UNL     1     154.083 157.480 197.881  1.00  0.00     0.106 CG0
ATOM     16  G   UNL     1     153.210 158.689 197.613  1.00  0.00     0.000 G0
ENDBRANCH  13  15
ENDBRANCH  12  13
BRANCH  12  17
ATOM     17  C   UNL     1     153.293 155.003 200.834  1.00  0.00    -0.006 C 
ATOM     18  C   UNL     1     151.987 154.200 200.963  1.00  0.00     0.008 C 
ATOM     19  C   UNL     1     154.007 155.087 202.191  1.00  0.00     0.008 C 
ENDBRANCH  12  17
ENDBRANCH  11  12
ENDBRANCH   1  11
TORSDOF 1
ENDMDL
MODEL 8
REMARK VINA RESULT:    -2.746      8.262      9.881
REMARK INTER + INTRA:          -4.252
REMARK INTER:                  -4.167
REMARK INTRA:                  -0.085
REMARK UNBOUND:                -0.062
REMARK SMILES CC1=CCC[C@H](C)C(=O)C[C@@H](C(C)C)C(=O)C1
REMARK SMILES IDX 8 1 9 2 6 3 7 4 5 5 4 6 3 7 2 8 1 9 10 11 11 12 15 13 16 14
REMARK SMILES IDX 17 15 12 17 13 18 14 19
REMARK H PARENT
REMARK Flexibility Score: 70.00
ROOT
ATOM      1  C   UNL     1     151.938 159.111 201.414  1.00  0.00     0.136 C 
ATOM      2  O   UNL     1     153.074 159.565 201.396  1.00  0.00    -0.299 OA
ENDROOT
BRANCH   1   3
ATOM      3  C   UNL     1     150.804 159.966 201.950  1.00  0.00     0.053 C 
ATOM      4  C   UNL     1     151.374 161.304 202.441  1.00  0.00     0.016 C 
BRANCH   3   5
ATOM      5  C   UNL     1     149.721 160.192 200.860  1.00  0.00     0.015 C 
BRANCH   5   6
ATOM      6  C   UNL     1     150.225 160.368 199.405  1.00  0.00     0.028 C 
BRANCH   6   7
ATOM      7  C   UNL     1     149.762 159.353 198.383  1.00  0.00    -0.028 C 
ATOM      8  C   UNL     1     150.567 158.554 197.649  1.00  0.00    -0.070 CG0
ATOM      9  C   UNL     1     149.952 157.819 196.485  1.00  0.00     0.039 C 
ATOM     10  G   UNL     1     152.065 158.482 197.868  1.00  0.00     0.000 G0
ENDBRANCH   6   7
ENDBRANCH   5   6
ENDBRANCH   3   5
ENDBRANCH   1   3
BRANCH   1  11
ATOM     11  C   UNL     1     151.704 157.681 200.993  1.00  0.00     0.087 C 
BRANCH  11  12
ATOM     12  C   UNL     1     152.815 157.105 200.064  1.00  0.00     0.066 C 
BRANCH  12  13
ATOM     13  C   UNL     1     152.515 157.204 198.560  1.00  0.00     0.140 C 
ATOM     14  O   UNL     1     152.732 156.230 197.855  1.00  0.00    -0.299 OA
BRANCH  13  15
ATOM     15  C   UNL     1     152.077 158.472 197.855  1.00  0.00     0.106 CG0
ATOM     16  G   UNL     1     150.579 158.537 197.628  1.00  0.00     0.000 G0
ENDBRANCH  13  15
ENDBRANCH  12  13
BRANCH  12  17
ATOM     17  C   UNL     1     153.193 155.654 200.528  1.00  0.00    -0.006 C 
ATOM     18  C   UNL     1     152.436 155.211 201.793  1.00  0.00     0.008 C 
ATOM     19  C   UNL     1     154.703 155.442 200.706  1.00  0.00     0.008 C 
ENDBRANCH  12  17
ENDBRANCH  11  12
ENDBRANCH   1  11
TORSDOF 1
ENDMDL
MODEL 9
REMARK VINA RESULT:    -2.664      6.867      9.408
REMARK INTER + INTRA:          -4.128
REMARK INTER:                  -4.203
REMARK INTRA:                   0.075
REMARK UNBOUND:                -0.062
REMARK SMILES CC1=CCC[C@H](C)C(=O)C[C@@H](C(C)C)C(=O)C1
REMARK SMILES IDX 8 1 9 2 6 3 7 4 5 5 4 6 3 7 2 8 1 9 10 11 11 12 15 13 16 14
REMARK SMILES IDX 17 15 12 17 13 18 14 19
REMARK H PARENT
REMARK Flexibility Score: 70.00
ROOT
ATOM      1  C   UNL     1     151.786 158.721 201.214  1.00  0.00     0.136 C 
ATOM      2  O   UNL     1     151.901 159.603 202.054  1.00  0.00    -0.299 OA
ENDROOT
BRANCH   1   3
ATOM      3  C   UNL     1     151.302 159.080 199.821  1.00  0.00     0.053 C 
ATOM      4  C   UNL     1     150.106 160.037 199.936  1.00  0.00     0.016 C 
BRANCH   3   5
ATOM      5  C   UNL     1     152.445 159.721 198.988  1.00  0.00     0.015 C 
BRANCH   5   6
ATOM      6  C   UNL     1     153.865 159.677 199.607  1.00  0.00     0.028 C 
BRANCH   6   7
ATOM      7  C   UNL     1     154.730 158.482 199.274  1.00  0.00    -0.028 C 
ATOM      8  C   UNL     1     155.437 157.752 200.165  1.00  0.00    -0.070 CG0
ATOM      9  C   UNL     1     156.461 156.786 199.624  1.00  0.00     0.039 C 
ATOM     10  G   UNL     1     155.334 157.967 201.662  1.00  0.00     0.000 G0
ENDBRANCH   6   7
ENDBRANCH   5   6
ENDBRANCH   3   5
ENDBRANCH   1   3
BRANCH   1  11
ATOM     11  C   UNL     1     152.036 157.286 201.606  1.00  0.00     0.087 C 
BRANCH  11  12
ATOM     12  C   UNL     1     153.038 157.119 202.789  1.00  0.00     0.066 C 
BRANCH  12  13
ATOM     13  C   UNL     1     154.504 156.923 202.371  1.00  0.00     0.140 C 
ATOM     14  O   UNL     1     155.078 155.901 202.717  1.00  0.00    -0.299 OA
BRANCH  13  15
ATOM     15  C   UNL     1     155.338 157.966 201.655  1.00  0.00     0.106 CG0
ATOM     16  G   UNL     1     155.415 157.739 200.158  1.00  0.00     0.000 G0
ENDBRANCH  13  15
ENDBRANCH  12  13
BRANCH  12  17
ATOM     17  C   UNL     1     152.517 156.009 203.769  1.00  0.00    -0.006 C 
ATOM     18  C   UNL     1     151.699 154.915 203.060  1.00  0.00     0.008 C 
ATOM     19  C   UNL     1     151.737 156.570 204.967  1.00  0.00     0.008 C 
ENDBRANCH  12  17
ENDBRANCH  11  12
ENDBRANCH   1  11
TORSDOF 1
ENDMDL
