MODEL 1
REMARK VINA RESULT:    -4.064      0.000      0.000
REMARK INTER + INTRA:          -8.296
REMARK INTER:                  -6.321
REMARK INTRA:                  -1.975
REMARK UNBOUND:                -1.975
REMARK SMILES COc1cc(CNC(=O)CCCCC=CC(C)C)ccc1O
REMARK SMILES IDX 11 1 12 2 13 3 14 4 15 5 16 6 17 7 18 8 10 9 8 10 9 11 7 12
REMARK SMILES IDX 6 14 5 15 4 16 19 17 3 18 20 19 21 20 2 21 1 22 22 23
REMARK H PARENT 7 13 22 24
REMARK Flexibility Score: inf
ROOT
ATOM      1  C   UNL     1      26.631 -47.469  12.705  1.00  0.00     0.010 C 
ENDROOT
BRANCH   1   2
ATOM      2  C   UNL     1      25.865 -48.620  12.024  1.00  0.00     0.005 C 
BRANCH   2   3
ATOM      3  C   UNL     1      24.698 -48.130  11.154  1.00  0.00     0.027 C 
BRANCH   3   4
ATOM      4  C   UNL     1      24.546 -46.637  11.252  1.00  0.00    -0.031 C 
ATOM      5  C   UNL     1      23.369 -46.057  11.536  1.00  0.00    -0.028 C 
BRANCH   5   6
ATOM      6  C   UNL     1      23.236 -44.552  11.610  1.00  0.00     0.005 C 
ATOM      7  C   UNL     1      24.566 -43.918  12.047  1.00  0.00     0.012 C 
ATOM      8  C   UNL     1      22.789 -43.976  10.261  1.00  0.00     0.012 C 
ENDBRANCH   5   6
ENDBRANCH   3   4
ENDBRANCH   2   3
ENDBRANCH   1   2
BRANCH   1   9
ATOM      9  C   UNL     1      28.156 -47.501  12.494  1.00  0.00     0.100 C 
BRANCH   9  10
ATOM     10  C   UNL     1      28.659 -46.251  11.830  1.00  0.00     0.220 C 
ATOM     11  O   UNL     1      29.900 -46.024  11.798  1.00  0.00    -0.275 OA
ATOM     12  N   UNL     1      27.740 -45.351  11.195  1.00  0.00    -0.352 N 
ATOM     13  H   UNL     1      26.713 -45.519  11.293  1.00  0.00     0.163 HD
BRANCH  12  14
ATOM     14  C   UNL     1      28.176 -44.323  10.254  1.00  0.00     0.151 C 
BRANCH  14  15
ATOM     15  C   UNL     1      27.100 -44.079   9.229  1.00  0.00    -0.025 A 
ATOM     16  C   UNL     1      26.748 -42.766   8.871  1.00  0.00     0.056 A 
ATOM     17  C   UNL     1      26.399 -45.156   8.670  1.00  0.00     0.009 A 
ATOM     18  C   UNL     1      25.716 -42.530   7.939  1.00  0.00     0.160 A 
ATOM     19  C   UNL     1      25.374 -44.929   7.749  1.00  0.00     0.050 A 
ATOM     20  C   UNL     1      25.033 -43.625   7.376  1.00  0.00     0.157 A 
BRANCH  18  21
ATOM     21  O   UNL     1      25.337 -41.229   7.562  1.00  0.00    -0.493 OA
ATOM     22  C   UNL     1      26.161 -40.320   6.843  1.00  0.00     0.278 C 
ENDBRANCH  18  21
BRANCH  20  23
ATOM     23  O   UNL     1      24.009 -43.437   6.447  1.00  0.00    -0.504 OA
ATOM     24  H   UNL     1      23.191 -42.872   6.653  1.00  0.00     0.293 HD
ENDBRANCH  20  23
ENDBRANCH  14  15
ENDBRANCH  12  14
ENDBRANCH   9  10
ENDBRANCH   1   9
TORSDOF 10
ENDMDL
MODEL 2
REMARK VINA RESULT:    -4.038      3.196      6.309
REMARK INTER + INTRA:          -8.255
REMARK INTER:                  -7.241
REMARK INTRA:                  -1.014
REMARK UNBOUND:                -1.975
REMARK SMILES COc1cc(CNC(=O)CCCCC=CC(C)C)ccc1O
REMARK SMILES IDX 11 1 12 2 13 3 14 4 15 5 16 6 17 7 18 8 10 9 8 10 9 11 7 12
REMARK SMILES IDX 6 14 5 15 4 16 19 17 3 18 20 19 21 20 2 21 1 22 22 23
REMARK H PARENT 7 13 22 24
REMARK Flexibility Score: inf
ROOT
ATOM      1  C   UNL     1      30.548 -43.845  10.034  1.00  0.00     0.010 C 
ENDROOT
BRANCH   1   2
ATOM      2  C   UNL     1      29.084 -43.505   9.693  1.00  0.00     0.005 C 
BRANCH   2   3
ATOM      3  C   UNL     1      28.074 -44.369  10.465  1.00  0.00     0.027 C 
BRANCH   3   4
ATOM      4  C   UNL     1      26.919 -44.759   9.584  1.00  0.00    -0.031 C 
ATOM      5  C   UNL     1      26.585 -44.054   8.492  1.00  0.00    -0.028 C 
BRANCH   5   6
ATOM      6  C   UNL     1      25.407 -44.455   7.632  1.00  0.00     0.005 C 
ATOM      7  C   UNL     1      24.553 -45.510   8.352  1.00  0.00     0.012 C 
ATOM      8  C   UNL     1      24.553 -43.234   7.272  1.00  0.00     0.012 C 
ENDBRANCH   5   6
ENDBRANCH   3   4
ENDBRANCH   2   3
ENDBRANCH   1   2
BRANCH   1   9
ATOM      9  C   UNL     1      30.819 -44.081  11.532  1.00  0.00     0.100 C 
BRANCH   9  10
ATOM     10  C   UNL     1      31.362 -45.456  11.796  1.00  0.00     0.220 C 
ATOM     11  O   UNL     1      32.552 -45.585  12.193  1.00  0.00    -0.275 OA
ATOM     12  N   UNL     1      30.518 -46.607  11.647  1.00  0.00    -0.352 N 
ATOM     13  H   UNL     1      29.558 -46.486  11.250  1.00  0.00     0.163 HD
BRANCH  12  14
ATOM     14  C   UNL     1      30.865 -47.910  12.206  1.00  0.00     0.151 C 
BRANCH  14  15
ATOM     15  C   UNL     1      29.612 -48.659  12.574  1.00  0.00    -0.025 A 
ATOM     16  C   UNL     1      28.353 -48.055  12.414  1.00  0.00     0.056 A 
ATOM     17  C   UNL     1      29.695 -49.941  13.135  1.00  0.00     0.009 A 
ATOM     18  C   UNL     1      27.178 -48.738  12.792  1.00  0.00     0.160 A 
ATOM     19  C   UNL     1      28.535 -50.620  13.515  1.00  0.00     0.050 A 
ATOM     20  C   UNL     1      27.280 -50.031  13.341  1.00  0.00     0.157 A 
BRANCH  18  21
ATOM     21  O   UNL     1      25.903 -48.161  12.650  1.00  0.00    -0.493 OA
ATOM     22  C   UNL     1      25.334 -47.745  11.414  1.00  0.00     0.278 C 
ENDBRANCH  18  21
BRANCH  20  23
ATOM     23  O   UNL     1      26.142 -50.743  13.723  1.00  0.00    -0.504 OA
ATOM     24  H   UNL     1      25.209 -50.466  13.433  1.00  0.00     0.293 HD
ENDBRANCH  20  23
ENDBRANCH  14  15
ENDBRANCH  12  14
ENDBRANCH   9  10
ENDBRANCH   1   9
TORSDOF 10
ENDMDL
MODEL 3
REMARK VINA RESULT:    -4.021     11.642     14.951
REMARK INTER + INTRA:          -8.228
REMARK INTER:                  -7.367
REMARK INTRA:                  -0.861
REMARK UNBOUND:                -1.975
REMARK SMILES COc1cc(CNC(=O)CCCCC=CC(C)C)ccc1O
REMARK SMILES IDX 11 1 12 2 13 3 14 4 15 5 16 6 17 7 18 8 10 9 8 10 9 11 7 12
REMARK SMILES IDX 6 14 5 15 4 16 19 17 3 18 20 19 21 20 2 21 1 22 22 23
REMARK H PARENT 7 13 22 24
REMARK Flexibility Score: inf
ROOT
ATOM      1  C   UNL     1      35.832 -38.659   0.931  1.00  0.00     0.010 C 
ENDROOT
BRANCH   1   2
ATOM      2  C   UNL     1      36.073 -38.673  -0.591  1.00  0.00     0.005 C 
BRANCH   2   3
ATOM      3  C   UNL     1      34.796 -38.961  -1.396  1.00  0.00     0.027 C 
BRANCH   3   4
ATOM      4  C   UNL     1      35.123 -39.257  -2.833  1.00  0.00    -0.031 C 
ATOM      5  C   UNL     1      36.388 -39.322  -3.277  1.00  0.00    -0.028 C 
BRANCH   5   6
ATOM      6  C   UNL     1      36.693 -39.602  -4.733  1.00  0.00     0.005 C 
ATOM      7  C   UNL     1      38.181 -39.940  -4.913  1.00  0.00     0.012 C 
ATOM      8  C   UNL     1      35.819 -40.743  -5.265  1.00  0.00     0.012 C 
ENDBRANCH   5   6
ENDBRANCH   3   4
ENDBRANCH   2   3
ENDBRANCH   1   2
BRANCH   1   9
ATOM      9  C   UNL     1      35.122 -39.911   1.480  1.00  0.00     0.100 C 
BRANCH   9  10
ATOM     10  C   UNL     1      33.803 -39.578   2.114  1.00  0.00     0.220 C 
ATOM     11  O   UNL     1      33.762 -39.284   3.341  1.00  0.00    -0.275 OA
ATOM     12  N   UNL     1      32.607 -39.547   1.321  1.00  0.00    -0.352 N 
ATOM     13  H   UNL     1      32.648 -39.862   0.325  1.00  0.00     0.163 HD
BRANCH  12  14
ATOM     14  C   UNL     1      31.378 -38.910   1.784  1.00  0.00     0.151 C 
BRANCH  14  15
ATOM     15  C   UNL     1      30.428 -38.730   0.628  1.00  0.00    -0.025 A 
ATOM     16  C   UNL     1      29.087 -38.382   0.862  1.00  0.00     0.056 A 
ATOM     17  C   UNL     1      30.860 -38.969  -0.684  1.00  0.00     0.009 A 
ATOM     18  C   UNL     1      28.184 -38.248  -0.213  1.00  0.00     0.160 A 
ATOM     19  C   UNL     1      29.970 -38.842  -1.752  1.00  0.00     0.050 A 
ATOM     20  C   UNL     1      28.639 -38.477  -1.526  1.00  0.00     0.157 A 
BRANCH  18  21
ATOM     21  O   UNL     1      26.835 -37.905  -0.014  1.00  0.00    -0.493 OA
ATOM     22  C   UNL     1      26.265 -37.546   1.239  1.00  0.00     0.278 C 
ENDBRANCH  18  21
BRANCH  20  23
ATOM     23  O   UNL     1      27.780 -38.351  -2.619  1.00  0.00    -0.504 OA
ATOM     24  H   UNL     1      28.104 -38.462  -3.575  1.00  0.00     0.293 HD
ENDBRANCH  20  23
ENDBRANCH  14  15
ENDBRANCH  12  14
ENDBRANCH   9  10
ENDBRANCH   1   9
TORSDOF 10
ENDMDL
MODEL 4
REMARK VINA RESULT:    -4.014      3.117      5.940
REMARK INTER + INTRA:          -8.218
REMARK INTER:                  -7.352
REMARK INTRA:                  -0.866
REMARK UNBOUND:                -1.975
REMARK SMILES COc1cc(CNC(=O)CCCCC=CC(C)C)ccc1O
REMARK SMILES IDX 11 1 12 2 13 3 14 4 15 5 16 6 17 7 18 8 10 9 8 10 9 11 7 12
REMARK SMILES IDX 6 14 5 15 4 16 19 17 3 18 20 19 21 20 2 21 1 22 22 23
REMARK H PARENT 7 13 22 24
REMARK Flexibility Score: inf
ROOT
ATOM      1  C   UNL     1      25.793 -48.416  12.066  1.00  0.00     0.010 C 
ENDROOT
BRANCH   1   2
ATOM      2  C   UNL     1      24.285 -48.174  11.852  1.00  0.00     0.005 C 
BRANCH   2   3
ATOM      3  C   UNL     1      23.966 -46.732  11.426  1.00  0.00     0.027 C 
BRANCH   3   4
ATOM      4  C   UNL     1      24.993 -46.220  10.455  1.00  0.00    -0.031 C 
ATOM      5  C   UNL     1      24.672 -45.860   9.202  1.00  0.00    -0.028 C 
BRANCH   5   6
ATOM      6  C   UNL     1      25.726 -45.366   8.236  1.00  0.00     0.005 C 
ATOM      7  C   UNL     1      25.211 -44.142   7.461  1.00  0.00     0.012 C 
ATOM      8  C   UNL     1      27.025 -45.021   8.973  1.00  0.00     0.012 C 
ENDBRANCH   5   6
ENDBRANCH   3   4
ENDBRANCH   2   3
ENDBRANCH   1   2
BRANCH   1   9
ATOM      9  C   UNL     1      26.128 -49.390  13.212  1.00  0.00     0.100 C 
BRANCH   9  10
ATOM     10  C   UNL     1      27.543 -49.887  13.133  1.00  0.00     0.220 C 
ATOM     11  O   UNL     1      27.764 -51.129  13.146  1.00  0.00    -0.275 OA
ATOM     12  N   UNL     1      28.629 -48.959  12.993  1.00  0.00    -0.352 N 
ATOM     13  H   UNL     1      28.433 -47.934  13.054  1.00  0.00     0.163 HD
BRANCH  12  14
ATOM     14  C   UNL     1      29.963 -49.373  12.571  1.00  0.00     0.151 C 
BRANCH  14  15
ATOM     15  C   UNL     1      30.860 -48.169  12.455  1.00  0.00    -0.025 A 
ATOM     16  C   UNL     1      30.313 -46.902  12.194  1.00  0.00     0.056 A 
ATOM     17  C   UNL     1      32.251 -48.314  12.545  1.00  0.00     0.009 A 
ATOM     18  C   UNL     1      31.151 -45.776  12.047  1.00  0.00     0.160 A 
ATOM     19  C   UNL     1      33.086 -47.205  12.397  1.00  0.00     0.050 A 
ATOM     20  C   UNL     1      32.545 -45.938  12.156  1.00  0.00     0.157 A 
BRANCH  18  21
ATOM     21  O   UNL     1      30.637 -44.495  11.782  1.00  0.00    -0.493 OA
ATOM     22  C   UNL     1      30.495 -43.930  10.483  1.00  0.00     0.278 C 
ENDBRANCH  18  21
BRANCH  20  23
ATOM     23  O   UNL     1      33.411 -44.851  12.022  1.00  0.00    -0.504 OA
ATOM     24  H   UNL     1      33.121 -43.983  11.582  1.00  0.00     0.293 HD
ENDBRANCH  20  23
ENDBRANCH  14  15
ENDBRANCH  12  14
ENDBRANCH   9  10
ENDBRANCH   1   9
TORSDOF 10
ENDMDL
MODEL 5
REMARK VINA RESULT:    -4.010      2.544      5.022
REMARK INTER + INTRA:          -8.212
REMARK INTER:                  -6.885
REMARK INTRA:                  -1.327
REMARK UNBOUND:                -1.975
REMARK SMILES COc1cc(CNC(=O)CCCCC=CC(C)C)ccc1O
REMARK SMILES IDX 11 1 12 2 13 3 14 4 15 5 16 6 17 7 18 8 10 9 8 10 9 11 7 12
REMARK SMILES IDX 6 14 5 15 4 16 19 17 3 18 20 19 21 20 2 21 1 22 22 23
REMARK H PARENT 7 13 22 24
REMARK Flexibility Score: inf
ROOT
ATOM      1  C   UNL     1      32.214 -44.637  11.951  1.00  0.00     0.010 C 
ENDROOT
BRANCH   1   2
ATOM      2  C   UNL     1      32.559 -46.062  12.426  1.00  0.00     0.005 C 
BRANCH   2   3
ATOM      3  C   UNL     1      31.953 -47.154  11.531  1.00  0.00     0.027 C 
BRANCH   3   4
ATOM      4  C   UNL     1      31.086 -48.085  12.332  1.00  0.00    -0.031 C 
ATOM      5  C   UNL     1      29.783 -47.841  12.544  1.00  0.00    -0.028 C 
BRANCH   5   6
ATOM      6  C   UNL     1      28.935 -48.783  13.371  1.00  0.00     0.005 C 
ATOM      7  C   UNL     1      27.525 -48.901  12.770  1.00  0.00     0.012 C 
ATOM      8  C   UNL     1      29.590 -50.165  13.468  1.00  0.00     0.012 C 
ENDBRANCH   5   6
ENDBRANCH   3   4
ENDBRANCH   2   3
ENDBRANCH   1   2
BRANCH   1   9
ATOM      9  C   UNL     1      31.043 -43.976  12.702  1.00  0.00     0.100 C 
BRANCH   9  10
ATOM     10  C   UNL     1      29.910 -43.624  11.782  1.00  0.00     0.220 C 
ATOM     11  O   UNL     1      29.261 -42.559  11.978  1.00  0.00    -0.275 OA
ATOM     12  N   UNL     1      29.602 -44.465  10.661  1.00  0.00    -0.352 N 
ATOM     13  H   UNL     1      30.103 -45.377  10.556  1.00  0.00     0.163 HD
BRANCH  12  14
ATOM     14  C   UNL     1      28.763 -44.017   9.554  1.00  0.00     0.151 C 
BRANCH  14  15
ATOM     15  C   UNL     1      27.447 -44.751   9.579  1.00  0.00    -0.025 A 
ATOM     16  C   UNL     1      26.445 -44.439   8.645  1.00  0.00     0.056 A 
ATOM     17  C   UNL     1      27.190 -45.706  10.572  1.00  0.00     0.009 A 
ATOM     18  C   UNL     1      25.198 -45.096   8.687  1.00  0.00     0.160 A 
ATOM     19  C   UNL     1      25.956 -46.357  10.622  1.00  0.00     0.050 A 
ATOM     20  C   UNL     1      24.963 -46.063   9.683  1.00  0.00     0.157 A 
BRANCH  18  21
ATOM     21  O   UNL     1      24.172 -44.805   7.770  1.00  0.00    -0.493 OA
ATOM     22  C   UNL     1      24.141 -43.663   6.921  1.00  0.00     0.278 C 
ENDBRANCH  18  21
BRANCH  20  23
ATOM     23  O   UNL     1      23.744 -46.740   9.757  1.00  0.00    -0.504 OA
ATOM     24  H   UNL     1      23.263 -47.077   8.929  1.00  0.00     0.293 HD
ENDBRANCH  20  23
ENDBRANCH  14  15
ENDBRANCH  12  14
ENDBRANCH   9  10
ENDBRANCH   1   9
TORSDOF 10
ENDMDL
MODEL 6
REMARK VINA RESULT:    -4.009      4.836      7.519
REMARK INTER + INTRA:          -8.209
REMARK INTER:                  -7.554
REMARK INTRA:                  -0.655
REMARK UNBOUND:                -1.975
REMARK SMILES COc1cc(CNC(=O)CCCCC=CC(C)C)ccc1O
REMARK SMILES IDX 11 1 12 2 13 3 14 4 15 5 16 6 17 7 18 8 10 9 8 10 9 11 7 12
REMARK SMILES IDX 6 14 5 15 4 16 19 17 3 18 20 19 21 20 2 21 1 22 22 23
REMARK H PARENT 7 13 22 24
REMARK Flexibility Score: inf
ROOT
ATOM      1  C   UNL     1      32.105 -42.405  11.186  1.00  0.00     0.010 C 
ENDROOT
BRANCH   1   2
ATOM      2  C   UNL     1      32.434 -40.911  10.995  1.00  0.00     0.005 C 
BRANCH   2   3
ATOM      3  C   UNL     1      33.756 -40.500  11.662  1.00  0.00     0.027 C 
BRANCH   3   4
ATOM      4  C   UNL     1      34.734 -39.988  10.641  1.00  0.00    -0.031 C 
ATOM      5  C   UNL     1      34.788 -40.483   9.394  1.00  0.00    -0.028 C 
BRANCH   5   6
ATOM      6  C   UNL     1      35.795 -39.965   8.390  1.00  0.00     0.005 C 
ATOM      7  C   UNL     1      35.086 -39.165   7.286  1.00  0.00     0.012 C 
ATOM      8  C   UNL     1      36.857 -39.099   9.077  1.00  0.00     0.012 C 
ENDBRANCH   5   6
ENDBRANCH   3   4
ENDBRANCH   2   3
ENDBRANCH   1   2
BRANCH   1   9
ATOM      9  C   UNL     1      31.368 -43.056  10.000  1.00  0.00     0.100 C 
BRANCH   9  10
ATOM     10  C   UNL     1      30.267 -43.970  10.454  1.00  0.00     0.220 C 
ATOM     11  O   UNL     1      30.347 -44.520  11.587  1.00  0.00    -0.275 OA
ATOM     12  N   UNL     1      29.111 -44.176   9.628  1.00  0.00    -0.352 N 
ATOM     13  H   UNL     1      29.095 -43.769   8.665  1.00  0.00     0.163 HD
BRANCH  12  14
ATOM     14  C   UNL     1      27.877 -44.761  10.141  1.00  0.00     0.151 C 
BRANCH  14  15
ATOM     15  C   UNL     1      26.744 -44.483   9.188  1.00  0.00    -0.025 A 
ATOM     16  C   UNL     1      26.668 -43.251   8.518  1.00  0.00     0.056 A 
ATOM     17  C   UNL     1      25.725 -45.428   9.008  1.00  0.00     0.009 A 
ATOM     18  C   UNL     1      25.591 -42.970   7.653  1.00  0.00     0.160 A 
ATOM     19  C   UNL     1      24.653 -45.156   8.156  1.00  0.00     0.050 A 
ATOM     20  C   UNL     1      24.583 -43.938   7.473  1.00  0.00     0.157 A 
BRANCH  18  21
ATOM     21  O   UNL     1      25.482 -41.745   6.970  1.00  0.00    -0.493 OA
ATOM     22  C   UNL     1      25.503 -40.466   7.592  1.00  0.00     0.278 C 
ENDBRANCH  18  21
BRANCH  20  23
ATOM     23  O   UNL     1      23.501 -43.703   6.622  1.00  0.00    -0.504 OA
ATOM     24  H   UNL     1      22.651 -44.256   6.667  1.00  0.00     0.293 HD
ENDBRANCH  20  23
ENDBRANCH  14  15
ENDBRANCH  12  14
ENDBRANCH   9  10
ENDBRANCH   1   9
TORSDOF 10
ENDMDL
MODEL 7
REMARK VINA RESULT:    -3.940      2.946      5.505
REMARK INTER + INTRA:          -8.103
REMARK INTER:                  -6.793
REMARK INTRA:                  -1.310
REMARK UNBOUND:                -1.975
REMARK SMILES COc1cc(CNC(=O)CCCCC=CC(C)C)ccc1O
REMARK SMILES IDX 11 1 12 2 13 3 14 4 15 5 16 6 17 7 18 8 10 9 8 10 9 11 7 12
REMARK SMILES IDX 6 14 5 15 4 16 19 17 3 18 20 19 21 20 2 21 1 22 22 23
REMARK H PARENT 7 13 22 24
REMARK Flexibility Score: inf
ROOT
ATOM      1  C   UNL     1      32.258 -47.427  11.543  1.00  0.00     0.010 C 
ENDROOT
BRANCH   1   2
ATOM      2  C   UNL     1      33.206 -46.650  12.477  1.00  0.00     0.005 C 
BRANCH   2   3
ATOM      3  C   UNL     1      32.592 -45.342  12.999  1.00  0.00     0.027 C 
BRANCH   3   4
ATOM      4  C   UNL     1      32.158 -44.461  11.860  1.00  0.00    -0.031 C 
ATOM      5  C   UNL     1      31.032 -43.732  11.912  1.00  0.00    -0.028 C 
BRANCH   5   6
ATOM      6  C   UNL     1      30.605 -42.868  10.746  1.00  0.00     0.005 C 
ATOM      7  C   UNL     1      31.833 -42.395   9.952  1.00  0.00     0.012 C 
ATOM      8  C   UNL     1      29.638 -43.626   9.829  1.00  0.00     0.012 C 
ENDBRANCH   5   6
ENDBRANCH   3   4
ENDBRANCH   2   3
ENDBRANCH   1   2
BRANCH   1   9
ATOM      9  C   UNL     1      31.416 -48.511  12.242  1.00  0.00     0.100 C 
BRANCH   9  10
ATOM     10  C   UNL     1      30.040 -48.021  12.587  1.00  0.00     0.220 C 
ATOM     11  O   UNL     1      29.415 -48.553  13.545  1.00  0.00    -0.275 OA
ATOM     12  N   UNL     1      29.462 -46.923  11.864  1.00  0.00    -0.352 N 
ATOM     13  H   UNL     1      29.963 -46.542  11.030  1.00  0.00     0.163 HD
BRANCH  12  14
ATOM     14  C   UNL     1      28.303 -46.185  12.358  1.00  0.00     0.151 C 
BRANCH  14  15
ATOM     15  C   UNL     1      27.077 -46.576  11.576  1.00  0.00    -0.025 A 
ATOM     16  C   UNL     1      26.669 -45.812  10.470  1.00  0.00     0.056 A 
ATOM     17  C   UNL     1      26.298 -47.668  11.983  1.00  0.00     0.009 A 
ATOM     18  C   UNL     1      25.501 -46.150   9.756  1.00  0.00     0.160 A 
ATOM     19  C   UNL     1      25.138 -48.007  11.283  1.00  0.00     0.050 A 
ATOM     20  C   UNL     1      24.739 -47.260  10.170  1.00  0.00     0.157 A 
BRANCH  18  21
ATOM     21  O   UNL     1      25.063 -45.404   8.647  1.00  0.00    -0.493 OA
ATOM     22  C   UNL     1      24.162 -44.305   8.713  1.00  0.00     0.278 C 
ENDBRANCH  18  21
BRANCH  20  23
ATOM     23  O   UNL     1      23.579 -47.633   9.489  1.00  0.00    -0.504 OA
ATOM     24  H   UNL     1      22.871 -46.957   9.220  1.00  0.00     0.293 HD
ENDBRANCH  20  23
ENDBRANCH  14  15
ENDBRANCH  12  14
ENDBRANCH   9  10
ENDBRANCH   1   9
TORSDOF 10
ENDMDL
MODEL 8
REMARK VINA RESULT:    -3.938      2.055      4.651
REMARK INTER + INTRA:          -8.100
REMARK INTER:                  -6.353
REMARK INTRA:                  -1.747
REMARK UNBOUND:                -1.975
REMARK SMILES COc1cc(CNC(=O)CCCCC=CC(C)C)ccc1O
REMARK SMILES IDX 11 1 12 2 13 3 14 4 15 5 16 6 17 7 18 8 10 9 8 10 9 11 7 12
REMARK SMILES IDX 6 14 5 15 4 16 19 17 3 18 20 19 21 20 2 21 1 22 22 23
REMARK H PARENT 7 13 22 24
REMARK Flexibility Score: inf
ROOT
ATOM      1  C   UNL     1      30.342 -43.444  10.020  1.00  0.00     0.010 C 
ENDROOT
BRANCH   1   2
ATOM      2  C   UNL     1      30.990 -42.063  10.240  1.00  0.00     0.005 C 
BRANCH   2   3
ATOM      3  C   UNL     1      30.001 -40.901  10.057  1.00  0.00     0.027 C 
BRANCH   3   4
ATOM      4  C   UNL     1      28.628 -41.414   9.720  1.00  0.00    -0.031 C 
ATOM      5  C   UNL     1      27.820 -40.774   8.860  1.00  0.00    -0.028 C 
BRANCH   5   6
ATOM      6  C   UNL     1      26.435 -41.298   8.550  1.00  0.00     0.005 C 
ATOM      7  C   UNL     1      25.425 -40.790   9.591  1.00  0.00     0.012 C 
ATOM      8  C   UNL     1      25.998 -40.888   7.139  1.00  0.00     0.012 C 
ENDBRANCH   5   6
ENDBRANCH   3   4
ENDBRANCH   2   3
ENDBRANCH   1   2
BRANCH   1   9
ATOM      9  C   UNL     1      30.537 -44.436  11.182  1.00  0.00     0.100 C 
BRANCH   9  10
ATOM     10  C   UNL     1      29.273 -45.176  11.510  1.00  0.00     0.220 C 
ATOM     11  O   UNL     1      29.101 -45.621  12.678  1.00  0.00    -0.275 OA
ATOM     12  N   UNL     1      28.248 -45.331  10.516  1.00  0.00    -0.352 N 
ATOM     13  H   UNL     1      28.437 -45.018   9.537  1.00  0.00     0.163 HD
BRANCH  12  14
ATOM     14  C   UNL     1      26.884 -45.724  10.855  1.00  0.00     0.151 C 
BRANCH  14  15
ATOM     15  C   UNL     1      25.917 -45.117   9.872  1.00  0.00    -0.025 A 
ATOM     16  C   UNL     1      24.692 -44.591  10.316  1.00  0.00     0.056 A 
ATOM     17  C   UNL     1      26.206 -45.127   8.500  1.00  0.00     0.009 A 
ATOM     18  C   UNL     1      23.767 -44.055   9.397  1.00  0.00     0.160 A 
ATOM     19  C   UNL     1      25.292 -44.601   7.584  1.00  0.00     0.050 A 
ATOM     20  C   UNL     1      24.080 -44.060   8.024  1.00  0.00     0.157 A 
BRANCH  18  21
ATOM     21  O   UNL     1      22.531 -43.525   9.807  1.00  0.00    -0.493 OA
ATOM     22  C   UNL     1      22.260 -43.010  11.105  1.00  0.00     0.278 C 
ENDBRANCH  18  21
BRANCH  20  23
ATOM     23  O   UNL     1      23.195 -43.535   7.080  1.00  0.00    -0.504 OA
ATOM     24  H   UNL     1      22.984 -42.543   7.032  1.00  0.00     0.293 HD
ENDBRANCH  20  23
ENDBRANCH  14  15
ENDBRANCH  12  14
ENDBRANCH   9  10
ENDBRANCH   1   9
TORSDOF 10
ENDMDL
MODEL 9
REMARK VINA RESULT:    -3.847      1.445      2.383
REMARK INTER + INTRA:          -7.957
REMARK INTER:                  -6.151
REMARK INTRA:                  -1.807
REMARK UNBOUND:                -1.975
REMARK SMILES COc1cc(CNC(=O)CCCCC=CC(C)C)ccc1O
REMARK SMILES IDX 11 1 12 2 13 3 14 4 15 5 16 6 17 7 18 8 10 9 8 10 9 11 7 12
REMARK SMILES IDX 6 14 5 15 4 16 19 17 3 18 20 19 21 20 2 21 1 22 22 23
REMARK H PARENT 7 13 22 24
REMARK Flexibility Score: inf
ROOT
ATOM      1  C   UNL     1      30.149 -46.361  13.265  1.00  0.00     0.010 C 
ENDROOT
BRANCH   1   2
ATOM      2  C   UNL     1      28.628 -46.591  13.367  1.00  0.00     0.005 C 
BRANCH   2   3
ATOM      3  C   UNL     1      28.136 -47.742  12.476  1.00  0.00     0.027 C 
BRANCH   3   4
ATOM      4  C   UNL     1      26.658 -47.627  12.220  1.00  0.00    -0.031 C 
ATOM      5  C   UNL     1      26.000 -46.465  12.350  1.00  0.00    -0.028 C 
BRANCH   5   6
ATOM      6  C   UNL     1      24.509 -46.378  12.105  1.00  0.00     0.005 C 
ATOM      7  C   UNL     1      24.120 -44.955  11.675  1.00  0.00     0.012 C 
ATOM      8  C   UNL     1      24.069 -47.394  11.046  1.00  0.00     0.012 C 
ENDBRANCH   5   6
ENDBRANCH   3   4
ENDBRANCH   2   3
ENDBRANCH   1   2
BRANCH   1   9
ATOM      9  C   UNL     1      30.627 -45.834  11.898  1.00  0.00     0.100 C 
BRANCH   9  10
ATOM     10  C   UNL     1      29.813 -44.662  11.430  1.00  0.00     0.220 C 
ATOM     11  O   UNL     1      29.882 -43.570  12.058  1.00  0.00    -0.275 OA
ATOM     12  N   UNL     1      29.002 -44.771  10.251  1.00  0.00    -0.352 N 
ATOM     13  H   UNL     1      28.902 -45.702   9.786  1.00  0.00     0.163 HD
BRANCH  12  14
ATOM     14  C   UNL     1      28.470 -43.602   9.557  1.00  0.00     0.151 C 
BRANCH  14  15
ATOM     15  C   UNL     1      27.109 -43.918   8.993  1.00  0.00    -0.025 A 
ATOM     16  C   UNL     1      26.197 -42.884   8.725  1.00  0.00     0.056 A 
ATOM     17  C   UNL     1      26.721 -45.249   8.788  1.00  0.00     0.009 A 
ATOM     18  C   UNL     1      24.908 -43.175   8.231  1.00  0.00     0.160 A 
ATOM     19  C   UNL     1      25.445 -45.544   8.304  1.00  0.00     0.050 A 
ATOM     20  C   UNL     1      24.541 -44.517   8.018  1.00  0.00     0.157 A 
BRANCH  18  21
ATOM     21  O   UNL     1      23.970 -42.164   7.956  1.00  0.00    -0.493 OA
ATOM     22  C   UNL     1      23.089 -41.592   8.916  1.00  0.00     0.278 C 
ENDBRANCH  18  21
BRANCH  20  23
ATOM     23  O   UNL     1      23.277 -44.850   7.526  1.00  0.00    -0.504 OA
ATOM     24  H   UNL     1      22.582 -45.318   8.099  1.00  0.00     0.293 HD
ENDBRANCH  20  23
ENDBRANCH  14  15
ENDBRANCH  12  14
ENDBRANCH   9  10
ENDBRANCH   1   9
TORSDOF 10
ENDMDL
