MODEL 1
REMARK VINA RESULT:    -4.865      0.000      0.000
REMARK INTER + INTRA:          -5.320
REMARK INTER:                  -5.291
REMARK INTRA:                  -0.029
REMARK UNBOUND:                -0.029
REMARK SMILES O=C([O-])c1ccc(O)cc1
REMARK SMILES IDX 4 1 5 2 10 3 6 4 9 5 7 6 2 7 1 8 3 9 8 10
REMARK H PARENT 8 11
REMARK Flexibility Score: inf
ROOT
ATOM      1  C   UNL     1     -28.943  -5.291  -0.535  1.00  0.00    -0.003 A 
ATOM      2  C   UNL     1     -28.213  -5.793  -1.628  1.00  0.00     0.014 A 
ATOM      3  C   UNL     1     -29.387  -6.186   0.457  1.00  0.00     0.014 A 
ATOM      4  C   UNL     1     -27.935  -7.160  -1.727  1.00  0.00     0.047 A 
ATOM      5  C   UNL     1     -29.106  -7.551   0.354  1.00  0.00     0.047 A 
ATOM      6  C   UNL     1     -28.380  -8.042  -0.738  1.00  0.00     0.115 A 
ENDROOT
BRANCH   1   7
ATOM      7  C   UNL     1     -29.241  -3.847  -0.425  1.00  0.00     0.071 C 
ATOM      8  O   UNL     1     -28.781  -3.168   0.531  1.00  0.00    -0.545 OA
ATOM      9  O   UNL     1     -30.035  -3.217  -1.378  1.00  0.00    -0.545 OA
ENDBRANCH   1   7
BRANCH   6  10
ATOM     10  O   UNL     1     -28.094  -9.401  -0.849  1.00  0.00    -0.508 OA
ATOM     11  H   UNL     1     -28.138  -9.880  -1.742  1.00  0.00     0.293 HD
ENDBRANCH   6  10
TORSDOF 2
ENDMDL
MODEL 2
REMARK VINA RESULT:    -4.859     10.593     12.724
REMARK INTER + INTRA:          -5.313
REMARK INTER:                  -5.286
REMARK INTRA:                  -0.028
REMARK UNBOUND:                -0.029
REMARK SMILES O=C([O-])c1ccc(O)cc1
REMARK SMILES IDX 4 1 5 2 10 3 6 4 9 5 7 6 2 7 1 8 3 9 8 10
REMARK H PARENT 8 11
REMARK Flexibility Score: inf
ROOT
ATOM      1  C   UNL     1     -34.547 -16.023   4.564  1.00  0.00    -0.003 A 
ATOM      2  C   UNL     1     -33.665 -16.419   5.586  1.00  0.00     0.014 A 
ATOM      3  C   UNL     1     -34.141 -15.021   3.663  1.00  0.00     0.014 A 
ATOM      4  C   UNL     1     -32.405 -15.824   5.704  1.00  0.00     0.047 A 
ATOM      5  C   UNL     1     -32.880 -14.430   3.784  1.00  0.00     0.047 A 
ATOM      6  C   UNL     1     -32.008 -14.829   4.805  1.00  0.00     0.115 A 
ENDROOT
BRANCH   1   7
ATOM      7  C   UNL     1     -35.882 -16.647   4.435  1.00  0.00     0.071 C 
ATOM      8  O   UNL     1     -36.138 -17.421   3.474  1.00  0.00    -0.545 OA
ATOM      9  O   UNL     1     -36.875 -16.388   5.373  1.00  0.00    -0.545 OA
ENDBRANCH   1   7
BRANCH   6  10
ATOM     10  O   UNL     1     -30.750 -14.247   4.934  1.00  0.00    -0.508 OA
ATOM     11  H   UNL     1     -30.334 -13.711   4.180  1.00  0.00     0.293 HD
ENDBRANCH   6  10
TORSDOF 2
ENDMDL
MODEL 3
REMARK VINA RESULT:    -4.851     10.590     12.666
REMARK INTER + INTRA:          -5.305
REMARK INTER:                  -5.277
REMARK INTRA:                  -0.028
REMARK UNBOUND:                -0.029
REMARK SMILES O=C([O-])c1ccc(O)cc1
REMARK SMILES IDX 4 1 5 2 10 3 6 4 9 5 7 6 2 7 1 8 3 9 8 10
REMARK H PARENT 8 11
REMARK Flexibility Score: inf
ROOT
ATOM      1  C   UNL     1     -34.539 -16.046   4.546  1.00  0.00    -0.003 A 
ATOM      2  C   UNL     1     -34.148 -15.054   3.628  1.00  0.00     0.014 A 
ATOM      3  C   UNL     1     -33.649 -16.415   5.572  1.00  0.00     0.014 A 
ATOM      4  C   UNL     1     -32.892 -14.446   3.734  1.00  0.00     0.047 A 
ATOM      5  C   UNL     1     -32.396 -15.804   5.674  1.00  0.00     0.047 A 
ATOM      6  C   UNL     1     -32.013 -14.819   4.756  1.00  0.00     0.115 A 
ENDROOT
BRANCH   1   7
ATOM      7  C   UNL     1     -35.865 -16.693   4.439  1.00  0.00     0.071 C 
ATOM      8  O   UNL     1     -36.123 -17.469   3.481  1.00  0.00    -0.545 OA
ATOM      9  O   UNL     1     -36.845 -16.453   5.396  1.00  0.00    -0.545 OA
ENDBRANCH   1   7
BRANCH   6  10
ATOM     10  O   UNL     1     -30.768 -14.204   4.849  1.00  0.00    -0.508 OA
ATOM     11  H   UNL     1     -30.012 -14.439   4.215  1.00  0.00     0.293 HD
ENDBRANCH   6  10
TORSDOF 2
ENDMDL
MODEL 4
REMARK VINA RESULT:    -4.826      1.145      4.204
REMARK INTER + INTRA:          -5.277
REMARK INTER:                  -5.244
REMARK INTRA:                  -0.033
REMARK UNBOUND:                -0.029
REMARK SMILES O=C([O-])c1ccc(O)cc1
REMARK SMILES IDX 4 1 5 2 10 3 6 4 9 5 7 6 2 7 1 8 3 9 8 10
REMARK H PARENT 8 11
REMARK Flexibility Score: inf
ROOT
ATOM      1  C   UNL     1     -28.350  -6.804  -1.146  1.00  0.00    -0.003 A 
ATOM      2  C   UNL     1     -28.172  -6.145  -2.377  1.00  0.00     0.014 A 
ATOM      3  C   UNL     1     -29.014  -6.132  -0.103  1.00  0.00     0.014 A 
ATOM      4  C   UNL     1     -28.647  -4.842  -2.558  1.00  0.00     0.047 A 
ATOM      5  C   UNL     1     -29.487  -4.830  -0.288  1.00  0.00     0.047 A 
ATOM      6  C   UNL     1     -29.305  -4.181  -1.516  1.00  0.00     0.115 A 
ENDROOT
BRANCH   1   7
ATOM      7  C   UNL     1     -27.849  -8.181  -0.948  1.00  0.00     0.071 C 
ATOM      8  O   UNL     1     -28.451  -8.978  -0.180  1.00  0.00    -0.545 OA
ATOM      9  O   UNL     1     -26.705  -8.617  -1.608  1.00  0.00    -0.545 OA
ENDBRANCH   1   7
BRANCH   6  10
ATOM     10  O   UNL     1     -29.774  -2.884  -1.712  1.00  0.00    -0.508 OA
ATOM     11  H   UNL     1     -30.423  -2.662  -2.458  1.00  0.00     0.293 HD
ENDBRANCH   6  10
TORSDOF 2
ENDMDL
MODEL 5
REMARK VINA RESULT:    -4.585      2.162      4.048
REMARK INTER + INTRA:          -5.015
REMARK INTER:                  -4.984
REMARK INTRA:                  -0.031
REMARK UNBOUND:                -0.029
REMARK SMILES O=C([O-])c1ccc(O)cc1
REMARK SMILES IDX 4 1 5 2 10 3 6 4 9 5 7 6 2 7 1 8 3 9 8 10
REMARK H PARENT 8 11
REMARK Flexibility Score: inf
ROOT
ATOM      1  C   UNL     1     -29.291  -7.942   0.739  1.00  0.00    -0.003 A 
ATOM      2  C   UNL     1     -28.483  -8.455  -0.292  1.00  0.00     0.014 A 
ATOM      3  C   UNL     1     -29.561  -6.561   0.770  1.00  0.00     0.014 A 
ATOM      4  C   UNL     1     -27.956  -7.605  -1.269  1.00  0.00     0.047 A 
ATOM      5  C   UNL     1     -29.033  -5.715  -0.209  1.00  0.00     0.047 A 
ATOM      6  C   UNL     1     -28.229  -6.234  -1.231  1.00  0.00     0.115 A 
ENDROOT
BRANCH   1   7
ATOM      7  C   UNL     1     -29.850  -8.836   1.776  1.00  0.00     0.071 C 
ATOM      8  O   UNL     1     -29.751  -8.542   2.998  1.00  0.00    -0.545 OA
ATOM      9  O   UNL     1     -30.494 -10.015   1.418  1.00  0.00    -0.545 OA
ENDBRANCH   1   7
BRANCH   6  10
ATOM     10  O   UNL     1     -27.698  -5.400  -2.212  1.00  0.00    -0.508 OA
ATOM     11  H   UNL     1     -27.102  -5.761  -2.949  1.00  0.00     0.293 HD
ENDBRANCH   6  10
TORSDOF 2
ENDMDL
MODEL 6
REMARK VINA RESULT:    -4.547      1.055      1.972
REMARK INTER + INTRA:          -4.975
REMARK INTER:                  -4.939
REMARK INTRA:                  -0.036
REMARK UNBOUND:                -0.029
REMARK SMILES O=C([O-])c1ccc(O)cc1
REMARK SMILES IDX 4 1 5 2 10 3 6 4 9 5 7 6 2 7 1 8 3 9 8 10
REMARK H PARENT 8 11
REMARK Flexibility Score: inf
ROOT
ATOM      1  C   UNL     1     -29.206  -6.025  -0.104  1.00  0.00    -0.003 A 
ATOM      2  C   UNL     1     -29.645  -6.877   0.925  1.00  0.00     0.014 A 
ATOM      3  C   UNL     1     -28.406  -6.555  -1.134  1.00  0.00     0.014 A 
ATOM      4  C   UNL     1     -29.292  -8.230   0.924  1.00  0.00     0.047 A 
ATOM      5  C   UNL     1     -28.055  -7.908  -1.131  1.00  0.00     0.047 A 
ATOM      6  C   UNL     1     -28.497  -8.750  -0.102  1.00  0.00     0.115 A 
ENDROOT
BRANCH   1   7
ATOM      7  C   UNL     1     -29.575  -4.592  -0.109  1.00  0.00     0.071 C 
ATOM      8  O   UNL     1     -29.076  -3.804  -0.955  1.00  0.00    -0.545 OA
ATOM      9  O   UNL     1     -30.481  -4.096   0.823  1.00  0.00    -0.545 OA
ENDBRANCH   1   7
BRANCH   6  10
ATOM     10  O   UNL     1     -28.154 -10.099  -0.090  1.00  0.00    -0.508 OA
ATOM     11  H   UNL     1     -27.562 -10.489   0.635  1.00  0.00     0.293 HD
ENDBRANCH   6  10
TORSDOF 2
ENDMDL
MODEL 7
REMARK VINA RESULT:    -4.536     10.213     12.132
REMARK INTER + INTRA:          -4.962
REMARK INTER:                  -4.926
REMARK INTRA:                  -0.036
REMARK UNBOUND:                -0.029
REMARK SMILES O=C([O-])c1ccc(O)cc1
REMARK SMILES IDX 4 1 5 2 10 3 6 4 9 5 7 6 2 7 1 8 3 9 8 10
REMARK H PARENT 8 11
REMARK Flexibility Score: inf
ROOT
ATOM      1  C   UNL     1     -32.615 -15.196   4.576  1.00  0.00    -0.003 A 
ATOM      2  C   UNL     1     -32.925 -16.093   5.614  1.00  0.00     0.014 A 
ATOM      3  C   UNL     1     -33.620 -14.843   3.656  1.00  0.00     0.014 A 
ATOM      4  C   UNL     1     -34.214 -16.625   5.729  1.00  0.00     0.047 A 
ATOM      5  C   UNL     1     -34.906 -15.377   3.775  1.00  0.00     0.047 A 
ATOM      6  C   UNL     1     -35.207 -16.270   4.811  1.00  0.00     0.115 A 
ENDROOT
BRANCH   1   7
ATOM      7  C   UNL     1     -31.254 -14.630   4.448  1.00  0.00     0.071 C 
ATOM      8  O   UNL     1     -30.980 -13.823   3.520  1.00  0.00    -0.545 OA
ATOM      9  O   UNL     1     -30.257 -14.982   5.352  1.00  0.00    -0.545 OA
ENDBRANCH   1   7
BRANCH   6  10
ATOM     10  O   UNL     1     -36.485 -16.807   4.939  1.00  0.00    -0.508 OA
ATOM     11  H   UNL     1     -36.818 -17.537   4.318  1.00  0.00     0.293 HD
ENDBRANCH   6  10
TORSDOF 2
ENDMDL
MODEL 8
REMARK VINA RESULT:    -4.533      9.164     10.970
REMARK INTER + INTRA:          -4.959
REMARK INTER:                  -4.928
REMARK INTRA:                  -0.030
REMARK UNBOUND:                -0.029
REMARK SMILES O=C([O-])c1ccc(O)cc1
REMARK SMILES IDX 4 1 5 2 10 3 6 4 9 5 7 6 2 7 1 8 3 9 8 10
REMARK H PARENT 8 11
REMARK Flexibility Score: inf
ROOT
ATOM      1  C   UNL     1     -33.008 -14.284   3.377  1.00  0.00    -0.003 A 
ATOM      2  C   UNL     1     -31.985 -14.484   4.322  1.00  0.00     0.014 A 
ATOM      3  C   UNL     1     -34.205 -15.013   3.503  1.00  0.00     0.014 A 
ATOM      4  C   UNL     1     -32.157 -15.395   5.369  1.00  0.00     0.047 A 
ATOM      5  C   UNL     1     -34.372 -15.922   4.551  1.00  0.00     0.047 A 
ATOM      6  C   UNL     1     -33.348 -16.116   5.487  1.00  0.00     0.115 A 
ENDROOT
BRANCH   1   7
ATOM      7  C   UNL     1     -32.832 -13.323   2.266  1.00  0.00     0.071 C 
ATOM      8  O   UNL     1     -31.817 -13.381   1.523  1.00  0.00    -0.545 OA
ATOM      9  O   UNL     1     -33.787 -12.340   2.027  1.00  0.00    -0.545 OA
ENDBRANCH   1   7
BRANCH   6  10
ATOM     10  O   UNL     1     -33.505 -17.019   6.536  1.00  0.00    -0.508 OA
ATOM     11  H   UNL     1     -33.930 -16.742   7.414  1.00  0.00     0.293 HD
ENDBRANCH   6  10
TORSDOF 2
ENDMDL
MODEL 9
REMARK VINA RESULT:    -4.405      5.636      7.481
REMARK INTER + INTRA:          -4.820
REMARK INTER:                  -4.784
REMARK INTRA:                  -0.036
REMARK UNBOUND:                -0.029
REMARK SMILES O=C([O-])c1ccc(O)cc1
REMARK SMILES IDX 4 1 5 2 10 3 6 4 9 5 7 6 2 7 1 8 3 9 8 10
REMARK H PARENT 8 11
REMARK Flexibility Score: inf
ROOT
ATOM      1  C   UNL     1     -31.792 -11.102   1.701  1.00  0.00    -0.003 A 
ATOM      2  C   UNL     1     -33.187 -10.914   1.692  1.00  0.00     0.014 A 
ATOM      3  C   UNL     1     -30.973 -10.100   2.253  1.00  0.00     0.014 A 
ATOM      4  C   UNL     1     -33.748  -9.748   2.221  1.00  0.00     0.047 A 
ATOM      5  C   UNL     1     -31.538  -8.936   2.781  1.00  0.00     0.047 A 
ATOM      6  C   UNL     1     -32.927  -8.756   2.767  1.00  0.00     0.115 A 
ENDROOT
BRANCH   1   7
ATOM      7  C   UNL     1     -31.193 -12.334   1.142  1.00  0.00     0.071 C 
ATOM      8  O   UNL     1     -29.949 -12.528   1.208  1.00  0.00    -0.545 OA
ATOM      9  O   UNL     1     -31.994 -13.294   0.534  1.00  0.00    -0.545 OA
ENDBRANCH   1   7
BRANCH   6  10
ATOM     10  O   UNL     1     -33.500  -7.601   3.291  1.00  0.00    -0.508 OA
ATOM     11  H   UNL     1     -33.144  -6.680   3.059  1.00  0.00     0.293 HD
ENDBRANCH   6  10
TORSDOF 2
ENDMDL
