MODEL 1
REMARK VINA RESULT:    -3.572      0.000      0.000
REMARK INTER + INTRA:          -8.796
REMARK INTER:                  -6.078
REMARK INTRA:                  -2.719
REMARK UNBOUND:                -2.719
REMARK SMILES CC(=O)CCC[C@H](C)CCC[C@@H](C)CCCC(C)C
REMARK SMILES IDX 10 1 11 2 12 3 13 4 14 5 15 6 16 7 17 8 18 9 19 10 9 11 7 12
REMARK SMILES IDX 8 13 6 14 5 15 4 16 2 17 3 18 1 19
REMARK H PARENT
REMARK Flexibility Score: inf
ROOT
ATOM      1  C   UNL     1     168.166 165.792 169.344  1.00  0.00     0.001 C 
ENDROOT
BRANCH   1   2
ATOM      2  C   UNL     1     168.151 165.621 170.875  1.00  0.00     0.003 C 
BRANCH   2   3
ATOM      3  C   UNL     1     167.902 166.959 171.617  1.00  0.00    -0.014 C 
ATOM      4  C   UNL     1     166.587 166.907 172.420  1.00  0.00     0.007 C 
BRANCH   3   5
ATOM      5  C   UNL     1     169.109 167.277 172.538  1.00  0.00     0.003 C 
BRANCH   5   6
ATOM      6  C   UNL     1     169.942 168.509 172.132  1.00  0.00     0.001 C 
BRANCH   6   7
ATOM      7  C   UNL     1     169.714 168.930 170.666  1.00  0.00     0.003 C 
BRANCH   7   8
ATOM      8  C   UNL     1     170.856 168.536 169.700  1.00  0.00    -0.017 C 
ATOM      9  C   UNL     1     172.079 169.456 169.829  1.00  0.00     0.007 C 
ATOM     10  C   UNL     1     170.387 168.446 168.241  1.00  0.00     0.007 C 
ENDBRANCH   7   8
ENDBRANCH   6   7
ENDBRANCH   5   6
ENDBRANCH   3   5
ENDBRANCH   2   3
ENDBRANCH   1   2
BRANCH   1  11
ATOM     11  C   UNL     1     166.837 165.393 168.676  1.00  0.00     0.003 C 
BRANCH  11  12
ATOM     12  C   UNL     1     165.947 166.565 168.185  1.00  0.00    -0.014 C 
ATOM     13  C   UNL     1     164.693 166.640 169.074  1.00  0.00     0.007 C 
BRANCH  12  14
ATOM     14  C   UNL     1     166.721 167.908 168.175  1.00  0.00     0.004 C 
BRANCH  14  15
ATOM     15  C   UNL     1     166.189 168.927 169.197  1.00  0.00     0.008 C 
BRANCH  15  16
ATOM     16  C   UNL     1     166.707 170.340 168.895  1.00  0.00     0.075 C 
BRANCH  16  17
ATOM     17  C   UNL     1     166.388 171.280 170.029  1.00  0.00     0.129 C 
ATOM     18  O   UNL     1     165.958 172.395 169.784  1.00  0.00    -0.300 OA
ATOM     19  C   UNL     1     166.586 170.871 171.461  1.00  0.00     0.087 C 
ENDBRANCH  16  17
ENDBRANCH  15  16
ENDBRANCH  14  15
ENDBRANCH  12  14
ENDBRANCH  11  12
ENDBRANCH   1  11
TORSDOF 12
ENDMDL
MODEL 2
REMARK VINA RESULT:    -3.512      2.667      4.537
REMARK INTER + INTRA:          -8.695
REMARK INTER:                  -6.683
REMARK INTRA:                  -2.011
REMARK UNBOUND:                -2.719
REMARK SMILES CC(=O)CCC[C@H](C)CCC[C@@H](C)CCCC(C)C
REMARK SMILES IDX 10 1 11 2 12 3 13 4 14 5 15 6 16 7 17 8 18 9 19 10 9 11 7 12
REMARK SMILES IDX 8 13 6 14 5 15 4 16 2 17 3 18 1 19
REMARK H PARENT
REMARK Flexibility Score: inf
ROOT
ATOM      1  C   UNL     1     166.501 168.486 170.711  1.00  0.00     0.001 C 
ENDROOT
BRANCH   1   2
ATOM      2  C   UNL     1     167.626 169.468 170.335  1.00  0.00     0.003 C 
BRANCH   2   3
ATOM      3  C   UNL     1     167.808 169.598 168.801  1.00  0.00    -0.014 C 
ATOM      4  C   UNL     1     167.375 170.994 168.312  1.00  0.00     0.007 C 
BRANCH   3   5
ATOM      5  C   UNL     1     169.285 169.307 168.425  1.00  0.00     0.003 C 
BRANCH   5   6
ATOM      6  C   UNL     1     170.110 168.582 169.506  1.00  0.00     0.001 C 
BRANCH   6   7
ATOM      7  C   UNL     1     171.549 169.125 169.628  1.00  0.00     0.003 C 
BRANCH   7   8
ATOM      8  C   UNL     1     172.115 169.124 171.068  1.00  0.00    -0.017 C 
ATOM      9  C   UNL     1     171.023 168.924 172.129  1.00  0.00     0.007 C 
ATOM     10  C   UNL     1     172.953 170.374 171.371  1.00  0.00     0.007 C 
ENDBRANCH   7   8
ENDBRANCH   6   7
ENDBRANCH   5   6
ENDBRANCH   3   5
ENDBRANCH   2   3
ENDBRANCH   1   2
BRANCH   1  11
ATOM     11  C   UNL     1     165.701 167.983 169.494  1.00  0.00     0.003 C 
BRANCH  11  12
ATOM     12  C   UNL     1     165.428 166.457 169.446  1.00  0.00    -0.014 C 
ATOM     13  C   UNL     1     163.909 166.224 169.504  1.00  0.00     0.007 C 
BRANCH  12  14
ATOM     14  C   UNL     1     166.060 165.800 168.192  1.00  0.00     0.004 C 
BRANCH  14  15
ATOM     15  C   UNL     1     167.595 165.891 168.164  1.00  0.00     0.008 C 
BRANCH  15  16
ATOM     16  C   UNL     1     168.236 164.501 168.269  1.00  0.00     0.075 C 
BRANCH  16  17
ATOM     17  C   UNL     1     168.858 164.301 169.628  1.00  0.00     0.129 C 
ATOM     18  O   UNL     1     169.519 163.299 169.846  1.00  0.00    -0.300 OA
ATOM     19  C   UNL     1     168.683 165.314 170.723  1.00  0.00     0.087 C 
ENDBRANCH  16  17
ENDBRANCH  15  16
ENDBRANCH  14  15
ENDBRANCH  12  14
ENDBRANCH  11  12
ENDBRANCH   1  11
TORSDOF 12
ENDMDL
MODEL 3
REMARK VINA RESULT:    -3.503      2.250      4.199
REMARK INTER + INTRA:          -8.680
REMARK INTER:                  -5.944
REMARK INTRA:                  -2.735
REMARK UNBOUND:                -2.719
REMARK SMILES CC(=O)CCC[C@H](C)CCC[C@@H](C)CCCC(C)C
REMARK SMILES IDX 10 1 11 2 12 3 13 4 14 5 15 6 16 7 17 8 18 9 19 10 9 11 7 12
REMARK SMILES IDX 8 13 6 14 5 15 4 16 2 17 3 18 1 19
REMARK H PARENT
REMARK Flexibility Score: inf
ROOT
ATOM      1  C   UNL     1     169.000 167.656 167.967  1.00  0.00     0.001 C 
ENDROOT
BRANCH   1   2
ATOM      2  C   UNL     1     169.461 166.432 168.780  1.00  0.00     0.003 C 
BRANCH   2   3
ATOM      3  C   UNL     1     168.287 165.485 169.140  1.00  0.00    -0.014 C 
ATOM      4  C   UNL     1     168.266 164.256 168.211  1.00  0.00     0.007 C 
BRANCH   3   5
ATOM      5  C   UNL     1     168.397 165.061 170.628  1.00  0.00     0.003 C 
BRANCH   5   6
ATOM      6  C   UNL     1     168.812 166.180 171.604  1.00  0.00     0.001 C 
BRANCH   6   7
ATOM      7  C   UNL     1     167.621 167.044 172.068  1.00  0.00     0.003 C 
BRANCH   7   8
ATOM      8  C   UNL     1     168.019 168.333 172.825  1.00  0.00    -0.017 C 
ATOM      9  C   UNL     1     166.973 169.447 172.676  1.00  0.00     0.007 C 
ATOM     10  C   UNL     1     169.417 168.836 172.436  1.00  0.00     0.007 C 
ENDBRANCH   7   8
ENDBRANCH   6   7
ENDBRANCH   5   6
ENDBRANCH   3   5
ENDBRANCH   2   3
ENDBRANCH   1   2
BRANCH   1  11
ATOM     11  C   UNL     1     168.884 168.938 168.814  1.00  0.00     0.003 C 
BRANCH  11  12
ATOM     12  C   UNL     1     167.444 169.461 169.058  1.00  0.00    -0.014 C 
ATOM     13  C   UNL     1     167.314 170.862 168.435  1.00  0.00     0.007 C 
BRANCH  12  14
ATOM     14  C   UNL     1     166.377 168.486 168.500  1.00  0.00     0.004 C 
BRANCH  14  15
ATOM     15  C   UNL     1     165.425 167.940 169.578  1.00  0.00     0.008 C 
BRANCH  15  16
ATOM     16  C   UNL     1     164.790 166.614 169.139  1.00  0.00     0.075 C 
BRANCH  16  17
ATOM     17  C   UNL     1     163.729 166.180 170.118  1.00  0.00     0.129 C 
ATOM     18  O   UNL     1     162.678 165.721 169.701  1.00  0.00    -0.300 OA
ATOM     19  C   UNL     1     163.939 166.299 171.600  1.00  0.00     0.087 C 
ENDBRANCH  16  17
ENDBRANCH  15  16
ENDBRANCH  14  15
ENDBRANCH  12  14
ENDBRANCH  11  12
ENDBRANCH   1  11
TORSDOF 12
ENDMDL
MODEL 4
REMARK VINA RESULT:    -3.384      2.293      4.785
REMARK INTER + INTRA:          -8.476
REMARK INTER:                  -6.669
REMARK INTRA:                  -1.808
REMARK UNBOUND:                -2.719
REMARK SMILES CC(=O)CCC[C@H](C)CCC[C@@H](C)CCCC(C)C
REMARK SMILES IDX 10 1 11 2 12 3 13 4 14 5 15 6 16 7 17 8 18 9 19 10 9 11 7 12
REMARK SMILES IDX 8 13 6 14 5 15 4 16 2 17 3 18 1 19
REMARK H PARENT
REMARK Flexibility Score: inf
ROOT
ATOM      1  C   UNL     1     169.423 167.533 168.879  1.00  0.00     0.001 C 
ENDROOT
BRANCH   1   2
ATOM      2  C   UNL     1     169.303 168.884 168.147  1.00  0.00     0.003 C 
BRANCH   2   3
ATOM      3  C   UNL     1     168.252 169.818 168.800  1.00  0.00    -0.014 C 
ATOM      4  C   UNL     1     166.931 169.800 168.006  1.00  0.00     0.007 C 
BRANCH   3   5
ATOM      5  C   UNL     1     168.024 169.396 170.275  1.00  0.00     0.003 C 
BRANCH   5   6
ATOM      6  C   UNL     1     166.860 170.106 170.992  1.00  0.00     0.001 C 
BRANCH   6   7
ATOM      7  C   UNL     1     167.130 170.335 172.494  1.00  0.00     0.003 C 
BRANCH   7   8
ATOM      8  C   UNL     1     166.254 171.432 173.143  1.00  0.00    -0.017 C 
ATOM      9  C   UNL     1     165.163 170.849 174.054  1.00  0.00     0.007 C 
ATOM     10  C   UNL     1     165.650 172.392 172.109  1.00  0.00     0.007 C 
ENDBRANCH   7   8
ENDBRANCH   6   7
ENDBRANCH   5   6
ENDBRANCH   3   5
ENDBRANCH   2   3
ENDBRANCH   1   2
BRANCH   1  11
ATOM     11  C   UNL     1     169.032 166.330 168.000  1.00  0.00     0.003 C 
BRANCH  11  12
ATOM     12  C   UNL     1     167.871 165.450 168.535  1.00  0.00    -0.014 C 
ATOM     13  C   UNL     1     168.289 163.972 168.446  1.00  0.00     0.007 C 
BRANCH  12  14
ATOM     14  C   UNL     1     167.470 165.845 169.979  1.00  0.00     0.004 C 
BRANCH  14  15
ATOM     15  C   UNL     1     166.091 166.521 170.066  1.00  0.00     0.008 C 
BRANCH  15  16
ATOM     16  C   UNL     1     165.367 166.482 168.713  1.00  0.00     0.075 C 
BRANCH  16  17
ATOM     17  C   UNL     1     163.875 166.573 168.903  1.00  0.00     0.129 C 
ATOM     18  O   UNL     1     163.213 167.266 168.147  1.00  0.00    -0.300 OA
ATOM     19  C   UNL     1     163.181 165.826 170.006  1.00  0.00     0.087 C 
ENDBRANCH  16  17
ENDBRANCH  15  16
ENDBRANCH  14  15
ENDBRANCH  12  14
ENDBRANCH  11  12
ENDBRANCH   1  11
TORSDOF 12
ENDMDL
MODEL 5
REMARK VINA RESULT:    -3.341      2.585      4.286
REMARK INTER + INTRA:          -8.403
REMARK INTER:                  -6.155
REMARK INTRA:                  -2.248
REMARK UNBOUND:                -2.719
REMARK SMILES CC(=O)CCC[C@H](C)CCC[C@@H](C)CCCC(C)C
REMARK SMILES IDX 10 1 11 2 12 3 13 4 14 5 15 6 16 7 17 8 18 9 19 10 9 11 7 12
REMARK SMILES IDX 8 13 6 14 5 15 4 16 2 17 3 18 1 19
REMARK H PARENT
REMARK Flexibility Score: inf
ROOT
ATOM      1  C   UNL     1     167.092 169.836 169.522  1.00  0.00     0.001 C 
ENDROOT
BRANCH   1   2
ATOM      2  C   UNL     1     166.534 169.641 170.945  1.00  0.00     0.003 C 
BRANCH   2   3
ATOM      3  C   UNL     1     167.654 169.424 171.995  1.00  0.00    -0.014 C 
ATOM      4  C   UNL     1     167.317 170.142 173.316  1.00  0.00     0.007 C 
BRANCH   3   5
ATOM      5  C   UNL     1     167.870 167.905 172.221  1.00  0.00     0.003 C 
BRANCH   5   6
ATOM      6  C   UNL     1     169.288 167.386 171.913  1.00  0.00     0.001 C 
BRANCH   6   7
ATOM      7  C   UNL     1     169.932 168.086 170.699  1.00  0.00     0.003 C 
BRANCH   7   8
ATOM      8  C   UNL     1     171.051 169.093 171.057  1.00  0.00    -0.017 C 
ATOM      9  C   UNL     1     172.037 169.311 169.900  1.00  0.00     0.007 C 
ATOM     10  C   UNL     1     171.792 168.714 172.347  1.00  0.00     0.007 C 
ENDBRANCH   7   8
ENDBRANCH   6   7
ENDBRANCH   5   6
ENDBRANCH   3   5
ENDBRANCH   2   3
ENDBRANCH   1   2
BRANCH   1  11
ATOM     11  C   UNL     1     166.668 168.722 168.546  1.00  0.00     0.003 C 
BRANCH  11  12
ATOM     12  C   UNL     1     165.874 167.543 169.167  1.00  0.00    -0.014 C 
ATOM     13  C   UNL     1     164.546 167.386 168.407  1.00  0.00     0.007 C 
BRANCH  12  14
ATOM     14  C   UNL     1     166.696 166.229 169.158  1.00  0.00     0.004 C 
BRANCH  14  15
ATOM     15  C   UNL     1     167.654 166.116 167.960  1.00  0.00     0.008 C 
BRANCH  15  16
ATOM     16  C   UNL     1     168.977 165.453 168.367  1.00  0.00     0.075 C 
BRANCH  16  17
ATOM     17  C   UNL     1     168.736 164.061 168.894  1.00  0.00     0.129 C 
ATOM     18  O   UNL     1     168.236 163.220 168.165  1.00  0.00    -0.300 OA
ATOM     19  C   UNL     1     169.101 163.685 170.301  1.00  0.00     0.087 C 
ENDBRANCH  16  17
ENDBRANCH  15  16
ENDBRANCH  14  15
ENDBRANCH  12  14
ENDBRANCH  11  12
ENDBRANCH   1  11
TORSDOF 12
ENDMDL
MODEL 6
REMARK VINA RESULT:    -3.305      1.736      3.739
REMARK INTER + INTRA:          -8.342
REMARK INTER:                  -5.740
REMARK INTRA:                  -2.601
REMARK UNBOUND:                -2.719
REMARK SMILES CC(=O)CCC[C@H](C)CCC[C@@H](C)CCCC(C)C
REMARK SMILES IDX 10 1 11 2 12 3 13 4 14 5 15 6 16 7 17 8 18 9 19 10 9 11 7 12
REMARK SMILES IDX 8 13 6 14 5 15 4 16 2 17 3 18 1 19
REMARK H PARENT
REMARK Flexibility Score: inf
ROOT
ATOM      1  C   UNL     1     166.396 169.356 172.840  1.00  0.00     0.001 C 
ENDROOT
BRANCH   1   2
ATOM      2  C   UNL     1     166.007 167.986 172.253  1.00  0.00     0.003 C 
BRANCH   2   3
ATOM      3  C   UNL     1     166.970 166.856 172.699  1.00  0.00    -0.014 C 
ATOM      4  C   UNL     1     166.264 165.877 173.657  1.00  0.00     0.007 C 
BRANCH   3   5
ATOM      5  C   UNL     1     167.522 166.118 171.451  1.00  0.00     0.003 C 
BRANCH   5   6
ATOM      6  C   UNL     1     168.769 166.754 170.807  1.00  0.00     0.001 C 
BRANCH   6   7
ATOM      7  C   UNL     1     169.692 167.440 171.835  1.00  0.00     0.003 C 
BRANCH   7   8
ATOM      8  C   UNL     1     170.395 168.716 171.315  1.00  0.00    -0.017 C 
ATOM      9  C   UNL     1     170.783 168.611 169.833  1.00  0.00     0.007 C 
ATOM     10  C   UNL     1     171.606 169.111 172.173  1.00  0.00     0.007 C 
ENDBRANCH   7   8
ENDBRANCH   6   7
ENDBRANCH   5   6
ENDBRANCH   3   5
ENDBRANCH   2   3
ENDBRANCH   1   2
BRANCH   1  11
ATOM     11  C   UNL     1     167.158 170.249 171.843  1.00  0.00     0.003 C 
BRANCH  11  12
ATOM     12  C   UNL     1     166.479 170.459 170.465  1.00  0.00    -0.014 C 
ATOM     13  C   UNL     1     166.057 171.933 170.340  1.00  0.00     0.007 C 
BRANCH  12  14
ATOM     14  C   UNL     1     167.403 170.028 169.298  1.00  0.00     0.004 C 
BRANCH  14  15
ATOM     15  C   UNL     1     166.873 168.815 168.515  1.00  0.00     0.008 C 
BRANCH  15  16
ATOM     16  C   UNL     1     165.347 168.877 168.360  1.00  0.00     0.075 C 
BRANCH  16  17
ATOM     17  C   UNL     1     164.766 167.492 168.236  1.00  0.00     0.129 C 
ATOM     18  O   UNL     1     163.574 167.357 168.015  1.00  0.00    -0.300 OA
ATOM     19  C   UNL     1     165.626 166.269 168.376  1.00  0.00     0.087 C 
ENDBRANCH  16  17
ENDBRANCH  15  16
ENDBRANCH  14  15
ENDBRANCH  12  14
ENDBRANCH  11  12
ENDBRANCH   1  11
TORSDOF 12
ENDMDL
MODEL 7
REMARK VINA RESULT:    -3.288      3.264      5.584
REMARK INTER + INTRA:          -8.314
REMARK INTER:                  -6.171
REMARK INTRA:                  -2.143
REMARK UNBOUND:                -2.719
REMARK SMILES CC(=O)CCC[C@H](C)CCC[C@@H](C)CCCC(C)C
REMARK SMILES IDX 10 1 11 2 12 3 13 4 14 5 15 6 16 7 17 8 18 9 19 10 9 11 7 12
REMARK SMILES IDX 8 13 6 14 5 15 4 16 2 17 3 18 1 19
REMARK H PARENT
REMARK Flexibility Score: inf
ROOT
ATOM      1  C   UNL     1     169.967 167.242 168.368  1.00  0.00     0.001 C 
ENDROOT
BRANCH   1   2
ATOM      2  C   UNL     1     170.222 168.628 168.991  1.00  0.00     0.003 C 
BRANCH   2   3
ATOM      3  C   UNL     1     171.082 168.549 170.278  1.00  0.00    -0.014 C 
ATOM      4  C   UNL     1     172.261 169.539 170.214  1.00  0.00     0.007 C 
BRANCH   3   5
ATOM      5  C   UNL     1     170.189 168.820 171.518  1.00  0.00     0.003 C 
BRANCH   5   6
ATOM      6  C   UNL     1     169.277 167.652 171.942  1.00  0.00     0.001 C 
BRANCH   6   7
ATOM      7  C   UNL     1     167.778 167.966 171.760  1.00  0.00     0.003 C 
BRANCH   7   8
ATOM      8  C   UNL     1     167.469 169.436 171.389  1.00  0.00    -0.017 C 
ATOM      9  C   UNL     1     166.748 170.187 172.518  1.00  0.00     0.007 C 
ATOM     10  C   UNL     1     166.698 169.559 170.067  1.00  0.00     0.007 C 
ENDBRANCH   7   8
ENDBRANCH   6   7
ENDBRANCH   5   6
ENDBRANCH   3   5
ENDBRANCH   2   3
ENDBRANCH   1   2
BRANCH   1  11
ATOM     11  C   UNL     1     168.520 167.054 167.877  1.00  0.00     0.003 C 
BRANCH  11  12
ATOM     12  C   UNL     1     167.613 166.163 168.766  1.00  0.00    -0.014 C 
ATOM     13  C   UNL     1     166.162 166.279 168.267  1.00  0.00     0.007 C 
BRANCH  12  14
ATOM     14  C   UNL     1     168.095 164.690 168.783  1.00  0.00     0.004 C 
BRANCH  14  15
ATOM     15  C   UNL     1     168.882 164.320 170.051  1.00  0.00     0.008 C 
BRANCH  15  16
ATOM     16  C   UNL     1     169.718 163.050 169.836  1.00  0.00     0.075 C 
BRANCH  16  17
ATOM     17  C   UNL     1     170.001 162.368 171.150  1.00  0.00     0.129 C 
ATOM     18  O   UNL     1     170.531 161.269 171.155  1.00  0.00    -0.300 OA
ATOM     19  C   UNL     1     169.645 163.015 172.457  1.00  0.00     0.087 C 
ENDBRANCH  16  17
ENDBRANCH  15  16
ENDBRANCH  14  15
ENDBRANCH  12  14
ENDBRANCH  11  12
ENDBRANCH   1  11
TORSDOF 12
ENDMDL
MODEL 8
REMARK VINA RESULT:    -3.254      2.526      4.916
REMARK INTER + INTRA:          -8.255
REMARK INTER:                  -6.078
REMARK INTRA:                  -2.176
REMARK UNBOUND:                -2.719
REMARK SMILES CC(=O)CCC[C@H](C)CCC[C@@H](C)CCCC(C)C
REMARK SMILES IDX 10 1 11 2 12 3 13 4 14 5 15 6 16 7 17 8 18 9 19 10 9 11 7 12
REMARK SMILES IDX 8 13 6 14 5 15 4 16 2 17 3 18 1 19
REMARK H PARENT
REMARK Flexibility Score: inf
ROOT
ATOM      1  C   UNL     1     169.714 167.535 169.198  1.00  0.00     0.001 C 
ENDROOT
BRANCH   1   2
ATOM      2  C   UNL     1     169.410 166.379 168.227  1.00  0.00     0.003 C 
BRANCH   2   3
ATOM      3  C   UNL     1     168.249 165.479 168.724  1.00  0.00    -0.014 C 
ATOM      4  C   UNL     1     166.957 165.759 167.932  1.00  0.00     0.007 C 
BRANCH   3   5
ATOM      5  C   UNL     1     168.662 163.987 168.613  1.00  0.00     0.003 C 
BRANCH   5   6
ATOM      6  C   UNL     1     169.145 163.337 169.924  1.00  0.00     0.001 C 
BRANCH   6   7
ATOM      7  C   UNL     1     168.896 164.224 171.161  1.00  0.00     0.003 C 
BRANCH   7   8
ATOM      8  C   UNL     1     169.486 163.668 172.478  1.00  0.00    -0.017 C 
ATOM      9  C   UNL     1     170.344 162.414 172.254  1.00  0.00     0.007 C 
ATOM     10  C   UNL     1     168.411 163.415 173.544  1.00  0.00     0.007 C 
ENDBRANCH   7   8
ENDBRANCH   6   7
ENDBRANCH   5   6
ENDBRANCH   3   5
ENDBRANCH   2   3
ENDBRANCH   1   2
BRANCH   1  11
ATOM     11  C   UNL     1     169.009 168.850 168.816  1.00  0.00     0.003 C 
BRANCH  11  12
ATOM     12  C   UNL     1     167.876 169.314 169.769  1.00  0.00    -0.014 C 
ATOM     13  C   UNL     1     166.556 169.369 168.980  1.00  0.00     0.007 C 
BRANCH  12  14
ATOM     14  C   UNL     1     167.761 168.395 171.013  1.00  0.00     0.004 C 
BRANCH  14  15
ATOM     15  C   UNL     1     166.310 168.168 171.471  1.00  0.00     0.008 C 
BRANCH  15  16
ATOM     16  C   UNL     1     165.944 166.678 171.437  1.00  0.00     0.075 C 
BRANCH  16  17
ATOM     17  C   UNL     1     164.460 166.497 171.245  1.00  0.00     0.129 C 
ATOM     18  O   UNL     1     163.717 166.547 172.212  1.00  0.00    -0.300 OA
ATOM     19  C   UNL     1     163.872 166.258 169.884  1.00  0.00     0.087 C 
ENDBRANCH  16  17
ENDBRANCH  15  16
ENDBRANCH  14  15
ENDBRANCH  12  14
ENDBRANCH  11  12
ENDBRANCH   1  11
TORSDOF 12
ENDMDL
