MODEL 1
REMARK VINA RESULT:    -4.122      0.000      0.000
REMARK INTER + INTRA:          -5.739
REMARK INTER:                  -5.568
REMARK INTRA:                  -0.171
REMARK UNBOUND:                -0.171
REMARK SMILES CCCCCCCC(=O)[O-]
REMARK SMILES IDX 5 1 6 2 7 3 8 4 9 5 10 6 4 7 3 8 2 9 1 10
REMARK H PARENT
REMARK Flexibility Score: inf
ROOT
ATOM      1  C   UNL     1       2.930  -4.768  -6.854  1.00  0.00     0.000 C 
ENDROOT
BRANCH   1   2
ATOM      2  C   UNL     1       4.135  -5.595  -6.377  1.00  0.00     0.006 C 
BRANCH   2   3
ATOM      3  C   UNL     1       3.786  -6.529  -5.212  1.00  0.00     0.053 C 
BRANCH   3   4
ATOM      4  C   UNL     1       5.014  -6.866  -4.429  1.00  0.00     0.041 C 
ATOM      5  O   UNL     1       6.068  -6.192  -4.579  1.00  0.00    -0.550 OA
ATOM      6  O   UNL     1       4.983  -7.894  -3.494  1.00  0.00    -0.550 OA
ENDBRANCH   3   4
ENDBRANCH   2   3
ENDBRANCH   1   2
BRANCH   1   7
ATOM      7  C   UNL     1       3.343  -3.453  -7.531  1.00  0.00     0.000 C 
BRANCH   7   8
ATOM      8  C   UNL     1       2.115  -2.601  -7.872  1.00  0.00    -0.000 C 
BRANCH   8   9
ATOM      9  C   UNL     1       0.986  -3.467  -8.445  1.00  0.00    -0.003 C 
ATOM     10  C   UNL     1       0.053  -2.643  -9.328  1.00  0.00     0.004 C 
ENDBRANCH   8   9
ENDBRANCH   7   8
ENDBRANCH   1   7
TORSDOF 6
ENDMDL
MODEL 2
REMARK VINA RESULT:    -3.959      1.355      2.083
REMARK INTER + INTRA:          -5.518
REMARK INTER:                  -5.317
REMARK INTRA:                  -0.201
REMARK UNBOUND:                -0.171
REMARK SMILES CCCCCCCC(=O)[O-]
REMARK SMILES IDX 5 1 6 2 7 3 8 4 9 5 10 6 4 7 3 8 2 9 1 10
REMARK H PARENT
REMARK Flexibility Score: inf
ROOT
ATOM      1  C   UNL     1       3.098  -6.216  -6.379  1.00  0.00     0.000 C 
ENDROOT
BRANCH   1   2
ATOM      2  C   UNL     1       3.643  -6.338  -4.947  1.00  0.00     0.006 C 
BRANCH   2   3
ATOM      3  C   UNL     1       5.164  -6.531  -4.909  1.00  0.00     0.053 C 
BRANCH   3   4
ATOM      4  C   UNL     1       5.506  -7.865  -4.325  1.00  0.00     0.041 C 
ATOM      5  O   UNL     1       4.597  -8.614  -3.879  1.00  0.00    -0.550 OA
ATOM      6  O   UNL     1       6.824  -8.304  -4.318  1.00  0.00    -0.550 OA
ENDBRANCH   3   4
ENDBRANCH   2   3
ENDBRANCH   1   2
BRANCH   1   7
ATOM      7  C   UNL     1       3.352  -4.832  -6.993  1.00  0.00     0.000 C 
BRANCH   7   8
ATOM      8  C   UNL     1       2.032  -4.126  -7.322  1.00  0.00    -0.000 C 
BRANCH   8   9
ATOM      9  C   UNL     1       2.279  -2.837  -8.115  1.00  0.00    -0.003 C 
ATOM     10  C   UNL     1       3.761  -2.472  -8.128  1.00  0.00     0.004 C 
ENDBRANCH   8   9
ENDBRANCH   7   8
ENDBRANCH   1   7
TORSDOF 6
ENDMDL
MODEL 3
REMARK VINA RESULT:    -3.735     11.582     13.312
REMARK INTER + INTRA:          -5.216
REMARK INTER:                  -4.954
REMARK INTRA:                  -0.262
REMARK UNBOUND:                -0.171
REMARK SMILES CCCCCCCC(=O)[O-]
REMARK SMILES IDX 5 1 6 2 7 3 8 4 9 5 10 6 4 7 3 8 2 9 1 10
REMARK H PARENT
REMARK Flexibility Score: inf
ROOT
ATOM      1  C   UNL     1       7.606   8.083  -7.799  1.00  0.00     0.000 C 
ENDROOT
BRANCH   1   2
ATOM      2  C   UNL     1       6.155   8.023  -8.302  1.00  0.00     0.006 C 
BRANCH   2   3
ATOM      3  C   UNL     1       5.965   7.010  -9.438  1.00  0.00     0.053 C 
BRANCH   3   4
ATOM      4  C   UNL     1       5.068   5.897  -8.999  1.00  0.00     0.041 C 
ATOM      5  O   UNL     1       3.873   5.850  -9.398  1.00  0.00    -0.550 OA
ATOM      6  O   UNL     1       5.562   4.882  -8.189  1.00  0.00    -0.550 OA
ENDBRANCH   3   4
ENDBRANCH   2   3
ENDBRANCH   1   2
BRANCH   1   7
ATOM      7  C   UNL     1       7.706   8.023  -6.268  1.00  0.00     0.000 C 
BRANCH   7   8
ATOM      8  C   UNL     1       6.329   8.212  -5.620  1.00  0.00    -0.000 C 
BRANCH   8   9
ATOM      9  C   UNL     1       6.447   8.300  -4.093  1.00  0.00    -0.003 C 
ATOM     10  C   UNL     1       5.607   7.223  -3.412  1.00  0.00     0.004 C 
ENDBRANCH   8   9
ENDBRANCH   7   8
ENDBRANCH   1   7
TORSDOF 6
ENDMDL
MODEL 4
REMARK VINA RESULT:    -3.622      3.285      5.862
REMARK INTER + INTRA:          -5.064
REMARK INTER:                  -4.784
REMARK INTRA:                  -0.279
REMARK UNBOUND:                -0.171
REMARK SMILES CCCCCCCC(=O)[O-]
REMARK SMILES IDX 5 1 6 2 7 3 8 4 9 5 10 6 4 7 3 8 2 9 1 10
REMARK H PARENT
REMARK Flexibility Score: inf
ROOT
ATOM      1  C   UNL     1       4.365  -6.128  -6.908  1.00  0.00     0.000 C 
ENDROOT
BRANCH   1   2
ATOM      2  C   UNL     1       3.900  -4.824  -7.576  1.00  0.00     0.006 C 
BRANCH   2   3
ATOM      3  C   UNL     1       2.510  -4.381  -7.102  1.00  0.00     0.053 C 
BRANCH   3   4
ATOM      4  C   UNL     1       2.058  -3.177  -7.864  1.00  0.00     0.041 C 
ATOM      5  O   UNL     1       2.891  -2.301  -8.219  1.00  0.00    -0.550 OA
ATOM      6  O   UNL     1       0.723  -3.043  -8.227  1.00  0.00    -0.550 OA
ENDBRANCH   3   4
ENDBRANCH   2   3
ENDBRANCH   1   2
BRANCH   1   7
ATOM      7  C   UNL     1       3.693  -6.370  -5.548  1.00  0.00     0.000 C 
BRANCH   7   8
ATOM      8  C   UNL     1       4.651  -7.074  -4.580  1.00  0.00    -0.000 C 
BRANCH   8   9
ATOM      9  C   UNL     1       6.006  -6.358  -4.527  1.00  0.00    -0.003 C 
ATOM     10  C   UNL     1       7.150  -7.318  -4.839  1.00  0.00     0.004 C 
ENDBRANCH   8   9
ENDBRANCH   7   8
ENDBRANCH   1   7
TORSDOF 6
ENDMDL
MODEL 5
REMARK VINA RESULT:    -3.571      1.838      2.772
REMARK INTER + INTRA:          -4.995
REMARK INTER:                  -4.787
REMARK INTRA:                  -0.208
REMARK UNBOUND:                -0.171
REMARK SMILES CCCCCCCC(=O)[O-]
REMARK SMILES IDX 5 1 6 2 7 3 8 4 9 5 10 6 4 7 3 8 2 9 1 10
REMARK H PARENT
REMARK Flexibility Score: inf
ROOT
ATOM      1  C   UNL     1       2.641  -4.139  -7.350  1.00  0.00     0.000 C 
ENDROOT
BRANCH   1   2
ATOM      2  C   UNL     1       2.918  -5.460  -6.615  1.00  0.00     0.006 C 
BRANCH   2   3
ATOM      3  C   UNL     1       4.416  -5.768  -6.499  1.00  0.00     0.053 C 
BRANCH   3   4
ATOM      4  C   UNL     1       4.739  -6.281  -5.133  1.00  0.00     0.041 C 
ATOM      5  O   UNL     1       5.919  -6.221  -4.694  1.00  0.00    -0.550 OA
ATOM      6  O   UNL     1       3.729  -6.782  -4.321  1.00  0.00    -0.550 OA
ENDBRANCH   3   4
ENDBRANCH   2   3
ENDBRANCH   1   2
BRANCH   1   7
ATOM      7  C   UNL     1       3.718  -3.803  -8.392  1.00  0.00     0.000 C 
BRANCH   7   8
ATOM      8  C   UNL     1       4.098  -2.319  -8.329  1.00  0.00    -0.000 C 
BRANCH   8   9
ATOM      9  C   UNL     1       5.309  -2.022  -9.222  1.00  0.00    -0.003 C 
ATOM     10  C   UNL     1       6.170  -0.909  -8.631  1.00  0.00     0.004 C 
ENDBRANCH   8   9
ENDBRANCH   7   8
ENDBRANCH   1   7
TORSDOF 6
ENDMDL
MODEL 6
REMARK VINA RESULT:    -3.536     11.648     13.096
REMARK INTER + INTRA:          -4.948
REMARK INTER:                  -4.518
REMARK INTRA:                  -0.430
REMARK UNBOUND:                -0.171
REMARK SMILES CCCCCCCC(=O)[O-]
REMARK SMILES IDX 5 1 6 2 7 3 8 4 9 5 10 6 4 7 3 8 2 9 1 10
REMARK H PARENT
REMARK Flexibility Score: inf
ROOT
ATOM      1  C   UNL     1       7.821   7.736  -7.937  1.00  0.00     0.000 C 
ENDROOT
BRANCH   1   2
ATOM      2  C   UNL     1       7.597   8.077  -6.455  1.00  0.00     0.006 C 
BRANCH   2   3
ATOM      3  C   UNL     1       6.224   7.619  -5.945  1.00  0.00     0.053 C 
BRANCH   3   4
ATOM      4  C   UNL     1       6.068   7.955  -4.497  1.00  0.00     0.041 C 
ATOM      5  O   UNL     1       6.714   8.912  -3.994  1.00  0.00    -0.550 OA
ATOM      6  O   UNL     1       5.171   7.242  -3.710  1.00  0.00    -0.550 OA
ENDBRANCH   3   4
ENDBRANCH   2   3
ENDBRANCH   1   2
BRANCH   1   7
ATOM      7  C   UNL     1       6.594   8.042  -8.808  1.00  0.00     0.000 C 
BRANCH   7   8
ATOM      8  C   UNL     1       6.298   6.884  -9.767  1.00  0.00    -0.000 C 
BRANCH   8   9
ATOM      9  C   UNL     1       5.187   5.982  -9.216  1.00  0.00    -0.003 C 
ATOM     10  C   UNL     1       5.754   4.665  -8.693  1.00  0.00     0.004 C 
ENDBRANCH   8   9
ENDBRANCH   7   8
ENDBRANCH   1   7
TORSDOF 6
ENDMDL
MODEL 7
REMARK VINA RESULT:    -3.509      9.347     11.189
REMARK INTER + INTRA:          -4.911
REMARK INTER:                  -4.652
REMARK INTRA:                  -0.259
REMARK UNBOUND:                -0.171
REMARK SMILES CCCCCCCC(=O)[O-]
REMARK SMILES IDX 5 1 6 2 7 3 8 4 9 5 10 6 4 7 3 8 2 9 1 10
REMARK H PARENT
REMARK Flexibility Score: inf
ROOT
ATOM      1  C   UNL     1       7.282   3.901  -8.790  1.00  0.00     0.000 C 
ENDROOT
BRANCH   1   2
ATOM      2  C   UNL     1       5.915   4.480  -8.395  1.00  0.00     0.006 C 
BRANCH   2   3
ATOM      3  C   UNL     1       5.605   5.802  -9.107  1.00  0.00     0.053 C 
BRANCH   3   4
ATOM      4  C   UNL     1       5.856   6.958  -8.192  1.00  0.00     0.041 C 
ATOM      5  O   UNL     1       5.932   8.128  -8.654  1.00  0.00    -0.550 OA
ATOM      6  O   UNL     1       5.957   6.752  -6.822  1.00  0.00    -0.550 OA
ENDBRANCH   3   4
ENDBRANCH   2   3
ENDBRANCH   1   2
BRANCH   1   7
ATOM      7  C   UNL     1       7.594   2.577  -8.078  1.00  0.00     0.000 C 
BRANCH   7   8
ATOM      8  C   UNL     1       6.304   1.860  -7.661  1.00  0.00    -0.000 C 
BRANCH   8   9
ATOM      9  C   UNL     1       6.601   0.445  -7.150  1.00  0.00    -0.003 C 
ATOM     10  C   UNL     1       8.003   0.356  -6.554  1.00  0.00     0.004 C 
ENDBRANCH   8   9
ENDBRANCH   7   8
ENDBRANCH   1   7
TORSDOF 6
ENDMDL
MODEL 8
REMARK VINA RESULT:    -3.450     11.301     12.994
REMARK INTER + INTRA:          -4.832
REMARK INTER:                  -4.566
REMARK INTRA:                  -0.266
REMARK UNBOUND:                -0.171
REMARK SMILES CCCCCCCC(=O)[O-]
REMARK SMILES IDX 5 1 6 2 7 3 8 4 9 5 10 6 4 7 3 8 2 9 1 10
REMARK H PARENT
REMARK Flexibility Score: inf
ROOT
ATOM      1  C   UNL     1      -2.452   6.830  -7.078  1.00  0.00     0.000 C 
ENDROOT
BRANCH   1   2
ATOM      2  C   UNL     1      -2.179   6.505  -8.555  1.00  0.00     0.006 C 
BRANCH   2   3
ATOM      3  C   UNL     1      -0.685   6.537  -8.900  1.00  0.00     0.053 C 
BRANCH   3   4
ATOM      4  C   UNL     1      -0.190   5.159  -9.202  1.00  0.00     0.041 C 
ATOM      5  O   UNL     1       0.809   4.695  -8.589  1.00  0.00    -0.550 OA
ATOM      6  O   UNL     1      -0.860   4.366 -10.125  1.00  0.00    -0.550 OA
ENDBRANCH   3   4
ENDBRANCH   2   3
ENDBRANCH   1   2
BRANCH   1   7
ATOM      7  C   UNL     1      -3.951   6.950  -6.765  1.00  0.00     0.000 C 
BRANCH   7   8
ATOM      8  C   UNL     1      -4.795   6.269  -7.849  1.00  0.00    -0.000 C 
BRANCH   8   9
ATOM      9  C   UNL     1      -6.055   5.634  -7.249  1.00  0.00    -0.003 C 
ATOM     10  C   UNL     1      -6.094   5.810  -5.734  1.00  0.00     0.004 C 
ENDBRANCH   8   9
ENDBRANCH   7   8
ENDBRANCH   1   7
TORSDOF 6
ENDMDL
MODEL 9
REMARK VINA RESULT:    -3.392     13.332     15.176
REMARK INTER + INTRA:          -4.752
REMARK INTER:                  -4.257
REMARK INTRA:                  -0.496
REMARK UNBOUND:                -0.171
REMARK SMILES CCCCCCCC(=O)[O-]
REMARK SMILES IDX 5 1 6 2 7 3 8 4 9 5 10 6 4 7 3 8 2 9 1 10
REMARK H PARENT
REMARK Flexibility Score: inf
ROOT
ATOM      1  C   UNL     1      -4.866   9.651  -7.475  1.00  0.00     0.000 C 
ENDROOT
BRANCH   1   2
ATOM      2  C   UNL     1      -3.528   9.008  -7.078  1.00  0.00     0.006 C 
BRANCH   2   3
ATOM      3  C   UNL     1      -3.169   7.802  -7.956  1.00  0.00     0.053 C 
BRANCH   3   4
ATOM      4  C   UNL     1      -2.196   6.915  -7.249  1.00  0.00     0.041 C 
ATOM      5  O   UNL     1      -2.320   6.691  -6.016  1.00  0.00    -0.550 OA
ATOM      6  O   UNL     1      -1.177   6.293  -7.961  1.00  0.00    -0.550 OA
ENDBRANCH   3   4
ENDBRANCH   2   3
ENDBRANCH   1   2
BRANCH   1   7
ATOM      7  C   UNL     1      -5.953   9.468  -6.405  1.00  0.00     0.000 C 
BRANCH   7   8
ATOM      8  C   UNL     1      -6.717   8.156  -6.617  1.00  0.00    -0.000 C 
BRANCH   8   9
ATOM      9  C   UNL     1      -6.590   7.240  -5.395  1.00  0.00    -0.003 C 
ATOM     10  C   UNL     1      -5.745   6.009  -5.713  1.00  0.00     0.004 C 
ENDBRANCH   8   9
ENDBRANCH   7   8
ENDBRANCH   1   7
TORSDOF 6
ENDMDL
