MODEL 1
REMARK VINA RESULT:    -1.030      0.000      0.000
REMARK INTER + INTRA:          -2.273
REMARK INTER:                  -1.632
REMARK INTRA:                  -0.641
REMARK UNBOUND:                -0.641
REMARK SMILES C[C@H]1O[C@@H](O[C@H]2[C@H](Oc3cc(O)c4c(c3)O[C@H](c3ccc(O)cc3)CC4=O)O[C@H](CO)[C@@H](O)[C@H]2O)[C@@H](O)[C@H](O)[C@@H]1O
REMARK SMILES IDX 6 1 34 2 32 3 29 4 28 5 7 6 5 7 4 8 1 9 2 10 40 11 3 12
REMARK SMILES IDX 38 13 36 14 41 15 39 17 37 19 35 21 8 23 9 24 10 25 15 26
REMARK SMILES IDX 11 27 14 28 13 29 16 30 26 31 17 32 27 33 25 34 12 35 18 37
REMARK SMILES IDX 19 38 24 39 20 40 23 41 21 42 22 43 33 45 30 47 31 48
REMARK H PARENT 41 16 39 18 37 20 35 22 12 36 22 44 33 46 31 49
REMARK Flexibility Score: inf
ROOT
ATOM      1  C   UNL     1      -7.628  27.184  19.320  1.00  0.00     0.221 C 
ATOM      2  C   UNL     1      -6.245  26.461  19.410  1.00  0.00     0.181 C 
ATOM      3  C   UNL     1      -5.157  27.570  19.810  1.00  0.00     0.177 C 
ATOM      4  C   UNL     1      -5.428  29.083  19.359  1.00  0.00     0.179 C 
ATOM      5  O   UNL     1      -6.757  29.426  18.945  1.00  0.00    -0.332 OA
ATOM      6  C   UNL     1      -7.574  28.394  18.324  1.00  0.00     0.339 C 
ENDROOT
BRANCH   1   7
ATOM      7  O   UNL     1      -8.107  27.582  20.623  1.00  0.00    -0.337 OA
BRANCH   7   8
ATOM      8  C   UNL     1      -9.515  27.827  20.636  1.00  0.00     0.282 C 
ATOM      9  C   UNL     1      -9.700  30.820  19.612  1.00  0.00     0.041 C 
ATOM     10  C   UNL     1     -10.702  29.646  19.444  1.00  0.00     0.150 C 
ATOM     11  C   UNL     1     -11.889  29.441  20.426  1.00  0.00     0.174 C 
ATOM     12  O   UNL     1      -9.954  28.416  19.397  1.00  0.00    -0.344 OA
ATOM     13  C   UNL     1     -11.239  29.444  21.884  1.00  0.00     0.179 C 
ATOM     14  C   UNL     1     -10.178  28.301  22.042  1.00  0.00     0.202 C 
BRANCH  11  15
ATOM     15  O   UNL     1     -12.400  28.215  20.021  1.00  0.00    -0.388 OA
ATOM     16  H   UNL     1     -11.678  27.872  19.394  1.00  0.00     0.211 HD
ENDBRANCH  11  15
BRANCH  13  17
ATOM     17  O   UNL     1     -12.243  29.456  22.903  1.00  0.00    -0.387 OA
ATOM     18  H   UNL     1     -12.456  28.522  23.133  1.00  0.00     0.211 HD
ENDBRANCH  13  17
BRANCH  14  19
ATOM     19  O   UNL     1      -9.184  28.643  22.983  1.00  0.00    -0.385 OA
ATOM     20  H   UNL     1      -8.266  28.746  22.573  1.00  0.00     0.211 HD
ENDBRANCH  14  19
ENDBRANCH   7   8
ENDBRANCH   1   7
BRANCH   2  21
ATOM     21  O   UNL     1      -6.183  25.269  20.245  1.00  0.00    -0.387 OA
ATOM     22  H   UNL     1      -6.091  24.442  19.656  1.00  0.00     0.211 HD
ENDBRANCH   2  21
BRANCH   6  23
ATOM     23  O   UNL     1      -7.135  27.843  17.087  1.00  0.00    -0.462 OA
BRANCH  23  24
ATOM     24  C   UNL     1      -7.228  28.416  15.840  1.00  0.00     0.130 A 
ATOM     25  C   UNL     1      -6.479  27.704  14.882  1.00  0.00     0.093 A 
ATOM     26  C   UNL     1      -8.082  29.472  15.473  1.00  0.00     0.094 A 
ATOM     27  C   UNL     1      -6.437  28.234  13.600  1.00  0.00     0.133 A 
ATOM     28  C   UNL     1      -8.346  29.614  14.119  1.00  0.00     0.138 A 
ATOM     29  C   UNL     1      -7.436  29.129  13.174  1.00  0.00     0.102 A 
ATOM     30  O   UNL     1      -9.592  30.166  13.694  1.00  0.00    -0.484 OA
ATOM     31  C   UNL     1      -7.789  29.257  11.747  1.00  0.00     0.174 C 
ATOM     32  C   UNL     1     -10.094  29.867  12.377  1.00  0.00     0.211 C 
ATOM     33  O   UNL     1      -7.163  28.603  10.876  1.00  0.00    -0.294 OA
ATOM     34  C   UNL     1      -8.940  30.121  11.363  1.00  0.00     0.131 C 
BRANCH  27  35
ATOM     35  O   UNL     1      -5.357  27.844  12.809  1.00  0.00    -0.507 OA
ATOM     36  H   UNL     1      -4.664  27.223  13.184  1.00  0.00     0.293 HD
ENDBRANCH  27  35
BRANCH  32  37
ATOM     37  C   UNL     1     -10.696  28.465  12.281  1.00  0.00    -0.007 A 
ATOM     38  C   UNL     1     -11.639  27.984  13.259  1.00  0.00     0.011 A 
ATOM     39  C   UNL     1     -10.403  27.619  11.218  1.00  0.00     0.011 A 
ATOM     40  C   UNL     1     -12.248  26.754  13.097  1.00  0.00     0.046 A 
ATOM     41  C   UNL     1     -11.132  26.471  10.971  1.00  0.00     0.046 A 
ATOM     42  C   UNL     1     -11.975  25.982  11.943  1.00  0.00     0.115 A 
BRANCH  42  43
ATOM     43  O   UNL     1     -12.558  24.716  11.764  1.00  0.00    -0.508 OA
ATOM     44  H   UNL     1     -13.056  24.258  12.519  1.00  0.00     0.293 HD
ENDBRANCH  42  43
ENDBRANCH  32  37
ENDBRANCH  23  24
ENDBRANCH   6  23
BRANCH   3  45
ATOM     45  O   UNL     1      -4.851  27.494  21.136  1.00  0.00    -0.387 OA
ATOM     46  H   UNL     1      -4.322  28.251  21.445  1.00  0.00     0.211 HD
ENDBRANCH   3  45
BRANCH   4  47
ATOM     47  C   UNL     1      -4.483  29.259  18.084  1.00  0.00     0.191 C 
BRANCH  47  48
ATOM     48  O   UNL     1      -5.018  30.142  17.112  1.00  0.00    -0.394 OA
ATOM     49  H   UNL     1      -5.389  30.880  17.703  1.00  0.00     0.210 HD
ENDBRANCH  47  48
ENDBRANCH   4  47
TORSDOF 14
ENDMDL
MODEL 2
REMARK VINA RESULT:    -0.886      2.121      5.576
REMARK INTER + INTRA:          -2.045
REMARK INTER:                  -1.303
REMARK INTRA:                  -0.742
REMARK UNBOUND:                -0.641
REMARK SMILES C[C@H]1O[C@@H](O[C@H]2[C@H](Oc3cc(O)c4c(c3)O[C@H](c3ccc(O)cc3)CC4=O)O[C@H](CO)[C@@H](O)[C@H]2O)[C@@H](O)[C@H](O)[C@@H]1O
REMARK SMILES IDX 6 1 34 2 32 3 29 4 28 5 7 6 5 7 4 8 1 9 2 10 40 11 3 12
REMARK SMILES IDX 38 13 36 14 41 15 39 17 37 19 35 21 8 23 9 24 10 25 15 26
REMARK SMILES IDX 11 27 14 28 13 29 16 30 26 31 17 32 27 33 25 34 12 35 18 37
REMARK SMILES IDX 19 38 24 39 20 40 23 41 21 42 22 43 33 45 30 47 31 48
REMARK H PARENT 41 16 39 18 37 20 35 22 12 36 22 44 33 46 31 49
REMARK Flexibility Score: inf
ROOT
ATOM      1  C   UNL     1      -8.765  29.752  19.321  1.00  0.00     0.221 C 
ATOM      2  C   UNL     1     -10.126  30.511  19.450  1.00  0.00     0.181 C 
ATOM      3  C   UNL     1     -11.231  29.430  19.879  1.00  0.00     0.177 C 
ATOM      4  C   UNL     1     -11.013  27.912  19.417  1.00  0.00     0.179 C 
ATOM      5  O   UNL     1      -9.704  27.535  18.965  1.00  0.00    -0.332 OA
ATOM      6  C   UNL     1      -8.879  28.546  18.323  1.00  0.00     0.339 C 
ENDROOT
BRANCH   1   7
ATOM      7  O   UNL     1      -8.261  29.338  20.609  1.00  0.00    -0.337 OA
BRANCH   7   8
ATOM      8  C   UNL     1      -6.849  29.115  20.597  1.00  0.00     0.282 C 
ATOM      9  C   UNL     1      -6.635  26.121  19.585  1.00  0.00     0.041 C 
ATOM     10  C   UNL     1      -5.655  27.310  19.392  1.00  0.00     0.150 C 
ATOM     11  C   UNL     1      -4.454  27.539  20.351  1.00  0.00     0.174 C 
ATOM     12  O   UNL     1      -6.424  28.527  19.353  1.00  0.00    -0.344 OA
ATOM     13  C   UNL     1      -5.077  27.533  21.821  1.00  0.00     0.179 C 
ATOM     14  C   UNL     1      -6.152  28.661  21.993  1.00  0.00     0.202 C 
BRANCH  11  15
ATOM     15  O   UNL     1      -3.970  28.770  19.930  1.00  0.00    -0.388 OA
ATOM     16  H   UNL     1      -3.179  28.508  19.348  1.00  0.00     0.211 HD
ENDBRANCH  11  15
BRANCH  13  17
ATOM     17  O   UNL     1      -4.054  27.543  22.821  1.00  0.00    -0.387 OA
ATOM     18  H   UNL     1      -4.437  27.179  23.653  1.00  0.00     0.211 HD
ENDBRANCH  13  17
BRANCH  14  19
ATOM     19  O   UNL     1      -7.123  28.308  22.954  1.00  0.00    -0.385 OA
ATOM     20  H   UNL     1      -8.051  28.205  22.564  1.00  0.00     0.211 HD
ENDBRANCH  14  19
ENDBRANCH   7   8
ENDBRANCH   1   7
BRANCH   2  21
ATOM     21  O   UNL     1     -10.133  31.702  20.289  1.00  0.00    -0.387 OA
ATOM     22  H   UNL     1      -9.934  32.524  19.719  1.00  0.00     0.211 HD
ENDBRANCH   2  21
BRANCH   6  23
ATOM     23  O   UNL     1      -9.337  29.112  17.101  1.00  0.00    -0.462 OA
BRANCH  23  24
ATOM     24  C   UNL     1      -9.247  28.563  15.843  1.00  0.00     0.130 A 
ATOM     25  C   UNL     1      -9.978  29.306  14.895  1.00  0.00     0.093 A 
ATOM     26  C   UNL     1      -8.408  27.500  15.459  1.00  0.00     0.094 A 
ATOM     27  C   UNL     1     -10.020  28.803  13.603  1.00  0.00     0.133 A 
ATOM     28  C   UNL     1      -8.139  27.381  14.105  1.00  0.00     0.138 A 
ATOM     29  C   UNL     1      -9.034  27.900  13.164  1.00  0.00     0.102 A 
ATOM     30  O   UNL     1      -6.899  26.816  13.676  1.00  0.00    -0.484 OA
ATOM     31  C   UNL     1      -8.675  27.794  11.737  1.00  0.00     0.174 C 
ATOM     32  C   UNL     1      -6.385  27.133  12.368  1.00  0.00     0.211 C 
ATOM     33  O   UNL     1      -9.285  28.476  10.876  1.00  0.00    -0.294 OA
ATOM     34  C   UNL     1      -7.536  26.919  11.342  1.00  0.00     0.131 C 
BRANCH  27  35
ATOM     35  O   UNL     1     -11.089  29.227  12.813  1.00  0.00    -0.507 OA
ATOM     36  H   UNL     1     -10.967  29.325  11.822  1.00  0.00     0.293 HD
ENDBRANCH  27  35
BRANCH  32  37
ATOM     37  C   UNL     1      -5.758  28.526  12.303  1.00  0.00    -0.007 A 
ATOM     38  C   UNL     1      -4.804  28.967  13.289  1.00  0.00     0.011 A 
ATOM     39  C   UNL     1      -6.040  29.403  11.263  1.00  0.00     0.011 A 
ATOM     40  C   UNL     1      -4.174  30.190  13.155  1.00  0.00     0.046 A 
ATOM     41  C   UNL     1      -5.291  30.543  11.040  1.00  0.00     0.046 A 
ATOM     42  C   UNL     1      -4.437  30.994  12.021  1.00  0.00     0.115 A 
BRANCH  42  43
ATOM     43  O   UNL     1      -3.833  32.254  11.870  1.00  0.00    -0.508 OA
ATOM     44  H   UNL     1      -3.251  32.462  11.067  1.00  0.00     0.293 HD
ENDBRANCH  42  43
ENDBRANCH  32  37
ENDBRANCH  23  24
ENDBRANCH   6  23
BRANCH   3  45
ATOM     45  O   UNL     1     -11.497  29.511  21.212  1.00  0.00    -0.387 OA
ATOM     46  H   UNL     1     -10.695  29.454  21.761  1.00  0.00     0.211 HD
ENDBRANCH   3  45
BRANCH   4  47
ATOM     47  C   UNL     1     -11.996  27.764  18.169  1.00  0.00     0.191 C 
BRANCH  47  48
ATOM     48  O   UNL     1     -11.463  26.959  17.131  1.00  0.00    -0.394 OA
ATOM     49  H   UNL     1     -11.703  26.029  17.463  1.00  0.00     0.210 HD
ENDBRANCH  47  48
ENDBRANCH   4  47
TORSDOF 14
ENDMDL
MODEL 3
REMARK VINA RESULT:    -0.811      1.461      3.192
REMARK INTER + INTRA:          -1.926
REMARK INTER:                  -0.834
REMARK INTRA:                  -1.092
REMARK UNBOUND:                -0.641
REMARK SMILES C[C@H]1O[C@@H](O[C@H]2[C@H](Oc3cc(O)c4c(c3)O[C@H](c3ccc(O)cc3)CC4=O)O[C@H](CO)[C@@H](O)[C@H]2O)[C@@H](O)[C@H](O)[C@@H]1O
REMARK SMILES IDX 6 1 34 2 32 3 29 4 28 5 7 6 5 7 4 8 1 9 2 10 40 11 3 12
REMARK SMILES IDX 38 13 36 14 41 15 39 17 37 19 35 21 8 23 9 24 10 25 15 26
REMARK SMILES IDX 11 27 14 28 13 29 16 30 26 31 17 32 27 33 25 34 12 35 18 37
REMARK SMILES IDX 19 38 24 39 20 40 23 41 21 42 22 43 33 45 30 47 31 48
REMARK H PARENT 41 16 39 18 37 20 35 22 12 36 22 44 33 46 31 49
REMARK Flexibility Score: inf
ROOT
ATOM      1  C   UNL     1      -7.480  27.503  18.948  1.00  0.00     0.221 C 
ATOM      2  C   UNL     1      -6.127  26.727  19.050  1.00  0.00     0.181 C 
ATOM      3  C   UNL     1      -4.988  27.804  19.389  1.00  0.00     0.177 C 
ATOM      4  C   UNL     1      -5.202  29.307  18.878  1.00  0.00     0.179 C 
ATOM      5  O   UNL     1      -6.522  29.688  18.467  1.00  0.00    -0.332 OA
ATOM      6  C   UNL     1      -7.390  28.667  17.901  1.00  0.00     0.339 C 
ENDROOT
BRANCH   1   7
ATOM      7  O   UNL     1      -7.922  27.975  20.239  1.00  0.00    -0.337 OA
BRANCH   7   8
ATOM      8  C   UNL     1      -9.346  28.061  20.331  1.00  0.00     0.282 C 
ATOM      9  C   UNL     1      -9.909  31.055  19.460  1.00  0.00     0.041 C 
ATOM     10  C   UNL     1     -10.785  29.785  19.284  1.00  0.00     0.150 C 
ATOM     11  C   UNL     1     -11.889  29.409  20.311  1.00  0.00     0.174 C 
ATOM     12  O   UNL     1      -9.911  28.649  19.143  1.00  0.00    -0.344 OA
ATOM     13  C   UNL     1     -11.167  29.423  21.734  1.00  0.00     0.179 C 
ATOM     14  C   UNL     1      -9.982  28.399  21.788  1.00  0.00     0.202 C 
BRANCH  11  15
ATOM     15  O   UNL     1     -12.284  28.151  19.873  1.00  0.00    -0.388 OA
ATOM     16  H   UNL     1     -13.094  27.960  20.456  1.00  0.00     0.211 HD
ENDBRANCH  11  15
BRANCH  13  17
ATOM     17  O   UNL     1     -12.112  29.281  22.799  1.00  0.00    -0.387 OA
ATOM     18  H   UNL     1     -11.623  29.351  23.653  1.00  0.00     0.211 HD
ENDBRANCH  13  17
BRANCH  14  19
ATOM     19  O   UNL     1      -8.983  28.810  22.696  1.00  0.00    -0.385 OA
ATOM     20  H   UNL     1      -9.316  29.478  23.378  1.00  0.00     0.211 HD
ENDBRANCH  14  19
ENDBRANCH   7   8
ENDBRANCH   1   7
BRANCH   2  21
ATOM     21  O   UNL     1      -6.102  25.569  19.934  1.00  0.00    -0.387 OA
ATOM     22  H   UNL     1      -7.050  25.354  20.244  1.00  0.00     0.211 HD
ENDBRANCH   2  21
BRANCH   6  23
ATOM     23  O   UNL     1      -6.994  28.047  16.683  1.00  0.00    -0.462 OA
BRANCH  23  24
ATOM     24  C   UNL     1      -7.807  27.647  15.648  1.00  0.00     0.130 A 
ATOM     25  C   UNL     1      -9.106  28.181  15.768  1.00  0.00     0.093 A 
ATOM     26  C   UNL     1      -7.403  26.939  14.500  1.00  0.00     0.094 A 
ATOM     27  C   UNL     1     -10.036  27.784  14.819  1.00  0.00     0.133 A 
ATOM     28  C   UNL     1      -8.245  27.010  13.401  1.00  0.00     0.138 A 
ATOM     29  C   UNL     1      -9.606  27.279  13.577  1.00  0.00     0.102 A 
ATOM     30  O   UNL     1      -7.701  26.905  12.085  1.00  0.00    -0.484 OA
ATOM     31  C   UNL     1     -10.448  27.395  12.371  1.00  0.00     0.174 C 
ATOM     32  C   UNL     1      -8.421  27.463  10.969  1.00  0.00     0.211 C 
ATOM     33  O   UNL     1     -11.595  27.905  12.444  1.00  0.00    -0.294 OA
ATOM     34  C   UNL     1      -9.893  26.963  11.059  1.00  0.00     0.131 C 
BRANCH  27  35
ATOM     35  O   UNL     1     -11.377  27.896  15.187  1.00  0.00    -0.507 OA
ATOM     36  H   UNL     1     -11.810  28.800  15.215  1.00  0.00     0.293 HD
ENDBRANCH  27  35
BRANCH  32  37
ATOM     37  C   UNL     1      -8.295  28.984  10.887  1.00  0.00    -0.007 A 
ATOM     38  C   UNL     1      -9.459  29.834  10.875  1.00  0.00     0.011 A 
ATOM     39  C   UNL     1      -7.056  29.612  10.876  1.00  0.00     0.011 A 
ATOM     40  C   UNL     1      -9.320  31.209  10.903  1.00  0.00     0.046 A 
ATOM     41  C   UNL     1      -6.920  30.973  11.073  1.00  0.00     0.046 A 
ATOM     42  C   UNL     1      -8.030  31.783  10.986  1.00  0.00     0.115 A 
BRANCH  42  43
ATOM     43  O   UNL     1      -7.856  33.178  10.989  1.00  0.00    -0.508 OA
ATOM     44  H   UNL     1      -8.609  33.797  11.264  1.00  0.00     0.293 HD
ENDBRANCH  42  43
ENDBRANCH  32  37
ENDBRANCH  23  24
ENDBRANCH   6  23
BRANCH   3  45
ATOM     45  O   UNL     1      -4.666  27.770  20.712  1.00  0.00    -0.387 OA
ATOM     46  H   UNL     1      -5.116  28.463  21.228  1.00  0.00     0.211 HD
ENDBRANCH   3  45
BRANCH   4  47
ATOM     47  C   UNL     1      -4.270  29.389  17.584  1.00  0.00     0.191 C 
BRANCH  47  48
ATOM     48  O   UNL     1      -4.889  30.051  16.493  1.00  0.00    -0.394 OA
ATOM     49  H   UNL     1      -4.177  30.733  16.250  1.00  0.00     0.210 HD
ENDBRANCH  47  48
ENDBRANCH   4  47
TORSDOF 14
ENDMDL
MODEL 4
REMARK VINA RESULT:    -0.704      1.936      4.542
REMARK INTER + INTRA:          -1.757
REMARK INTER:                  -0.746
REMARK INTRA:                  -1.011
REMARK UNBOUND:                -0.641
REMARK SMILES C[C@H]1O[C@@H](O[C@H]2[C@H](Oc3cc(O)c4c(c3)O[C@H](c3ccc(O)cc3)CC4=O)O[C@H](CO)[C@@H](O)[C@H]2O)[C@@H](O)[C@H](O)[C@@H]1O
REMARK SMILES IDX 6 1 34 2 32 3 29 4 28 5 7 6 5 7 4 8 1 9 2 10 40 11 3 12
REMARK SMILES IDX 38 13 36 14 41 15 39 17 37 19 35 21 8 23 9 24 10 25 15 26
REMARK SMILES IDX 11 27 14 28 13 29 16 30 26 31 17 32 27 33 25 34 12 35 18 37
REMARK SMILES IDX 19 38 24 39 20 40 23 41 21 42 22 43 33 45 30 47 31 48
REMARK H PARENT 41 16 39 18 37 20 35 22 12 36 22 44 33 46 31 49
REMARK Flexibility Score: inf
ROOT
ATOM      1  C   UNL     1      -8.811  29.539  18.982  1.00  0.00     0.221 C 
ATOM      2  C   UNL     1     -10.114  30.394  19.102  1.00  0.00     0.181 C 
ATOM      3  C   UNL     1     -11.292  29.402  19.551  1.00  0.00     0.177 C 
ATOM      4  C   UNL     1     -11.184  27.865  19.113  1.00  0.00     0.179 C 
ATOM      5  O   UNL     1      -9.907  27.389  18.664  1.00  0.00    -0.332 OA
ATOM      6  C   UNL     1      -9.014  28.329  18.004  1.00  0.00     0.339 C 
ENDROOT
BRANCH   1   7
ATOM      7  O   UNL     1      -8.333  29.110  20.275  1.00  0.00    -0.337 OA
BRANCH   7   8
ATOM      8  C   UNL     1      -6.913  28.952  20.308  1.00  0.00     0.282 C 
ATOM      9  C   UNL     1      -6.541  25.919  19.471  1.00  0.00     0.041 C 
ATOM     10  C   UNL     1      -5.610  27.139  19.234  1.00  0.00     0.150 C 
ATOM     11  C   UNL     1      -4.445  27.476  20.206  1.00  0.00     0.174 C 
ATOM     12  O   UNL     1      -6.431  28.316  19.109  1.00  0.00    -0.344 OA
ATOM     13  C   UNL     1      -5.103  27.522  21.658  1.00  0.00     0.179 C 
ATOM     14  C   UNL     1      -6.232  28.607  21.743  1.00  0.00     0.202 C 
BRANCH  11  15
ATOM     15  O   UNL     1      -4.005  28.703  19.727  1.00  0.00    -0.388 OA
ATOM     16  H   UNL     1      -3.292  28.960  20.404  1.00  0.00     0.211 HD
ENDBRANCH  11  15
BRANCH  13  17
ATOM     17  O   UNL     1      -4.108  27.634  22.679  1.00  0.00    -0.387 OA
ATOM     18  H   UNL     1      -3.887  26.725  22.992  1.00  0.00     0.211 HD
ENDBRANCH  13  17
BRANCH  14  19
ATOM     19  O   UNL     1      -7.210  28.264  22.700  1.00  0.00    -0.385 OA
ATOM     20  H   UNL     1      -7.851  27.552  22.376  1.00  0.00     0.211 HD
ENDBRANCH  14  19
ENDBRANCH   7   8
ENDBRANCH   1   7
BRANCH   2  21
ATOM     21  O   UNL     1     -10.033  31.596  19.922  1.00  0.00    -0.387 OA
ATOM     22  H   UNL     1      -9.059  31.882  20.016  1.00  0.00     0.211 HD
ENDBRANCH   2  21
BRANCH   6  23
ATOM     23  O   UNL     1      -9.434  28.907  16.774  1.00  0.00    -0.462 OA
BRANCH  23  24
ATOM     24  C   UNL     1      -8.637  29.326  15.734  1.00  0.00     0.130 A 
ATOM     25  C   UNL     1      -7.343  28.773  15.812  1.00  0.00     0.093 A 
ATOM     26  C   UNL     1      -9.056  30.069  14.614  1.00  0.00     0.094 A 
ATOM     27  C   UNL     1      -6.427  29.185  14.855  1.00  0.00     0.133 A 
ATOM     28  C   UNL     1      -8.237  30.020  13.497  1.00  0.00     0.138 A 
ATOM     29  C   UNL     1      -6.876  29.729  13.637  1.00  0.00     0.102 A 
ATOM     30  O   UNL     1      -8.806  30.167  12.196  1.00  0.00    -0.484 OA
ATOM     31  C   UNL     1      -6.060  29.636  12.412  1.00  0.00     0.174 C 
ATOM     32  C   UNL     1      -8.116  29.632  11.050  1.00  0.00     0.211 C 
ATOM     33  O   UNL     1      -4.919  29.111  12.447  1.00  0.00    -0.294 OA
ATOM     34  C   UNL     1      -6.636  30.112  11.123  1.00  0.00     0.131 C 
BRANCH  27  35
ATOM     35  O   UNL     1      -5.081  29.046  15.193  1.00  0.00    -0.507 OA
ATOM     36  H   UNL     1      -4.374  29.371  14.559  1.00  0.00     0.293 HD
ENDBRANCH  27  35
BRANCH  32  37
ATOM     37  C   UNL     1      -8.262  28.115  10.929  1.00  0.00    -0.007 A 
ATOM     38  C   UNL     1      -7.110  27.251  10.882  1.00  0.00     0.011 A 
ATOM     39  C   UNL     1      -9.510  27.504  10.914  1.00  0.00     0.011 A 
ATOM     40  C   UNL     1      -7.266  25.878  10.875  1.00  0.00     0.046 A 
ATOM     41  C   UNL     1      -9.661  26.139  11.076  1.00  0.00     0.046 A 
ATOM     42  C   UNL     1      -8.563  25.318  10.956  1.00  0.00     0.115 A 
BRANCH  42  43
ATOM     43  O   UNL     1      -8.755  23.926  10.923  1.00  0.00    -0.508 OA
ATOM     44  H   UNL     1      -9.613  23.509  11.263  1.00  0.00     0.293 HD
ENDBRANCH  42  43
ENDBRANCH  32  37
ENDBRANCH  23  24
ENDBRANCH   6  23
BRANCH   3  45
ATOM     45  O   UNL     1     -11.547  29.522  20.883  1.00  0.00    -0.387 OA
ATOM     46  H   UNL     1     -11.809  30.425  21.137  1.00  0.00     0.211 HD
ENDBRANCH   3  45
BRANCH   4  47
ATOM     47  C   UNL     1     -12.179  27.768  17.869  1.00  0.00     0.191 C 
BRANCH  47  48
ATOM     48  O   UNL     1     -11.604  27.127  16.743  1.00  0.00    -0.394 OA
ATOM     49  H   UNL     1     -10.777  26.709  17.158  1.00  0.00     0.210 HD
ENDBRANCH  47  48
ENDBRANCH   4  47
TORSDOF 14
ENDMDL
MODEL 5
REMARK VINA RESULT:     0.564      2.164      2.896
REMARK INTER + INTRA:           0.254
REMARK INTER:                  -0.195
REMARK INTRA:                   0.449
REMARK UNBOUND:                -0.641
REMARK SMILES C[C@H]1O[C@@H](O[C@H]2[C@H](Oc3cc(O)c4c(c3)O[C@H](c3ccc(O)cc3)CC4=O)O[C@H](CO)[C@@H](O)[C@H]2O)[C@@H](O)[C@H](O)[C@@H]1O
REMARK SMILES IDX 6 1 34 2 32 3 29 4 28 5 7 6 5 7 4 8 1 9 2 10 40 11 3 12
REMARK SMILES IDX 38 13 36 14 41 15 39 17 37 19 35 21 8 23 9 24 10 25 15 26
REMARK SMILES IDX 11 27 14 28 13 29 16 30 26 31 17 32 27 33 25 34 12 35 18 37
REMARK SMILES IDX 19 38 24 39 20 40 23 41 21 42 22 43 33 45 30 47 31 48
REMARK H PARENT 41 16 39 18 37 20 35 22 12 36 22 44 33 46 31 49
REMARK Flexibility Score: inf
ROOT
ATOM      1  C   UNL     1      -7.514  27.239  19.096  1.00  0.00     0.221 C 
ATOM      2  C   UNL     1      -6.148  26.502  19.277  1.00  0.00     0.181 C 
ATOM      3  C   UNL     1      -5.102  27.577  19.847  1.00  0.00     0.177 C 
ATOM      4  C   UNL     1      -5.325  29.115  19.462  1.00  0.00     0.179 C 
ATOM      5  O   UNL     1      -6.607  29.492  18.941  1.00  0.00    -0.332 OA
ATOM      6  C   UNL     1      -7.360  28.505  18.183  1.00  0.00     0.339 C 
ENDROOT
BRANCH   1   7
ATOM      7  O   UNL     1      -8.117  27.563  20.367  1.00  0.00    -0.337 OA
BRANCH   7   8
ATOM      8  C   UNL     1      -9.526  27.782  20.264  1.00  0.00     0.282 C 
ATOM      9  C   UNL     1      -9.681  30.737  19.133  1.00  0.00     0.041 C 
ATOM     10  C   UNL     1     -10.647  29.539  18.925  1.00  0.00     0.150 C 
ATOM     11  C   UNL     1     -11.903  29.342  19.819  1.00  0.00     0.174 C 
ATOM     12  O   UNL     1      -9.877  28.323  18.976  1.00  0.00    -0.344 OA
ATOM     13  C   UNL     1     -11.368  29.403  21.321  1.00  0.00     0.179 C 
ATOM     14  C   UNL     1     -10.304  28.286  21.599  1.00  0.00     0.202 C 
BRANCH  11  15
ATOM     15  O   UNL     1     -12.361  28.095  19.415  1.00  0.00    -0.388 OA
ATOM     16  H   UNL     1     -12.711  28.282  18.480  1.00  0.00     0.211 HD
ENDBRANCH  11  15
BRANCH  13  17
ATOM     17  O   UNL     1     -12.449  29.427  22.259  1.00  0.00    -0.387 OA
ATOM     18  H   UNL     1     -12.702  28.495  22.458  1.00  0.00     0.211 HD
ENDBRANCH  13  17
BRANCH  14  19
ATOM     19  O   UNL     1      -9.393  28.676  22.602  1.00  0.00    -0.385 OA
ATOM     20  H   UNL     1      -8.659  29.282  22.259  1.00  0.00     0.211 HD
ENDBRANCH  14  19
ENDBRANCH   7   8
ENDBRANCH   1   7
BRANCH   2  21
ATOM     21  O   UNL     1      -6.170  25.263  20.042  1.00  0.00    -0.387 OA
ATOM     22  H   UNL     1      -5.547  25.345  20.846  1.00  0.00     0.211 HD
ENDBRANCH   2  21
BRANCH   6  23
ATOM     23  O   UNL     1      -6.804  28.024  16.965  1.00  0.00    -0.462 OA
BRANCH  23  24
ATOM     24  C   UNL     1      -6.653  28.718  15.786  1.00  0.00     0.130 A 
ATOM     25  C   UNL     1      -5.300  29.019  15.527  1.00  0.00     0.093 A 
ATOM     26  C   UNL     1      -7.660  28.971  14.836  1.00  0.00     0.094 A 
ATOM     27  C   UNL     1      -5.034  29.783  14.401  1.00  0.00     0.133 A 
ATOM     28  C   UNL     1      -7.237  29.288  13.555  1.00  0.00     0.138 A 
ATOM     29  C   UNL     1      -5.971  29.846  13.353  1.00  0.00     0.102 A 
ATOM     30  O   UNL     1      -8.057  28.951  12.435  1.00  0.00    -0.484 OA
ATOM     31  C   UNL     1      -5.549  30.115  11.965  1.00  0.00     0.174 C 
ATOM     32  C   UNL     1      -7.460  28.797  11.134  1.00  0.00     0.211 C 
ATOM     33  O   UNL     1      -4.342  30.346  11.701  1.00  0.00    -0.294 OA
ATOM     34  C   UNL     1      -6.562  30.042  10.875  1.00  0.00     0.131 C 
BRANCH  27  35
ATOM     35  O   UNL     1      -3.823  30.476  14.400  1.00  0.00    -0.507 OA
ATOM     36  H   UNL     1      -3.144  30.289  13.686  1.00  0.00     0.293 HD
ENDBRANCH  27  35
BRANCH  32  37
ATOM     37  C   UNL     1      -6.722  27.467  10.977  1.00  0.00    -0.007 A 
ATOM     38  C   UNL     1      -5.283  27.410  10.916  1.00  0.00     0.011 A 
ATOM     39  C   UNL     1      -7.403  26.257  10.943  1.00  0.00     0.011 A 
ATOM     40  C   UNL     1      -4.633  26.190  10.877  1.00  0.00     0.046 A 
ATOM     41  C   UNL     1      -6.753  25.044  11.074  1.00  0.00     0.046 A 
ATOM     42  C   UNL     1      -5.384  24.993  10.940  1.00  0.00     0.115 A 
BRANCH  42  43
ATOM     43  O   UNL     1      -4.753  23.738  10.875  1.00  0.00    -0.508 OA
ATOM     44  H   UNL     1      -3.818  23.643  10.496  1.00  0.00     0.293 HD
ENDBRANCH  42  43
ENDBRANCH  32  37
ENDBRANCH  23  24
ENDBRANCH   6  23
BRANCH   3  45
ATOM     45  O   UNL     1      -4.928  27.421  21.189  1.00  0.00    -0.387 OA
ATOM     46  H   UNL     1      -5.617  27.866  21.713  1.00  0.00     0.211 HD
ENDBRANCH   3  45
BRANCH   4  47
ATOM     47  C   UNL     1      -4.260  29.359  18.298  1.00  0.00     0.191 C 
BRANCH  47  48
ATOM     48  O   UNL     1      -3.147  28.482  18.367  1.00  0.00    -0.394 OA
ATOM     49  H   UNL     1      -3.539  27.712  18.901  1.00  0.00     0.210 HD
ENDBRANCH  47  48
ENDBRANCH   4  47
TORSDOF 14
ENDMDL
MODEL 6
REMARK VINA RESULT:     1.628      1.859      7.703
REMARK INTER + INTRA:           1.940
REMARK INTER:                   3.763
REMARK INTRA:                  -1.824
REMARK UNBOUND:                -0.641
REMARK SMILES C[C@H]1O[C@@H](O[C@H]2[C@H](Oc3cc(O)c4c(c3)O[C@H](c3ccc(O)cc3)CC4=O)O[C@H](CO)[C@@H](O)[C@H]2O)[C@@H](O)[C@H](O)[C@@H]1O
REMARK SMILES IDX 6 1 34 2 32 3 29 4 28 5 7 6 5 7 4 8 1 9 2 10 40 11 3 12
REMARK SMILES IDX 38 13 36 14 41 15 39 17 37 19 35 21 8 23 9 24 10 25 15 26
REMARK SMILES IDX 11 27 14 28 13 29 16 30 26 31 17 32 27 33 25 34 12 35 18 37
REMARK SMILES IDX 19 38 24 39 20 40 23 41 21 42 22 43 33 45 30 47 31 48
REMARK H PARENT 41 16 39 18 37 20 35 22 12 36 22 44 33 46 31 49
REMARK Flexibility Score: inf
ROOT
ATOM      1  C   UNL     1      -8.667  29.430  12.964  1.00  0.00     0.221 C 
ATOM      2  C   UNL     1      -8.895  30.971  13.090  1.00  0.00     0.181 C 
ATOM      3  C   UNL     1      -8.209  31.657  11.813  1.00  0.00     0.177 C 
ATOM      4  C   UNL     1      -6.952  30.919  11.150  1.00  0.00     0.179 C 
ATOM      5  O   UNL     1      -6.728  29.545  11.498  1.00  0.00    -0.332 OA
ATOM      6  C   UNL     1      -7.143  29.091  12.816  1.00  0.00     0.339 C 
ENDROOT
BRANCH   1   7
ATOM      7  O   UNL     1      -9.451  28.862  11.892  1.00  0.00    -0.337 OA
BRANCH   7   8
ATOM      8  C   UNL     1     -10.741  28.429  12.329  1.00  0.00     0.282 C 
ATOM      9  C   UNL     1     -10.128  27.228  15.196  1.00  0.00     0.041 C 
ATOM     10  C   UNL     1     -11.411  27.920  14.659  1.00  0.00     0.150 C 
ATOM     11  C   UNL     1     -12.597  27.099  14.081  1.00  0.00     0.174 C 
ATOM     12  O   UNL     1     -11.021  28.887  13.666  1.00  0.00    -0.344 OA
ATOM     13  C   UNL     1     -11.952  26.138  12.982  1.00  0.00     0.179 C 
ATOM     14  C   UNL     1     -11.236  26.956  11.853  1.00  0.00     0.202 C 
BRANCH  11  15
ATOM     15  O   UNL     1     -13.423  28.092  13.572  1.00  0.00    -0.388 OA
ATOM     16  H   UNL     1     -13.879  27.621  12.795  1.00  0.00     0.211 HD
ENDBRANCH  11  15
BRANCH  13  17
ATOM     17  O   UNL     1     -12.904  25.185  12.500  1.00  0.00    -0.387 OA
ATOM     18  H   UNL     1     -12.926  25.245  11.516  1.00  0.00     0.211 HD
ENDBRANCH  13  17
BRANCH  14  19
ATOM     19  O   UNL     1     -10.175  26.225  11.277  1.00  0.00    -0.385 OA
ATOM     20  H   UNL     1     -10.060  25.305  11.682  1.00  0.00     0.211 HD
ENDBRANCH  14  19
ENDBRANCH   7   8
ENDBRANCH   1   7
BRANCH   2  21
ATOM     21  O   UNL     1     -10.265  31.414  13.312  1.00  0.00    -0.387 OA
ATOM     22  H   UNL     1     -10.904  30.630  13.181  1.00  0.00     0.211 HD
ENDBRANCH   2  21
BRANCH   6  23
ATOM     23  O   UNL     1      -6.517  29.670  13.955  1.00  0.00    -0.462 OA
BRANCH  23  24
ATOM     24  C   UNL     1      -6.267  29.066  15.166  1.00  0.00     0.130 A 
ATOM     25  C   UNL     1      -5.534  29.907  16.027  1.00  0.00     0.093 A 
ATOM     26  C   UNL     1      -6.798  27.840  15.607  1.00  0.00     0.094 A 
ATOM     27  C   UNL     1      -5.159  29.375  17.252  1.00  0.00     0.133 A 
ATOM     28  C   UNL     1      -6.786  27.617  16.975  1.00  0.00     0.138 A 
ATOM     29  C   UNL     1      -5.853  28.273  17.785  1.00  0.00     0.102 A 
ATOM     30  O   UNL     1      -7.792  26.794  17.567  1.00  0.00    -0.484 OA
ATOM     31  C   UNL     1      -5.918  28.041  19.240  1.00  0.00     0.174 C 
ATOM     32  C   UNL     1      -8.111  26.948  18.963  1.00  0.00     0.211 C 
ATOM     33  O   UNL     1      -5.305  28.800  20.032  1.00  0.00    -0.294 OA
ATOM     34  C   UNL     1      -6.772  26.936  19.758  1.00  0.00     0.131 C 
BRANCH  27  35
ATOM     35  O   UNL     1      -4.067  29.978  17.876  1.00  0.00    -0.507 OA
ATOM     36  H   UNL     1      -3.790  29.678  18.792  1.00  0.00     0.293 HD
ENDBRANCH  27  35
BRANCH  32  37
ATOM     37  C   UNL     1      -8.974  28.180  19.238  1.00  0.00    -0.007 A 
ATOM     38  C   UNL     1      -9.482  28.995  18.163  1.00  0.00     0.011 A 
ATOM     39  C   UNL     1      -9.350  28.532  20.528  1.00  0.00     0.011 A 
ATOM     40  C   UNL     1     -10.344  30.043  18.428  1.00  0.00     0.046 A 
ATOM     41  C   UNL     1     -10.337  29.467  20.777  1.00  0.00     0.046 A 
ATOM     42  C   UNL     1     -10.761  30.290  19.758  1.00  0.00     0.115 A 
BRANCH  42  43
ATOM     43  O   UNL     1     -11.615  31.364  20.061  1.00  0.00    -0.508 OA
ATOM     44  H   UNL     1     -11.671  31.737  21.001  1.00  0.00     0.293 HD
ENDBRANCH  42  43
ENDBRANCH  32  37
ENDBRANCH  23  24
ENDBRANCH   6  23
BRANCH   3  45
ATOM     45  O   UNL     1      -9.143  31.983  10.876  1.00  0.00    -0.387 OA
ATOM     46  H   UNL     1      -9.277  32.945  10.795  1.00  0.00     0.211 HD
ENDBRANCH   3  45
BRANCH   4  47
ATOM     47  C   UNL     1      -5.706  31.748  11.707  1.00  0.00     0.191 C 
BRANCH  47  48
ATOM     48  O   UNL     1      -4.581  30.936  11.998  1.00  0.00    -0.394 OA
ATOM     49  H   UNL     1      -4.931  30.018  11.741  1.00  0.00     0.210 HD
ENDBRANCH  47  48
ENDBRANCH   4  47
TORSDOF 14
ENDMDL
MODEL 7
REMARK VINA RESULT:     1.642      2.062      9.097
REMARK INTER + INTRA:           1.961
REMARK INTER:                   3.477
REMARK INTRA:                  -1.516
REMARK UNBOUND:                -0.641
REMARK SMILES C[C@H]1O[C@@H](O[C@H]2[C@H](Oc3cc(O)c4c(c3)O[C@H](c3ccc(O)cc3)CC4=O)O[C@H](CO)[C@@H](O)[C@H]2O)[C@@H](O)[C@H](O)[C@@H]1O
REMARK SMILES IDX 6 1 34 2 32 3 29 4 28 5 7 6 5 7 4 8 1 9 2 10 40 11 3 12
REMARK SMILES IDX 38 13 36 14 41 15 39 17 37 19 35 21 8 23 9 24 10 25 15 26
REMARK SMILES IDX 11 27 14 28 13 29 16 30 26 31 17 32 27 33 25 34 12 35 18 37
REMARK SMILES IDX 19 38 24 39 20 40 23 41 21 42 22 43 33 45 30 47 31 48
REMARK H PARENT 41 16 39 18 37 20 35 22 12 36 22 44 33 46 31 49
REMARK Flexibility Score: inf
ROOT
ATOM      1  C   UNL     1      -8.987  27.877  12.750  1.00  0.00     0.221 C 
ATOM      2  C   UNL     1      -9.814  26.569  12.531  1.00  0.00     0.181 C 
ATOM      3  C   UNL     1     -11.323  27.011  12.212  1.00  0.00     0.177 C 
ATOM      4  C   UNL     1     -11.847  28.391  12.834  1.00  0.00     0.179 C 
ATOM      5  O   UNL     1     -10.865  29.311  13.333  1.00  0.00    -0.332 OA
ATOM      6  C   UNL     1      -9.625  28.772  13.869  1.00  0.00     0.339 C 
ENDROOT
BRANCH   1   7
ATOM      7  O   UNL     1      -8.805  28.607  11.517  1.00  0.00    -0.337 OA
BRANCH   7   8
ATOM      8  C   UNL     1      -7.435  28.922  11.266  1.00  0.00     0.282 C 
ATOM      9  C   UNL     1      -6.262  29.269  14.188  1.00  0.00     0.041 C 
ATOM     10  C   UNL     1      -5.569  28.774  12.890  1.00  0.00     0.150 C 
ATOM     11  C   UNL     1      -4.769  29.743  11.975  1.00  0.00     0.174 C 
ATOM     12  O   UNL     1      -6.556  28.115  12.074  1.00  0.00    -0.344 OA
ATOM     13  C   UNL     1      -5.756  30.960  11.678  1.00  0.00     0.179 C 
ATOM     14  C   UNL     1      -7.067  30.477  10.968  1.00  0.00     0.202 C 
BRANCH  11  15
ATOM     15  O   UNL     1      -4.485  28.943  10.875  1.00  0.00    -0.388 OA
ATOM     16  H   UNL     1      -3.632  29.361  10.514  1.00  0.00     0.211 HD
ENDBRANCH  11  15
BRANCH  13  17
ATOM     17  O   UNL     1      -5.082  32.025  11.001  1.00  0.00    -0.387 OA
ATOM     18  H   UNL     1      -4.602  32.561  11.675  1.00  0.00     0.211 HD
ENDBRANCH  13  17
BRANCH  14  19
ATOM     19  O   UNL     1      -8.158  31.322  11.263  1.00  0.00    -0.385 OA
ATOM     20  H   UNL     1      -8.058  31.809  12.144  1.00  0.00     0.211 HD
ENDBRANCH  14  19
ENDBRANCH   7   8
ENDBRANCH   1   7
BRANCH   2  21
ATOM     21  O   UNL     1      -9.282  25.613  11.570  1.00  0.00    -0.387 OA
ATOM     22  H   UNL     1      -9.138  26.074  10.671  1.00  0.00     0.211 HD
ENDBRANCH   2  21
BRANCH   6  23
ATOM     23  O   UNL     1      -9.696  27.940  15.021  1.00  0.00    -0.462 OA
BRANCH  23  24
ATOM     24  C   UNL     1      -9.930  28.331  16.319  1.00  0.00     0.130 A 
ATOM     25  C   UNL     1     -10.559  27.315  17.066  1.00  0.00     0.093 A 
ATOM     26  C   UNL     1      -9.468  29.514  16.926  1.00  0.00     0.094 A 
ATOM     27  C   UNL     1     -10.913  27.623  18.371  1.00  0.00     0.133 A 
ATOM     28  C   UNL     1      -9.430  29.525  18.312  1.00  0.00     0.138 A 
ATOM     29  C   UNL     1     -10.274  28.683  19.043  1.00  0.00     0.102 A 
ATOM     30  O   UNL     1      -8.458  30.324  18.987  1.00  0.00    -0.484 OA
ATOM     31  C   UNL     1     -10.157  28.695  20.513  1.00  0.00     0.174 C 
ATOM     32  C   UNL     1      -8.063  29.984  20.330  1.00  0.00     0.211 C 
ATOM     33  O   UNL     1     -10.675  27.778  21.200  1.00  0.00    -0.294 OA
ATOM     34  C   UNL     1      -9.360  29.771  21.165  1.00  0.00     0.131 C 
BRANCH  27  35
ATOM     35  O   UNL     1     -11.927  26.849  18.933  1.00  0.00    -0.507 OA
ATOM     36  H   UNL     1     -12.195  26.998  19.888  1.00  0.00     0.293 HD
ENDBRANCH  27  35
BRANCH  32  37
ATOM     37  C   UNL     1      -7.102  28.797  20.379  1.00  0.00    -0.007 A 
ATOM     38  C   UNL     1      -6.818  28.013  19.204  1.00  0.00     0.011 A 
ATOM     39  C   UNL     1      -6.422  28.459  21.543  1.00  0.00     0.011 A 
ATOM     40  C   UNL     1      -5.869  27.008  19.247  1.00  0.00     0.046 A 
ATOM     41  C   UNL     1      -5.360  27.573  21.542  1.00  0.00     0.046 A 
ATOM     42  C   UNL     1      -5.144  26.777  20.440  1.00  0.00     0.115 A 
BRANCH  42  43
ATOM     43  O   UNL     1      -4.193  25.745  20.521  1.00  0.00    -0.508 OA
ATOM     44  H   UNL     1      -4.432  24.794  20.267  1.00  0.00     0.293 HD
ENDBRANCH  42  43
ENDBRANCH  32  37
ENDBRANCH  23  24
ENDBRANCH   6  23
BRANCH   3  45
ATOM     45  O   UNL     1     -11.577  26.941  10.875  1.00  0.00    -0.387 OA
ATOM     46  H   UNL     1     -11.806  26.041  10.582  1.00  0.00     0.211 HD
ENDBRANCH   3  45
BRANCH   4  47
ATOM     47  C   UNL     1     -12.721  27.920  14.084  1.00  0.00     0.191 C 
BRANCH  47  48
ATOM     48  O   UNL     1     -13.240  26.609  13.938  1.00  0.00    -0.394 OA
ATOM     49  H   UNL     1     -12.890  26.361  13.018  1.00  0.00     0.210 HD
ENDBRANCH  47  48
ENDBRANCH   4  47
TORSDOF 14
ENDMDL
MODEL 8
REMARK VINA RESULT:     1.815      2.195      8.508
REMARK INTER + INTRA:           2.235
REMARK INTER:                   4.092
REMARK INTRA:                  -1.858
REMARK UNBOUND:                -0.641
REMARK SMILES C[C@H]1O[C@@H](O[C@H]2[C@H](Oc3cc(O)c4c(c3)O[C@H](c3ccc(O)cc3)CC4=O)O[C@H](CO)[C@@H](O)[C@H]2O)[C@@H](O)[C@H](O)[C@@H]1O
REMARK SMILES IDX 6 1 34 2 32 3 29 4 28 5 7 6 5 7 4 8 1 9 2 10 40 11 3 12
REMARK SMILES IDX 38 13 36 14 41 15 39 17 37 19 35 21 8 23 9 24 10 25 15 26
REMARK SMILES IDX 11 27 14 28 13 29 16 30 26 31 17 32 27 33 25 34 12 35 18 37
REMARK SMILES IDX 19 38 24 39 20 40 23 41 21 42 22 43 33 45 30 47 31 48
REMARK H PARENT 41 16 39 18 37 20 35 22 12 36 22 44 33 46 31 49
REMARK Flexibility Score: inf
ROOT
ATOM      1  C   UNL     1      -7.821  27.544  12.927  1.00  0.00     0.221 C 
ATOM      2  C   UNL     1      -7.602  26.003  13.074  1.00  0.00     0.181 C 
ATOM      3  C   UNL     1      -8.271  25.306  11.793  1.00  0.00     0.177 C 
ATOM      4  C   UNL     1      -9.515  26.042  11.104  1.00  0.00     0.179 C 
ATOM      5  O   UNL     1      -9.738  27.421  11.433  1.00  0.00    -0.332 OA
ATOM      6  C   UNL     1      -9.341  27.888  12.752  1.00  0.00     0.339 C 
ENDROOT
BRANCH   1   7
ATOM      7  O   UNL     1      -7.019  28.098  11.861  1.00  0.00    -0.337 OA
BRANCH   7   8
ATOM      8  C   UNL     1      -5.728  28.514  12.310  1.00  0.00     0.282 C 
ATOM      9  C   UNL     1      -6.370  29.853  15.108  1.00  0.00     0.041 C 
ATOM     10  C   UNL     1      -5.096  29.105  14.631  1.00  0.00     0.150 C 
ATOM     11  C   UNL     1      -3.875  29.869  14.046  1.00  0.00     0.174 C 
ATOM     12  O   UNL     1      -5.490  28.107  13.670  1.00  0.00    -0.344 OA
ATOM     13  C   UNL     1      -4.468  30.798  12.893  1.00  0.00     0.179 C 
ATOM     14  C   UNL     1      -5.182  29.952  11.783  1.00  0.00     0.202 C 
BRANCH  11  15
ATOM     15  O   UNL     1      -3.065  28.833  13.599  1.00  0.00    -0.388 OA
ATOM     16  H   UNL     1      -3.081  28.187  14.383  1.00  0.00     0.211 HD
ENDBRANCH  11  15
BRANCH  13  17
ATOM     17  O   UNL     1      -3.480  31.704  12.393  1.00  0.00    -0.387 OA
ATOM     18  H   UNL     1      -2.716  31.174  12.066  1.00  0.00     0.211 HD
ENDBRANCH  13  17
BRANCH  14  19
ATOM     19  O   UNL     1      -6.208  30.685  11.152  1.00  0.00    -0.385 OA
ATOM     20  H   UNL     1      -6.892  30.099  10.693  1.00  0.00     0.211 HD
ENDBRANCH  14  19
ENDBRANCH   7   8
ENDBRANCH   1   7
BRANCH   2  21
ATOM     21  O   UNL     1      -6.237  25.558  13.321  1.00  0.00    -0.387 OA
ATOM     22  H   UNL     1      -5.960  24.888  12.603  1.00  0.00     0.211 HD
ENDBRANCH   2  21
BRANCH   6  23
ATOM     23  O   UNL     1      -9.987  27.324  13.888  1.00  0.00    -0.462 OA
BRANCH  23  24
ATOM     24  C   UNL     1     -10.225  27.932  15.099  1.00  0.00     0.130 A 
ATOM     25  C   UNL     1     -10.965  27.101  15.964  1.00  0.00     0.093 A 
ATOM     26  C   UNL     1      -9.678  29.153  15.537  1.00  0.00     0.094 A 
ATOM     27  C   UNL     1     -11.329  27.639  17.190  1.00  0.00     0.133 A 
ATOM     28  C   UNL     1      -9.682  29.378  16.905  1.00  0.00     0.138 A 
ATOM     29  C   UNL     1     -10.620  28.734  17.718  1.00  0.00     0.102 A 
ATOM     30  O   UNL     1      -8.664  30.189  17.492  1.00  0.00    -0.484 OA
ATOM     31  C   UNL     1     -10.547  28.967  19.173  1.00  0.00     0.174 C 
ATOM     32  C   UNL     1      -8.342  30.033  18.887  1.00  0.00     0.211 C 
ATOM     33  O   UNL     1     -11.165  28.216  19.969  1.00  0.00    -0.294 OA
ATOM     34  C   UNL     1      -9.678  30.062  19.687  1.00  0.00     0.131 C 
BRANCH  27  35
ATOM     35  O   UNL     1     -12.426  27.050  17.818  1.00  0.00    -0.507 OA
ATOM     36  H   UNL     1     -12.360  26.783  18.783  1.00  0.00     0.293 HD
ENDBRANCH  27  35
BRANCH  32  37
ATOM     37  C   UNL     1      -7.492  28.792  19.160  1.00  0.00    -0.007 A 
ATOM     38  C   UNL     1      -6.911  28.029  18.084  1.00  0.00     0.011 A 
ATOM     39  C   UNL     1      -7.200  28.380  20.454  1.00  0.00     0.011 A 
ATOM     40  C   UNL     1      -6.063  26.971  18.356  1.00  0.00     0.046 A 
ATOM     41  C   UNL     1      -6.227  27.436  20.723  1.00  0.00     0.046 A 
ATOM     42  C   UNL     1      -5.732  26.663  19.697  1.00  0.00     0.115 A 
BRANCH  42  43
ATOM     43  O   UNL     1      -4.895  25.578  20.005  1.00  0.00    -0.508 OA
ATOM     44  H   UNL     1      -4.071  25.700  20.582  1.00  0.00     0.293 HD
ENDBRANCH  42  43
ENDBRANCH  32  37
ENDBRANCH  23  24
ENDBRANCH   6  23
BRANCH   3  45
ATOM     45  O   UNL     1      -7.324  24.966  10.875  1.00  0.00    -0.387 OA
ATOM     46  H   UNL     1      -7.417  25.456  10.038  1.00  0.00     0.211 HD
ENDBRANCH   3  45
BRANCH   4  47
ATOM     47  C   UNL     1     -10.772  25.225  11.651  1.00  0.00     0.191 C 
BRANCH  47  48
ATOM     48  O   UNL     1     -11.894  26.046  11.928  1.00  0.00    -0.394 OA
ATOM     49  H   UNL     1     -12.264  25.597  12.761  1.00  0.00     0.210 HD
ENDBRANCH  47  48
ENDBRANCH   4  47
TORSDOF 14
ENDMDL
