MODEL 1
REMARK VINA RESULT:    -5.189      0.000      0.000
REMARK INTER + INTRA:          -6.407
REMARK INTER:                  -6.099
REMARK INTRA:                  -0.308
REMARK UNBOUND:                -0.308
REMARK SMILES O=c1cc(-c2ccc(O)c(O)c2)oc2cc(O)cc(O)c12
REMARK SMILES IDX 4 1 3 2 2 3 1 4 21 5 19 6 18 7 16 8 15 9 14 10 13 11 5 12
REMARK SMILES IDX 6 13 7 14 8 15 12 16 10 17 9 18 11 20 20 22 17 24
REMARK H PARENT 9 19 11 21 20 23 17 25
REMARK Flexibility Score: inf
ROOT
ATOM      1  C   UNL     1     -33.548   9.949 -36.120  1.00  0.00     0.138 A 
ATOM      2  C   UNL     1     -32.555   9.485 -36.998  1.00  0.00     0.100 A 
ATOM      3  C   UNL     1     -32.865   9.291 -38.345  1.00  0.00     0.197 A 
ATOM      4  O   UNL     1     -31.967   8.875 -39.125  1.00  0.00    -0.289 OA
ATOM      5  C   UNL     1     -34.168   9.568 -38.805  1.00  0.00     0.107 A 
ATOM      6  C   UNL     1     -34.565   9.399 -40.153  1.00  0.00     0.134 A 
ATOM      7  C   UNL     1     -35.881   9.703 -40.532  1.00  0.00     0.093 A 
ATOM      8  C   UNL     1     -36.804  10.172 -39.595  1.00  0.00     0.123 A 
ATOM      9  C   UNL     1     -36.417  10.342 -38.261  1.00  0.00     0.094 A 
ATOM     10  C   UNL     1     -35.111  10.044 -37.862  1.00  0.00     0.146 A 
ATOM     11  O   UNL     1     -34.766  10.211 -36.589  1.00  0.00    -0.456 OA
ENDROOT
BRANCH   1  12
ATOM     12  C   UNL     1     -33.276  10.175 -34.678  1.00  0.00     0.021 A 
ATOM     13  C   UNL     1     -32.257   9.443 -34.043  1.00  0.00     0.016 A 
ATOM     14  C   UNL     1     -31.976   9.641 -32.689  1.00  0.00     0.051 A 
ATOM     15  C   UNL     1     -32.702  10.581 -31.949  1.00  0.00     0.157 A 
ATOM     16  C   UNL     1     -33.993  11.129 -33.929  1.00  0.00     0.062 A 
ATOM     17  C   UNL     1     -33.710  11.328 -32.570  1.00  0.00     0.158 A 
BRANCH  15  18
ATOM     18  O   UNL     1     -32.426  10.782 -30.597  1.00  0.00    -0.504 OA
ATOM     19  H   UNL     1     -32.242  10.005 -29.973  1.00  0.00     0.293 HD
ENDBRANCH  15  18
BRANCH  17  20
ATOM     20  O   UNL     1     -34.422  12.273 -31.832  1.00  0.00    -0.504 OA
ATOM     21  H   UNL     1     -34.096  13.228 -31.737  1.00  0.00     0.293 HD
ENDBRANCH  17  20
ENDBRANCH   1  12
BRANCH   6  22
ATOM     22  O   UNL     1     -33.666   8.932 -41.113  1.00  0.00    -0.507 OA
ATOM     23  H   UNL     1     -32.690   8.771 -40.895  1.00  0.00     0.293 HD
ENDBRANCH   6  22
BRANCH   8  24
ATOM     24  O   UNL     1     -38.104  10.467 -39.998  1.00  0.00    -0.508 OA
ATOM     25  H   UNL     1     -38.865   9.813 -39.856  1.00  0.00     0.293 HD
ENDBRANCH   8  24
TORSDOF 5
ENDMDL
MODEL 2
REMARK VINA RESULT:    -4.167      1.409      6.958
REMARK INTER + INTRA:          -5.206
REMARK INTER:                  -4.909
REMARK INTRA:                  -0.296
REMARK UNBOUND:                -0.308
REMARK SMILES O=c1cc(-c2ccc(O)c(O)c2)oc2cc(O)cc(O)c12
REMARK SMILES IDX 4 1 3 2 2 3 1 4 21 5 19 6 18 7 16 8 15 9 14 10 13 11 5 12
REMARK SMILES IDX 6 13 7 14 8 15 12 16 10 17 9 18 11 20 20 22 17 24
REMARK H PARENT 9 19 11 21 20 23 17 25
REMARK Flexibility Score: inf
ROOT
ATOM      1  C   UNL     1     -33.890  10.278 -36.397  1.00  0.00     0.138 A 
ATOM      2  C   UNL     1     -32.628   9.664 -36.342  1.00  0.00     0.100 A 
ATOM      3  C   UNL     1     -31.900   9.697 -35.151  1.00  0.00     0.197 A 
ATOM      4  O   UNL     1     -30.769   9.141 -35.111  1.00  0.00    -0.289 OA
ATOM      5  C   UNL     1     -32.443  10.341 -34.021  1.00  0.00     0.107 A 
ATOM      6  C   UNL     1     -31.773  10.419 -32.778  1.00  0.00     0.134 A 
ATOM      7  C   UNL     1     -32.384  11.074 -31.699  1.00  0.00     0.093 A 
ATOM      8  C   UNL     1     -33.650  11.648 -31.838  1.00  0.00     0.123 A 
ATOM      9  C   UNL     1     -34.318  11.574 -33.064  1.00  0.00     0.094 A 
ATOM     10  C   UNL     1     -33.726  10.927 -34.152  1.00  0.00     0.146 A 
ATOM     11  O   UNL     1     -34.379  10.870 -35.309  1.00  0.00    -0.456 OA
ENDROOT
BRANCH   1  12
ATOM     12  C   UNL     1     -34.710  10.275 -37.635  1.00  0.00     0.021 A 
ATOM     13  C   UNL     1     -35.898  11.025 -37.681  1.00  0.00     0.016 A 
ATOM     14  C   UNL     1     -36.683  11.044 -38.836  1.00  0.00     0.051 A 
ATOM     15  C   UNL     1     -36.289  10.323 -39.969  1.00  0.00     0.157 A 
ATOM     16  C   UNL     1     -34.313   9.562 -38.784  1.00  0.00     0.062 A 
ATOM     17  C   UNL     1     -35.101   9.583 -39.944  1.00  0.00     0.158 A 
BRANCH  15  18
ATOM     18  O   UNL     1     -37.070  10.338 -41.123  1.00  0.00    -0.504 OA
ATOM     19  H   UNL     1     -38.000   9.936 -41.139  1.00  0.00     0.293 HD
ENDBRANCH  15  18
BRANCH  17  20
ATOM     20  O   UNL     1     -34.705   8.875 -41.078  1.00  0.00    -0.504 OA
ATOM     21  H   UNL     1     -35.094   7.966 -41.299  1.00  0.00     0.293 HD
ENDBRANCH  17  20
ENDBRANCH   1  12
BRANCH   6  22
ATOM     22  O   UNL     1     -30.508   9.854 -32.608  1.00  0.00    -0.507 OA
ATOM     23  H   UNL     1     -30.266   9.330 -31.775  1.00  0.00     0.293 HD
ENDBRANCH   6  22
BRANCH   8  24
ATOM     24  O   UNL     1     -34.235  12.292 -30.750  1.00  0.00    -0.508 OA
ATOM     25  H   UNL     1     -34.980  11.859 -30.216  1.00  0.00     0.293 HD
ENDBRANCH   8  24
TORSDOF 5
ENDMDL
MODEL 3
REMARK VINA RESULT:    -3.135      1.567      2.368
REMARK INTER + INTRA:          -3.993
REMARK INTER:                  -3.675
REMARK INTRA:                  -0.318
REMARK UNBOUND:                -0.308
REMARK SMILES O=c1cc(-c2ccc(O)c(O)c2)oc2cc(O)cc(O)c12
REMARK SMILES IDX 4 1 3 2 2 3 1 4 21 5 19 6 18 7 16 8 15 9 14 10 13 11 5 12
REMARK SMILES IDX 6 13 7 14 8 15 12 16 10 17 9 18 11 20 20 22 17 24
REMARK H PARENT 9 19 11 21 20 23 17 25
REMARK Flexibility Score: inf
ROOT
ATOM      1  C   UNL     1     -32.935  10.777 -34.098  1.00  0.00     0.138 A 
ATOM      2  C   UNL     1     -31.872  10.036 -34.642  1.00  0.00     0.100 A 
ATOM      3  C   UNL     1     -31.926   9.638 -35.978  1.00  0.00     0.197 A 
ATOM      4  O   UNL     1     -30.967   8.975 -36.458  1.00  0.00    -0.289 OA
ATOM      5  C   UNL     1     -33.043   9.988 -36.764  1.00  0.00     0.107 A 
ATOM      6  C   UNL     1     -33.177   9.625 -38.125  1.00  0.00     0.134 A 
ATOM      7  C   UNL     1     -34.318  10.017 -38.839  1.00  0.00     0.093 A 
ATOM      8  C   UNL     1     -35.324  10.764 -38.222  1.00  0.00     0.123 A 
ATOM      9  C   UNL     1     -35.197  11.127 -36.877  1.00  0.00     0.094 A 
ATOM     10  C   UNL     1     -34.068  10.745 -36.147  1.00  0.00     0.146 A 
ATOM     11  O   UNL     1     -33.970  11.100 -34.869  1.00  0.00    -0.456 OA
ENDROOT
BRANCH   1  12
ATOM     12  C   UNL     1     -32.931  11.228 -32.683  1.00  0.00     0.021 A 
ATOM     13  C   UNL     1     -31.780  11.040 -31.899  1.00  0.00     0.016 A 
ATOM     14  C   UNL     1     -31.748  11.463 -30.568  1.00  0.00     0.051 A 
ATOM     15  C   UNL     1     -32.864  12.089 -30.001  1.00  0.00     0.157 A 
ATOM     16  C   UNL     1     -34.045  11.872 -32.109  1.00  0.00     0.062 A 
ATOM     17  C   UNL     1     -34.013  12.297 -30.773  1.00  0.00     0.158 A 
BRANCH  15  18
ATOM     18  O   UNL     1     -32.838  12.511 -28.672  1.00  0.00    -0.504 OA
ATOM     19  H   UNL     1     -33.687  12.600 -28.128  1.00  0.00     0.293 HD
ENDBRANCH  15  18
BRANCH  17  20
ATOM     20  O   UNL     1     -35.118  12.933 -30.208  1.00  0.00    -0.504 OA
ATOM     21  H   UNL     1     -35.328  12.853 -29.220  1.00  0.00     0.293 HD
ENDBRANCH  17  20
ENDBRANCH   1  12
BRANCH   6  22
ATOM     22  O   UNL     1     -32.189   8.879 -38.769  1.00  0.00    -0.507 OA
ATOM     23  H   UNL     1     -32.031   7.902 -38.550  1.00  0.00     0.293 HD
ENDBRANCH   6  22
BRANCH   8  24
ATOM     24  O   UNL     1     -36.447  11.142 -38.955  1.00  0.00    -0.508 OA
ATOM     25  H   UNL     1     -36.370  11.731 -39.776  1.00  0.00     0.293 HD
ENDBRANCH   8  24
TORSDOF 5
ENDMDL
MODEL 4
REMARK VINA RESULT:    -3.000     22.582     24.827
REMARK INTER + INTRA:          -3.835
REMARK INTER:                  -3.516
REMARK INTRA:                  -0.318
REMARK UNBOUND:                -0.308
REMARK SMILES O=c1cc(-c2ccc(O)c(O)c2)oc2cc(O)cc(O)c12
REMARK SMILES IDX 4 1 3 2 2 3 1 4 21 5 19 6 18 7 16 8 15 9 14 10 13 11 5 12
REMARK SMILES IDX 6 13 7 14 8 15 12 16 10 17 9 18 11 20 20 22 17 24
REMARK H PARENT 9 19 11 21 20 23 17 25
REMARK Flexibility Score: inf
ROOT
ATOM      1  C   UNL     1     -23.442  29.100 -26.241  1.00  0.00     0.138 A 
ATOM      2  C   UNL     1     -22.393  29.060 -25.307  1.00  0.00     0.100 A 
ATOM      3  C   UNL     1     -22.687  29.047 -23.943  1.00  0.00     0.197 A 
ATOM      4  O   UNL     1     -21.739  29.009 -23.114  1.00  0.00    -0.289 OA
ATOM      5  C   UNL     1     -24.032  29.070 -23.522  1.00  0.00     0.107 A 
ATOM      6  C   UNL     1     -24.417  29.059 -22.160  1.00  0.00     0.134 A 
ATOM      7  C   UNL     1     -25.778  29.078 -21.823  1.00  0.00     0.093 A 
ATOM      8  C   UNL     1     -26.759  29.106 -22.817  1.00  0.00     0.123 A 
ATOM      9  C   UNL     1     -26.384  29.116 -24.165  1.00  0.00     0.094 A 
ATOM     10  C   UNL     1     -25.034  29.099 -24.522  1.00  0.00     0.146 A 
ATOM     11  O   UNL     1     -24.701  29.111 -25.810  1.00  0.00    -0.456 OA
ENDROOT
BRANCH   1  12
ATOM     12  C   UNL     1     -23.189  29.115 -27.704  1.00  0.00     0.021 A 
ATOM     13  C   UNL     1     -21.866  29.101 -28.177  1.00  0.00     0.016 A 
ATOM     14  C   UNL     1     -21.601  29.107 -29.549  1.00  0.00     0.051 A 
ATOM     15  C   UNL     1     -22.654  29.116 -30.470  1.00  0.00     0.157 A 
ATOM     16  C   UNL     1     -24.244  29.110 -28.637  1.00  0.00     0.062 A 
ATOM     17  C   UNL     1     -23.978  29.115 -30.014  1.00  0.00     0.158 A 
BRANCH  15  18
ATOM     18  O   UNL     1     -22.395  29.124 -31.840  1.00  0.00    -0.504 OA
ATOM     19  H   UNL     1     -21.646  29.681 -32.234  1.00  0.00     0.293 HD
ENDBRANCH  15  18
BRANCH  17  20
ATOM     20  O   UNL     1     -25.025  29.112 -30.935  1.00  0.00    -0.504 OA
ATOM     21  H   UNL     1     -24.855  29.183 -31.932  1.00  0.00     0.293 HD
ENDBRANCH  17  20
ENDBRANCH   1  12
BRANCH   6  22
ATOM     22  O   UNL     1     -23.460  29.031 -21.144  1.00  0.00    -0.507 OA
ATOM     23  H   UNL     1     -22.696  29.695 -21.114  1.00  0.00     0.293 HD
ENDBRANCH   6  22
BRANCH   8  24
ATOM     24  O   UNL     1     -28.104  29.123 -22.455  1.00  0.00    -0.508 OA
ATOM     25  H   UNL     1     -28.513  28.380 -21.900  1.00  0.00     0.293 HD
ENDBRANCH   8  24
TORSDOF 5
ENDMDL
