MODEL 1
REMARK VINA RESULT:    -4.080      0.000      0.000
REMARK INTER + INTRA:          -7.470
REMARK INTER:                  -6.465
REMARK INTRA:                  -1.005
REMARK UNBOUND:                -1.005
REMARK SMILES C[C@H]1O[C@@H](O[C@H]2CC[C@@]3(C)[C@@H](CC[C@]4(C)[C@@H]3C=C[C@@]35OC[C@]6(CCC(C)(C)C[C@H]63)[C@H](O)C[C@@]45C)[C@@]2(C)CO)[C@@H](O)[C@H](O[C@@H]2O[C@@H](CO)[C@H](O)[C@@H](O)[C@@H]2O)[C@@H]1O
REMARK SMILES IDX 1 1 2 2 54 3 41 4 39 5 4 6 3 7 55 8 42 10 43 11 52 12 44 13
REMARK SMILES IDX 50 14 45 15 48 16 53 17 51 19 46 21 47 22 49 24 5 26 6 27
REMARK SMILES IDX 7 28 35 29 8 30 11 31 36 32 9 33 12 34 10 35 16 36 13 37
REMARK SMILES IDX 14 38 17 39 15 40 33 41 18 42 19 43 32 44 34 45 29 46 20 47
REMARK SMILES IDX 30 48 22 49 28 50 21 51 23 52 25 53 24 54 26 55 27 56 37 57
REMARK SMILES IDX 38 58 31 60 40 62
REMARK H PARENT 55 9 53 18 51 20 47 23 49 25 38 59 31 61 40 63
REMARK Flexibility Score: inf
ROOT
ATOM      1  C   UNL     1      14.246  53.916  21.349  1.00  0.00     0.041 C 
ATOM      2  C   UNL     1      13.908  55.319  20.832  1.00  0.00     0.150 C 
ATOM      3  C   UNL     1      15.183  56.099  20.484  1.00  0.00     0.175 C 
ATOM      4  C   UNL     1      14.734  57.398  19.804  1.00  0.00     0.186 C 
ATOM      5  C   UNL     1      13.868  58.213  20.799  1.00  0.00     0.202 C 
ATOM      6  C   UNL     1      12.865  57.359  21.667  1.00  0.00     0.282 C 
ATOM      7  O   UNL     1      13.189  55.978  21.856  1.00  0.00    -0.344 OA
ENDROOT
BRANCH   3   8
ATOM      8  O   UNL     1      15.977  55.344  19.598  1.00  0.00    -0.388 OA
ATOM      9  H   UNL     1      16.553  54.761  20.164  1.00  0.00     0.211 HD
ENDBRANCH   3   8
BRANCH   4  10
ATOM     10  O   UNL     1      14.017  57.053  18.626  1.00  0.00    -0.341 OA
BRANCH  10  11
ATOM     11  C   UNL     1      14.528  57.610  17.427  1.00  0.00     0.282 C 
ATOM     12  C   UNL     1      13.493  57.531  16.268  1.00  0.00     0.202 C 
ATOM     13  O   UNL     1      14.959  58.930  17.748  1.00  0.00    -0.341 OA
ATOM     14  C   UNL     1      14.037  58.256  15.007  1.00  0.00     0.179 C 
ATOM     15  C   UNL     1      14.670  59.942  16.800  1.00  0.00     0.178 C 
ATOM     16  C   UNL     1      14.946  59.459  15.364  1.00  0.00     0.177 C 
BRANCH  12  17
ATOM     17  O   UNL     1      12.207  58.018  16.608  1.00  0.00    -0.385 OA
ATOM     18  H   UNL     1      11.991  58.813  16.053  1.00  0.00     0.211 HD
ENDBRANCH  12  17
BRANCH  14  19
ATOM     19  O   UNL     1      14.769  57.364  14.210  1.00  0.00    -0.387 OA
ATOM     20  H   UNL     1      14.482  56.444  14.453  1.00  0.00     0.211 HD
ENDBRANCH  14  19
BRANCH  15  21
ATOM     21  C   UNL     1      15.501  61.193  17.187  1.00  0.00     0.191 C 
BRANCH  21  22
ATOM     22  O   UNL     1      16.544  61.423  16.271  1.00  0.00    -0.394 OA
ATOM     23  H   UNL     1      17.411  61.245  16.731  1.00  0.00     0.210 HD
ENDBRANCH  21  22
ENDBRANCH  15  21
BRANCH  16  24
ATOM     24  O   UNL     1      14.713  60.504  14.450  1.00  0.00    -0.387 OA
ATOM     25  H   UNL     1      15.266  60.312  13.650  1.00  0.00     0.211 HD
ENDBRANCH  16  24
ENDBRANCH  10  11
ENDBRANCH   4  10
BRANCH   6  26
ATOM     26  O   UNL     1      12.626  57.977  22.957  1.00  0.00    -0.346 OA
BRANCH  26  27
ATOM     27  C   UNL     1      11.315  58.561  23.039  1.00  0.00     0.130 C 
ATOM     28  C   UNL     1      10.488  58.005  24.221  1.00  0.00     0.033 C 
ATOM     29  C   UNL     1      11.280  60.140  23.071  1.00  0.00     0.020 C 
ATOM     30  C   UNL     1       9.003  58.280  23.969  1.00  0.00     0.010 C 
ATOM     31  C   UNL     1       9.748  60.493  22.780  1.00  0.00     0.006 C 
ATOM     32  C   UNL     1      12.172  60.697  21.927  1.00  0.00     0.017 C 
ATOM     33  C   UNL     1       8.665  59.807  23.717  1.00  0.00    -0.022 C 
ATOM     34  C   UNL     1       9.379  61.961  22.487  1.00  0.00     0.005 C 
ATOM     35  C   UNL     1       8.549  60.464  25.125  1.00  0.00     0.012 C 
ATOM     36  C   UNL     1       7.303  59.856  22.907  1.00  0.00     0.024 C 
ATOM     37  C   UNL     1       8.065  62.042  21.685  1.00  0.00     0.008 C 
ATOM     38  C   UNL     1       6.849  61.217  22.265  1.00  0.00    -0.017 C 
ATOM     39  C   UNL     1       6.132  59.183  23.586  1.00  0.00    -0.024 C 
ATOM     40  C   UNL     1       6.213  62.125  23.378  1.00  0.00     0.013 C 
ATOM     41  C   UNL     1       5.751  60.820  21.131  1.00  0.00     0.009 C 
ATOM     42  C   UNL     1       4.900  59.240  23.076  1.00  0.00     0.005 C 
ATOM     43  C   UNL     1       4.533  59.959  21.780  1.00  0.00     0.096 C 
ATOM     44  C   UNL     1       5.203  62.107  20.389  1.00  0.00     0.043 C 
ATOM     45  C   UNL     1       6.390  59.947  19.983  1.00  0.00     0.015 C 
ATOM     46  C   UNL     1       3.266  60.854  21.942  1.00  0.00     0.037 C 
ATOM     47  O   UNL     1       4.146  58.944  20.870  1.00  0.00    -0.369 OA
ATOM     48  C   UNL     1       3.780  61.968  19.754  1.00  0.00     0.124 C 
ATOM     49  C   UNL     1       2.851  60.924  20.473  1.00  0.00     0.026 C 
ATOM     50  C   UNL     1       2.126  60.274  22.816  1.00  0.00     0.014 C 
ATOM     51  C   UNL     1       3.160  59.480  20.024  1.00  0.00     0.171 C 
ATOM     52  C   UNL     1       1.344  61.268  20.253  1.00  0.00     0.013 C 
ATOM     53  C   UNL     1       0.829  61.152  22.760  1.00  0.00    -0.035 C 
ATOM     54  C   UNL     1       0.745  62.001  21.455  1.00  0.00     0.007 C 
ATOM     55  C   UNL     1       0.797  62.119  23.963  1.00  0.00     0.011 C 
ATOM     56  C   UNL     1      -0.412  60.230  22.853  1.00  0.00     0.011 C 
BRANCH  29  57
ATOM     57  C   UNL     1      11.830  60.787  24.396  1.00  0.00     0.165 C 
BRANCH  57  58
ATOM     58  O   UNL     1      13.245  60.808  24.461  1.00  0.00    -0.396 OA
ATOM     59  H   UNL     1      13.569  60.821  23.528  1.00  0.00     0.210 HD
ENDBRANCH  57  58
ENDBRANCH  29  57
BRANCH  48  60
ATOM     60  O   UNL     1       3.877  61.695  18.381  1.00  0.00    -0.392 OA
ATOM     61  H   UNL     1       3.473  60.802  18.232  1.00  0.00     0.210 HD
ENDBRANCH  48  60
ENDBRANCH  26  27
ENDBRANCH   6  26
BRANCH   5  62
ATOM     62  O   UNL     1      14.755  58.930  21.619  1.00  0.00    -0.385 OA
ATOM     63  H   UNL     1      14.802  59.859  21.274  1.00  0.00     0.211 HD
ENDBRANCH   5  62
TORSDOF 14
ENDMDL
MODEL 2
REMARK VINA RESULT:    -3.631      2.403      4.029
REMARK INTER + INTRA:          -6.759
REMARK INTER:                  -5.751
REMARK INTRA:                  -1.008
REMARK UNBOUND:                -1.005
REMARK SMILES C[C@H]1O[C@@H](O[C@H]2CC[C@@]3(C)[C@@H](CC[C@]4(C)[C@@H]3C=C[C@@]35OC[C@]6(CCC(C)(C)C[C@H]63)[C@H](O)C[C@@]45C)[C@@]2(C)CO)[C@@H](O)[C@H](O[C@@H]2O[C@@H](CO)[C@H](O)[C@@H](O)[C@@H]2O)[C@@H]1O
REMARK SMILES IDX 1 1 2 2 54 3 41 4 39 5 4 6 3 7 55 8 42 10 43 11 52 12 44 13
REMARK SMILES IDX 50 14 45 15 48 16 53 17 51 19 46 21 47 22 49 24 5 26 6 27
REMARK SMILES IDX 7 28 35 29 8 30 11 31 36 32 9 33 12 34 10 35 16 36 13 37
REMARK SMILES IDX 14 38 17 39 15 40 33 41 18 42 19 43 32 44 34 45 29 46 20 47
REMARK SMILES IDX 30 48 22 49 28 50 21 51 23 52 25 53 24 54 26 55 27 56 37 57
REMARK SMILES IDX 38 58 31 60 40 62
REMARK H PARENT 55 9 53 18 51 20 47 23 49 25 38 59 31 61 40 63
REMARK Flexibility Score: inf
ROOT
ATOM      1  C   UNL     1      11.318  57.874  18.641  1.00  0.00     0.041 C 
ATOM      2  C   UNL     1      12.475  57.343  19.495  1.00  0.00     0.150 C 
ATOM      3  C   UNL     1      12.107  56.003  20.146  1.00  0.00     0.175 C 
ATOM      4  C   UNL     1      13.382  55.470  20.810  1.00  0.00     0.186 C 
ATOM      5  C   UNL     1      13.843  56.478  21.894  1.00  0.00     0.202 C 
ATOM      6  C   UNL     1      13.706  57.998  21.494  1.00  0.00     0.282 C 
ATOM      7  O   UNL     1      12.744  58.316  20.483  1.00  0.00    -0.344 OA
ENDROOT
BRANCH   3   8
ATOM      8  O   UNL     1      11.667  55.097  19.159  1.00  0.00    -0.388 OA
ATOM      9  H   UNL     1      12.416  54.459  19.009  1.00  0.00     0.211 HD
ENDBRANCH   3   8
BRANCH   4  10
ATOM     10  O   UNL     1      14.362  55.286  19.797  1.00  0.00    -0.341 OA
BRANCH  10  11
ATOM     11  C   UNL     1      15.356  54.319  20.091  1.00  0.00     0.282 C 
ATOM     12  C   UNL     1      16.762  54.769  19.598  1.00  0.00     0.202 C 
ATOM     13  O   UNL     1      15.271  54.069  21.493  1.00  0.00    -0.341 OA
ATOM     14  C   UNL     1      17.843  53.746  20.042  1.00  0.00     0.179 C 
ATOM     15  C   UNL     1      16.497  53.935  22.190  1.00  0.00     0.178 C 
ATOM     16  C   UNL     1      17.501  53.077  21.398  1.00  0.00     0.177 C 
BRANCH  12  17
ATOM     17  O   UNL     1      17.121  56.080  19.996  1.00  0.00    -0.385 OA
ATOM     18  H   UNL     1      18.035  56.291  19.672  1.00  0.00     0.211 HD
ENDBRANCH  12  17
BRANCH  14  19
ATOM     19  O   UNL     1      17.991  52.743  19.074  1.00  0.00    -0.387 OA
ATOM     20  H   UNL     1      17.301  52.899  18.375  1.00  0.00     0.211 HD
ENDBRANCH  14  19
BRANCH  15  21
ATOM     21  C   UNL     1      16.175  53.350  23.588  1.00  0.00     0.191 C 
BRANCH  21  22
ATOM     22  O   UNL     1      17.099  53.785  24.556  1.00  0.00    -0.394 OA
ATOM     23  H   UNL     1      18.019  53.645  24.197  1.00  0.00     0.210 HD
ENDBRANCH  21  22
ENDBRANCH  15  21
BRANCH  16  24
ATOM     24  O   UNL     1      18.684  52.907  22.142  1.00  0.00    -0.387 OA
ATOM     25  H   UNL     1      19.006  53.815  22.378  1.00  0.00     0.211 HD
ENDBRANCH  16  24
ENDBRANCH  10  11
ENDBRANCH   4  10
BRANCH   6  26
ATOM     26  O   UNL     1      13.473  58.831  22.658  1.00  0.00    -0.346 OA
BRANCH  26  27
ATOM     27  C   UNL     1      12.079  59.144  22.825  1.00  0.00     0.130 C 
ATOM     28  C   UNL     1      11.434  58.380  24.005  1.00  0.00     0.033 C 
ATOM     29  C   UNL     1      11.743  60.682  22.950  1.00  0.00     0.020 C 
ATOM     30  C   UNL     1       9.914  58.372  23.827  1.00  0.00     0.010 C 
ATOM     31  C   UNL     1      10.159  60.745  22.740  1.00  0.00     0.006 C 
ATOM     32  C   UNL     1      12.453  61.458  21.806  1.00  0.00     0.017 C 
ATOM     33  C   UNL     1       9.276  59.815  23.678  1.00  0.00    -0.022 C 
ATOM     34  C   UNL     1       9.501  62.125  22.548  1.00  0.00     0.005 C 
ATOM     35  C   UNL     1       9.106  60.367  25.125  1.00  0.00     0.012 C 
ATOM     36  C   UNL     1       7.891  59.638  22.926  1.00  0.00     0.024 C 
ATOM     37  C   UNL     1       8.157  61.988  21.804  1.00  0.00     0.008 C 
ATOM     38  C   UNL     1       7.153  60.914  22.383  1.00  0.00    -0.017 C 
ATOM     39  C   UNL     1       6.908  58.717  23.610  1.00  0.00    -0.024 C 
ATOM     40  C   UNL     1       6.411  61.625  23.570  1.00  0.00     0.013 C 
ATOM     41  C   UNL     1       6.097  60.367  21.272  1.00  0.00     0.009 C 
ATOM     42  C   UNL     1       5.663  58.558  23.154  1.00  0.00     0.005 C 
ATOM     43  C   UNL     1       5.101  59.255  21.917  1.00  0.00     0.096 C 
ATOM     44  C   UNL     1       5.276  61.558  20.627  1.00  0.00     0.043 C 
ATOM     45  C   UNL     1       6.834  59.693  20.050  1.00  0.00     0.015 C 
ATOM     46  C   UNL     1       3.696  59.877  22.180  1.00  0.00     0.037 C 
ATOM     47  O   UNL     1       4.872  58.230  20.966  1.00  0.00    -0.369 OA
ATOM     48  C   UNL     1       3.876  61.176  20.042  1.00  0.00     0.124 C 
ATOM     49  C   UNL     1       3.202  59.937  20.735  1.00  0.00     0.026 C 
ATOM     50  C   UNL     1       2.733  59.043  23.063  1.00  0.00     0.014 C 
ATOM     51  C   UNL     1       3.760  58.605  20.191  1.00  0.00     0.171 C 
ATOM     52  C   UNL     1       1.648  59.991  20.594  1.00  0.00     0.013 C 
ATOM     53  C   UNL     1       1.290  59.653  23.109  1.00  0.00    -0.035 C 
ATOM     54  C   UNL     1       0.980  60.533  21.860  1.00  0.00     0.007 C 
ATOM     55  C   UNL     1       1.133  60.535  24.367  1.00  0.00     0.011 C 
ATOM     56  C   UNL     1       0.256  58.504  23.198  1.00  0.00     0.011 C 
BRANCH  29  57
ATOM     57  C   UNL     1      12.223  61.358  24.287  1.00  0.00     0.165 C 
BRANCH  57  58
ATOM     58  O   UNL     1      13.411  60.785  24.807  1.00  0.00    -0.396 OA
ATOM     59  H   UNL     1      13.624  60.011  24.232  1.00  0.00     0.210 HD
ENDBRANCH  57  58
ENDBRANCH  29  57
BRANCH  48  60
ATOM     60  O   UNL     1       3.955  60.995  18.653  1.00  0.00    -0.392 OA
ATOM     61  H   UNL     1       3.026  60.972  18.309  1.00  0.00     0.210 HD
ENDBRANCH  48  60
ENDBRANCH  26  27
ENDBRANCH   6  26
BRANCH   5  62
ATOM     62  O   UNL     1      13.102  56.197  23.054  1.00  0.00    -0.385 OA
ATOM     63  H   UNL     1      13.603  56.562  23.829  1.00  0.00     0.211 HD
ENDBRANCH   5  62
TORSDOF 14
ENDMDL
MODEL 3
REMARK VINA RESULT:    -2.312      2.400     11.737
REMARK INTER + INTRA:          -4.669
REMARK INTER:                  -3.648
REMARK INTRA:                  -1.021
REMARK UNBOUND:                -1.005
REMARK SMILES C[C@H]1O[C@@H](O[C@H]2CC[C@@]3(C)[C@@H](CC[C@]4(C)[C@@H]3C=C[C@@]35OC[C@]6(CCC(C)(C)C[C@H]63)[C@H](O)C[C@@]45C)[C@@]2(C)CO)[C@@H](O)[C@H](O[C@@H]2O[C@@H](CO)[C@H](O)[C@@H](O)[C@@H]2O)[C@@H]1O
REMARK SMILES IDX 1 1 2 2 54 3 41 4 39 5 4 6 3 7 55 8 42 10 43 11 52 12 44 13
REMARK SMILES IDX 50 14 45 15 48 16 53 17 51 19 46 21 47 22 49 24 5 26 6 27
REMARK SMILES IDX 7 28 35 29 8 30 11 31 36 32 9 33 12 34 10 35 16 36 13 37
REMARK SMILES IDX 14 38 17 39 15 40 33 41 18 42 19 43 32 44 34 45 29 46 20 47
REMARK SMILES IDX 30 48 22 49 28 50 21 51 23 52 25 53 24 54 26 55 27 56 37 57
REMARK SMILES IDX 38 58 31 60 40 62
REMARK H PARENT 55 9 53 18 51 20 47 23 49 25 38 59 31 61 40 63
REMARK Flexibility Score: inf
ROOT
ATOM      1  C   UNL     1       6.169  61.109  17.979  1.00  0.00     0.041 C 
ATOM      2  C   UNL     1       5.518  60.646  19.287  1.00  0.00     0.150 C 
ATOM      3  C   UNL     1       4.249  61.455  19.587  1.00  0.00     0.175 C 
ATOM      4  C   UNL     1       3.579  60.793  20.795  1.00  0.00     0.186 C 
ATOM      5  C   UNL     1       4.546  60.857  22.005  1.00  0.00     0.202 C 
ATOM      6  C   UNL     1       6.062  60.585  21.663  1.00  0.00     0.282 C 
ATOM      7  O   UNL     1       6.473  60.826  20.313  1.00  0.00    -0.344 OA
ENDROOT
BRANCH   3   8
ATOM      8  O   UNL     1       3.382  61.412  18.475  1.00  0.00    -0.388 OA
ATOM      9  H   UNL     1       3.189  60.450  18.307  1.00  0.00     0.211 HD
ENDBRANCH   3   8
BRANCH   4  10
ATOM     10  O   UNL     1       3.252  59.456  20.440  1.00  0.00    -0.341 OA
BRANCH  10  11
ATOM     11  C   UNL     1       1.982  59.008  20.884  1.00  0.00     0.282 C 
ATOM     12  C   UNL     1       2.107  57.934  22.003  1.00  0.00     0.202 C 
ATOM     13  O   UNL     1       1.254  60.175  21.261  1.00  0.00    -0.341 OA
ATOM     14  C   UNL     1       0.704  57.556  22.549  1.00  0.00     0.179 C 
ATOM     15  C   UNL     1       0.475  60.085  22.441  1.00  0.00     0.178 C 
ATOM     16  C   UNL     1      -0.286  58.748  22.509  1.00  0.00     0.177 C 
BRANCH  12  17
ATOM     17  O   UNL     1       2.973  58.302  23.062  1.00  0.00    -0.385 OA
ATOM     18  H   UNL     1       3.610  58.997  22.749  1.00  0.00     0.211 HD
ENDBRANCH  12  17
BRANCH  14  19
ATOM     19  O   UNL     1       0.161  56.499  21.806  1.00  0.00    -0.387 OA
ATOM     20  H   UNL     1      -0.787  56.393  22.088  1.00  0.00     0.211 HD
ENDBRANCH  14  19
BRANCH  15  21
ATOM     21  C   UNL     1      -0.465  61.317  22.472  1.00  0.00     0.191 C 
BRANCH  21  22
ATOM     22  O   UNL     1      -1.102  61.449  23.720  1.00  0.00    -0.394 OA
ATOM     23  H   UNL     1      -0.696  60.792  24.351  1.00  0.00     0.210 HD
ENDBRANCH  21  22
ENDBRANCH  15  21
BRANCH  16  24
ATOM     24  O   UNL     1      -1.100  58.714  23.657  1.00  0.00    -0.387 OA
ATOM     25  H   UNL     1      -1.458  57.791  23.725  1.00  0.00     0.211 HD
ENDBRANCH  16  24
ENDBRANCH  10  11
ENDBRANCH   4  10
BRANCH   6  26
ATOM     26  O   UNL     1       6.943  61.297  22.568  1.00  0.00    -0.346 OA
BRANCH  26  27
ATOM     27  C   UNL     1       8.287  60.786  22.524  1.00  0.00     0.130 C 
ATOM     28  C   UNL     1       9.335  61.888  22.243  1.00  0.00     0.033 C 
ATOM     29  C   UNL     1       8.732  59.947  23.786  1.00  0.00     0.020 C 
ATOM     30  C   UNL     1      10.624  61.238  21.736  1.00  0.00     0.010 C 
ATOM     31  C   UNL     1      10.068  59.213  23.305  1.00  0.00     0.006 C 
ATOM     32  C   UNL     1       7.642  58.888  24.111  1.00  0.00     0.017 C 
ATOM     33  C   UNL     1      11.215  60.135  22.708  1.00  0.00    -0.022 C 
ATOM     34  C   UNL     1      10.656  58.104  24.199  1.00  0.00     0.005 C 
ATOM     35  C   UNL     1      12.029  60.904  23.792  1.00  0.00     0.012 C 
ATOM     36  C   UNL     1      12.124  59.177  21.830  1.00  0.00     0.024 C 
ATOM     37  C   UNL     1      11.533  57.144  23.370  1.00  0.00     0.008 C 
ATOM     38  C   UNL     1      12.625  57.824  22.453  1.00  0.00    -0.017 C 
ATOM     39  C   UNL     1      13.252  59.863  21.096  1.00  0.00    -0.024 C 
ATOM     40  C   UNL     1      13.849  58.112  23.394  1.00  0.00     0.013 C 
ATOM     41  C   UNL     1      13.060  56.896  21.188  1.00  0.00     0.009 C 
ATOM     42  C   UNL     1      14.163  59.172  20.408  1.00  0.00     0.005 C 
ATOM     43  C   UNL     1      14.172  57.651  20.272  1.00  0.00     0.096 C 
ATOM     44  C   UNL     1      13.588  55.483  21.670  1.00  0.00     0.043 C 
ATOM     45  C   UNL     1      11.829  56.560  20.261  1.00  0.00     0.015 C 
ATOM     46  C   UNL     1      15.585  57.045  20.529  1.00  0.00     0.037 C 
ATOM     47  O   UNL     1      13.906  57.383  18.906  1.00  0.00    -0.369 OA
ATOM     48  C   UNL     1      14.570  54.758  20.692  1.00  0.00     0.124 C 
ATOM     49  C   UNL     1      15.405  55.726  19.779  1.00  0.00     0.026 C 
ATOM     50  C   UNL     1      16.786  57.847  19.966  1.00  0.00     0.014 C 
ATOM     51  C   UNL     1      14.590  56.205  18.559  1.00  0.00     0.171 C 
ATOM     52  C   UNL     1      16.744  55.060  19.331  1.00  0.00     0.013 C 
ATOM     53  C   UNL     1      18.138  57.066  20.103  1.00  0.00    -0.035 C 
ATOM     54  C   UNL     1      17.925  55.524  20.185  1.00  0.00     0.007 C 
ATOM     55  C   UNL     1      18.877  57.516  21.382  1.00  0.00     0.011 C 
ATOM     56  C   UNL     1      19.040  57.396  18.888  1.00  0.00     0.011 C 
BRANCH  29  57
ATOM     57  C   UNL     1       8.920  60.786  25.104  1.00  0.00     0.165 C 
BRANCH  57  58
ATOM     58  O   UNL     1       8.445  62.116  24.992  1.00  0.00    -0.396 OA
ATOM     59  H   UNL     1       8.390  62.314  24.025  1.00  0.00     0.210 HD
ENDBRANCH  57  58
ENDBRANCH  29  57
BRANCH  48  60
ATOM     60  O   UNL     1      13.885  53.805  19.922  1.00  0.00    -0.392 OA
ATOM     61  H   UNL     1      13.302  54.303  19.293  1.00  0.00     0.210 HD
ENDBRANCH  48  60
ENDBRANCH  26  27
ENDBRANCH   6  26
BRANCH   5  62
ATOM     62  O   UNL     1       4.385  62.125  22.589  1.00  0.00    -0.385 OA
ATOM     63  H   UNL     1       4.869  62.782  22.025  1.00  0.00     0.211 HD
ENDBRANCH   5  62
TORSDOF 14
ENDMDL
MODEL 4
REMARK VINA RESULT:    -1.937      1.615      2.484
REMARK INTER + INTRA:          -4.074
REMARK INTER:                  -2.400
REMARK INTRA:                  -1.674
REMARK UNBOUND:                -1.005
REMARK SMILES C[C@H]1O[C@@H](O[C@H]2CC[C@@]3(C)[C@@H](CC[C@]4(C)[C@@H]3C=C[C@@]35OC[C@]6(CCC(C)(C)C[C@H]63)[C@H](O)C[C@@]45C)[C@@]2(C)CO)[C@@H](O)[C@H](O[C@@H]2O[C@@H](CO)[C@H](O)[C@@H](O)[C@@H]2O)[C@@H]1O
REMARK SMILES IDX 1 1 2 2 54 3 41 4 39 5 4 6 3 7 55 8 42 10 43 11 52 12 44 13
REMARK SMILES IDX 50 14 45 15 48 16 53 17 51 19 46 21 47 22 49 24 5 26 6 27
REMARK SMILES IDX 7 28 35 29 8 30 11 31 36 32 9 33 12 34 10 35 16 36 13 37
REMARK SMILES IDX 14 38 17 39 15 40 33 41 18 42 19 43 32 44 34 45 29 46 20 47
REMARK SMILES IDX 30 48 22 49 28 50 21 51 23 52 25 53 24 54 26 55 27 56 37 57
REMARK SMILES IDX 38 58 31 60 40 62
REMARK H PARENT 55 9 53 18 51 20 47 23 49 25 38 59 31 61 40 63
REMARK Flexibility Score: inf
ROOT
ATOM      1  C   UNL     1      11.447  55.828  19.691  1.00  0.00     0.041 C 
ATOM      2  C   UNL     1      12.820  56.284  20.197  1.00  0.00     0.150 C 
ATOM      3  C   UNL     1      13.655  55.088  20.675  1.00  0.00     0.175 C 
ATOM      4  C   UNL     1      15.060  55.623  20.975  1.00  0.00     0.186 C 
ATOM      5  C   UNL     1      14.964  56.685  22.100  1.00  0.00     0.202 C 
ATOM      6  C   UNL     1      13.727  57.658  21.996  1.00  0.00     0.282 C 
ATOM      7  O   UNL     1      12.592  57.185  21.263  1.00  0.00    -0.344 OA
ENDROOT
BRANCH   3   8
ATOM      8  O   UNL     1      13.720  54.115  19.656  1.00  0.00    -0.388 OA
ATOM      9  H   UNL     1      12.791  53.784  19.525  1.00  0.00     0.211 HD
ENDBRANCH   3   8
BRANCH   4  10
ATOM     10  O   UNL     1      15.593  56.161  19.772  1.00  0.00    -0.341 OA
BRANCH  10  11
ATOM     11  C   UNL     1      16.368  57.338  19.931  1.00  0.00     0.282 C 
ATOM     12  C   UNL     1      17.878  57.073  19.667  1.00  0.00     0.202 C 
ATOM     13  O   UNL     1      15.781  58.323  19.083  1.00  0.00    -0.341 OA
ATOM     14  C   UNL     1      18.679  58.402  19.731  1.00  0.00     0.179 C 
ATOM     15  C   UNL     1      16.674  59.153  18.361  1.00  0.00     0.178 C 
ATOM     16  C   UNL     1      17.846  59.616  19.245  1.00  0.00     0.177 C 
BRANCH  12  17
ATOM     17  O   UNL     1      18.142  56.389  18.456  1.00  0.00    -0.385 OA
ATOM     18  H   UNL     1      18.954  56.766  18.027  1.00  0.00     0.211 HD
ENDBRANCH  12  17
BRANCH  14  19
ATOM     19  O   UNL     1      19.107  58.651  21.043  1.00  0.00    -0.387 OA
ATOM     20  H   UNL     1      18.364  59.114  21.516  1.00  0.00     0.211 HD
ENDBRANCH  14  19
BRANCH  15  21
ATOM     21  C   UNL     1      15.849  60.333  17.786  1.00  0.00     0.191 C 
BRANCH  21  22
ATOM     22  O   UNL     1      16.382  60.789  16.566  1.00  0.00    -0.394 OA
ATOM     23  H   UNL     1      15.762  60.522  15.833  1.00  0.00     0.210 HD
ENDBRANCH  21  22
ENDBRANCH  15  21
BRANCH  16  24
ATOM     24  O   UNL     1      18.681  60.490  18.522  1.00  0.00    -0.387 OA
ATOM     25  H   UNL     1      19.209  60.998  19.190  1.00  0.00     0.211 HD
ENDBRANCH  16  24
ENDBRANCH  10  11
ENDBRANCH   4  10
BRANCH   6  26
ATOM     26  O   UNL     1      13.298  58.109  23.306  1.00  0.00    -0.346 OA
BRANCH  26  27
ATOM     27  C   UNL     1      11.973  58.666  23.276  1.00  0.00     0.130 C 
ATOM     28  C   UNL     1      11.055  58.079  24.373  1.00  0.00     0.033 C 
ATOM     29  C   UNL     1      11.903  60.243  23.321  1.00  0.00     0.020 C 
ATOM     30  C   UNL     1       9.594  58.328  23.991  1.00  0.00     0.010 C 
ATOM     31  C   UNL     1      10.396  60.571  22.897  1.00  0.00     0.006 C 
ATOM     32  C   UNL     1      12.882  60.833  22.268  1.00  0.00     0.017 C 
ATOM     33  C   UNL     1       9.248  59.851  23.726  1.00  0.00    -0.022 C 
ATOM     34  C   UNL     1      10.025  62.034  22.589  1.00  0.00     0.005 C 
ATOM     35  C   UNL     1       8.992  60.489  25.125  1.00  0.00     0.012 C 
ATOM     36  C   UNL     1       7.963  59.884  22.798  1.00  0.00     0.024 C 
ATOM     37  C   UNL     1       8.786  62.100  21.672  1.00  0.00     0.008 C 
ATOM     38  C   UNL     1       7.541  61.244  22.132  1.00  0.00    -0.017 C 
ATOM     39  C   UNL     1       6.750  59.180  23.361  1.00  0.00    -0.024 C 
ATOM     40  C   UNL     1       6.789  62.125  23.193  1.00  0.00     0.013 C 
ATOM     41  C   UNL     1       6.557  60.839  20.900  1.00  0.00     0.009 C 
ATOM     42  C   UNL     1       5.568  59.219  22.744  1.00  0.00     0.005 C 
ATOM     43  C   UNL     1       5.303  59.947  21.428  1.00  0.00     0.096 C 
ATOM     44  C   UNL     1       6.051  62.125  20.125  1.00  0.00     0.043 C 
ATOM     45  C   UNL     1       7.314  59.993  19.804  1.00  0.00     0.015 C 
ATOM     46  C   UNL     1       4.009  60.815  21.484  1.00  0.00     0.037 C 
ATOM     47  O   UNL     1       5.021  58.936  20.476  1.00  0.00    -0.369 OA
ATOM     48  C   UNL     1       4.694  61.966  19.364  1.00  0.00     0.124 C 
ATOM     49  C   UNL     1       3.726  60.895  19.985  1.00  0.00     0.026 C 
ATOM     50  C   UNL     1       2.807  60.201  22.246  1.00  0.00     0.014 C 
ATOM     51  C   UNL     1       4.104  59.463  19.550  1.00  0.00     0.171 C 
ATOM     52  C   UNL     1       2.238  61.212  19.634  1.00  0.00     0.013 C 
ATOM     53  C   UNL     1       1.502  61.054  22.083  1.00  0.00    -0.035 C 
ATOM     54  C   UNL     1       1.519  61.917  20.785  1.00  0.00     0.007 C 
ATOM     55  C   UNL     1       1.343  62.005  23.289  1.00  0.00     0.011 C 
ATOM     56  C   UNL     1       0.277  60.107  22.055  1.00  0.00     0.011 C 
BRANCH  29  57
ATOM     57  C   UNL     1      12.318  60.884  24.697  1.00  0.00     0.165 C 
BRANCH  57  58
ATOM     58  O   UNL     1      13.676  60.658  25.031  1.00  0.00    -0.396 OA
ATOM     59  H   UNL     1      14.214  61.190  24.395  1.00  0.00     0.210 HD
ENDBRANCH  57  58
ENDBRANCH  29  57
BRANCH  48  60
ATOM     60  O   UNL     1       4.919  61.712  18.002  1.00  0.00    -0.392 OA
ATOM     61  H   UNL     1       5.589  60.983  17.949  1.00  0.00     0.210 HD
ENDBRANCH  48  60
ENDBRANCH  26  27
ENDBRANCH   6  26
BRANCH   5  62
ATOM     62  O   UNL     1      14.951  55.988  23.320  1.00  0.00    -0.385 OA
ATOM     63  H   UNL     1      15.310  56.594  24.019  1.00  0.00     0.211 HD
ENDBRANCH   5  62
TORSDOF 14
ENDMDL
MODEL 5
REMARK VINA RESULT:    -1.842      1.292      2.168
REMARK INTER + INTRA:          -3.924
REMARK INTER:                  -2.725
REMARK INTRA:                  -1.199
REMARK UNBOUND:                -1.005
REMARK SMILES C[C@H]1O[C@@H](O[C@H]2CC[C@@]3(C)[C@@H](CC[C@]4(C)[C@@H]3C=C[C@@]35OC[C@]6(CCC(C)(C)C[C@H]63)[C@H](O)C[C@@]45C)[C@@]2(C)CO)[C@@H](O)[C@H](O[C@@H]2O[C@@H](CO)[C@H](O)[C@@H](O)[C@@H]2O)[C@@H]1O
REMARK SMILES IDX 1 1 2 2 54 3 41 4 39 5 4 6 3 7 55 8 42 10 43 11 52 12 44 13
REMARK SMILES IDX 50 14 45 15 48 16 53 17 51 19 46 21 47 22 49 24 5 26 6 27
REMARK SMILES IDX 7 28 35 29 8 30 11 31 36 32 9 33 12 34 10 35 16 36 13 37
REMARK SMILES IDX 14 38 17 39 15 40 33 41 18 42 19 43 32 44 34 45 29 46 20 47
REMARK SMILES IDX 30 48 22 49 28 50 21 51 23 52 25 53 24 54 26 55 27 56 37 57
REMARK SMILES IDX 38 58 31 60 40 62
REMARK H PARENT 55 9 53 18 51 20 47 23 49 25 38 59 31 61 40 63
REMARK Flexibility Score: inf
ROOT
ATOM      1  C   UNL     1      14.282  53.099  21.325  1.00  0.00     0.041 C 
ATOM      2  C   UNL     1      14.093  54.567  20.927  1.00  0.00     0.150 C 
ATOM      3  C   UNL     1      15.446  55.278  20.788  1.00  0.00     0.175 C 
ATOM      4  C   UNL     1      15.158  56.666  20.207  1.00  0.00     0.186 C 
ATOM      5  C   UNL     1      14.248  57.445  21.191  1.00  0.00     0.202 C 
ATOM      6  C   UNL     1      13.105  56.590  21.864  1.00  0.00     0.282 C 
ATOM      7  O   UNL     1      13.316  55.176  21.938  1.00  0.00    -0.344 OA
ENDROOT
BRANCH   3   8
ATOM      8  O   UNL     1      16.278  54.554  19.910  1.00  0.00    -0.388 OA
ATOM      9  H   UNL     1      16.773  53.897  20.470  1.00  0.00     0.211 HD
ENDBRANCH   3   8
BRANCH   4  10
ATOM     10  O   UNL     1      14.547  56.493  18.935  1.00  0.00    -0.341 OA
BRANCH  10  11
ATOM     11  C   UNL     1      13.605  57.490  18.579  1.00  0.00     0.282 C 
ATOM     12  C   UNL     1      14.115  58.372  17.402  1.00  0.00     0.202 C 
ATOM     13  O   UNL     1      12.378  56.811  18.321  1.00  0.00    -0.341 OA
ATOM     14  C   UNL     1      13.013  59.372  16.959  1.00  0.00     0.179 C 
ATOM     15  C   UNL     1      11.624  57.259  17.209  1.00  0.00     0.178 C 
ATOM     16  C   UNL     1      11.586  58.796  17.141  1.00  0.00     0.177 C 
BRANCH  12  17
ATOM     17  O   UNL     1      14.594  57.633  16.293  1.00  0.00    -0.385 OA
ATOM     18  H   UNL     1      15.499  57.276  16.493  1.00  0.00     0.211 HD
ENDBRANCH  12  17
BRANCH  14  19
ATOM     19  O   UNL     1      13.111  60.562  17.694  1.00  0.00    -0.387 OA
ATOM     20  H   UNL     1      12.724  60.389  18.593  1.00  0.00     0.211 HD
ENDBRANCH  14  19
BRANCH  15  21
ATOM     21  C   UNL     1      10.214  56.623  17.317  1.00  0.00     0.191 C 
BRANCH  21  22
ATOM     22  O   UNL     1      10.222  55.489  18.150  1.00  0.00    -0.394 OA
ATOM     23  H   UNL     1      10.674  54.745  17.663  1.00  0.00     0.210 HD
ENDBRANCH  21  22
ENDBRANCH  15  21
BRANCH  16  24
ATOM     24  O   UNL     1      10.777  59.212  16.065  1.00  0.00    -0.387 OA
ATOM     25  H   UNL     1      11.250  58.948  15.235  1.00  0.00     0.211 HD
ENDBRANCH  16  24
ENDBRANCH  10  11
ENDBRANCH   4  10
BRANCH   6  26
ATOM     26  O   UNL     1      12.773  57.096  23.182  1.00  0.00    -0.346 OA
BRANCH  26  27
ATOM     27  C   UNL     1      11.508  57.778  23.193  1.00  0.00     0.130 C 
ATOM     28  C   UNL     1      10.581  57.294  24.333  1.00  0.00     0.033 C 
ATOM     29  C   UNL     1      11.590  59.354  23.216  1.00  0.00     0.020 C 
ATOM     30  C   UNL     1       9.136  57.678  24.002  1.00  0.00     0.010 C 
ATOM     31  C   UNL     1      10.106  59.820  22.844  1.00  0.00     0.006 C 
ATOM     32  C   UNL     1      12.579  59.834  22.118  1.00  0.00     0.017 C 
ATOM     33  C   UNL     1       8.927  59.224  23.727  1.00  0.00    -0.022 C 
ATOM     34  C   UNL     1       9.865  61.309  22.527  1.00  0.00     0.005 C 
ATOM     35  C   UNL     1       8.789  59.900  25.124  1.00  0.00     0.012 C 
ATOM     36  C   UNL     1       7.617  59.369  22.847  1.00  0.00     0.024 C 
ATOM     37  C   UNL     1       8.604  61.482  21.657  1.00  0.00     0.008 C 
ATOM     38  C   UNL     1       7.301  60.755  22.177  1.00  0.00    -0.017 C 
ATOM     39  C   UNL     1       6.365  58.791  23.467  1.00  0.00    -0.024 C 
ATOM     40  C   UNL     1       6.678  61.717  23.252  1.00  0.00     0.013 C 
ATOM     41  C   UNL     1       6.236  60.432  20.989  1.00  0.00     0.009 C 
ATOM     42  C   UNL     1       5.169  58.937  22.893  1.00  0.00     0.005 C 
ATOM     43  C   UNL     1       4.924  59.671  21.577  1.00  0.00     0.096 C 
ATOM     44  C   UNL     1       5.826  61.752  20.214  1.00  0.00     0.043 C 
ATOM     45  C   UNL     1       6.865  59.505  19.879  1.00  0.00     0.015 C 
ATOM     46  C   UNL     1       3.722  60.660  21.669  1.00  0.00     0.037 C 
ATOM     47  O   UNL     1       4.509  58.681  20.652  1.00  0.00    -0.369 OA
ATOM     48  C   UNL     1       4.431  61.715  19.507  1.00  0.00     0.124 C 
ATOM     49  C   UNL     1       3.390  60.749  20.180  1.00  0.00     0.026 C 
ATOM     50  C   UNL     1       2.497  60.174  22.485  1.00  0.00     0.014 C 
ATOM     51  C   UNL     1       3.612  59.283  19.753  1.00  0.00     0.171 C 
ATOM     52  C   UNL     1       1.926  61.204  19.881  1.00  0.00     0.013 C 
ATOM     53  C   UNL     1       1.275  61.146  22.358  1.00  0.00    -0.035 C 
ATOM     54  C   UNL     1       1.323  61.988  21.047  1.00  0.00     0.007 C 
ATOM     55  C   UNL     1       1.254  62.123  23.554  1.00  0.00     0.011 C 
ATOM     56  C   UNL     1      -0.035  60.321  22.391  1.00  0.00     0.011 C 
BRANCH  29  57
ATOM     57  C   UNL     1      12.118  59.969  24.566  1.00  0.00     0.165 C 
BRANCH  57  58
ATOM     58  O   UNL     1      13.200  59.244  25.123  1.00  0.00    -0.396 OA
ATOM     59  H   UNL     1      12.805  58.576  25.734  1.00  0.00     0.210 HD
ENDBRANCH  57  58
ENDBRANCH  29  57
BRANCH  48  60
ATOM     60  O   UNL     1       4.577  61.424  18.142  1.00  0.00    -0.392 OA
ATOM     61  H   UNL     1       4.703  62.288  17.672  1.00  0.00     0.210 HD
ENDBRANCH  48  60
ENDBRANCH  26  27
ENDBRANCH   6  26
BRANCH   5  62
ATOM     62  O   UNL     1      15.089  58.010  22.164  1.00  0.00    -0.385 OA
ATOM     63  H   UNL     1      14.672  58.856  22.471  1.00  0.00     0.211 HD
ENDBRANCH   5  62
TORSDOF 14
ENDMDL
MODEL 6
REMARK VINA RESULT:    -1.753      2.398      3.882
REMARK INTER + INTRA:          -3.784
REMARK INTER:                  -3.136
REMARK INTRA:                  -0.647
REMARK UNBOUND:                -1.005
REMARK SMILES C[C@H]1O[C@@H](O[C@H]2CC[C@@]3(C)[C@@H](CC[C@]4(C)[C@@H]3C=C[C@@]35OC[C@]6(CCC(C)(C)C[C@H]63)[C@H](O)C[C@@]45C)[C@@]2(C)CO)[C@@H](O)[C@H](O[C@@H]2O[C@@H](CO)[C@H](O)[C@@H](O)[C@@H]2O)[C@@H]1O
REMARK SMILES IDX 1 1 2 2 54 3 41 4 39 5 4 6 3 7 55 8 42 10 43 11 52 12 44 13
REMARK SMILES IDX 50 14 45 15 48 16 53 17 51 19 46 21 47 22 49 24 5 26 6 27
REMARK SMILES IDX 7 28 35 29 8 30 11 31 36 32 9 33 12 34 10 35 16 36 13 37
REMARK SMILES IDX 14 38 17 39 15 40 33 41 18 42 19 43 32 44 34 45 29 46 20 47
REMARK SMILES IDX 30 48 22 49 28 50 21 51 23 52 25 53 24 54 26 55 27 56 37 57
REMARK SMILES IDX 38 58 31 60 40 62
REMARK H PARENT 55 9 53 18 51 20 47 23 49 25 38 59 31 61 40 63
REMARK Flexibility Score: inf
ROOT
ATOM      1  C   UNL     1      10.512  55.168  23.452  1.00  0.00     0.041 C 
ATOM      2  C   UNL     1      11.979  55.541  23.215  1.00  0.00     0.150 C 
ATOM      3  C   UNL     1      12.785  55.458  24.518  1.00  0.00     0.175 C 
ATOM      4  C   UNL     1      14.257  55.659  24.140  1.00  0.00     0.186 C 
ATOM      5  C   UNL     1      14.426  57.060  23.500  1.00  0.00     0.202 C 
ATOM      6  C   UNL     1      13.267  57.492  22.520  1.00  0.00     0.282 C 
ATOM      7  O   UNL     1      11.996  56.859  22.705  1.00  0.00    -0.344 OA
ENDROOT
BRANCH   3   8
ATOM      8  O   UNL     1      12.610  54.190  25.107  1.00  0.00    -0.388 OA
ATOM      9  H   UNL     1      13.440  54.003  25.624  1.00  0.00     0.211 HD
ENDBRANCH   3   8
BRANCH   4  10
ATOM     10  O   UNL     1      14.629  54.614  23.250  1.00  0.00    -0.341 OA
BRANCH  10  11
ATOM     11  C   UNL     1      15.870  54.799  22.591  1.00  0.00     0.282 C 
ATOM     12  C   UNL     1      16.615  53.450  22.374  1.00  0.00     0.202 C 
ATOM     13  O   UNL     1      15.586  55.518  21.392  1.00  0.00    -0.341 OA
ATOM     14  C   UNL     1      17.909  53.674  21.545  1.00  0.00     0.179 C 
ATOM     15  C   UNL     1      16.279  55.109  20.226  1.00  0.00     0.178 C 
ATOM     16  C   UNL     1      17.763  54.832  20.525  1.00  0.00     0.177 C 
BRANCH  12  17
ATOM     17  O   UNL     1      15.817  52.437  21.790  1.00  0.00    -0.385 OA
ATOM     18  H   UNL     1      16.394  51.796  21.298  1.00  0.00     0.211 HD
ENDBRANCH  12  17
BRANCH  14  19
ATOM     19  O   UNL     1      18.988  53.960  22.394  1.00  0.00    -0.387 OA
ATOM     20  H   UNL     1      19.767  54.188  21.819  1.00  0.00     0.211 HD
ENDBRANCH  14  19
BRANCH  15  21
ATOM     21  C   UNL     1      16.074  56.211  19.155  1.00  0.00     0.191 C 
BRANCH  21  22
ATOM     22  O   UNL     1      14.720  56.330  18.789  1.00  0.00    -0.394 OA
ATOM     23  H   UNL     1      14.647  56.184  17.805  1.00  0.00     0.210 HD
ENDBRANCH  21  22
ENDBRANCH  15  21
BRANCH  16  24
ATOM     24  O   UNL     1      18.440  54.492  19.338  1.00  0.00    -0.387 OA
ATOM     25  H   UNL     1      18.365  53.508  19.239  1.00  0.00     0.211 HD
ENDBRANCH  16  24
ENDBRANCH  10  11
ENDBRANCH   4  10
BRANCH   6  26
ATOM     26  O   UNL     1      13.090  58.931  22.512  1.00  0.00    -0.346 OA
BRANCH  26  27
ATOM     27  C   UNL     1      11.723  59.307  22.747  1.00  0.00     0.130 C 
ATOM     28  C   UNL     1      11.239  58.938  24.169  1.00  0.00     0.033 C 
ATOM     29  C   UNL     1      11.378  60.819  22.451  1.00  0.00     0.020 C 
ATOM     30  C   UNL     1       9.709  58.909  24.187  1.00  0.00     0.010 C 
ATOM     31  C   UNL     1       9.779  60.849  22.426  1.00  0.00     0.006 C 
ATOM     32  C   UNL     1      11.930  61.209  21.051  1.00  0.00     0.017 C 
ATOM     33  C   UNL     1       9.033  60.255  23.696  1.00  0.00    -0.022 C 
ATOM     34  C   UNL     1       9.079  62.123  21.916  1.00  0.00     0.005 C 
ATOM     35  C   UNL     1       9.031  61.214  24.925  1.00  0.00     0.012 C 
ATOM     36  C   UNL     1       7.570  59.892  23.205  1.00  0.00     0.024 C 
ATOM     37  C   UNL     1       7.657  61.800  21.414  1.00  0.00     0.008 C 
ATOM     38  C   UNL     1       6.750  60.965  22.402  1.00  0.00    -0.017 C 
ATOM     39  C   UNL     1       6.693  59.234  24.245  1.00  0.00    -0.024 C 
ATOM     40  C   UNL     1       6.146  62.010  23.407  1.00  0.00     0.013 C 
ATOM     41  C   UNL     1       5.576  60.135  21.639  1.00  0.00     0.009 C 
ATOM     42  C   UNL     1       5.405  58.972  24.010  1.00  0.00     0.005 C 
ATOM     43  C   UNL     1       4.684  59.284  22.701  1.00  0.00     0.096 C 
ATOM     44  C   UNL     1       4.662  61.099  20.776  1.00  0.00     0.043 C 
ATOM     45  C   UNL     1       6.169  59.116  20.592  1.00  0.00     0.015 C 
ATOM     46  C   UNL     1       3.311  59.983  22.936  1.00  0.00     0.037 C 
ATOM     47  O   UNL     1       4.358  58.028  22.130  1.00  0.00    -0.369 OA
ATOM     48  C   UNL     1       3.208  60.589  20.505  1.00  0.00     0.124 C 
ATOM     49  C   UNL     1       2.645  59.623  21.609  1.00  0.00     0.026 C 
ATOM     50  C   UNL     1       2.478  59.467  24.137  1.00  0.00     0.014 C 
ATOM     51  C   UNL     1       3.155  58.179  21.420  1.00  0.00     0.171 C 
ATOM     52  C   UNL     1       1.084  59.665  21.649  1.00  0.00     0.013 C 
ATOM     53  C   UNL     1       1.041  60.092  24.175  1.00  0.00    -0.035 C 
ATOM     54  C   UNL     1       0.566  60.569  22.768  1.00  0.00     0.007 C 
ATOM     55  C   UNL     1       1.023  61.309  25.125  1.00  0.00     0.011 C 
ATOM     56  C   UNL     1       0.045  59.041  24.724  1.00  0.00     0.011 C 
BRANCH  29  57
ATOM     57  C   UNL     1      12.006  61.850  23.460  1.00  0.00     0.165 C 
BRANCH  57  58
ATOM     58  O   UNL     1      13.415  61.746  23.560  1.00  0.00    -0.396 OA
ATOM     59  H   UNL     1      13.622  60.782  23.625  1.00  0.00     0.210 HD
ENDBRANCH  57  58
ENDBRANCH  29  57
BRANCH  48  60
ATOM     60  O   UNL     1       3.120  60.004  19.232  1.00  0.00    -0.392 OA
ATOM     61  H   UNL     1       3.932  59.448  19.110  1.00  0.00     0.210 HD
ENDBRANCH  48  60
ENDBRANCH  26  27
ENDBRANCH   6  26
BRANCH   5  62
ATOM     62  O   UNL     1      14.555  57.978  24.556  1.00  0.00    -0.385 OA
ATOM     63  H   UNL     1      13.740  57.910  25.118  1.00  0.00     0.211 HD
ENDBRANCH   5  62
TORSDOF 14
ENDMDL
