MODEL 1
REMARK VINA RESULT:    -4.018      0.000      0.000
REMARK INTER + INTRA:          -4.599
REMARK INTER:                  -5.662
REMARK INTRA:                   1.063
REMARK UNBOUND:                 1.063
REMARK SMILES CC1=CCC(=C(C)C)C(=O)CC(C)=CCC1
REMARK SMILES IDX 12 1 14 2 13 3 15 4 16 5 2 6 1 7 3 8 11 10 9 11 10 12 5 13
REMARK SMILES IDX 6 14 7 15 8 16 4 17
REMARK H PARENT
REMARK Flexibility Score: 60.00
ROOT
ATOM      1  C   UNL     1      -5.617  -1.795  10.284  1.00  0.00    -0.070 C 
ATOM      2  C   UNL     1      -4.476  -2.411   9.899  1.00  0.00    -0.027 C 
ATOM      3  C   UNL     1      -5.511  -0.438  10.934  1.00  0.00     0.039 C 
ENDROOT
BRANCH   2   4
ATOM      4  C   UNL     1      -4.380  -3.816   9.351  1.00  0.00     0.032 C 
BRANCH   4   5
ATOM      5  C   UNL     1      -4.224  -3.916   7.827  1.00  0.00     0.034 C 
BRANCH   5   6
ATOM      6  C   UNL     1      -5.503  -4.283   7.097  1.00  0.00    -0.077 C 
ATOM      7  C   UNL     1      -5.674  -5.716   6.659  1.00  0.00     0.039 C 
ATOM      8  C   UNL     1      -6.535  -3.432   6.872  1.00  0.00    -0.023 CG0
ATOM      9  G   UNL     1      -6.581  -1.929   7.075  1.00  0.00     0.000 G0
ENDBRANCH   5   6
ENDBRANCH   4   5
ENDBRANCH   2   4
BRANCH   1  10
ATOM     10  C   UNL     1      -6.998  -2.356  10.022  1.00  0.00     0.111 C 
BRANCH  10  11
ATOM     11  C   UNL     1      -7.838  -1.385   9.231  1.00  0.00     0.163 C 
ATOM     12  O   UNL     1      -8.575  -0.571   9.850  1.00  0.00    -0.294 OA
BRANCH  11  13
ATOM     13  C   UNL     1      -7.819  -1.349   7.744  1.00  0.00    -0.002 C 
ATOM     14  C   UNL     1      -8.791  -0.688   7.060  1.00  0.00    -0.069 C 
ATOM     15  C   UNL     1      -9.988  -0.116   7.785  1.00  0.00     0.039 C 
ATOM     16  C   UNL     1      -8.729  -0.522   5.560  1.00  0.00     0.039 C 
BRANCH  13  17
ATOM     17  C   UNL     1      -6.591  -1.921   7.061  1.00  0.00     0.066 CG0
ATOM     18  G   UNL     1      -6.550  -3.423   6.853  1.00  0.00     0.000 G0
ENDBRANCH  13  17
ENDBRANCH  11  13
ENDBRANCH  10  11
ENDBRANCH   1  10
TORSDOF 0
ENDMDL
MODEL 2
REMARK VINA RESULT:    -3.673      1.633      4.142
REMARK INTER + INTRA:          -4.113
REMARK INTER:                  -4.911
REMARK INTRA:                   0.798
REMARK UNBOUND:                 1.063
REMARK SMILES CC1=CCC(=C(C)C)C(=O)CC(C)=CCC1
REMARK SMILES IDX 12 1 14 2 13 3 15 4 16 5 2 6 1 7 3 8 11 10 9 11 10 12 5 13
REMARK SMILES IDX 6 14 7 15 8 16 4 17
REMARK H PARENT
REMARK Flexibility Score: 60.00
ROOT
ATOM      1  C   UNL     1      -5.992  -0.744   9.217  1.00  0.00    -0.070 C 
ATOM      2  C   UNL     1      -6.910   0.125   8.734  1.00  0.00    -0.027 C 
ATOM      3  C   UNL     1      -4.569  -0.620   8.734  1.00  0.00     0.039 C 
ENDROOT
BRANCH   2   4
ATOM      4  C   UNL     1      -8.395   0.073   9.006  1.00  0.00     0.032 C 
BRANCH   4   5
ATOM      5  C   UNL     1      -9.238  -0.603   7.916  1.00  0.00     0.034 C 
BRANCH   5   6
ATOM      6  C   UNL     1      -8.437  -1.065   6.713  1.00  0.00    -0.077 C 
ATOM      7  C   UNL     1      -8.454  -0.193   5.481  1.00  0.00     0.039 C 
ATOM      8  C   UNL     1      -7.650  -2.170   6.687  1.00  0.00    -0.023 CG0
ATOM      9  G   UNL     1      -7.553  -3.284   7.712  1.00  0.00     0.000 G0
ENDBRANCH   5   6
ENDBRANCH   4   5
ENDBRANCH   2   4
BRANCH   1  10
ATOM     10  C   UNL     1      -6.300  -1.778  10.278  1.00  0.00     0.111 C 
BRANCH  10  11
ATOM     11  C   UNL     1      -6.025  -3.172   9.775  1.00  0.00     0.163 C 
ATOM     12  O   UNL     1      -5.666  -4.058  10.597  1.00  0.00    -0.294 OA
BRANCH  11  13
ATOM     13  C   UNL     1      -6.174  -3.541   8.342  1.00  0.00    -0.002 C 
ATOM     14  C   UNL     1      -5.178  -4.205   7.696  1.00  0.00    -0.069 C 
ATOM     15  C   UNL     1      -3.845  -4.438   8.370  1.00  0.00     0.039 C 
ATOM     16  C   UNL     1      -5.350  -4.708   6.281  1.00  0.00     0.039 C 
BRANCH  13  17
ATOM     17  C   UNL     1      -7.534  -3.304   7.711  1.00  0.00     0.066 CG0
ATOM     18  G   UNL     1      -7.641  -2.178   6.700  1.00  0.00     0.000 G0
ENDBRANCH  13  17
ENDBRANCH  11  13
ENDBRANCH  10  11
ENDBRANCH   1  10
TORSDOF 0
ENDMDL
MODEL 3
REMARK VINA RESULT:    -3.670      1.760      3.876
REMARK INTER + INTRA:          -4.109
REMARK INTER:                  -5.443
REMARK INTRA:                   1.334
REMARK UNBOUND:                 1.063
REMARK SMILES CC1=CCC(=C(C)C)C(=O)CC(C)=CCC1
REMARK SMILES IDX 12 1 14 2 13 3 15 4 16 5 2 6 1 7 3 8 11 10 9 11 10 12 5 13
REMARK SMILES IDX 6 14 7 15 8 16 4 17
REMARK H PARENT
REMARK Flexibility Score: 60.00
ROOT
ATOM      1  C   UNL     1      -8.495  -1.455   5.857  1.00  0.00    -0.070 C 
ATOM      2  C   UNL     1      -7.848  -2.638   5.969  1.00  0.00    -0.027 C 
ATOM      3  C   UNL     1      -9.831  -1.435   5.159  1.00  0.00     0.039 C 
ENDROOT
BRANCH   2   4
ATOM      4  C   UNL     1      -6.454  -2.827   6.520  1.00  0.00     0.032 C 
BRANCH   4   5
ATOM      5  C   UNL     1      -6.383  -3.190   8.010  1.00  0.00     0.034 C 
BRANCH   5   6
ATOM      6  C   UNL     1      -5.174  -2.619   8.728  1.00  0.00    -0.077 C 
ATOM      7  C   UNL     1      -4.202  -3.592   9.349  1.00  0.00     0.039 C 
ATOM      8  C   UNL     1      -4.866  -1.299   8.793  1.00  0.00    -0.023 CG0
ATOM      9  G   UNL     1      -5.717  -0.110   8.387  1.00  0.00     0.000 G0
ENDBRANCH   5   6
ENDBRANCH   4   5
ENDBRANCH   2   4
BRANCH   1  10
ATOM     10  C   UNL     1      -7.989  -0.167   6.470  1.00  0.00     0.111 C 
BRANCH  10  11
ATOM     11  C   UNL     1      -8.234  -0.140   7.957  1.00  0.00     0.163 C 
ATOM     12  O   UNL     1      -9.415  -0.248   8.384  1.00  0.00    -0.294 OA
BRANCH  11  13
ATOM     13  C   UNL     1      -7.126   0.001   8.940  1.00  0.00    -0.002 C 
ATOM     14  C   UNL     1      -7.391   0.036  10.274  1.00  0.00    -0.069 C 
ATOM     15  C   UNL     1      -8.816   0.094  10.774  1.00  0.00     0.039 C 
ATOM     16  C   UNL     1      -6.282   0.046  11.300  1.00  0.00     0.039 C 
BRANCH  13  17
ATOM     17  C   UNL     1      -5.712  -0.079   8.395  1.00  0.00     0.066 CG0
ATOM     18  G   UNL     1      -4.891  -1.296   8.775  1.00  0.00     0.000 G0
ENDBRANCH  13  17
ENDBRANCH  11  13
ENDBRANCH  10  11
ENDBRANCH   1  10
TORSDOF 0
ENDMDL
MODEL 4
REMARK VINA RESULT:    -3.532      1.817      3.887
REMARK INTER + INTRA:          -3.915
REMARK INTER:                  -4.633
REMARK INTRA:                   0.719
REMARK UNBOUND:                 1.063
REMARK SMILES CC1=CCC(=C(C)C)C(=O)CC(C)=CCC1
REMARK SMILES IDX 12 1 14 2 13 3 15 4 16 5 2 6 1 7 3 8 11 10 9 11 10 12 5 13
REMARK SMILES IDX 6 14 7 15 8 16 4 17
REMARK H PARENT
REMARK Flexibility Score: 60.00
ROOT
ATOM      1  C   UNL     1      -4.674  -3.915   8.125  1.00  0.00    -0.070 C 
ATOM      2  C   UNL     1      -5.563  -4.220   7.152  1.00  0.00    -0.027 C 
ATOM      3  C   UNL     1      -4.057  -5.047   8.908  1.00  0.00     0.039 C 
ENDROOT
BRANCH   2   4
ATOM      4  C   UNL     1      -6.369  -3.221   6.355  1.00  0.00     0.032 C 
BRANCH   4   5
ATOM      5  C   UNL     1      -7.548  -2.585   7.103  1.00  0.00     0.034 C 
BRANCH   5   6
ATOM      6  C   UNL     1      -7.788  -1.128   6.754  1.00  0.00    -0.077 C 
ATOM      7  C   UNL     1      -8.575  -0.826   5.503  1.00  0.00     0.039 C 
ATOM      8  C   UNL     1      -7.408  -0.076   7.523  1.00  0.00    -0.023 CG0
ATOM      9  G   UNL     1      -6.500  -0.075   8.738  1.00  0.00     0.000 G0
ENDBRANCH   5   6
ENDBRANCH   4   5
ENDBRANCH   2   4
BRANCH   1  10
ATOM     10  C   UNL     1      -4.202  -2.507   8.412  1.00  0.00     0.111 C 
BRANCH  10  11
ATOM     11  C   UNL     1      -4.922  -1.924   9.602  1.00  0.00     0.163 C 
ATOM     12  O   UNL     1      -4.332  -1.887  10.715  1.00  0.00    -0.294 OA
BRANCH  11  13
ATOM     13  C   UNL     1      -6.303  -1.379   9.504  1.00  0.00    -0.002 C 
ATOM     14  C   UNL     1      -7.321  -1.958  10.197  1.00  0.00    -0.069 C 
ATOM     15  C   UNL     1      -7.102  -3.251  10.948  1.00  0.00     0.039 C 
ATOM     16  C   UNL     1      -8.705  -1.353  10.222  1.00  0.00     0.039 C 
BRANCH  13  17
ATOM     17  C   UNL     1      -6.473  -0.072   8.753  1.00  0.00     0.066 CG0
ATOM     18  G   UNL     1      -7.408  -0.075   7.558  1.00  0.00     0.000 G0
ENDBRANCH  13  17
ENDBRANCH  11  13
ENDBRANCH  10  11
ENDBRANCH   1  10
TORSDOF 0
ENDMDL
MODEL 5
REMARK VINA RESULT:    -3.436      1.642      3.683
REMARK INTER + INTRA:          -3.778
REMARK INTER:                  -5.227
REMARK INTRA:                   1.449
REMARK UNBOUND:                 1.063
REMARK SMILES CC1=CCC(=C(C)C)C(=O)CC(C)=CCC1
REMARK SMILES IDX 12 1 14 2 13 3 15 4 16 5 2 6 1 7 3 8 11 10 9 11 10 12 5 13
REMARK SMILES IDX 6 14 7 15 8 16 4 17
REMARK H PARENT
REMARK Flexibility Score: 60.00
ROOT
ATOM      1  C   UNL     1      -5.242  -3.917   7.714  1.00  0.00    -0.070 C 
ATOM      2  C   UNL     1      -4.914  -4.097   9.014  1.00  0.00    -0.027 C 
ATOM      3  C   UNL     1      -5.352  -5.135   6.831  1.00  0.00     0.039 C 
ENDROOT
BRANCH   2   4
ATOM      4  C   UNL     1      -4.638  -2.994  10.009  1.00  0.00     0.032 C 
BRANCH   4   5
ATOM      5  C   UNL     1      -4.916  -1.572   9.506  1.00  0.00     0.034 C 
BRANCH   5   6
ATOM      6  C   UNL     1      -5.986  -0.836  10.290  1.00  0.00    -0.077 C 
ATOM      7  C   UNL     1      -5.536   0.112  11.374  1.00  0.00     0.039 C 
ATOM      8  C   UNL     1      -7.318  -0.914  10.040  1.00  0.00    -0.023 CG0
ATOM      9  G   UNL     1      -8.051  -1.873   9.122  1.00  0.00     0.000 G0
ENDBRANCH   5   6
ENDBRANCH   4   5
ENDBRANCH   2   4
BRANCH   1  10
ATOM     10  C   UNL     1      -5.586  -2.570   7.119  1.00  0.00     0.111 C 
BRANCH  10  11
ATOM     11  C   UNL     1      -7.062  -2.464   6.828  1.00  0.00     0.163 C 
ATOM     12  O   UNL     1      -7.549  -3.146   5.887  1.00  0.00    -0.294 OA
BRANCH  11  13
ATOM     13  C   UNL     1      -7.965  -1.589   7.622  1.00  0.00    -0.002 C 
ATOM     14  C   UNL     1      -8.778  -0.693   6.999  1.00  0.00    -0.069 C 
ATOM     15  C   UNL     1      -8.664  -0.459   5.510  1.00  0.00     0.039 C 
ATOM     16  C   UNL     1      -9.798   0.116   7.765  1.00  0.00     0.039 C 
BRANCH  13  17
ATOM     17  C   UNL     1      -8.059  -1.871   9.110  1.00  0.00     0.066 CG0
ATOM     18  G   UNL     1      -7.314  -0.932  10.041  1.00  0.00     0.000 G0
ENDBRANCH  13  17
ENDBRANCH  11  13
ENDBRANCH  10  11
ENDBRANCH   1  10
TORSDOF 0
ENDMDL
MODEL 6
REMARK VINA RESULT:    -3.081      2.127      4.019
REMARK INTER + INTRA:          -3.279
REMARK INTER:                  -4.341
REMARK INTRA:                   1.061
REMARK UNBOUND:                 1.063
REMARK SMILES CC1=CCC(=C(C)C)C(=O)CC(C)=CCC1
REMARK SMILES IDX 12 1 14 2 13 3 15 4 16 5 2 6 1 7 3 8 11 10 9 11 10 12 5 13
REMARK SMILES IDX 6 14 7 15 8 16 4 17
REMARK H PARENT
REMARK Flexibility Score: 60.00
ROOT
ATOM      1  C   UNL     1      -5.117  -4.071  10.767  1.00  0.00    -0.070 C 
ATOM      2  C   UNL     1      -6.446  -4.326  10.766  1.00  0.00    -0.027 C 
ATOM      3  C   UNL     1      -4.194  -5.092  11.384  1.00  0.00     0.039 C 
ENDROOT
BRANCH   2   4
ATOM      4  C   UNL     1      -7.522  -3.370  10.309  1.00  0.00     0.032 C 
BRANCH   4   5
ATOM      5  C   UNL     1      -7.264  -1.892  10.627  1.00  0.00     0.034 C 
BRANCH   5   6
ATOM      6  C   UNL     1      -7.838  -0.929   9.605  1.00  0.00    -0.077 C 
ATOM      7  C   UNL     1      -9.248  -0.435   9.818  1.00  0.00     0.039 C 
ATOM      8  C   UNL     1      -7.152  -0.424   8.548  1.00  0.00    -0.023 CG0
ATOM      9  G   UNL     1      -5.793  -0.842   8.019  1.00  0.00     0.000 G0
ENDBRANCH   5   6
ENDBRANCH   4   5
ENDBRANCH   2   4
BRANCH   1  10
ATOM     10  C   UNL     1      -4.501  -2.858  10.106  1.00  0.00     0.111 C 
BRANCH  10  11
ATOM     11  C   UNL     1      -4.513  -2.990   8.604  1.00  0.00     0.163 C 
ATOM     12  O   UNL     1      -3.628  -3.693   8.046  1.00  0.00    -0.294 OA
BRANCH  11  13
ATOM     13  C   UNL     1      -5.542  -2.328   7.759  1.00  0.00    -0.002 C 
ATOM     14  C   UNL     1      -6.322  -3.064   6.922  1.00  0.00    -0.069 C 
ATOM     15  C   UNL     1      -6.053  -4.537   6.717  1.00  0.00     0.039 C 
ATOM     16  C   UNL     1      -7.461  -2.440   6.149  1.00  0.00     0.039 C 
BRANCH  13  17
ATOM     17  C   UNL     1      -5.789  -0.852   8.010  1.00  0.00     0.066 CG0
ATOM     18  G   UNL     1      -7.153  -0.459   8.544  1.00  0.00     0.000 G0
ENDBRANCH  13  17
ENDBRANCH  11  13
ENDBRANCH  10  11
ENDBRANCH   1  10
TORSDOF 0
ENDMDL
MODEL 7
REMARK VINA RESULT:    -3.070      1.797      3.304
REMARK INTER + INTRA:          -3.263
REMARK INTER:                  -4.402
REMARK INTRA:                   1.140
REMARK UNBOUND:                 1.063
REMARK SMILES CC1=CCC(=C(C)C)C(=O)CC(C)=CCC1
REMARK SMILES IDX 12 1 14 2 13 3 15 4 16 5 2 6 1 7 3 8 11 10 9 11 10 12 5 13
REMARK SMILES IDX 6 14 7 15 8 16 4 17
REMARK H PARENT
REMARK Flexibility Score: 60.00
ROOT
ATOM      1  C   UNL     1      -5.583  -3.675   7.065  1.00  0.00    -0.070 C 
ATOM      2  C   UNL     1      -4.747  -4.250   7.959  1.00  0.00    -0.027 C 
ATOM      3  C   UNL     1      -6.378  -4.573   6.150  1.00  0.00     0.039 C 
ENDROOT
BRANCH   2   4
ATOM      4  C   UNL     1      -3.786  -3.513   8.862  1.00  0.00     0.032 C 
BRANCH   4   5
ATOM      5  C   UNL     1      -4.227  -3.390  10.327  1.00  0.00     0.034 C 
BRANCH   5   6
ATOM      6  C   UNL     1      -5.683  -3.740  10.567  1.00  0.00    -0.077 C 
ATOM      7  C   UNL     1      -5.999  -5.128  11.067  1.00  0.00     0.039 C 
ATOM      8  C   UNL     1      -6.719  -2.873  10.431  1.00  0.00    -0.023 CG0
ATOM      9  G   UNL     1      -6.712  -1.484   9.822  1.00  0.00     0.000 G0
ENDBRANCH   5   6
ENDBRANCH   4   5
ENDBRANCH   2   4
BRANCH   1  10
ATOM     10  C   UNL     1      -5.826  -2.183   6.990  1.00  0.00     0.111 C 
BRANCH  10  11
ATOM     11  C   UNL     1      -7.252  -1.846   7.343  1.00  0.00     0.163 C 
ATOM     12  O   UNL     1      -8.167  -2.124   6.522  1.00  0.00    -0.294 OA
BRANCH  11  13
ATOM     13  C   UNL     1      -7.619  -1.206   8.635  1.00  0.00    -0.002 C 
ATOM     14  C   UNL     1      -8.805  -0.552   8.766  1.00  0.00    -0.069 C 
ATOM     15  C   UNL     1      -9.695  -0.326   7.566  1.00  0.00     0.039 C 
ATOM     16  C   UNL     1      -9.264  -0.005  10.098  1.00  0.00     0.039 C 
BRANCH  13  17
ATOM     17  C   UNL     1      -6.704  -1.472   9.816  1.00  0.00     0.066 CG0
ATOM     18  G   UNL     1      -6.743  -2.862  10.422  1.00  0.00     0.000 G0
ENDBRANCH  13  17
ENDBRANCH  11  13
ENDBRANCH  10  11
ENDBRANCH   1  10
TORSDOF 0
ENDMDL
MODEL 8
REMARK VINA RESULT:    -2.922     20.227     21.382
REMARK INTER + INTRA:          -3.054
REMARK INTER:                  -3.291
REMARK INTRA:                   0.237
REMARK UNBOUND:                 1.063
REMARK SMILES CC1=CCC(=C(C)C)C(=O)CC(C)=CCC1
REMARK SMILES IDX 12 1 14 2 13 3 15 4 16 5 2 6 1 7 3 8 11 10 9 11 10 12 5 13
REMARK SMILES IDX 6 14 7 15 8 16 4 17
REMARK H PARENT
REMARK Flexibility Score: 60.00
ROOT
ATOM      1  C   UNL     1     -21.810 -16.451  14.237  1.00  0.00    -0.070 C 
ATOM      2  C   UNL     1     -21.788 -15.909  12.998  1.00  0.00    -0.027 C 
ATOM      3  C   UNL     1     -21.795 -15.520  15.424  1.00  0.00     0.039 C 
ENDROOT
BRANCH   2   4
ATOM      4  C   UNL     1     -21.673 -16.681  11.705  1.00  0.00     0.032 C 
BRANCH   4   5
ATOM      5  C   UNL     1     -20.286 -16.659  11.049  1.00  0.00     0.034 C 
BRANCH   5   6
ATOM      6  C   UNL     1     -19.498 -17.943  11.224  1.00  0.00    -0.077 C 
ATOM      7  C   UNL     1     -19.572 -18.969  10.120  1.00  0.00     0.039 C 
ATOM      8  C   UNL     1     -18.674 -18.208  12.269  1.00  0.00    -0.023 CG0
ATOM      9  G   UNL     1     -18.515 -17.434  13.565  1.00  0.00     0.000 G0
ENDBRANCH   5   6
ENDBRANCH   4   5
ENDBRANCH   2   4
BRANCH   1  10
ATOM     10  C   UNL     1     -21.934 -17.937  14.496  1.00  0.00     0.111 C 
BRANCH  10  11
ATOM     11  C   UNL     1     -20.583 -18.605  14.491  1.00  0.00     0.163 C 
ATOM     12  O   UNL     1     -20.511 -19.836  14.230  1.00  0.00    -0.294 OA
BRANCH  11  13
ATOM     13  C   UNL     1     -19.328 -17.857  14.773  1.00  0.00    -0.002 C 
ATOM     14  C   UNL     1     -18.879 -17.724  16.051  1.00  0.00    -0.069 C 
ATOM     15  C   UNL     1     -19.723 -18.192  17.214  1.00  0.00     0.039 C 
ATOM     16  C   UNL     1     -17.545 -17.085  16.358  1.00  0.00     0.039 C 
BRANCH  13  17
ATOM     17  C   UNL     1     -18.506 -17.420  13.575  1.00  0.00     0.066 CG0
ATOM     18  G   UNL     1     -18.690 -18.202  12.287  1.00  0.00     0.000 G0
ENDBRANCH  13  17
ENDBRANCH  11  13
ENDBRANCH  10  11
ENDBRANCH   1  10
TORSDOF 0
ENDMDL
MODEL 9
REMARK VINA RESULT:    -2.874      2.166      5.340
REMARK INTER + INTRA:          -2.987
REMARK INTER:                  -3.421
REMARK INTRA:                   0.434
REMARK UNBOUND:                 1.063
REMARK SMILES CC1=CCC(=C(C)C)C(=O)CC(C)=CCC1
REMARK SMILES IDX 12 1 14 2 13 3 15 4 16 5 2 6 1 7 3 8 11 10 9 11 10 12 5 13
REMARK SMILES IDX 6 14 7 15 8 16 4 17
REMARK H PARENT
REMARK Flexibility Score: 60.00
ROOT
ATOM      1  C   UNL     1      -6.994  -3.190   6.505  1.00  0.00    -0.070 C 
ATOM      2  C   UNL     1      -7.683  -2.081   6.150  1.00  0.00    -0.027 C 
ATOM      3  C   UNL     1      -6.335  -4.000   5.416  1.00  0.00     0.039 C 
ENDROOT
BRANCH   2   4
ATOM      4  C   UNL     1      -8.505  -1.224   7.083  1.00  0.00     0.032 C 
BRANCH   4   5
ATOM      5  C   UNL     1      -7.722  -0.147   7.846  1.00  0.00     0.034 C 
BRANCH   5   6
ATOM      6  C   UNL     1      -7.771  -0.298   9.355  1.00  0.00    -0.077 C 
ATOM      7  C   UNL     1      -9.042   0.107  10.060  1.00  0.00     0.039 C 
ATOM      8  C   UNL     1      -6.781  -0.837  10.110  1.00  0.00    -0.023 CG0
ATOM      9  G   UNL     1      -5.366  -1.195   9.695  1.00  0.00     0.000 G0
ENDBRANCH   5   6
ENDBRANCH   4   5
ENDBRANCH   2   4
BRANCH   1  10
ATOM     10  C   UNL     1      -6.777  -3.613   7.941  1.00  0.00     0.111 C 
BRANCH  10  11
ATOM     11  C   UNL     1      -5.347  -3.389   8.365  1.00  0.00     0.163 C 
ATOM     12  O   UNL     1      -4.418  -3.815   7.627  1.00  0.00    -0.294 OA
BRANCH  11  13
ATOM     13  C   UNL     1      -4.995  -2.672   9.620  1.00  0.00    -0.002 C 
ATOM     14  C   UNL     1      -4.241  -3.283  10.572  1.00  0.00    -0.069 C 
ATOM     15  C   UNL     1      -3.882  -4.746  10.448  1.00  0.00     0.039 C 
ATOM     16  C   UNL     1      -3.758  -2.540  11.796  1.00  0.00     0.039 C 
BRANCH  13  17
ATOM     17  C   UNL     1      -5.361  -1.201   9.694  1.00  0.00     0.066 CG0
ATOM     18  G   UNL     1      -6.774  -0.860  10.129  1.00  0.00     0.000 G0
ENDBRANCH  13  17
ENDBRANCH  11  13
ENDBRANCH  10  11
ENDBRANCH   1  10
TORSDOF 0
ENDMDL
