MODEL 1
REMARK VINA RESULT:    -4.074      0.000      0.000
REMARK INTER + INTRA:          -5.888
REMARK INTER:                  -5.503
REMARK INTRA:                  -0.384
REMARK UNBOUND:                -0.384
REMARK SMILES CCCCCCC=CC(=O)[O-]
REMARK SMILES IDX 5 1 6 2 7 3 8 4 9 5 10 6 11 7 4 8 3 9 2 10 1 11
REMARK H PARENT
REMARK Flexibility Score: inf
ROOT
ATOM      1  C   UNL     1      27.908 -34.670  25.493  1.00  0.00     0.004 C 
ENDROOT
BRANCH   1   2
ATOM      2  C   UNL     1      28.972 -34.327  26.547  1.00  0.00     0.027 C 
BRANCH   2   3
ATOM      3  C   UNL     1      30.350 -34.218  25.956  1.00  0.00    -0.025 C 
ATOM      4  C   UNL     1      30.591 -34.529  24.679  1.00  0.00     0.020 C 
BRANCH   4   5
ATOM      5  C   UNL     1      31.935 -34.434  24.091  1.00  0.00     0.064 C 
ATOM      6  O   UNL     1      32.771 -33.632  24.581  1.00  0.00    -0.545 OA
ATOM      7  O   UNL     1      32.297 -35.218  23.002  1.00  0.00    -0.545 OA
ENDBRANCH   4   5
ENDBRANCH   2   3
ENDBRANCH   1   2
BRANCH   1   8
ATOM      8  C   UNL     1      26.485 -34.638  26.076  1.00  0.00     0.000 C 
BRANCH   8   9
ATOM      9  C   UNL     1      26.392 -33.833  27.385  1.00  0.00    -0.000 C 
BRANCH   9  10
ATOM     10  C   UNL     1      25.978 -34.651  28.621  1.00  0.00    -0.003 C 
ATOM     11  C   UNL     1      25.742 -36.128  28.310  1.00  0.00     0.004 C 
ENDBRANCH   9  10
ENDBRANCH   8   9
ENDBRANCH   1   8
TORSDOF 6
ENDMDL
MODEL 2
REMARK VINA RESULT:    -4.064     16.484     17.626
REMARK INTER + INTRA:          -5.874
REMARK INTER:                  -5.591
REMARK INTRA:                  -0.283
REMARK UNBOUND:                -0.384
REMARK SMILES CCCCCCC=CC(=O)[O-]
REMARK SMILES IDX 5 1 6 2 7 3 8 4 9 5 10 6 11 7 4 8 3 9 2 10 1 11
REMARK H PARENT
REMARK Flexibility Score: inf
ROOT
ATOM      1  C   UNL     1      21.450 -23.734  17.375  1.00  0.00     0.004 C 
ENDROOT
BRANCH   1   2
ATOM      2  C   UNL     1      20.212 -23.188  16.648  1.00  0.00     0.027 C 
BRANCH   2   3
ATOM      3  C   UNL     1      18.978 -24.000  16.928  1.00  0.00    -0.025 C 
ATOM      4  C   UNL     1      18.358 -24.686  15.964  1.00  0.00     0.020 C 
BRANCH   4   5
ATOM      5  C   UNL     1      17.146 -25.477  16.224  1.00  0.00     0.064 C 
ATOM      6  O   UNL     1      16.175 -25.406  15.426  1.00  0.00    -0.545 OA
ATOM      7  O   UNL     1      17.056 -26.303  17.338  1.00  0.00    -0.545 OA
ENDBRANCH   4   5
ENDBRANCH   2   3
ENDBRANCH   1   2
BRANCH   1   8
ATOM      8  C   UNL     1      22.614 -24.012  16.409  1.00  0.00     0.000 C 
BRANCH   8   9
ATOM      9  C   UNL     1      23.984 -23.629  16.996  1.00  0.00    -0.000 C 
BRANCH   9  10
ATOM     10  C   UNL     1      24.674 -22.438  16.308  1.00  0.00    -0.003 C 
ATOM     11  C   UNL     1      23.819 -21.803  15.212  1.00  0.00     0.004 C 
ENDBRANCH   9  10
ENDBRANCH   8   9
ENDBRANCH   1   8
TORSDOF 6
ENDMDL
MODEL 3
REMARK VINA RESULT:    -4.054     15.883     16.615
REMARK INTER + INTRA:          -5.860
REMARK INTER:                  -5.719
REMARK INTRA:                  -0.141
REMARK UNBOUND:                -0.384
REMARK SMILES CCCCCCC=CC(=O)[O-]
REMARK SMILES IDX 5 1 6 2 7 3 8 4 9 5 10 6 11 7 4 8 3 9 2 10 1 11
REMARK H PARENT
REMARK Flexibility Score: inf
ROOT
ATOM      1  C   UNL     1      18.950 -23.846  15.911  1.00  0.00     0.004 C 
ENDROOT
BRANCH   1   2
ATOM      2  C   UNL     1      20.393 -23.950  15.393  1.00  0.00     0.027 C 
BRANCH   2   3
ATOM      3  C   UNL     1      21.410 -23.752  16.483  1.00  0.00    -0.025 C 
ATOM      4  C   UNL     1      22.697 -23.527  16.207  1.00  0.00     0.020 C 
BRANCH   4   5
ATOM      5  C   UNL     1      23.702 -23.340  17.264  1.00  0.00     0.064 C 
ATOM      6  O   UNL     1      24.847 -23.843  17.128  1.00  0.00    -0.545 OA
ATOM      7  O   UNL     1      23.406 -22.615  18.412  1.00  0.00    -0.545 OA
ENDBRANCH   4   5
ENDBRANCH   2   3
ENDBRANCH   1   2
BRANCH   1   8
ATOM      8  C   UNL     1      18.075 -25.014  15.426  1.00  0.00     0.000 C 
BRANCH   8   9
ATOM      9  C   UNL     1      17.317 -25.709  16.570  1.00  0.00    -0.000 C 
BRANCH   9  10
ATOM     10  C   UNL     1      15.790 -25.778  16.388  1.00  0.00    -0.003 C 
ATOM     11  C   UNL     1      15.081 -26.492  17.538  1.00  0.00     0.004 C 
ENDBRANCH   9  10
ENDBRANCH   8   9
ENDBRANCH   1   8
TORSDOF 6
ENDMDL
MODEL 4
REMARK VINA RESULT:    -3.953     16.569     17.584
REMARK INTER + INTRA:          -5.725
REMARK INTER:                  -5.302
REMARK INTRA:                  -0.422
REMARK UNBOUND:                -0.384
REMARK SMILES CCCCCCC=CC(=O)[O-]
REMARK SMILES IDX 5 1 6 2 7 3 8 4 9 5 10 6 11 7 4 8 3 9 2 10 1 11
REMARK H PARENT
REMARK Flexibility Score: inf
ROOT
ATOM      1  C   UNL     1      22.788 -24.307  16.504  1.00  0.00     0.004 C 
ENDROOT
BRANCH   1   2
ATOM      2  C   UNL     1      21.980 -23.270  15.708  1.00  0.00     0.027 C 
BRANCH   2   3
ATOM      3  C   UNL     1      20.497 -23.499  15.810  1.00  0.00    -0.025 C 
ATOM      4  C   UNL     1      19.873 -23.527  16.991  1.00  0.00     0.020 C 
BRANCH   4   5
ATOM      5  C   UNL     1      18.425 -23.757  17.105  1.00  0.00     0.064 C 
ATOM      6  O   UNL     1      17.645 -22.774  17.187  1.00  0.00    -0.545 OA
ATOM      7  O   UNL     1      17.904 -25.046  17.122  1.00  0.00    -0.545 OA
ENDBRANCH   4   5
ENDBRANCH   2   3
ENDBRANCH   1   2
BRANCH   1   8
ATOM      8  C   UNL     1      24.136 -23.744  16.985  1.00  0.00     0.000 C 
BRANCH   8   9
ATOM      9  C   UNL     1      24.189 -22.206  16.951  1.00  0.00    -0.000 C 
BRANCH   9  10
ATOM     10  C   UNL     1      25.336 -21.615  16.114  1.00  0.00    -0.003 C 
ATOM     11  C   UNL     1      24.850 -20.889  14.860  1.00  0.00     0.004 C 
ENDBRANCH   9  10
ENDBRANCH   8   9
ENDBRANCH   1   8
TORSDOF 6
ENDMDL
MODEL 5
REMARK VINA RESULT:    -3.946     16.762     17.633
REMARK INTER + INTRA:          -5.714
REMARK INTER:                  -4.954
REMARK INTRA:                  -0.760
REMARK UNBOUND:                -0.384
REMARK SMILES CCCCCCC=CC(=O)[O-]
REMARK SMILES IDX 5 1 6 2 7 3 8 4 9 5 10 6 11 7 4 8 3 9 2 10 1 11
REMARK H PARENT
REMARK Flexibility Score: inf
ROOT
ATOM      1  C   UNL     1      23.077 -22.009  13.793  1.00  0.00     0.004 C 
ENDROOT
BRANCH   1   2
ATOM      2  C   UNL     1      21.557 -22.209  13.901  1.00  0.00     0.027 C 
BRANCH   2   3
ATOM      3  C   UNL     1      21.180 -23.152  15.010  1.00  0.00    -0.025 C 
ATOM      4  C   UNL     1      20.474 -22.743  16.067  1.00  0.00     0.020 C 
BRANCH   4   5
ATOM      5  C   UNL     1      20.106 -23.654  17.161  1.00  0.00     0.064 C 
ATOM      6  O   UNL     1      18.981 -24.216  17.149  1.00  0.00    -0.545 OA
ATOM      7  O   UNL     1      20.983 -23.904  18.210  1.00  0.00    -0.545 OA
ENDBRANCH   4   5
ENDBRANCH   2   3
ENDBRANCH   1   2
BRANCH   1   8
ATOM      8  C   UNL     1      23.606 -21.019  14.844  1.00  0.00     0.000 C 
BRANCH   8   9
ATOM      9  C   UNL     1      24.692 -21.629  15.748  1.00  0.00    -0.000 C 
BRANCH   9  10
ATOM     10  C   UNL     1      24.167 -22.305  17.026  1.00  0.00    -0.003 C 
ATOM     11  C   UNL     1      24.275 -23.829  16.986  1.00  0.00     0.004 C 
ENDBRANCH   9  10
ENDBRANCH   8   9
ENDBRANCH   1   8
TORSDOF 6
ENDMDL
MODEL 6
REMARK VINA RESULT:    -3.891      1.894      2.372
REMARK INTER + INTRA:          -5.641
REMARK INTER:                  -5.154
REMARK INTRA:                  -0.487
REMARK UNBOUND:                -0.384
REMARK SMILES CCCCCCC=CC(=O)[O-]
REMARK SMILES IDX 5 1 6 2 7 3 8 4 9 5 10 6 11 7 4 8 3 9 2 10 1 11
REMARK H PARENT
REMARK Flexibility Score: inf
ROOT
ATOM      1  C   UNL     1      26.309 -35.904  26.530  1.00  0.00     0.004 C 
ENDROOT
BRANCH   1   2
ATOM      2  C   UNL     1      27.722 -36.402  26.186  1.00  0.00     0.027 C 
BRANCH   2   3
ATOM      3  C   UNL     1      28.566 -35.336  25.546  1.00  0.00    -0.025 C 
ATOM      4  C   UNL     1      28.744 -35.284  24.223  1.00  0.00     0.020 C 
BRANCH   4   5
ATOM      5  C   UNL     1      29.573 -34.251  23.586  1.00  0.00     0.064 C 
ATOM      6  O   UNL     1      30.563 -33.780  24.204  1.00  0.00    -0.545 OA
ATOM      7  O   UNL     1      29.281 -33.786  22.309  1.00  0.00    -0.545 OA
ENDBRANCH   4   5
ENDBRANCH   2   3
ENDBRANCH   1   2
BRANCH   1   8
ATOM      8  C   UNL     1      26.083 -35.805  28.047  1.00  0.00     0.000 C 
BRANCH   8   9
ATOM      9  C   UNL     1      26.369 -34.399  28.605  1.00  0.00    -0.000 C 
BRANCH   9  10
ATOM     10  C   UNL     1      27.518 -34.327  29.625  1.00  0.00    -0.003 C 
ATOM     11  C   UNL     1      28.253 -35.656  29.795  1.00  0.00     0.004 C 
ENDBRANCH   9  10
ENDBRANCH   8   9
ENDBRANCH   1   8
TORSDOF 6
ENDMDL
MODEL 7
REMARK VINA RESULT:    -3.875      1.468      2.286
REMARK INTER + INTRA:          -5.619
REMARK INTER:                  -4.886
REMARK INTRA:                  -0.732
REMARK UNBOUND:                -0.384
REMARK SMILES CCCCCCC=CC(=O)[O-]
REMARK SMILES IDX 5 1 6 2 7 3 8 4 9 5 10 6 11 7 4 8 3 9 2 10 1 11
REMARK H PARENT
REMARK Flexibility Score: inf
ROOT
ATOM      1  C   UNL     1      29.086 -35.980  28.023  1.00  0.00     0.004 C 
ENDROOT
BRANCH   1   2
ATOM      2  C   UNL     1      29.727 -34.608  28.285  1.00  0.00     0.027 C 
BRANCH   2   3
ATOM      3  C   UNL     1      30.360 -34.027  27.051  1.00  0.00    -0.025 C 
ATOM      4  C   UNL     1      30.574 -34.766  25.959  1.00  0.00     0.020 C 
BRANCH   4   5
ATOM      5  C   UNL     1      31.200 -34.212  24.750  1.00  0.00     0.064 C 
ATOM      6  O   UNL     1      30.475 -33.795  23.810  1.00  0.00    -0.545 OA
ATOM      7  O   UNL     1      32.583 -34.139  24.629  1.00  0.00    -0.545 OA
ENDBRANCH   4   5
ENDBRANCH   2   3
ENDBRANCH   1   2
BRANCH   1   8
ATOM      8  C   UNL     1      27.555 -35.939  28.157  1.00  0.00     0.000 C 
BRANCH   8   9
ATOM      9  C   UNL     1      26.831 -36.096  26.808  1.00  0.00    -0.000 C 
BRANCH   9  10
ATOM     10  C   UNL     1      26.825 -34.836  25.924  1.00  0.00    -0.003 C 
ATOM     11  C   UNL     1      26.499 -33.561  26.701  1.00  0.00     0.004 C 
ENDBRANCH   9  10
ENDBRANCH   8   9
ENDBRANCH   1   8
TORSDOF 6
ENDMDL
MODEL 8
REMARK VINA RESULT:    -3.850      3.204      5.579
REMARK INTER + INTRA:          -5.584
REMARK INTER:                  -5.096
REMARK INTRA:                  -0.489
REMARK UNBOUND:                -0.384
REMARK SMILES CCCCCCC=CC(=O)[O-]
REMARK SMILES IDX 5 1 6 2 7 3 8 4 9 5 10 6 11 7 4 8 3 9 2 10 1 11
REMARK H PARENT
REMARK Flexibility Score: inf
ROOT
ATOM      1  C   UNL     1      31.674 -34.576  25.945  1.00  0.00     0.004 C 
ENDROOT
BRANCH   1   2
ATOM      2  C   UNL     1      30.416 -34.098  26.685  1.00  0.00     0.027 C 
BRANCH   2   3
ATOM      3  C   UNL     1      29.154 -34.667  26.098  1.00  0.00    -0.025 C 
ATOM      4  C   UNL     1      27.948 -34.253  26.496  1.00  0.00     0.020 C 
BRANCH   4   5
ATOM      5  C   UNL     1      26.707 -34.807  25.935  1.00  0.00     0.064 C 
ATOM      6  O   UNL     1      26.062 -34.146  25.081  1.00  0.00    -0.545 OA
ATOM      7  O   UNL     1      26.235 -36.052  26.334  1.00  0.00    -0.545 OA
ENDBRANCH   4   5
ENDBRANCH   2   3
ENDBRANCH   1   2
BRANCH   1   8
ATOM      8  C   UNL     1      31.674 -34.149  24.467  1.00  0.00     0.000 C 
BRANCH   8   9
ATOM      9  C   UNL     1      31.735 -35.345  23.499  1.00  0.00    -0.000 C 
BRANCH   9  10
ATOM     10  C   UNL     1      30.742 -35.280  22.326  1.00  0.00    -0.003 C 
ATOM     11  C   UNL     1      29.562 -34.345  22.590  1.00  0.00     0.004 C 
ENDBRANCH   9  10
ENDBRANCH   8   9
ENDBRANCH   1   8
TORSDOF 6
ENDMDL
