MODEL 1
REMARK VINA RESULT:    -3.518      0.000      0.000
REMARK INTER + INTRA:          -8.609
REMARK INTER:                  -6.397
REMARK INTRA:                  -2.211
REMARK UNBOUND:                -2.211
REMARK SMILES CCCCCCCCCCCCCCCC(=O)[O-]
REMARK SMILES IDX 9 1 10 2 11 3 12 4 13 5 14 6 15 7 16 8 17 9 18 10 8 11 7 12
REMARK SMILES IDX 6 13 5 14 4 15 3 16 2 17 1 18
REMARK H PARENT
REMARK Flexibility Score: inf
ROOT
ATOM      1  C   UNL     1      -7.935  32.778  45.715  1.00  0.00     0.000 C 
ENDROOT
BRANCH   1   2
ATOM      2  C   UNL     1      -8.046  31.253  45.848  1.00  0.00     0.000 C 
BRANCH   2   3
ATOM      3  C   UNL     1      -7.614  30.739  47.234  1.00  0.00     0.000 C 
BRANCH   3   4
ATOM      4  C   UNL     1      -6.179  30.178  47.303  1.00  0.00     0.000 C 
BRANCH   4   5
ATOM      5  C   UNL     1      -5.449  30.078  45.949  1.00  0.00     0.000 C 
BRANCH   5   6
ATOM      6  C   UNL     1      -5.452  28.675  45.310  1.00  0.00     0.006 C 
BRANCH   6   7
ATOM      7  C   UNL     1      -5.248  27.523  46.306  1.00  0.00     0.053 C 
BRANCH   7   8
ATOM      8  C   UNL     1      -6.398  26.563  46.297  1.00  0.00     0.041 C 
ATOM      9  O   UNL     1      -6.251  25.395  46.743  1.00  0.00    -0.550 OA
ATOM     10  O   UNL     1      -7.621  26.946  45.759  1.00  0.00    -0.550 OA
ENDBRANCH   7   8
ENDBRANCH   6   7
ENDBRANCH   5   6
ENDBRANCH   4   5
ENDBRANCH   3   4
ENDBRANCH   2   3
ENDBRANCH   1   2
BRANCH   1  11
ATOM     11  C   UNL     1      -7.444  33.172  44.313  1.00  0.00     0.000 C 
BRANCH  11  12
ATOM     12  C   UNL     1      -5.916  33.330  44.243  1.00  0.00    -0.000 C 
BRANCH  12  13
ATOM     13  C   UNL     1      -5.350  34.135  45.426  1.00  0.00    -0.000 C 
BRANCH  13  14
ATOM     14  C   UNL     1      -4.327  33.330  46.244  1.00  0.00    -0.000 C 
BRANCH  14  15
ATOM     15  C   UNL     1      -4.509  33.507  47.762  1.00  0.00    -0.000 C 
BRANCH  15  16
ATOM     16  C   UNL     1      -5.641  34.500  48.100  1.00  0.00    -0.000 C 
BRANCH  16  17
ATOM     17  C   UNL     1      -6.579  34.007  49.215  1.00  0.00    -0.003 C 
ATOM     18  C   UNL     1      -5.850  33.708  50.523  1.00  0.00     0.004 C 
ENDBRANCH  16  17
ENDBRANCH  15  16
ENDBRANCH  14  15
ENDBRANCH  13  14
ENDBRANCH  12  13
ENDBRANCH  11  12
ENDBRANCH   1  11
TORSDOF 14
ENDMDL
MODEL 2
REMARK VINA RESULT:    -3.484      2.135      3.929
REMARK INTER + INTRA:          -8.547
REMARK INTER:                  -6.366
REMARK INTRA:                  -2.181
REMARK UNBOUND:                -2.211
REMARK SMILES CCCCCCCCCCCCCCCC(=O)[O-]
REMARK SMILES IDX 9 1 10 2 11 3 12 4 13 5 14 6 15 7 16 8 17 9 18 10 8 11 7 12
REMARK SMILES IDX 6 13 5 14 4 15 3 16 2 17 1 18
REMARK H PARENT
REMARK Flexibility Score: inf
ROOT
ATOM      1  C   UNL     1      -4.508  29.642  46.102  1.00  0.00     0.000 C 
ENDROOT
BRANCH   1   2
ATOM      2  C   UNL     1      -4.857  28.278  46.715  1.00  0.00     0.000 C 
BRANCH   2   3
ATOM      3  C   UNL     1      -5.124  27.195  45.654  1.00  0.00     0.000 C 
BRANCH   3   4
ATOM      4  C   UNL     1      -6.470  26.457  45.801  1.00  0.00     0.000 C 
BRANCH   4   5
ATOM      5  C   UNL     1      -7.723  27.334  45.604  1.00  0.00     0.000 C 
BRANCH   5   6
ATOM      6  C   UNL     1      -7.673  28.274  44.383  1.00  0.00     0.006 C 
BRANCH   6   7
ATOM      7  C   UNL     1      -9.029  28.888  43.998  1.00  0.00     0.053 C 
BRANCH   7   8
ATOM      8  C   UNL     1      -9.985  27.857  43.481  1.00  0.00     0.041 C 
ATOM      9  O   UNL     1      -9.835  27.379  42.325  1.00  0.00    -0.550 OA
ATOM     10  O   UNL     1     -11.063  27.453  44.259  1.00  0.00    -0.550 OA
ENDBRANCH   7   8
ENDBRANCH   6   7
ENDBRANCH   5   6
ENDBRANCH   4   5
ENDBRANCH   3   4
ENDBRANCH   2   3
ENDBRANCH   1   2
BRANCH   1  11
ATOM     11  C   UNL     1      -5.263  30.773  46.817  1.00  0.00     0.000 C 
BRANCH  11  12
ATOM     12  C   UNL     1      -6.545  30.284  47.511  1.00  0.00    -0.000 C 
BRANCH  12  13
ATOM     13  C   UNL     1      -7.810  30.972  46.969  1.00  0.00    -0.000 C 
BRANCH  13  14
ATOM     14  C   UNL     1      -7.486  32.035  45.906  1.00  0.00    -0.000 C 
BRANCH  14  15
ATOM     15  C   UNL     1      -7.829  33.461  46.371  1.00  0.00    -0.000 C 
BRANCH  15  16
ATOM     16  C   UNL     1      -6.610  34.183  46.985  1.00  0.00    -0.000 C 
BRANCH  16  17
ATOM     17  C   UNL     1      -6.593  34.163  48.523  1.00  0.00    -0.003 C 
ATOM     18  C   UNL     1      -5.273  33.658  49.101  1.00  0.00     0.004 C 
ENDBRANCH  16  17
ENDBRANCH  15  16
ENDBRANCH  14  15
ENDBRANCH  13  14
ENDBRANCH  12  13
ENDBRANCH  11  12
ENDBRANCH   1  11
TORSDOF 14
ENDMDL
MODEL 3
REMARK VINA RESULT:    -3.462      1.512      2.137
REMARK INTER + INTRA:          -8.507
REMARK INTER:                  -6.595
REMARK INTRA:                  -1.911
REMARK UNBOUND:                -2.211
REMARK SMILES CCCCCCCCCCCCCCCC(=O)[O-]
REMARK SMILES IDX 9 1 10 2 11 3 12 4 13 5 14 6 15 7 16 8 17 9 18 10 8 11 7 12
REMARK SMILES IDX 6 13 5 14 4 15 3 16 2 17 1 18
REMARK H PARENT
REMARK Flexibility Score: inf
ROOT
ATOM      1  C   UNL     1      -7.603  31.977  46.919  1.00  0.00     0.000 C 
ENDROOT
BRANCH   1   2
ATOM      2  C   UNL     1      -7.459  30.462  46.712  1.00  0.00     0.000 C 
BRANCH   2   3
ATOM      3  C   UNL     1      -6.154  29.899  47.304  1.00  0.00     0.000 C 
BRANCH   3   4
ATOM      4  C   UNL     1      -5.318  29.037  46.335  1.00  0.00     0.000 C 
BRANCH   4   5
ATOM      5  C   UNL     1      -5.574  27.519  46.422  1.00  0.00     0.000 C 
BRANCH   5   6
ATOM      6  C   UNL     1      -6.966  27.066  45.938  1.00  0.00     0.006 C 
BRANCH   6   7
ATOM      7  C   UNL     1      -7.160  27.126  44.414  1.00  0.00     0.053 C 
BRANCH   7   8
ATOM      8  C   UNL     1      -8.309  28.008  44.030  1.00  0.00     0.041 C 
ATOM      9  O   UNL     1      -8.095  29.143  43.529  1.00  0.00    -0.550 OA
ATOM     10  O   UNL     1      -9.614  27.593  44.262  1.00  0.00    -0.550 OA
ENDBRANCH   7   8
ENDBRANCH   6   7
ENDBRANCH   5   6
ENDBRANCH   4   5
ENDBRANCH   3   4
ENDBRANCH   2   3
ENDBRANCH   1   2
BRANCH   1  11
ATOM     11  C   UNL     1      -7.566  32.719  45.574  1.00  0.00     0.000 C 
BRANCH  11  12
ATOM     12  C   UNL     1      -6.150  32.797  44.979  1.00  0.00    -0.000 C 
BRANCH  12  13
ATOM     13  C   UNL     1      -5.209  33.689  45.808  1.00  0.00    -0.000 C 
BRANCH  13  14
ATOM     14  C   UNL     1      -4.030  32.900  46.401  1.00  0.00    -0.000 C 
BRANCH  14  15
ATOM     15  C   UNL     1      -3.928  33.047  47.930  1.00  0.00    -0.000 C 
BRANCH  15  16
ATOM     16  C   UNL     1      -4.961  34.047  48.489  1.00  0.00    -0.000 C 
BRANCH  16  17
ATOM     17  C   UNL     1      -5.677  33.549  49.757  1.00  0.00    -0.003 C 
ATOM     18  C   UNL     1      -6.823  34.458  50.194  1.00  0.00     0.004 C 
ENDBRANCH  16  17
ENDBRANCH  15  16
ENDBRANCH  14  15
ENDBRANCH  13  14
ENDBRANCH  12  13
ENDBRANCH  11  12
ENDBRANCH   1  11
TORSDOF 14
ENDMDL
MODEL 4
REMARK VINA RESULT:    -3.461      3.145      5.958
REMARK INTER + INTRA:          -8.505
REMARK INTER:                  -6.156
REMARK INTRA:                  -2.349
REMARK UNBOUND:                -2.211
REMARK SMILES CCCCCCCCCCCCCCCC(=O)[O-]
REMARK SMILES IDX 9 1 10 2 11 3 12 4 13 5 14 6 15 7 16 8 17 9 18 10 8 11 7 12
REMARK SMILES IDX 6 13 5 14 4 15 3 16 2 17 1 18
REMARK H PARENT
REMARK Flexibility Score: inf
ROOT
ATOM      1  C   UNL     1      -6.610  31.418  43.547  1.00  0.00     0.000 C 
ENDROOT
BRANCH   1   2
ATOM      2  C   UNL     1      -7.962  30.891  44.048  1.00  0.00     0.000 C 
BRANCH   2   3
ATOM      3  C   UNL     1      -8.408  31.546  45.367  1.00  0.00     0.000 C 
BRANCH   3   4
ATOM      4  C   UNL     1      -7.968  30.803  46.646  1.00  0.00     0.000 C 
BRANCH   4   5
ATOM      5  C   UNL     1      -7.051  31.609  47.587  1.00  0.00     0.000 C 
BRANCH   5   6
ATOM      6  C   UNL     1      -6.711  33.033  47.104  1.00  0.00     0.006 C 
BRANCH   6   7
ATOM      7  C   UNL     1      -6.627  34.082  48.224  1.00  0.00     0.053 C 
BRANCH   7   8
ATOM      8  C   UNL     1      -5.508  33.795  49.178  1.00  0.00     0.041 C 
ATOM      9  O   UNL     1      -4.335  33.640  48.748  1.00  0.00    -0.550 OA
ATOM     10  O   UNL     1      -5.767  33.659  50.536  1.00  0.00    -0.550 OA
ENDBRANCH   7   8
ENDBRANCH   6   7
ENDBRANCH   5   6
ENDBRANCH   4   5
ENDBRANCH   3   4
ENDBRANCH   2   3
ENDBRANCH   1   2
BRANCH   1  11
ATOM     11  C   UNL     1      -5.507  30.364  43.736  1.00  0.00     0.000 C 
BRANCH  11  12
ATOM     12  C   UNL     1      -4.655  30.616  44.990  1.00  0.00    -0.000 C 
BRANCH  12  13
ATOM     13  C   UNL     1      -4.068  29.320  45.576  1.00  0.00    -0.000 C 
BRANCH  13  14
ATOM     14  C   UNL     1      -5.078  28.567  46.457  1.00  0.00    -0.000 C 
BRANCH  14  15
ATOM     15  C   UNL     1      -5.185  27.075  46.093  1.00  0.00    -0.000 C 
BRANCH  15  16
ATOM     16  C   UNL     1      -6.632  26.551  46.208  1.00  0.00    -0.000 C 
BRANCH  16  17
ATOM     17  C   UNL     1      -7.654  27.385  45.417  1.00  0.00    -0.003 C 
ATOM     18  C   UNL     1      -7.525  27.213  43.905  1.00  0.00     0.004 C 
ENDBRANCH  16  17
ENDBRANCH  15  16
ENDBRANCH  14  15
ENDBRANCH  13  14
ENDBRANCH  12  13
ENDBRANCH  11  12
ENDBRANCH   1  11
TORSDOF 14
ENDMDL
MODEL 5
REMARK VINA RESULT:    -3.456      3.074      6.427
REMARK INTER + INTRA:          -8.496
REMARK INTER:                  -6.344
REMARK INTRA:                  -2.153
REMARK UNBOUND:                -2.211
REMARK SMILES CCCCCCCCCCCCCCCC(=O)[O-]
REMARK SMILES IDX 9 1 10 2 11 3 12 4 13 5 14 6 15 7 16 8 17 9 18 10 8 11 7 12
REMARK SMILES IDX 6 13 5 14 4 15 3 16 2 17 1 18
REMARK H PARENT
REMARK Flexibility Score: inf
ROOT
ATOM      1  C   UNL     1      -5.102  30.469  46.880  1.00  0.00     0.000 C 
ENDROOT
BRANCH   1   2
ATOM      2  C   UNL     1      -6.558  30.142  47.245  1.00  0.00     0.000 C 
BRANCH   2   3
ATOM      3  C   UNL     1      -7.511  31.331  47.026  1.00  0.00     0.000 C 
BRANCH   3   4
ATOM      4  C   UNL     1      -7.326  32.077  45.688  1.00  0.00     0.000 C 
BRANCH   4   5
ATOM      5  C   UNL     1      -7.261  33.613  45.800  1.00  0.00     0.000 C 
BRANCH   5   6
ATOM      6  C   UNL     1      -7.191  34.159  47.241  1.00  0.00     0.006 C 
BRANCH   6   7
ATOM      7  C   UNL     1      -5.820  34.730  47.638  1.00  0.00     0.053 C 
BRANCH   7   8
ATOM      8  C   UNL     1      -5.086  33.823  48.577  1.00  0.00     0.041 C 
ATOM      9  O   UNL     1      -3.875  33.545  48.372  1.00  0.00    -0.550 OA
ATOM     10  O   UNL     1      -5.749  33.253  49.657  1.00  0.00    -0.550 OA
ENDBRANCH   7   8
ENDBRANCH   6   7
ENDBRANCH   5   6
ENDBRANCH   4   5
ENDBRANCH   3   4
ENDBRANCH   2   3
ENDBRANCH   1   2
BRANCH   1  11
ATOM     11  C   UNL     1      -4.336  29.195  46.493  1.00  0.00     0.000 C 
BRANCH  11  12
ATOM     12  C   UNL     1      -5.224  27.940  46.508  1.00  0.00    -0.000 C 
BRANCH  12  13
ATOM     13  C   UNL     1      -5.074  27.094  45.232  1.00  0.00    -0.000 C 
BRANCH  13  14
ATOM     14  C   UNL     1      -6.430  26.771  44.582  1.00  0.00    -0.000 C 
BRANCH  14  15
ATOM     15  C   UNL     1      -7.622  27.261  45.423  1.00  0.00    -0.000 C 
BRANCH  15  16
ATOM     16  C   UNL     1      -8.457  28.327  44.684  1.00  0.00    -0.000 C 
BRANCH  16  17
ATOM     17  C   UNL     1      -7.666  29.095  43.612  1.00  0.00    -0.003 C 
ATOM     18  C   UNL     1      -8.553  29.946  42.706  1.00  0.00     0.004 C 
ENDBRANCH  16  17
ENDBRANCH  15  16
ENDBRANCH  14  15
ENDBRANCH  13  14
ENDBRANCH  12  13
ENDBRANCH  11  12
ENDBRANCH   1  11
TORSDOF 14
ENDMDL
MODEL 6
REMARK VINA RESULT:    -3.411      3.271      6.410
REMARK INTER + INTRA:          -8.414
REMARK INTER:                  -5.962
REMARK INTRA:                  -2.453
REMARK UNBOUND:                -2.211
REMARK SMILES CCCCCCCCCCCCCCCC(=O)[O-]
REMARK SMILES IDX 9 1 10 2 11 3 12 4 13 5 14 6 15 7 16 8 17 9 18 10 8 11 7 12
REMARK SMILES IDX 6 13 5 14 4 15 3 16 2 17 1 18
REMARK H PARENT
REMARK Flexibility Score: inf
ROOT
ATOM      1  C   UNL     1      -4.995  28.079  46.608  1.00  0.00     0.000 C 
ENDROOT
BRANCH   1   2
ATOM      2  C   UNL     1      -4.271  29.302  46.027  1.00  0.00     0.000 C 
BRANCH   2   3
ATOM      3  C   UNL     1      -4.809  30.635  46.579  1.00  0.00     0.000 C 
BRANCH   3   4
ATOM      4  C   UNL     1      -6.064  30.513  47.468  1.00  0.00     0.000 C 
BRANCH   4   5
ATOM      5  C   UNL     1      -7.202  31.497  47.130  1.00  0.00     0.000 C 
BRANCH   5   6
ATOM      6  C   UNL     1      -6.764  32.965  46.957  1.00  0.00     0.006 C 
BRANCH   6   7
ATOM      7  C   UNL     1      -6.888  33.819  48.229  1.00  0.00     0.053 C 
BRANCH   7   8
ATOM      8  C   UNL     1      -5.684  33.690  49.111  1.00  0.00     0.041 C 
ATOM      9  O   UNL     1      -5.821  33.574  50.357  1.00  0.00    -0.550 OA
ATOM     10  O   UNL     1      -4.409  33.738  48.560  1.00  0.00    -0.550 OA
ENDBRANCH   7   8
ENDBRANCH   6   7
ENDBRANCH   5   6
ENDBRANCH   4   5
ENDBRANCH   3   4
ENDBRANCH   2   3
ENDBRANCH   1   2
BRANCH   1  11
ATOM     11  C   UNL     1      -5.549  27.187  45.487  1.00  0.00     0.000 C 
BRANCH  11  12
ATOM     12  C   UNL     1      -7.030  26.827  45.693  1.00  0.00    -0.000 C 
BRANCH  12  13
ATOM     13  C   UNL     1      -7.976  27.981  45.317  1.00  0.00    -0.000 C 
BRANCH  13  14
ATOM     14  C   UNL     1      -7.722  28.504  43.893  1.00  0.00    -0.000 C 
BRANCH  14  15
ATOM     15  C   UNL     1      -7.803  30.038  43.803  1.00  0.00    -0.000 C 
BRANCH  15  16
ATOM     16  C   UNL     1      -6.471  30.665  43.338  1.00  0.00    -0.000 C 
BRANCH  16  17
ATOM     17  C   UNL     1      -5.863  29.974  42.104  1.00  0.00    -0.003 C 
ATOM     18  C   UNL     1      -4.474  29.396  42.365  1.00  0.00     0.004 C 
ENDBRANCH  16  17
ENDBRANCH  15  16
ENDBRANCH  14  15
ENDBRANCH  13  14
ENDBRANCH  12  13
ENDBRANCH  11  12
ENDBRANCH   1  11
TORSDOF 14
ENDMDL
MODEL 7
REMARK VINA RESULT:    -3.350      3.318      5.850
REMARK INTER + INTRA:          -8.303
REMARK INTER:                  -5.933
REMARK INTRA:                  -2.370
REMARK UNBOUND:                -2.211
REMARK SMILES CCCCCCCCCCCCCCCC(=O)[O-]
REMARK SMILES IDX 9 1 10 2 11 3 12 4 13 5 14 6 15 7 16 8 17 9 18 10 8 11 7 12
REMARK SMILES IDX 6 13 5 14 4 15 3 16 2 17 1 18
REMARK H PARENT
REMARK Flexibility Score: inf
ROOT
ATOM      1  C   UNL     1      -7.443  28.242  44.606  1.00  0.00     0.000 C 
ENDROOT
BRANCH   1   2
ATOM      2  C   UNL     1      -8.714  28.885  45.179  1.00  0.00     0.000 C 
BRANCH   2   3
ATOM      3  C   UNL     1      -8.634  30.421  45.238  1.00  0.00     0.000 C 
BRANCH   3   4
ATOM      4  C   UNL     1      -7.973  30.991  46.510  1.00  0.00     0.000 C 
BRANCH   4   5
ATOM      5  C   UNL     1      -7.615  32.489  46.446  1.00  0.00     0.000 C 
BRANCH   5   6
ATOM      6  C   UNL     1      -6.176  32.834  46.879  1.00  0.00     0.006 C 
BRANCH   6   7
ATOM      7  C   UNL     1      -5.857  32.504  48.346  1.00  0.00     0.053 C 
BRANCH   7   8
ATOM      8  C   UNL     1      -5.797  33.735  49.197  1.00  0.00     0.041 C 
ATOM      9  O   UNL     1      -5.785  33.636  50.452  1.00  0.00    -0.550 OA
ATOM     10  O   UNL     1      -5.794  34.992  48.605  1.00  0.00    -0.550 OA
ENDBRANCH   7   8
ENDBRANCH   6   7
ENDBRANCH   5   6
ENDBRANCH   4   5
ENDBRANCH   3   4
ENDBRANCH   2   3
ENDBRANCH   1   2
BRANCH   1  11
ATOM     11  C   UNL     1      -6.903  27.158  45.551  1.00  0.00     0.000 C 
BRANCH  11  12
ATOM     12  C   UNL     1      -5.463  27.436  46.012  1.00  0.00    -0.000 C 
BRANCH  12  13
ATOM     13  C   UNL     1      -5.352  28.709  46.869  1.00  0.00    -0.000 C 
BRANCH  13  14
ATOM     14  C   UNL     1      -4.195  29.617  46.420  1.00  0.00    -0.000 C 
BRANCH  14  15
ATOM     15  C   UNL     1      -4.005  29.624  44.893  1.00  0.00    -0.000 C 
BRANCH  15  16
ATOM     16  C   UNL     1      -4.548  30.915  44.246  1.00  0.00    -0.000 C 
BRANCH  16  17
ATOM     17  C   UNL     1      -4.984  30.733  42.781  1.00  0.00    -0.003 C 
ATOM     18  C   UNL     1      -6.415  31.197  42.520  1.00  0.00     0.004 C 
ENDBRANCH  16  17
ENDBRANCH  15  16
ENDBRANCH  14  15
ENDBRANCH  13  14
ENDBRANCH  12  13
ENDBRANCH  11  12
ENDBRANCH   1  11
TORSDOF 14
ENDMDL
MODEL 8
REMARK VINA RESULT:    -3.350      1.892      3.604
REMARK INTER + INTRA:          -8.303
REMARK INTER:                  -5.652
REMARK INTRA:                  -2.651
REMARK UNBOUND:                -2.211
REMARK SMILES CCCCCCCCCCCCCCCC(=O)[O-]
REMARK SMILES IDX 9 1 10 2 11 3 12 4 13 5 14 6 15 7 16 8 17 9 18 10 8 11 7 12
REMARK SMILES IDX 6 13 5 14 4 15 3 16 2 17 1 18
REMARK H PARENT
REMARK Flexibility Score: inf
ROOT
ATOM      1  C   UNL     1      -5.107  31.616  43.742  1.00  0.00     0.000 C 
ENDROOT
BRANCH   1   2
ATOM      2  C   UNL     1      -4.926  30.096  43.864  1.00  0.00     0.000 C 
BRANCH   2   3
ATOM      3  C   UNL     1      -4.062  29.690  45.071  1.00  0.00     0.000 C 
BRANCH   3   4
ATOM      4  C   UNL     1      -4.240  28.232  45.541  1.00  0.00     0.000 C 
BRANCH   4   5
ATOM      5  C   UNL     1      -5.373  28.007  46.562  1.00  0.00     0.000 C 
BRANCH   5   6
ATOM      6  C   UNL     1      -6.330  26.845  46.227  1.00  0.00     0.006 C 
BRANCH   6   7
ATOM      7  C   UNL     1      -7.505  27.231  45.315  1.00  0.00     0.053 C 
BRANCH   7   8
ATOM      8  C   UNL     1      -7.201  26.975  43.871  1.00  0.00     0.041 C 
ATOM      9  O   UNL     1      -6.525  25.967  43.536  1.00  0.00    -0.550 OA
ATOM     10  O   UNL     1      -7.630  27.870  42.899  1.00  0.00    -0.550 OA
ENDBRANCH   7   8
ENDBRANCH   6   7
ENDBRANCH   5   6
ENDBRANCH   4   5
ENDBRANCH   3   4
ENDBRANCH   2   3
ENDBRANCH   1   2
BRANCH   1  11
ATOM     11  C   UNL     1      -4.212  32.356  44.748  1.00  0.00     0.000 C 
BRANCH  11  12
ATOM     12  C   UNL     1      -5.019  33.131  45.803  1.00  0.00    -0.000 C 
BRANCH  12  13
ATOM     13  C   UNL     1      -4.762  32.625  47.233  1.00  0.00    -0.000 C 
BRANCH  13  14
ATOM     14  C   UNL     1      -5.799  31.581  47.679  1.00  0.00    -0.000 C 
BRANCH  14  15
ATOM     15  C   UNL     1      -7.220  31.910  47.189  1.00  0.00    -0.000 C 
BRANCH  15  16
ATOM     16  C   UNL     1      -7.979  30.652  46.715  1.00  0.00    -0.000 C 
BRANCH  16  17
ATOM     17  C   UNL     1      -8.430  30.721  45.246  1.00  0.00    -0.003 C 
ATOM     18  C   UNL     1      -8.834  32.127  44.809  1.00  0.00     0.004 C 
ENDBRANCH  16  17
ENDBRANCH  15  16
ENDBRANCH  14  15
ENDBRANCH  13  14
ENDBRANCH  12  13
ENDBRANCH  11  12
ENDBRANCH   1  11
TORSDOF 14
ENDMDL
MODEL 9
REMARK VINA RESULT:    -3.280      2.576      4.802
REMARK INTER + INTRA:          -8.176
REMARK INTER:                  -5.687
REMARK INTRA:                  -2.489
REMARK UNBOUND:                -2.211
REMARK SMILES CCCCCCCCCCCCCCCC(=O)[O-]
REMARK SMILES IDX 9 1 10 2 11 3 12 4 13 5 14 6 15 7 16 8 17 9 18 10 8 11 7 12
REMARK SMILES IDX 6 13 5 14 4 15 3 16 2 17 1 18
REMARK H PARENT
REMARK Flexibility Score: inf
ROOT
ATOM      1  C   UNL     1      -8.007  30.283  46.901  1.00  0.00     0.000 C 
ENDROOT
BRANCH   1   2
ATOM      2  C   UNL     1      -8.820  30.294  45.598  1.00  0.00     0.000 C 
BRANCH   2   3
ATOM      3  C   UNL     1      -8.420  31.440  44.652  1.00  0.00     0.000 C 
BRANCH   3   4
ATOM      4  C   UNL     1      -7.677  31.001  43.373  1.00  0.00     0.000 C 
BRANCH   4   5
ATOM      5  C   UNL     1      -7.251  29.520  43.340  1.00  0.00     0.000 C 
BRANCH   5   6
ATOM      6  C   UNL     1      -8.010  28.647  42.320  1.00  0.00     0.006 C 
BRANCH   6   7
ATOM      7  C   UNL     1      -9.541  28.733  42.426  1.00  0.00     0.053 C 
BRANCH   7   8
ATOM      8  C   UNL     1     -10.133  27.491  43.020  1.00  0.00     0.041 C 
ATOM      9  O   UNL     1     -10.188  26.430  42.343  1.00  0.00    -0.550 OA
ATOM     10  O   UNL     1     -10.659  27.516  44.305  1.00  0.00    -0.550 OA
ENDBRANCH   7   8
ENDBRANCH   6   7
ENDBRANCH   5   6
ENDBRANCH   4   5
ENDBRANCH   3   4
ENDBRANCH   2   3
ENDBRANCH   1   2
BRANCH   1  11
ATOM     11  C   UNL     1      -7.246  31.606  47.082  1.00  0.00     0.000 C 
BRANCH  11  12
ATOM     12  C   UNL     1      -5.740  31.397  47.312  1.00  0.00    -0.000 C 
BRANCH  12  13
ATOM     13  C   UNL     1      -4.916  31.573  46.024  1.00  0.00    -0.000 C 
BRANCH  13  14
ATOM     14  C   UNL     1      -4.256  30.262  45.568  1.00  0.00    -0.000 C 
BRANCH  14  15
ATOM     15  C   UNL     1      -4.602  29.074  46.484  1.00  0.00    -0.000 C 
BRANCH  15  16
ATOM     16  C   UNL     1      -4.862  27.780  45.686  1.00  0.00    -0.000 C 
BRANCH  16  17
ATOM     17  C   UNL     1      -5.861  26.827  46.365  1.00  0.00    -0.003 C 
ATOM     18  C   UNL     1      -7.240  26.840  45.711  1.00  0.00     0.004 C 
ENDBRANCH  16  17
ENDBRANCH  15  16
ENDBRANCH  14  15
ENDBRANCH  13  14
ENDBRANCH  12  13
ENDBRANCH  11  12
ENDBRANCH   1  11
TORSDOF 14
ENDMDL
