MODEL 1
REMARK VINA RESULT:    -2.597      0.000      0.000
REMARK INTER + INTRA:          -4.037
REMARK INTER:                  -3.964
REMARK INTRA:                  -0.073
REMARK UNBOUND:                -0.073
REMARK SMILES CC1=CCC[C@@H](C)C(=O)C[C@H](C(C)C)C(=O)C1
REMARK SMILES IDX 8 1 9 2 6 3 7 4 5 5 4 6 3 7 2 8 1 9 10 11 11 12 15 13 16 14
REMARK SMILES IDX 17 15 12 17 13 18 14 19
REMARK H PARENT
REMARK Flexibility Score: 70.00
ROOT
ATOM      1  C   UNL     1      26.079  25.739  28.577  1.00  0.00     0.136 C 
ATOM      2  O   UNL     1      25.450  25.336  29.546  1.00  0.00    -0.299 OA
ENDROOT
BRANCH   1   3
ATOM      3  C   UNL     1      26.885  24.756  27.750  1.00  0.00     0.053 C 
ATOM      4  C   UNL     1      28.221  24.445  28.439  1.00  0.00     0.016 C 
BRANCH   3   5
ATOM      5  C   UNL     1      27.115  25.308  26.324  1.00  0.00     0.015 C 
BRANCH   5   6
ATOM      6  C   UNL     1      28.589  25.698  26.098  1.00  0.00     0.028 C 
BRANCH   6   7
ATOM      7  C   UNL     1      28.777  27.159  25.766  1.00  0.00    -0.028 C 
ATOM      8  C   UNL     1      28.849  28.168  26.668  1.00  0.00    -0.070 CG0
ATOM      9  C   UNL     1      28.933  29.577  26.133  1.00  0.00     0.039 C 
ATOM     10  G   UNL     1      28.901  27.955  28.176  1.00  0.00     0.000 G0
ENDBRANCH   6   7
ENDBRANCH   5   6
ENDBRANCH   3   5
ENDBRANCH   1   3
BRANCH   1  11
ATOM     11  C   UNL     1      26.025  27.212  28.229  1.00  0.00     0.087 C 
BRANCH  11  12
ATOM     12  C   UNL     1      26.574  28.101  29.373  1.00  0.00     0.066 C 
BRANCH  12  13
ATOM     13  C   UNL     1      27.896  28.747  28.980  1.00  0.00     0.140 C 
ATOM     14  O   UNL     1      28.153  29.894  29.320  1.00  0.00    -0.299 OA
BRANCH  13  15
ATOM     15  C   UNL     1      28.912  27.955  28.195  1.00  0.00     0.106 CG0
ATOM     16  G   UNL     1      28.840  28.174  26.689  1.00  0.00     0.000 G0
ENDBRANCH  13  15
ENDBRANCH  12  13
BRANCH  12  17
ATOM     17  C   UNL     1      25.506  29.104  29.912  1.00  0.00    -0.006 C 
ATOM     18  C   UNL     1      24.093  28.743  29.427  1.00  0.00     0.008 C 
ATOM     19  C   UNL     1      25.517  29.293  31.439  1.00  0.00     0.008 C 
ENDBRANCH  12  17
ENDBRANCH  11  12
ENDBRANCH   1  11
TORSDOF 1
ENDMDL
MODEL 2
REMARK VINA RESULT:    -2.596      1.421      2.148
REMARK INTER + INTRA:          -4.035
REMARK INTER:                  -4.142
REMARK INTRA:                   0.107
REMARK UNBOUND:                -0.073
REMARK SMILES CC1=CCC[C@@H](C)C(=O)C[C@H](C(C)C)C(=O)C1
REMARK SMILES IDX 8 1 9 2 6 3 7 4 5 5 4 6 3 7 2 8 1 9 10 11 11 12 15 13 16 14
REMARK SMILES IDX 17 15 12 17 13 18 14 19
REMARK H PARENT
REMARK Flexibility Score: 70.00
ROOT
ATOM      1  C   UNL     1      24.787  26.273  28.363  1.00  0.00     0.136 C 
ATOM      2  O   UNL     1      23.616  26.344  28.714  1.00  0.00    -0.299 OA
ENDROOT
BRANCH   1   3
ATOM      3  C   UNL     1      25.402  24.913  28.091  1.00  0.00     0.053 C 
ATOM      4  C   UNL     1      24.336  23.936  27.577  1.00  0.00     0.016 C 
BRANCH   3   5
ATOM      5  C   UNL     1      26.086  24.363  29.364  1.00  0.00     0.015 C 
BRANCH   5   6
ATOM      6  C   UNL     1      27.585  24.090  29.129  1.00  0.00     0.028 C 
BRANCH   6   7
ATOM      7  C   UNL     1      28.130  24.771  27.898  1.00  0.00    -0.028 C 
ATOM      8  C   UNL     1      28.605  26.040  27.845  1.00  0.00    -0.070 CG0
ATOM      9  C   UNL     1      29.011  26.578  26.494  1.00  0.00     0.039 C 
ATOM     10  G   UNL     1      28.797  26.925  29.070  1.00  0.00     0.000 G0
ENDBRANCH   6   7
ENDBRANCH   5   6
ENDBRANCH   3   5
ENDBRANCH   1   3
BRANCH   1  11
ATOM     11  C   UNL     1      25.583  27.550  28.203  1.00  0.00     0.087 C 
BRANCH  11  12
ATOM     12  C   UNL     1      26.402  27.889  29.475  1.00  0.00     0.066 C 
BRANCH  12  13
ATOM     13  C   UNL     1      27.872  28.101  29.142  1.00  0.00     0.140 C 
ATOM     14  O   UNL     1      28.312  29.227  28.959  1.00  0.00    -0.299 OA
BRANCH  13  15
ATOM     15  C   UNL     1      28.802  26.915  29.070  1.00  0.00     0.106 CG0
ATOM     16  G   UNL     1      28.597  26.040  27.840  1.00  0.00     0.000 G0
ENDBRANCH  13  15
ENDBRANCH  12  13
BRANCH  12  17
ATOM     17  C   UNL     1      25.760  29.045  30.305  1.00  0.00    -0.006 C 
ATOM     18  C   UNL     1      24.348  29.387  29.803  1.00  0.00     0.008 C 
ATOM     19  C   UNL     1      25.745  28.810  31.826  1.00  0.00     0.008 C 
ENDBRANCH  12  17
ENDBRANCH  11  12
ENDBRANCH   1  11
TORSDOF 1
ENDMDL
MODEL 3
REMARK VINA RESULT:    -2.483      1.958      3.885
REMARK INTER + INTRA:          -3.862
REMARK INTER:                  -4.253
REMARK INTRA:                   0.391
REMARK UNBOUND:                -0.073
REMARK SMILES CC1=CCC[C@@H](C)C(=O)C[C@H](C(C)C)C(=O)C1
REMARK SMILES IDX 8 1 9 2 6 3 7 4 5 5 4 6 3 7 2 8 1 9 10 11 11 12 15 13 16 14
REMARK SMILES IDX 17 15 12 17 13 18 14 19
REMARK H PARENT
REMARK Flexibility Score: 70.00
ROOT
ATOM      1  C   UNL     1      27.903  25.418  29.826  1.00  0.00     0.136 C 
ATOM      2  O   UNL     1      27.580  25.636  30.987  1.00  0.00    -0.299 OA
ENDROOT
BRANCH   1   3
ATOM      3  C   UNL     1      27.418  24.155  29.142  1.00  0.00     0.053 C 
ATOM      4  C   UNL     1      28.028  24.037  27.738  1.00  0.00     0.016 C 
BRANCH   3   5
ATOM      5  C   UNL     1      25.873  24.132  29.076  1.00  0.00     0.015 C 
BRANCH   5   6
ATOM      6  C   UNL     1      25.344  24.972  27.897  1.00  0.00     0.028 C 
BRANCH   6   7
ATOM      7  C   UNL     1      24.260  25.944  28.295  1.00  0.00    -0.028 C 
ATOM      8  C   UNL     1      24.366  27.295  28.270  1.00  0.00    -0.070 CG0
ATOM      9  C   UNL     1      23.205  28.097  28.808  1.00  0.00     0.039 C 
ATOM     10  G   UNL     1      25.561  28.040  27.688  1.00  0.00     0.000 G0
ENDBRANCH   6   7
ENDBRANCH   5   6
ENDBRANCH   3   5
ENDBRANCH   1   3
BRANCH   1  11
ATOM     11  C   UNL     1      28.773  26.426  29.106  1.00  0.00     0.087 C 
BRANCH  11  12
ATOM     12  C   UNL     1      28.012  27.136  27.957  1.00  0.00     0.066 C 
BRANCH  12  13
ATOM     13  C   UNL     1      26.838  27.944  28.492  1.00  0.00     0.140 C 
ATOM     14  O   UNL     1      26.921  28.528  29.563  1.00  0.00    -0.299 OA
BRANCH  13  15
ATOM     15  C   UNL     1      25.572  28.052  27.678  1.00  0.00     0.106 CG0
ATOM     16  G   UNL     1      24.383  27.313  28.279  1.00  0.00     0.000 G0
ENDBRANCH  13  15
ENDBRANCH  12  13
BRANCH  12  17
ATOM     17  C   UNL     1      28.967  27.938  27.018  1.00  0.00    -0.006 C 
ATOM     18  C   UNL     1      28.613  27.729  25.537  1.00  0.00     0.008 C 
ATOM     19  C   UNL     1      29.068  29.441  27.338  1.00  0.00     0.008 C 
ENDBRANCH  12  17
ENDBRANCH  11  12
ENDBRANCH   1  11
TORSDOF 1
ENDMDL
MODEL 4
REMARK VINA RESULT:    -2.305      1.748      3.878
REMARK INTER + INTRA:          -3.591
REMARK INTER:                  -4.089
REMARK INTRA:                   0.498
REMARK UNBOUND:                -0.073
REMARK SMILES CC1=CCC[C@@H](C)C(=O)C[C@H](C(C)C)C(=O)C1
REMARK SMILES IDX 8 1 9 2 6 3 7 4 5 5 4 6 3 7 2 8 1 9 10 11 11 12 15 13 16 14
REMARK SMILES IDX 17 15 12 17 13 18 14 19
REMARK H PARENT
REMARK Flexibility Score: 70.00
ROOT
ATOM      1  C   UNL     1      28.707  25.607  27.482  1.00  0.00     0.136 C 
ATOM      2  O   UNL     1      29.068  25.658  28.650  1.00  0.00    -0.299 OA
ENDROOT
BRANCH   1   3
ATOM      3  C   UNL     1      27.883  24.425  27.007  1.00  0.00     0.053 C 
ATOM      4  C   UNL     1      27.236  24.733  25.650  1.00  0.00     0.016 C 
BRANCH   3   5
ATOM      5  C   UNL     1      26.812  24.053  28.059  1.00  0.00     0.015 C 
BRANCH   5   6
ATOM      6  C   UNL     1      25.710  25.127  28.150  1.00  0.00     0.028 C 
BRANCH   6   7
ATOM      7  C   UNL     1      25.748  25.914  29.437  1.00  0.00    -0.028 C 
ATOM      8  C   UNL     1      26.031  27.236  29.543  1.00  0.00    -0.070 CG0
ATOM      9  C   UNL     1      26.122  27.820  30.932  1.00  0.00     0.039 C 
ATOM     10  G   UNL     1      26.209  28.163  28.347  1.00  0.00     0.000 G0
ENDBRANCH   6   7
ENDBRANCH   5   6
ENDBRANCH   3   5
ENDBRANCH   1   3
BRANCH   1  11
ATOM     11  C   UNL     1      29.087  26.735  26.547  1.00  0.00     0.087 C 
BRANCH  11  12
ATOM     12  C   UNL     1      27.989  27.826  26.474  1.00  0.00     0.066 C 
BRANCH  12  13
ATOM     13  C   UNL     1      27.623  28.331  27.863  1.00  0.00     0.140 C 
ATOM     14  O   UNL     1      28.461  28.876  28.568  1.00  0.00    -0.299 OA
BRANCH  13  15
ATOM     15  C   UNL     1      26.206  28.188  28.362  1.00  0.00     0.106 CG0
ATOM     16  G   UNL     1      26.057  27.231  29.539  1.00  0.00     0.000 G0
ENDBRANCH  13  15
ENDBRANCH  12  13
BRANCH  12  17
ATOM     17  C   UNL     1      28.339  28.955  25.454  1.00  0.00    -0.006 C 
ATOM     18  C   UNL     1      27.206  29.173  24.439  1.00  0.00     0.008 C 
ATOM     19  C   UNL     1      28.749  30.294  26.094  1.00  0.00     0.008 C 
ENDBRANCH  12  17
ENDBRANCH  11  12
ENDBRANCH   1  11
TORSDOF 1
ENDMDL
MODEL 5
REMARK VINA RESULT:    -2.233      2.089      3.670
REMARK INTER + INTRA:          -3.481
REMARK INTER:                  -4.176
REMARK INTRA:                   0.696
REMARK UNBOUND:                -0.073
REMARK SMILES CC1=CCC[C@@H](C)C(=O)C[C@H](C(C)C)C(=O)C1
REMARK SMILES IDX 8 1 9 2 6 3 7 4 5 5 4 6 3 7 2 8 1 9 10 11 11 12 15 13 16 14
REMARK SMILES IDX 17 15 12 17 13 18 14 19
REMARK H PARENT
REMARK Flexibility Score: 70.00
ROOT
ATOM      1  C   UNL     1      27.566  27.748  27.577  1.00  0.00     0.136 C 
ATOM      2  O   UNL     1      28.345  28.155  28.429  1.00  0.00    -0.299 OA
ENDROOT
BRANCH   1   3
ATOM      3  C   UNL     1      28.104  27.000  26.372  1.00  0.00     0.053 C 
ATOM      4  C   UNL     1      28.277  27.954  25.182  1.00  0.00     0.016 C 
BRANCH   3   5
ATOM      5  C   UNL     1      27.172  25.822  26.003  1.00  0.00     0.015 C 
BRANCH   5   6
ATOM      6  C   UNL     1      27.849  24.461  26.259  1.00  0.00     0.028 C 
BRANCH   6   7
ATOM      7  C   UNL     1      28.629  24.416  27.550  1.00  0.00    -0.028 C 
ATOM      8  C   UNL     1      28.104  24.549  28.793  1.00  0.00    -0.070 CG0
ATOM      9  C   UNL     1      29.064  24.580  29.957  1.00  0.00     0.039 C 
ATOM     10  G   UNL     1      26.608  24.616  29.078  1.00  0.00     0.000 G0
ENDBRANCH   6   7
ENDBRANCH   5   6
ENDBRANCH   3   5
ENDBRANCH   1   3
BRANCH   1  11
ATOM     11  C   UNL     1      26.084  27.998  27.758  1.00  0.00     0.087 C 
BRANCH  11  12
ATOM     12  C   UNL     1      25.326  26.717  28.189  1.00  0.00     0.066 C 
BRANCH  12  13
ATOM     13  C   UNL     1      26.058  25.996  29.313  1.00  0.00     0.140 C 
ATOM     14  O   UNL     1      26.190  26.525  30.408  1.00  0.00    -0.299 OA
BRANCH  13  15
ATOM     15  C   UNL     1      26.596  24.605  29.085  1.00  0.00     0.106 CG0
ATOM     16  G   UNL     1      28.096  24.556  28.822  1.00  0.00     0.000 G0
ENDBRANCH  13  15
ENDBRANCH  12  13
BRANCH  12  17
ATOM     17  C   UNL     1      23.816  26.988  28.478  1.00  0.00    -0.006 C 
ATOM     18  C   UNL     1      23.361  28.336  27.897  1.00  0.00     0.008 C 
ATOM     19  C   UNL     1      22.866  25.863  28.031  1.00  0.00     0.008 C 
ENDBRANCH  12  17
ENDBRANCH  11  12
ENDBRANCH   1  11
TORSDOF 1
ENDMDL
MODEL 6
REMARK VINA RESULT:    -2.231      1.609      3.542
REMARK INTER + INTRA:          -3.478
REMARK INTER:                  -4.044
REMARK INTRA:                   0.567
REMARK UNBOUND:                -0.073
REMARK SMILES CC1=CCC[C@@H](C)C(=O)C[C@H](C(C)C)C(=O)C1
REMARK SMILES IDX 8 1 9 2 6 3 7 4 5 5 4 6 3 7 2 8 1 9 10 11 11 12 15 13 16 14
REMARK SMILES IDX 17 15 12 17 13 18 14 19
REMARK H PARENT
REMARK Flexibility Score: 70.00
ROOT
ATOM      1  C   UNL     1      28.258  28.024  28.834  1.00  0.00     0.136 C 
ATOM      2  O   UNL     1      29.084  27.292  29.362  1.00  0.00    -0.299 OA
ENDROOT
BRANCH   1   3
ATOM      3  C   UNL     1      28.601  28.715  27.528  1.00  0.00     0.053 C 
ATOM      4  C   UNL     1      29.026  30.167  27.784  1.00  0.00     0.016 C 
BRANCH   3   5
ATOM      5  C   UNL     1      27.403  28.655  26.551  1.00  0.00     0.015 C 
BRANCH   5   6
ATOM      6  C   UNL     1      27.589  27.549  25.493  1.00  0.00     0.028 C 
BRANCH   6   7
ATOM      7  C   UNL     1      28.252  26.308  26.037  1.00  0.00    -0.028 C 
ATOM      8  C   UNL     1      27.669  25.397  26.855  1.00  0.00    -0.070 CG0
ATOM      9  C   UNL     1      28.531  24.274  27.378  1.00  0.00     0.039 C 
ATOM     10  G   UNL     1      26.192  25.419  27.230  1.00  0.00     0.000 G0
ENDBRANCH   6   7
ENDBRANCH   5   6
ENDBRANCH   3   5
ENDBRANCH   1   3
BRANCH   1  11
ATOM     11  C   UNL     1      26.911  28.211  29.499  1.00  0.00     0.087 C 
BRANCH  11  12
ATOM     12  C   UNL     1      25.764  27.563  28.684  1.00  0.00     0.066 C 
BRANCH  12  13
ATOM     13  C   UNL     1      25.936  26.052  28.598  1.00  0.00     0.140 C 
ATOM     14  O   UNL     1      25.837  25.357  29.599  1.00  0.00    -0.299 OA
BRANCH  13  15
ATOM     15  C   UNL     1      26.198  25.404  27.261  1.00  0.00     0.106 CG0
ATOM     16  G   UNL     1      27.665  25.401  26.850  1.00  0.00     0.000 G0
ENDBRANCH  13  15
ENDBRANCH  12  13
BRANCH  12  17
ATOM     17  C   UNL     1      24.354  28.020  29.174  1.00  0.00    -0.006 C 
ATOM     18  C   UNL     1      24.336  29.513  29.536  1.00  0.00     0.008 C 
ATOM     19  C   UNL     1      23.201  27.688  28.209  1.00  0.00     0.008 C 
ENDBRANCH  12  17
ENDBRANCH  11  12
ENDBRANCH   1  11
TORSDOF 1
ENDMDL
MODEL 7
REMARK VINA RESULT:    -2.173      2.081      3.858
REMARK INTER + INTRA:          -3.390
REMARK INTER:                  -3.706
REMARK INTRA:                   0.316
REMARK UNBOUND:                -0.073
REMARK SMILES CC1=CCC[C@@H](C)C(=O)C[C@H](C(C)C)C(=O)C1
REMARK SMILES IDX 8 1 9 2 6 3 7 4 5 5 4 6 3 7 2 8 1 9 10 11 11 12 15 13 16 14
REMARK SMILES IDX 17 15 12 17 13 18 14 19
REMARK H PARENT
REMARK Flexibility Score: 70.00
ROOT
ATOM      1  C   UNL     1      28.084  26.824  25.708  1.00  0.00     0.136 C 
ATOM      2  O   UNL     1      28.880  27.540  25.116  1.00  0.00    -0.299 OA
ENDROOT
BRANCH   1   3
ATOM      3  C   UNL     1      28.475  25.398  26.048  1.00  0.00     0.053 C 
ATOM      4  C   UNL     1      27.296  24.446  25.805  1.00  0.00     0.016 C 
BRANCH   3   5
ATOM      5  C   UNL     1      28.968  25.304  27.511  1.00  0.00     0.015 C 
BRANCH   5   6
ATOM      6  C   UNL     1      28.081  24.362  28.349  1.00  0.00     0.028 C 
BRANCH   6   7
ATOM      7  C   UNL     1      27.667  24.953  29.674  1.00  0.00    -0.028 C 
ATOM      8  C   UNL     1      26.716  25.904  29.849  1.00  0.00    -0.070 CG0
ATOM      9  C   UNL     1      26.517  26.444  31.244  1.00  0.00     0.039 C 
ATOM     10  G   UNL     1      25.812  26.414  28.733  1.00  0.00     0.000 G0
ENDBRANCH   6   7
ENDBRANCH   5   6
ENDBRANCH   3   5
ENDBRANCH   1   3
BRANCH   1  11
ATOM     11  C   UNL     1      26.733  27.388  26.091  1.00  0.00     0.087 C 
BRANCH  11  12
ATOM     12  C   UNL     1      26.831  28.378  27.279  1.00  0.00     0.066 C 
BRANCH  12  13
ATOM     13  C   UNL     1      25.961  27.926  28.445  1.00  0.00     0.140 C 
ATOM     14  O   UNL     1      25.365  28.745  29.129  1.00  0.00    -0.299 OA
BRANCH  13  15
ATOM     15  C   UNL     1      25.807  26.454  28.737  1.00  0.00     0.106 CG0
ATOM     16  G   UNL     1      26.717  25.944  29.848  1.00  0.00     0.000 G0
ENDBRANCH  13  15
ENDBRANCH  12  13
BRANCH  12  17
ATOM     17  C   UNL     1      28.309  28.696  27.669  1.00  0.00    -0.006 C 
ATOM     18  C   UNL     1      28.780  30.028  27.065  1.00  0.00     0.008 C 
ATOM     19  C   UNL     1      28.595  28.661  29.181  1.00  0.00     0.008 C 
ENDBRANCH  12  17
ENDBRANCH  11  12
ENDBRANCH   1  11
TORSDOF 1
ENDMDL
MODEL 8
REMARK VINA RESULT:    -2.167     11.807     14.661
REMARK INTER + INTRA:          -3.381
REMARK INTER:                  -4.252
REMARK INTRA:                   0.871
REMARK UNBOUND:                -0.073
REMARK SMILES CC1=CCC[C@@H](C)C(=O)C[C@H](C(C)C)C(=O)C1
REMARK SMILES IDX 8 1 9 2 6 3 7 4 5 5 4 6 3 7 2 8 1 9 10 11 11 12 15 13 16 14
REMARK SMILES IDX 17 15 12 17 13 18 14 19
REMARK H PARENT
REMARK Flexibility Score: 70.00
ROOT
ATOM      1  C   UNL     1      28.451  40.549  22.362  1.00  0.00     0.136 C 
ATOM      2  O   UNL     1      28.656  40.387  23.557  1.00  0.00    -0.299 OA
ENDROOT
BRANCH   1   3
ATOM      3  C   UNL     1      27.993  41.906  21.862  1.00  0.00     0.053 C 
ATOM      4  C   UNL     1      26.462  42.007  21.910  1.00  0.00     0.016 C 
BRANCH   3   5
ATOM      5  C   UNL     1      28.518  42.162  20.430  1.00  0.00     0.015 C 
BRANCH   5   6
ATOM      6  C   UNL     1      27.413  41.955  19.375  1.00  0.00     0.028 C 
BRANCH   6   7
ATOM      7  C   UNL     1      27.624  40.728  18.523  1.00  0.00    -0.028 C 
ATOM      8  C   UNL     1      27.162  39.484  18.803  1.00  0.00    -0.070 CG0
ATOM      9  C   UNL     1      27.569  38.363  17.878  1.00  0.00     0.039 C 
ATOM     10  G   UNL     1      26.223  39.171  19.961  1.00  0.00     0.000 G0
ENDBRANCH   6   7
ENDBRANCH   5   6
ENDBRANCH   3   5
ENDBRANCH   1   3
BRANCH   1  11
ATOM     11  C   UNL     1      28.669  39.388  21.416  1.00  0.00     0.087 C 
BRANCH  11  12
ATOM     12  C   UNL     1      27.798  38.162  21.788  1.00  0.00     0.066 C 
BRANCH  12  13
ATOM     13  C   UNL     1      26.634  37.999  20.820  1.00  0.00     0.140 C 
ATOM     14  O   UNL     1      26.023  36.941  20.754  1.00  0.00    -0.299 OA
BRANCH  13  15
ATOM     15  C   UNL     1      26.210  39.162  19.957  1.00  0.00     0.106 CG0
ATOM     16  G   UNL     1      27.174  39.474  18.819  1.00  0.00     0.000 G0
ENDBRANCH  13  15
ENDBRANCH  12  13
BRANCH  12  17
ATOM     17  C   UNL     1      28.647  36.868  21.992  1.00  0.00    -0.006 C 
ATOM     18  C   UNL     1      27.920  35.846  22.880  1.00  0.00     0.008 C 
ATOM     19  C   UNL     1      29.124  36.202  20.688  1.00  0.00     0.008 C 
ENDBRANCH  12  17
ENDBRANCH  11  12
ENDBRANCH   1  11
TORSDOF 1
ENDMDL
MODEL 9
REMARK VINA RESULT:    -1.322      1.723      3.819
REMARK INTER + INTRA:          -2.091
REMARK INTER:                  -2.608
REMARK INTRA:                   0.517
REMARK UNBOUND:                -0.073
REMARK SMILES CC1=CCC[C@@H](C)C(=O)C[C@H](C(C)C)C(=O)C1
REMARK SMILES IDX 8 1 9 2 6 3 7 4 5 5 4 6 3 7 2 8 1 9 10 11 11 12 15 13 16 14
REMARK SMILES IDX 17 15 12 17 13 18 14 19
REMARK H PARENT
REMARK Flexibility Score: 70.00
ROOT
ATOM      1  C   UNL     1      27.931  28.758  27.674  1.00  0.00     0.136 C 
ATOM      2  O   UNL     1      28.174  29.723  28.386  1.00  0.00    -0.299 OA
ENDROOT
BRANCH   1   3
ATOM      3  C   UNL     1      29.032  27.760  27.370  1.00  0.00     0.053 C 
ATOM      4  C   UNL     1      28.794  27.099  26.005  1.00  0.00     0.016 C 
BRANCH   3   5
ATOM      5  C   UNL     1      29.125  26.697  28.489  1.00  0.00     0.015 C 
BRANCH   5   6
ATOM      6  C   UNL     1      28.990  25.268  27.927  1.00  0.00     0.028 C 
BRANCH   6   7
ATOM      7  C   UNL     1      27.872  24.479  28.563  1.00  0.00    -0.028 C 
ATOM      8  C   UNL     1      26.548  24.728  28.412  1.00  0.00    -0.070 CG0
ATOM      9  C   UNL     1      25.584  23.889  29.216  1.00  0.00     0.039 C 
ATOM     10  G   UNL     1      25.985  25.763  27.447  1.00  0.00     0.000 G0
ENDBRANCH   6   7
ENDBRANCH   5   6
ENDBRANCH   3   5
ENDBRANCH   1   3
BRANCH   1  11
ATOM     11  C   UNL     1      26.531  28.586  27.123  1.00  0.00     0.087 C 
BRANCH  11  12
ATOM     12  C   UNL     1      25.512  28.214  28.229  1.00  0.00     0.066 C 
BRANCH  12  13
ATOM     13  C   UNL     1      25.052  26.769  28.090  1.00  0.00     0.140 C 
ATOM     14  O   UNL     1      23.941  26.430  28.473  1.00  0.00    -0.299 OA
BRANCH  13  15
ATOM     15  C   UNL     1      25.961  25.753  27.443  1.00  0.00     0.106 CG0
ATOM     16  G   UNL     1      26.540  24.732  28.415  1.00  0.00     0.000 G0
ENDBRANCH  13  15
ENDBRANCH  12  13
BRANCH  12  17
ATOM     17  C   UNL     1      26.020  28.589  29.657  1.00  0.00    -0.006 C 
ATOM     18  C   UNL     1      25.168  29.702  30.288  1.00  0.00     0.008 C 
ATOM     19  C   UNL     1      26.148  27.399  30.625  1.00  0.00     0.008 C 
ENDBRANCH  12  17
ENDBRANCH  11  12
ENDBRANCH   1  11
TORSDOF 1
ENDMDL
