MODEL 1
REMARK VINA RESULT:    -5.685      0.000      0.000
REMARK INTER + INTRA:          -8.611
REMARK INTER:                  -7.679
REMARK INTRA:                  -0.932
REMARK UNBOUND:                -0.932
REMARK SMILES CC(=O)CCC=C(C)CCC=C(C)C
REMARK SMILES IDX 7 1 6 2 8 3 9 4 10 5 11 6 13 7 12 8 14 9 5 10 4 11 2 12 3 13
REMARK SMILES IDX 1 14
REMARK H PARENT
REMARK Flexibility Score: inf
ROOT
ATOM      1  C   UNL     1     -13.142 -15.667  30.294  1.00  0.00    -0.077 C 
ATOM      2  C   UNL     1     -11.816 -15.908  30.413  1.00  0.00    -0.028 C 
ATOM      3  C   UNL     1     -13.755 -15.204  28.993  1.00  0.00     0.039 C 
ENDROOT
BRANCH   1   4
ATOM      4  C   UNL     1     -14.031 -15.847  31.505  1.00  0.00     0.034 C 
BRANCH   4   5
ATOM      5  C   UNL     1     -13.413 -16.843  32.493  1.00  0.00     0.032 C 
BRANCH   5   6
ATOM      6  C   UNL     1     -13.603 -18.267  32.029  1.00  0.00    -0.028 C 
ATOM      7  C   UNL     1     -12.837 -20.532  31.384  1.00  0.00     0.039 C 
ATOM      8  C   UNL     1     -12.574 -19.124  31.850  1.00  0.00    -0.080 C 
ATOM      9  C   UNL     1     -11.146 -18.711  32.104  1.00  0.00     0.039 C 
ENDBRANCH   5   6
ENDBRANCH   4   5
ENDBRANCH   1   4
BRANCH   2  10
ATOM     10  C   UNL     1     -10.827 -15.816  29.278  1.00  0.00     0.035 C 
BRANCH  10  11
ATOM     11  C   UNL     1     -10.533 -17.210  28.704  1.00  0.00     0.079 C 
BRANCH  11  12
ATOM     12  C   UNL     1     -11.549 -17.698  27.694  1.00  0.00     0.130 C 
ATOM     13  O   UNL     1     -12.456 -18.417  28.086  1.00  0.00    -0.300 OA
ATOM     14  C   UNL     1     -11.494 -17.335  26.237  1.00  0.00     0.087 C 
ENDBRANCH  11  12
ENDBRANCH  10  11
ENDBRANCH   2  10
TORSDOF 6
ENDMDL
MODEL 2
REMARK VINA RESULT:    -5.670      1.562      3.284
REMARK INTER + INTRA:          -8.591
REMARK INTER:                  -7.350
REMARK INTRA:                  -1.241
REMARK UNBOUND:                -0.932
REMARK SMILES CC(=O)CCC=C(C)CCC=C(C)C
REMARK SMILES IDX 7 1 6 2 8 3 9 4 10 5 11 6 13 7 12 8 14 9 5 10 4 11 2 12 3 13
REMARK SMILES IDX 1 14
REMARK H PARENT
REMARK Flexibility Score: inf
ROOT
ATOM      1  C   UNL     1     -12.939 -19.446  29.545  1.00  0.00    -0.077 C 
ATOM      2  C   UNL     1     -11.899 -18.633  29.242  1.00  0.00    -0.028 C 
ATOM      3  C   UNL     1     -14.137 -19.579  28.635  1.00  0.00     0.039 C 
ENDROOT
BRANCH   1   4
ATOM      4  C   UNL     1     -12.907 -20.224  30.842  1.00  0.00     0.034 C 
BRANCH   4   5
ATOM      5  C   UNL     1     -12.641 -19.293  32.031  1.00  0.00     0.032 C 
BRANCH   5   6
ATOM      6  C   UNL     1     -13.645 -18.166  32.081  1.00  0.00    -0.028 C 
ATOM      7  C   UNL     1     -14.340 -15.792  32.213  1.00  0.00     0.039 C 
ATOM      8  C   UNL     1     -13.285 -16.867  32.166  1.00  0.00    -0.080 C 
ATOM      9  C   UNL     1     -11.837 -16.447  32.218  1.00  0.00     0.039 C 
ENDBRANCH   5   6
ENDBRANCH   4   5
ENDBRANCH   1   4
BRANCH   2  10
ATOM     10  C   UNL     1     -11.779 -17.842  27.965  1.00  0.00     0.035 C 
BRANCH  10  11
ATOM     11  C   UNL     1     -11.984 -16.344  28.236  1.00  0.00     0.079 C 
BRANCH  11  12
ATOM     12  C   UNL     1     -13.377 -15.838  27.933  1.00  0.00     0.130 C 
ATOM     13  O   UNL     1     -14.021 -16.400  27.061  1.00  0.00    -0.300 OA
ATOM     14  C   UNL     1     -14.004 -14.680  28.660  1.00  0.00     0.087 C 
ENDBRANCH  11  12
ENDBRANCH  10  11
ENDBRANCH   2  10
TORSDOF 6
ENDMDL
MODEL 3
REMARK VINA RESULT:    -5.639      2.428      5.000
REMARK INTER + INTRA:          -8.549
REMARK INTER:                  -7.665
REMARK INTRA:                  -0.884
REMARK UNBOUND:                -0.932
REMARK SMILES CC(=O)CCC=C(C)CCC=C(C)C
REMARK SMILES IDX 7 1 6 2 8 3 9 4 10 5 11 6 13 7 12 8 14 9 5 10 4 11 2 12 3 13
REMARK SMILES IDX 1 14
REMARK H PARENT
REMARK Flexibility Score: inf
ROOT
ATOM      1  C   UNL     1     -12.719 -18.408  31.691  1.00  0.00    -0.077 C 
ATOM      2  C   UNL     1     -13.417 -17.312  32.070  1.00  0.00    -0.028 C 
ATOM      3  C   UNL     1     -11.233 -18.528  31.935  1.00  0.00     0.039 C 
ENDROOT
BRANCH   1   4
ATOM      4  C   UNL     1     -13.445 -19.532  30.985  1.00  0.00     0.034 C 
BRANCH   4   5
ATOM      5  C   UNL     1     -12.971 -19.660  29.533  1.00  0.00     0.032 C 
BRANCH   5   6
ATOM      6  C   UNL     1     -13.624 -18.625  28.649  1.00  0.00    -0.028 C 
ATOM      7  C   UNL     1     -13.654 -16.616  27.200  1.00  0.00     0.039 C 
ATOM      8  C   UNL     1     -12.937 -17.616  28.071  1.00  0.00    -0.080 C 
ATOM      9  C   UNL     1     -11.452 -17.451  28.272  1.00  0.00     0.039 C 
ENDBRANCH   5   6
ENDBRANCH   4   5
ENDBRANCH   1   4
BRANCH   2  10
ATOM     10  C   UNL     1     -12.831 -16.144  32.823  1.00  0.00     0.035 C 
BRANCH  10  11
ATOM     11  C   UNL     1     -13.935 -15.366  33.556  1.00  0.00     0.079 C 
BRANCH  11  12
ATOM     12  C   UNL     1     -15.182 -15.126  32.735  1.00  0.00     0.130 C 
ATOM     13  O   UNL     1     -16.247 -15.542  33.163  1.00  0.00    -0.300 OA
ATOM     14  C   UNL     1     -15.169 -14.395  31.421  1.00  0.00     0.087 C 
ENDBRANCH  11  12
ENDBRANCH  10  11
ENDBRANCH   2  10
TORSDOF 6
ENDMDL
MODEL 4
REMARK VINA RESULT:    -5.581      1.684      3.485
REMARK INTER + INTRA:          -8.470
REMARK INTER:                  -7.369
REMARK INTRA:                  -1.101
REMARK UNBOUND:                -0.932
REMARK SMILES CC(=O)CCC=C(C)CCC=C(C)C
REMARK SMILES IDX 7 1 6 2 8 3 9 4 10 5 11 6 13 7 12 8 14 9 5 10 4 11 2 12 3 13
REMARK SMILES IDX 1 14
REMARK H PARENT
REMARK Flexibility Score: inf
ROOT
ATOM      1  C   UNL     1     -12.191 -18.519  31.302  1.00  0.00    -0.077 C 
ATOM      2  C   UNL     1     -11.951 -18.187  30.012  1.00  0.00    -0.028 C 
ATOM      3  C   UNL     1     -13.240 -19.539  31.680  1.00  0.00     0.039 C 
ENDROOT
BRANCH   1   4
ATOM      4  C   UNL     1     -11.403 -17.832  32.395  1.00  0.00     0.034 C 
BRANCH   4   5
ATOM      5  C   UNL     1     -11.763 -16.344  32.475  1.00  0.00     0.032 C 
BRANCH   5   6
ATOM      6  C   UNL     1     -13.122 -16.141  33.101  1.00  0.00    -0.028 C 
ATOM      7  C   UNL     1     -15.520 -15.518  33.093  1.00  0.00     0.039 C 
ATOM      8  C   UNL     1     -14.192 -15.699  32.404  1.00  0.00    -0.080 C 
ATOM      9  C   UNL     1     -14.100 -15.371  30.935  1.00  0.00     0.039 C 
ENDBRANCH   5   6
ENDBRANCH   4   5
ENDBRANCH   1   4
BRANCH   2  10
ATOM     10  C   UNL     1     -12.627 -18.827  28.826  1.00  0.00     0.035 C 
BRANCH  10  11
ATOM     11  C   UNL     1     -13.712 -17.900  28.258  1.00  0.00     0.079 C 
BRANCH  11  12
ATOM     12  C   UNL     1     -13.239 -16.988  27.147  1.00  0.00     0.130 C 
ATOM     13  O   UNL     1     -13.973 -16.080  26.791  1.00  0.00    -0.300 OA
ATOM     14  C   UNL     1     -11.907 -17.149  26.469  1.00  0.00     0.087 C 
ENDBRANCH  11  12
ENDBRANCH  10  11
ENDBRANCH   2  10
TORSDOF 6
ENDMDL
MODEL 5
REMARK VINA RESULT:    -5.563      2.311      5.254
REMARK INTER + INTRA:          -8.446
REMARK INTER:                  -7.413
REMARK INTRA:                  -1.033
REMARK UNBOUND:                -0.932
REMARK SMILES CC(=O)CCC=C(C)CCC=C(C)C
REMARK SMILES IDX 7 1 6 2 8 3 9 4 10 5 11 6 13 7 12 8 14 9 5 10 4 11 2 12 3 13
REMARK SMILES IDX 1 14
REMARK H PARENT
REMARK Flexibility Score: inf
ROOT
ATOM      1  C   UNL     1     -12.018 -18.518  30.578  1.00  0.00    -0.077 C 
ATOM      2  C   UNL     1     -12.373 -17.654  31.558  1.00  0.00    -0.028 C 
ATOM      3  C   UNL     1     -12.856 -19.730  30.244  1.00  0.00     0.039 C 
ENDROOT
BRANCH   1   4
ATOM      4  C   UNL     1     -10.737 -18.272  29.813  1.00  0.00     0.034 C 
BRANCH   4   5
ATOM      5  C   UNL     1     -10.813 -16.958  29.028  1.00  0.00     0.032 C 
BRANCH   5   6
ATOM      6  C   UNL     1     -11.822 -17.044  27.909  1.00  0.00    -0.028 C 
ATOM      7  C   UNL     1     -13.910 -16.433  26.726  1.00  0.00     0.039 C 
ATOM      8  C   UNL     1     -12.945 -16.294  27.874  1.00  0.00    -0.080 C 
ATOM      9  C   UNL     1     -13.272 -15.306  28.966  1.00  0.00     0.039 C 
ENDBRANCH   5   6
ENDBRANCH   4   5
ENDBRANCH   1   4
BRANCH   2  10
ATOM     10  C   UNL     1     -13.645 -17.751  32.363  1.00  0.00     0.035 C 
BRANCH  10  11
ATOM     11  C   UNL     1     -13.876 -16.461  33.164  1.00  0.00     0.079 C 
BRANCH  11  12
ATOM     12  C   UNL     1     -15.202 -15.785  32.892  1.00  0.00     0.130 C 
ATOM     13  O   UNL     1     -16.206 -16.248  33.411  1.00  0.00    -0.300 OA
ATOM     14  C   UNL     1     -15.336 -14.569  32.018  1.00  0.00     0.087 C 
ENDBRANCH  11  12
ENDBRANCH  10  11
ENDBRANCH   2  10
TORSDOF 6
ENDMDL
MODEL 6
REMARK VINA RESULT:    -5.538      2.303      4.909
REMARK INTER + INTRA:          -8.412
REMARK INTER:                  -7.061
REMARK INTRA:                  -1.352
REMARK UNBOUND:                -0.932
REMARK SMILES CC(=O)CCC=C(C)CCC=C(C)C
REMARK SMILES IDX 7 1 6 2 8 3 9 4 10 5 11 6 13 7 12 8 14 9 5 10 4 11 2 12 3 13
REMARK SMILES IDX 1 14
REMARK H PARENT
REMARK Flexibility Score: inf
ROOT
ATOM      1  C   UNL     1     -12.431 -19.203  30.669  1.00  0.00    -0.077 C 
ATOM      2  C   UNL     1     -11.169 -18.767  30.890  1.00  0.00    -0.028 C 
ATOM      3  C   UNL     1     -13.395 -19.463  31.803  1.00  0.00     0.039 C 
ENDROOT
BRANCH   1   4
ATOM      4  C   UNL     1     -12.880 -19.458  29.247  1.00  0.00     0.034 C 
BRANCH   4   5
ATOM      5  C   UNL     1     -12.389 -18.347  28.312  1.00  0.00     0.032 C 
BRANCH   5   6
ATOM      6  C   UNL     1     -13.289 -17.137  28.378  1.00  0.00    -0.028 C 
ATOM      7  C   UNL     1     -13.800 -14.747  28.783  1.00  0.00     0.039 C 
ATOM      8  C   UNL     1     -12.846 -15.912  28.738  1.00  0.00    -0.080 C 
ATOM      9  C   UNL     1     -11.403 -15.668  29.104  1.00  0.00     0.039 C 
ENDBRANCH   5   6
ENDBRANCH   4   5
ENDBRANCH   1   4
BRANCH   2  10
ATOM     10  C   UNL     1     -10.610 -18.427  32.249  1.00  0.00     0.035 C 
BRANCH  10  11
ATOM     11  C   UNL     1     -10.361 -16.916  32.367  1.00  0.00     0.079 C 
BRANCH  11  12
ATOM     12  C   UNL     1     -11.401 -16.170  33.173  1.00  0.00     0.130 C 
ATOM     13  O   UNL     1     -11.051 -15.626  34.209  1.00  0.00    -0.300 OA
ATOM     14  C   UNL     1     -12.841 -16.067  32.755  1.00  0.00     0.087 C 
ENDBRANCH  11  12
ENDBRANCH  10  11
ENDBRANCH   2  10
TORSDOF 6
ENDMDL
MODEL 7
REMARK VINA RESULT:    -5.335      1.745      3.295
REMARK INTER + INTRA:          -8.138
REMARK INTER:                  -6.740
REMARK INTRA:                  -1.398
REMARK UNBOUND:                -0.932
REMARK SMILES CC(=O)CCC=C(C)CCC=C(C)C
REMARK SMILES IDX 7 1 6 2 8 3 9 4 10 5 11 6 13 7 12 8 14 9 5 10 4 11 2 12 3 13
REMARK SMILES IDX 1 14
REMARK H PARENT
REMARK Flexibility Score: inf
ROOT
ATOM      1  C   UNL     1     -10.320 -16.520  30.440  1.00  0.00    -0.077 C 
ATOM      2  C   UNL     1     -10.931 -17.578  29.859  1.00  0.00    -0.028 C 
ATOM      3  C   UNL     1     -10.025 -15.251  29.674  1.00  0.00     0.039 C 
ENDROOT
BRANCH   1   4
ATOM      4  C   UNL     1      -9.902 -16.620  31.891  1.00  0.00     0.034 C 
BRANCH   4   5
ATOM      5  C   UNL     1     -11.041 -17.182  32.749  1.00  0.00     0.032 C 
BRANCH   5   6
ATOM      6  C   UNL     1     -12.096 -16.135  33.014  1.00  0.00    -0.028 C 
ATOM      7  C   UNL     1     -14.401 -15.226  33.004  1.00  0.00     0.039 C 
ATOM      8  C   UNL     1     -13.401 -16.315  32.713  1.00  0.00    -0.080 C 
ATOM      9  C   UNL     1     -13.899 -17.591  32.081  1.00  0.00     0.039 C 
ENDBRANCH   5   6
ENDBRANCH   4   5
ENDBRANCH   1   4
BRANCH   2  10
ATOM     10  C   UNL     1     -11.443 -17.596  28.440  1.00  0.00     0.035 C 
BRANCH  10  11
ATOM     11  C   UNL     1     -12.976 -17.516  28.419  1.00  0.00     0.079 C 
BRANCH  11  12
ATOM     12  C   UNL     1     -13.528 -16.198  27.922  1.00  0.00     0.130 C 
ATOM     13  O   UNL     1     -13.929 -16.136  26.770  1.00  0.00    -0.300 OA
ATOM     14  C   UNL     1     -13.608 -14.968  28.782  1.00  0.00     0.087 C 
ENDBRANCH  11  12
ENDBRANCH  10  11
ENDBRANCH   2  10
TORSDOF 6
ENDMDL
MODEL 8
REMARK VINA RESULT:    -5.253      1.520      4.038
REMARK INTER + INTRA:          -8.027
REMARK INTER:                  -7.317
REMARK INTRA:                  -0.710
REMARK UNBOUND:                -0.932
REMARK SMILES CC(=O)CCC=C(C)CCC=C(C)C
REMARK SMILES IDX 7 1 6 2 8 3 9 4 10 5 11 6 13 7 12 8 14 9 5 10 4 11 2 12 3 13
REMARK SMILES IDX 1 14
REMARK H PARENT
REMARK Flexibility Score: inf
ROOT
ATOM      1  C   UNL     1     -13.054 -16.541  31.563  1.00  0.00    -0.077 C 
ATOM      2  C   UNL     1     -13.636 -17.754  31.708  1.00  0.00    -0.028 C 
ATOM      3  C   UNL     1     -11.592 -16.317  31.870  1.00  0.00     0.039 C 
ENDROOT
BRANCH   1   4
ATOM      4  C   UNL     1     -13.898 -15.373  31.102  1.00  0.00     0.034 C 
BRANCH   4   5
ATOM      5  C   UNL     1     -13.980 -15.330  29.572  1.00  0.00     0.032 C 
BRANCH   5   6
ATOM      6  C   UNL     1     -12.768 -15.970  28.939  1.00  0.00    -0.028 C 
ATOM      7  C   UNL     1     -11.527 -17.093  27.113  1.00  0.00     0.039 C 
ATOM      8  C   UNL     1     -12.773 -16.467  27.683  1.00  0.00    -0.080 C 
ATOM      9  C   UNL     1     -14.006 -16.417  26.816  1.00  0.00     0.039 C 
ENDBRANCH   5   6
ENDBRANCH   4   5
ENDBRANCH   1   4
BRANCH   2  10
ATOM     10  C   UNL     1     -12.905 -19.010  32.111  1.00  0.00     0.035 C 
BRANCH  10  11
ATOM     11  C   UNL     1     -13.249 -20.164  31.158  1.00  0.00     0.079 C 
BRANCH  11  12
ATOM     12  C   UNL     1     -13.077 -19.838  29.691  1.00  0.00     0.130 C 
ATOM     13  O   UNL     1     -11.979 -19.467  29.305  1.00  0.00    -0.300 OA
ATOM     14  C   UNL     1     -14.193 -19.955  28.690  1.00  0.00     0.087 C 
ENDBRANCH  11  12
ENDBRANCH  10  11
ENDBRANCH   2  10
TORSDOF 6
ENDMDL
MODEL 9
REMARK VINA RESULT:    -5.208      1.774      4.606
REMARK INTER + INTRA:          -7.966
REMARK INTER:                  -7.240
REMARK INTRA:                  -0.726
REMARK UNBOUND:                -0.932
REMARK SMILES CC(=O)CCC=C(C)CCC=C(C)C
REMARK SMILES IDX 7 1 6 2 8 3 9 4 10 5 11 6 13 7 12 8 14 9 5 10 4 11 2 12 3 13
REMARK SMILES IDX 1 14
REMARK H PARENT
REMARK Flexibility Score: inf
ROOT
ATOM      1  C   UNL     1     -10.940 -16.250  31.477  1.00  0.00    -0.077 C 
ATOM      2  C   UNL     1     -12.283 -16.231  31.646  1.00  0.00    -0.028 C 
ATOM      3  C   UNL     1     -10.017 -16.860  32.506  1.00  0.00     0.039 C 
ENDROOT
BRANCH   1   4
ATOM      4  C   UNL     1     -10.349 -15.624  30.234  1.00  0.00     0.034 C 
BRANCH   4   5
ATOM      5  C   UNL     1     -10.625 -16.493  29.001  1.00  0.00     0.032 C 
BRANCH   5   6
ATOM      6  C   UNL     1     -12.024 -16.273  28.477  1.00  0.00    -0.028 C 
ATOM      7  C   UNL     1     -13.840 -16.450  26.802  1.00  0.00     0.039 C 
ATOM      8  C   UNL     1     -12.428 -16.705  27.262  1.00  0.00    -0.080 C 
ATOM      9  C   UNL     1     -11.497 -17.444  26.334  1.00  0.00     0.039 C 
ENDBRANCH   5   6
ENDBRANCH   4   5
ENDBRANCH   1   4
BRANCH   2  10
ATOM     10  C   UNL     1     -13.006 -16.860  32.811  1.00  0.00     0.035 C 
BRANCH  10  11
ATOM     11  C   UNL     1     -13.907 -18.008  32.330  1.00  0.00     0.079 C 
BRANCH  11  12
ATOM     12  C   UNL     1     -13.181 -19.098  31.572  1.00  0.00     0.130 C 
ATOM     13  O   UNL     1     -12.389 -19.799  32.183  1.00  0.00    -0.300 OA
ATOM     14  C   UNL     1     -13.395 -19.357  30.107  1.00  0.00     0.087 C 
ENDBRANCH  11  12
ENDBRANCH  10  11
ENDBRANCH   2  10
TORSDOF 6
ENDMDL
