MODEL 1
REMARK VINA RESULT:    -4.918      0.000      0.000
REMARK INTER + INTRA:          -5.375
REMARK INTER:                  -5.350
REMARK INTRA:                  -0.025
REMARK UNBOUND:                -0.025
REMARK SMILES COc1ccccc1O
REMARK SMILES IDX 3 1 4 2 5 3 6 4 7 5 8 6 2 7 1 8 9 9
REMARK H PARENT 9 10
REMARK Flexibility Score: inf
ROOT
ATOM      1  C   UNL     1     -12.360   1.868  -9.260  1.00  0.00     0.160 A 
ATOM      2  C   UNL     1     -13.706   1.953  -9.672  1.00  0.00     0.050 A 
ATOM      3  C   UNL     1     -14.337   0.852 -10.258  1.00  0.00     0.004 A 
ATOM      4  C   UNL     1     -13.639  -0.342 -10.438  1.00  0.00     0.004 A 
ATOM      5  C   UNL     1     -12.305  -0.440 -10.033  1.00  0.00     0.050 A 
ATOM      6  C   UNL     1     -11.663   0.657  -9.446  1.00  0.00     0.157 A 
ENDROOT
BRANCH   1   7
ATOM      7  O   UNL     1     -11.692   2.952  -8.669  1.00  0.00    -0.493 OA
ATOM      8  C   UNL     1     -12.261   4.243  -8.480  1.00  0.00     0.278 C 
ENDBRANCH   1   7
BRANCH   6   9
ATOM      9  O   UNL     1     -10.331   0.526  -9.055  1.00  0.00    -0.504 OA
ATOM     10  H   UNL     1     -10.051   0.536  -8.081  1.00  0.00     0.293 HD
ENDBRANCH   6   9
TORSDOF 2
ENDMDL
MODEL 2
REMARK VINA RESULT:    -4.800      1.360      2.398
REMARK INTER + INTRA:          -5.246
REMARK INTER:                  -5.220
REMARK INTRA:                  -0.026
REMARK UNBOUND:                -0.025
REMARK SMILES COc1ccccc1O
REMARK SMILES IDX 3 1 4 2 5 3 6 4 7 5 8 6 2 7 1 8 9 9
REMARK H PARENT 9 10
REMARK Flexibility Score: inf
ROOT
ATOM      1  C   UNL     1     -12.709   2.057  -9.368  1.00  0.00     0.160 A 
ATOM      2  C   UNL     1     -11.626   1.195  -9.637  1.00  0.00     0.050 A 
ATOM      3  C   UNL     1     -11.855  -0.108 -10.088  1.00  0.00     0.004 A 
ATOM      4  C   UNL     1     -13.160  -0.565 -10.277  1.00  0.00     0.004 A 
ATOM      5  C   UNL     1     -14.241   0.280 -10.016  1.00  0.00     0.050 A 
ATOM      6  C   UNL     1     -14.023   1.587  -9.563  1.00  0.00     0.157 A 
ENDROOT
BRANCH   1   7
ATOM      7  O   UNL     1     -12.518   3.371  -8.914  1.00  0.00    -0.493 OA
ATOM      8  C   UNL     1     -11.323   3.848  -8.304  1.00  0.00     0.278 C 
ENDBRANCH   1   7
BRANCH   6   9
ATOM      9  O   UNL     1     -15.125   2.404  -9.310  1.00  0.00    -0.504 OA
ATOM     10  H   UNL     1     -15.081   3.185  -8.666  1.00  0.00     0.293 HD
ENDBRANCH   6   9
TORSDOF 2
ENDMDL
MODEL 3
REMARK VINA RESULT:    -4.772     15.512     16.979
REMARK INTER + INTRA:          -5.215
REMARK INTER:                  -5.178
REMARK INTRA:                  -0.037
REMARK UNBOUND:                -0.025
REMARK SMILES COc1ccccc1O
REMARK SMILES IDX 3 1 4 2 5 3 6 4 7 5 8 6 2 7 1 8 9 9
REMARK H PARENT 9 10
REMARK Flexibility Score: inf
ROOT
ATOM      1  C   UNL     1     -11.549   5.190   6.300  1.00  0.00     0.160 A 
ATOM      2  C   UNL     1     -11.431   6.367   7.066  1.00  0.00     0.050 A 
ATOM      3  C   UNL     1     -10.904   6.318   8.360  1.00  0.00     0.004 A 
ATOM      4  C   UNL     1     -10.490   5.102   8.902  1.00  0.00     0.004 A 
ATOM      5  C   UNL     1     -10.601   3.928   8.152  1.00  0.00     0.050 A 
ATOM      6  C   UNL     1     -11.127   3.966   6.856  1.00  0.00     0.157 A 
ENDROOT
BRANCH   1   7
ATOM      7  O   UNL     1     -12.073   5.199   4.997  1.00  0.00    -0.493 OA
ATOM      8  C   UNL     1     -13.363   5.693   4.651  1.00  0.00     0.278 C 
ENDBRANCH   1   7
BRANCH   6   9
ATOM      9  O   UNL     1     -11.225   2.776   6.135  1.00  0.00    -0.504 OA
ATOM     10  H   UNL     1     -10.421   2.345   5.694  1.00  0.00     0.293 HD
ENDBRANCH   6   9
TORSDOF 2
ENDMDL
MODEL 4
REMARK VINA RESULT:    -4.688      1.488      3.468
REMARK INTER + INTRA:          -5.124
REMARK INTER:                  -5.090
REMARK INTRA:                  -0.034
REMARK UNBOUND:                -0.025
REMARK SMILES COc1ccccc1O
REMARK SMILES IDX 3 1 4 2 5 3 6 4 7 5 8 6 2 7 1 8 9 9
REMARK H PARENT 9 10
REMARK Flexibility Score: inf
ROOT
ATOM      1  C   UNL     1     -11.751  -0.864 -10.100  1.00  0.00     0.160 A 
ATOM      2  C   UNL     1     -12.880  -1.402 -10.752  1.00  0.00     0.050 A 
ATOM      3  C   UNL     1     -14.064  -0.664 -10.836  1.00  0.00     0.004 A 
ATOM      4  C   UNL     1     -14.137   0.611 -10.276  1.00  0.00     0.004 A 
ATOM      5  C   UNL     1     -13.025   1.155  -9.629  1.00  0.00     0.050 A 
ATOM      6  C   UNL     1     -11.834   0.425  -9.538  1.00  0.00     0.157 A 
ENDROOT
BRANCH   1   7
ATOM      7  O   UNL     1     -10.544  -1.574  -9.995  1.00  0.00    -0.493 OA
ATOM      8  C   UNL     1     -10.431  -2.902  -9.493  1.00  0.00     0.278 C 
ENDBRANCH   1   7
BRANCH   6   9
ATOM      9  O   UNL     1     -10.742   0.998  -8.884  1.00  0.00    -0.504 OA
ATOM     10  H   UNL     1      -9.791   0.698  -9.060  1.00  0.00     0.293 HD
ENDBRANCH   6   9
TORSDOF 2
ENDMDL
MODEL 5
REMARK VINA RESULT:    -4.561      1.994      3.490
REMARK INTER + INTRA:          -4.987
REMARK INTER:                  -5.026
REMARK INTRA:                   0.040
REMARK UNBOUND:                -0.025
REMARK SMILES COc1ccccc1O
REMARK SMILES IDX 3 1 4 2 5 3 6 4 7 5 8 6 2 7 1 8 9 9
REMARK H PARENT 9 10
REMARK Flexibility Score: inf
ROOT
ATOM      1  C   UNL     1     -11.591  -0.443 -10.117  1.00  0.00     0.160 A 
ATOM      2  C   UNL     1     -11.730   0.868  -9.616  1.00  0.00     0.050 A 
ATOM      3  C   UNL     1     -12.978   1.497  -9.620  1.00  0.00     0.004 A 
ATOM      4  C   UNL     1     -14.097   0.831 -10.120  1.00  0.00     0.004 A 
ATOM      5  C   UNL     1     -13.973  -0.468 -10.618  1.00  0.00     0.050 A 
ATOM      6  C   UNL     1     -12.727  -1.108 -10.619  1.00  0.00     0.157 A 
ENDROOT
BRANCH   1   7
ATOM      7  O   UNL     1     -10.355  -1.107 -10.130  1.00  0.00    -0.493 OA
ATOM      8  C   UNL     1      -9.971  -2.114  -9.199  1.00  0.00     0.278 C 
ENDBRANCH   1   7
BRANCH   6   9
ATOM      9  O   UNL     1     -12.638  -2.405 -11.125  1.00  0.00    -0.504 OA
ATOM     10  H   UNL     1     -11.886  -3.033 -10.868  1.00  0.00     0.293 HD
ENDBRANCH   6   9
TORSDOF 2
ENDMDL
MODEL 6
REMARK VINA RESULT:    -4.527     16.967     17.880
REMARK INTER + INTRA:          -4.949
REMARK INTER:                  -4.904
REMARK INTRA:                  -0.046
REMARK UNBOUND:                -0.025
REMARK SMILES COc1ccccc1O
REMARK SMILES IDX 3 1 4 2 5 3 6 4 7 5 8 6 2 7 1 8 9 9
REMARK H PARENT 9 10
REMARK Flexibility Score: inf
ROOT
ATOM      1  C   UNL     1     -11.022   6.196   7.096  1.00  0.00     0.160 A 
ATOM      2  C   UNL     1     -12.057   5.249   6.956  1.00  0.00     0.050 A 
ATOM      3  C   UNL     1     -12.146   4.165   7.834  1.00  0.00     0.004 A 
ATOM      4  C   UNL     1     -11.210   4.013   8.857  1.00  0.00     0.004 A 
ATOM      5  C   UNL     1     -10.181   4.946   9.007  1.00  0.00     0.050 A 
ATOM      6  C   UNL     1     -10.082   6.035   8.133  1.00  0.00     0.157 A 
ENDROOT
BRANCH   1   7
ATOM      7  O   UNL     1     -10.900   7.297   6.233  1.00  0.00    -0.493 OA
ATOM      8  C   UNL     1     -11.717   8.461   6.291  1.00  0.00     0.278 C 
ENDBRANCH   1   7
BRANCH   6   9
ATOM      9  O   UNL     1      -9.041   6.947   8.310  1.00  0.00    -0.504 OA
ATOM     10  H   UNL     1      -9.161   7.939   8.148  1.00  0.00     0.293 HD
ENDBRANCH   6   9
TORSDOF 2
ENDMDL
MODEL 7
REMARK VINA RESULT:    -4.434      3.117      4.523
REMARK INTER + INTRA:          -4.848
REMARK INTER:                  -4.809
REMARK INTRA:                  -0.039
REMARK UNBOUND:                -0.025
REMARK SMILES COc1ccccc1O
REMARK SMILES IDX 3 1 4 2 5 3 6 4 7 5 8 6 2 7 1 8 9 9
REMARK H PARENT 9 10
REMARK Flexibility Score: inf
ROOT
ATOM      1  C   UNL     1     -10.663  -2.043  -9.615  1.00  0.00     0.160 A 
ATOM      2  C   UNL     1     -10.600  -0.636  -9.676  1.00  0.00     0.050 A 
ATOM      3  C   UNL     1     -11.715   0.104 -10.080  1.00  0.00     0.004 A 
ATOM      4  C   UNL     1     -12.900  -0.545 -10.426  1.00  0.00     0.004 A 
ATOM      5  C   UNL     1     -12.975  -1.939 -10.369  1.00  0.00     0.050 A 
ATOM      6  C   UNL     1     -11.865  -2.691  -9.966  1.00  0.00     0.157 A 
ENDROOT
BRANCH   1   7
ATOM      7  O   UNL     1      -9.565  -2.821  -9.214  1.00  0.00    -0.493 OA
ATOM      8  C   UNL     1      -9.274  -3.170  -7.865  1.00  0.00     0.278 C 
ENDBRANCH   1   7
BRANCH   6   9
ATOM      9  O   UNL     1     -11.974  -4.080  -9.922  1.00  0.00    -0.504 OA
ATOM     10  H   UNL     1     -11.807  -4.661 -10.735  1.00  0.00     0.293 HD
ENDBRANCH   6   9
TORSDOF 2
ENDMDL
MODEL 8
REMARK VINA RESULT:    -4.314      6.004      7.520
REMARK INTER + INTRA:          -4.717
REMARK INTER:                  -4.691
REMARK INTRA:                  -0.026
REMARK UNBOUND:                -0.025
REMARK SMILES COc1ccccc1O
REMARK SMILES IDX 3 1 4 2 5 3 6 4 7 5 8 6 2 7 1 8 9 9
REMARK H PARENT 9 10
REMARK Flexibility Score: inf
ROOT
ATOM      1  C   UNL     1     -10.850  -5.296  -8.800  1.00  0.00     0.160 A 
ATOM      2  C   UNL     1     -10.872  -5.476  -7.402  1.00  0.00     0.050 A 
ATOM      3  C   UNL     1     -10.277  -4.533  -6.559  1.00  0.00     0.004 A 
ATOM      4  C   UNL     1      -9.656  -3.405  -7.097  1.00  0.00     0.004 A 
ATOM      5  C   UNL     1      -9.629  -3.216  -8.481  1.00  0.00     0.050 A 
ATOM      6  C   UNL     1     -10.221  -4.154  -9.334  1.00  0.00     0.157 A 
ENDROOT
BRANCH   1   7
ATOM      7  O   UNL     1     -11.438  -6.221  -9.678  1.00  0.00    -0.493 OA
ATOM      8  C   UNL     1     -11.711  -7.580  -9.353  1.00  0.00     0.278 C 
ENDBRANCH   1   7
BRANCH   6   9
ATOM      9  O   UNL     1     -10.175  -3.935 -10.711  1.00  0.00    -0.504 OA
ATOM     10  H   UNL     1     -11.003  -3.706 -11.248  1.00  0.00     0.293 HD
ENDBRANCH   6   9
TORSDOF 2
ENDMDL
MODEL 9
REMARK VINA RESULT:    -4.286      6.388      7.712
REMARK INTER + INTRA:          -4.687
REMARK INTER:                  -4.643
REMARK INTRA:                  -0.044
REMARK UNBOUND:                -0.025
REMARK SMILES COc1ccccc1O
REMARK SMILES IDX 3 1 4 2 5 3 6 4 7 5 8 6 2 7 1 8 9 9
REMARK H PARENT 9 10
REMARK Flexibility Score: inf
ROOT
ATOM      1  C   UNL     1      -9.871  -4.889  -7.105  1.00  0.00     0.160 A 
ATOM      2  C   UNL     1     -10.547  -4.945  -5.869  1.00  0.00     0.050 A 
ATOM      3  C   UNL     1     -11.206  -6.114  -5.476  1.00  0.00     0.004 A 
ATOM      4  C   UNL     1     -11.198  -7.236  -6.306  1.00  0.00     0.004 A 
ATOM      5  C   UNL     1     -10.531  -7.193  -7.533  1.00  0.00     0.050 A 
ATOM      6  C   UNL     1      -9.868  -6.027  -7.936  1.00  0.00     0.157 A 
ENDROOT
BRANCH   1   7
ATOM      7  O   UNL     1      -9.199  -3.734  -7.534  1.00  0.00    -0.493 OA
ATOM      8  C   UNL     1      -9.818  -2.645  -8.211  1.00  0.00     0.278 C 
ENDBRANCH   1   7
BRANCH   6   9
ATOM      9  O   UNL     1      -9.213  -6.018  -9.168  1.00  0.00    -0.504 OA
ATOM     10  H   UNL     1      -8.865  -6.866  -9.600  1.00  0.00     0.293 HD
ENDBRANCH   6   9
TORSDOF 2
ENDMDL
