MODEL 1
REMARK VINA RESULT:    -2.530      0.000      0.000
REMARK INTER + INTRA:          -2.864
REMARK INTER:                  -2.826
REMARK INTRA:                  -0.038
REMARK UNBOUND:                -0.038
REMARK SMILES CCCC(=O)[O-]
REMARK SMILES IDX 3 1 4 2 5 3 6 4 2 5 1 6
REMARK H PARENT
REMARK Flexibility Score: inf
ROOT
ATOM      1  C   UNL     1      12.922  -3.233 -22.356  1.00  0.00     0.052 C 
ENDROOT
BRANCH   1   2
ATOM      2  C   UNL     1      13.304  -4.681 -22.331  1.00  0.00     0.041 C 
ATOM      3  O   UNL     1      13.874  -5.169 -21.319  1.00  0.00    -0.550 OA
ATOM      4  O   UNL     1      13.002  -5.500 -23.412  1.00  0.00    -0.550 OA
ENDBRANCH   1   2
BRANCH   1   5
ATOM      5  C   UNL     1      13.699  -2.457 -23.428  1.00  0.00     0.003 C 
ATOM      6  C   UNL     1      12.824  -2.085 -24.625  1.00  0.00     0.004 C 
ENDBRANCH   1   5
TORSDOF 2
ENDMDL
MODEL 2
REMARK VINA RESULT:    -2.504      2.214      3.350
REMARK INTER + INTRA:          -2.835
REMARK INTER:                  -2.792
REMARK INTRA:                  -0.044
REMARK UNBOUND:                -0.038
REMARK SMILES CCCC(=O)[O-]
REMARK SMILES IDX 3 1 4 2 5 3 6 4 2 5 1 6
REMARK H PARENT
REMARK Flexibility Score: inf
ROOT
ATOM      1  C   UNL     1      12.924  -4.479 -22.913  1.00  0.00     0.052 C 
ENDROOT
BRANCH   1   2
ATOM      2  C   UNL     1      12.957  -3.012 -22.614  1.00  0.00     0.041 C 
ATOM      3  O   UNL     1      13.840  -2.279 -23.134  1.00  0.00    -0.550 OA
ATOM      4  O   UNL     1      11.993  -2.447 -21.787  1.00  0.00    -0.550 OA
ENDBRANCH   1   2
BRANCH   1   5
ATOM      5  C   UNL     1      13.888  -5.265 -22.016  1.00  0.00     0.003 C 
ATOM      6  C   UNL     1      13.321  -5.497 -20.615  1.00  0.00     0.004 C 
ENDBRANCH   1   5
TORSDOF 2
ENDMDL
MODEL 3
REMARK VINA RESULT:    -2.454      1.381      1.789
REMARK INTER + INTRA:          -2.780
REMARK INTER:                  -2.773
REMARK INTRA:                  -0.007
REMARK UNBOUND:                -0.038
REMARK SMILES CCCC(=O)[O-]
REMARK SMILES IDX 3 1 4 2 5 3 6 4 2 5 1 6
REMARK H PARENT
REMARK Flexibility Score: inf
ROOT
ATOM      1  C   UNL     1      13.664  -4.802 -22.352  1.00  0.00     0.052 C 
ENDROOT
BRANCH   1   2
ATOM      2  C   UNL     1      13.375  -5.555 -21.091  1.00  0.00     0.041 C 
ATOM      3  O   UNL     1      14.116  -5.409 -20.082  1.00  0.00    -0.550 OA
ATOM      4  O   UNL     1      12.270  -6.394 -21.017  1.00  0.00    -0.550 OA
ENDBRANCH   1   2
BRANCH   1   5
ATOM      5  C   UNL     1      12.935  -3.452 -22.389  1.00  0.00     0.003 C 
ATOM      6  C   UNL     1      13.627  -2.442 -23.305  1.00  0.00     0.004 C 
ENDBRANCH   1   5
TORSDOF 2
ENDMDL
MODEL 4
REMARK VINA RESULT:    -2.393      1.841      2.084
REMARK INTER + INTRA:          -2.711
REMARK INTER:                  -2.668
REMARK INTRA:                  -0.043
REMARK UNBOUND:                -0.038
REMARK SMILES CCCC(=O)[O-]
REMARK SMILES IDX 3 1 4 2 5 3 6 4 2 5 1 6
REMARK H PARENT
REMARK Flexibility Score: inf
ROOT
ATOM      1  C   UNL     1      13.332  -3.719 -22.661  1.00  0.00     0.052 C 
ENDROOT
BRANCH   1   2
ATOM      2  C   UNL     1      12.078  -3.613 -21.850  1.00  0.00     0.041 C 
ATOM      3  O   UNL     1      11.345  -4.624 -21.683  1.00  0.00    -0.550 OA
ATOM      4  O   UNL     1      11.735  -2.407 -21.251  1.00  0.00    -0.550 OA
ENDBRANCH   1   2
BRANCH   1   5
ATOM      5  C   UNL     1      13.685  -2.389 -23.341  1.00  0.00     0.003 C 
ATOM      6  C   UNL     1      12.832  -2.126 -24.581  1.00  0.00     0.004 C 
ENDBRANCH   1   5
TORSDOF 2
ENDMDL
MODEL 5
REMARK VINA RESULT:    -2.385     17.942     18.573
REMARK INTER + INTRA:          -2.702
REMARK INTER:                  -2.673
REMARK INTRA:                  -0.029
REMARK UNBOUND:                -0.038
REMARK SMILES CCCC(=O)[O-]
REMARK SMILES IDX 3 1 4 2 5 3 6 4 2 5 1 6
REMARK H PARENT
REMARK Flexibility Score: inf
ROOT
ATOM      1  C   UNL     1      -5.022  -2.276 -25.714  1.00  0.00     0.052 C 
ENDROOT
BRANCH   1   2
ATOM      2  C   UNL     1      -4.617  -0.882 -26.081  1.00  0.00     0.041 C 
ATOM      3  O   UNL     1      -5.364   0.091 -25.792  1.00  0.00    -0.550 OA
ATOM      4  O   UNL     1      -3.401  -0.653 -26.712  1.00  0.00    -0.550 OA
ENDBRANCH   1   2
BRANCH   1   5
ATOM      5  C   UNL     1      -5.056  -3.200 -26.939  1.00  0.00     0.003 C 
ATOM      6  C   UNL     1      -4.205  -4.455 -26.744  1.00  0.00     0.004 C 
ENDBRANCH   1   5
TORSDOF 2
ENDMDL
MODEL 6
REMARK VINA RESULT:    -2.384      9.724     10.905
REMARK INTER + INTRA:          -2.701
REMARK INTER:                  -2.667
REMARK INTRA:                  -0.034
REMARK UNBOUND:                -0.038
REMARK SMILES CCCC(=O)[O-]
REMARK SMILES IDX 3 1 4 2 5 3 6 4 2 5 1 6
REMARK H PARENT
REMARK Flexibility Score: inf
ROOT
ATOM      1  C   UNL     1      11.933 -14.058 -18.429  1.00  0.00     0.052 C 
ENDROOT
BRANCH   1   2
ATOM      2  C   UNL     1      13.064 -13.884 -17.463  1.00  0.00     0.041 C 
ATOM      3  O   UNL     1      14.124 -13.308 -17.825  1.00  0.00    -0.550 OA
ATOM      4  O   UNL     1      12.935 -14.328 -16.153  1.00  0.00    -0.550 OA
ENDBRANCH   1   2
BRANCH   1   5
ATOM      5  C   UNL     1      12.254 -13.441 -19.797  1.00  0.00     0.003 C 
ATOM      6  C   UNL     1      11.317 -12.286 -20.149  1.00  0.00     0.004 C 
ENDBRANCH   1   5
TORSDOF 2
ENDMDL
MODEL 7
REMARK VINA RESULT:    -2.383     20.512     21.077
REMARK INTER + INTRA:          -2.701
REMARK INTER:                  -2.676
REMARK INTRA:                  -0.025
REMARK UNBOUND:                -0.038
REMARK SMILES CCCC(=O)[O-]
REMARK SMILES IDX 3 1 4 2 5 3 6 4 2 5 1 6
REMARK H PARENT
REMARK Flexibility Score: inf
ROOT
ATOM      1  C   UNL     1      -5.385 -11.952 -17.710  1.00  0.00     0.052 C 
ENDROOT
BRANCH   1   2
ATOM      2  C   UNL     1      -5.065 -13.392 -17.455  1.00  0.00     0.041 C 
ATOM      3  O   UNL     1      -5.792 -14.299 -17.942  1.00  0.00    -0.550 OA
ATOM      4  O   UNL     1      -3.945 -13.735 -16.708  1.00  0.00    -0.550 OA
ENDBRANCH   1   2
BRANCH   1   5
ATOM      5  C   UNL     1      -5.356 -11.124 -16.419  1.00  0.00     0.003 C 
ATOM      6  C   UNL     1      -4.554  -9.832 -16.574  1.00  0.00     0.004 C 
ENDBRANCH   1   5
TORSDOF 2
ENDMDL
MODEL 8
REMARK VINA RESULT:    -2.383      5.940      7.265
REMARK INTER + INTRA:          -2.700
REMARK INTER:                  -2.666
REMARK INTRA:                  -0.034
REMARK UNBOUND:                -0.038
REMARK SMILES CCCC(=O)[O-]
REMARK SMILES IDX 3 1 4 2 5 3 6 4 2 5 1 6
REMARK H PARENT
REMARK Flexibility Score: inf
ROOT
ATOM      1  C   UNL     1      12.554 -10.745 -24.405  1.00  0.00     0.052 C 
ENDROOT
BRANCH   1   2
ATOM      2  C   UNL     1      13.218  -9.468 -24.820  1.00  0.00     0.041 C 
ATOM      3  O   UNL     1      13.814  -8.758 -23.967  1.00  0.00    -0.550 OA
ATOM      4  O   UNL     1      13.207  -9.079 -26.154  1.00  0.00    -0.550 OA
ENDBRANCH   1   2
BRANCH   1   5
ATOM      5  C   UNL     1      13.462 -11.593 -23.504  1.00  0.00     0.003 C 
ATOM      6  C   UNL     1      12.802 -11.932 -22.168  1.00  0.00     0.004 C 
ENDBRANCH   1   5
TORSDOF 2
ENDMDL
MODEL 9
REMARK VINA RESULT:    -2.326      6.480      6.729
REMARK INTER + INTRA:          -2.636
REMARK INTER:                  -2.602
REMARK INTRA:                  -0.034
REMARK UNBOUND:                -0.038
REMARK SMILES CCCC(=O)[O-]
REMARK SMILES IDX 3 1 4 2 5 3 6 4 2 5 1 6
REMARK H PARENT
REMARK Flexibility Score: inf
ROOT
ATOM      1  C   UNL     1      13.134  -9.680 -23.884  1.00  0.00     0.052 C 
ENDROOT
BRANCH   1   2
ATOM      2  C   UNL     1      13.036 -11.172 -23.968  1.00  0.00     0.041 C 
ATOM      3  O   UNL     1      13.798 -11.897 -23.274  1.00  0.00    -0.550 OA
ATOM      4  O   UNL     1      12.081 -11.763 -24.786  1.00  0.00    -0.550 OA
ENDBRANCH   1   2
BRANCH   1   5
ATOM      5  C   UNL     1      13.835  -9.086 -25.113  1.00  0.00     0.003 C 
ATOM      6  C   UNL     1      12.844  -8.612 -26.175  1.00  0.00     0.004 C 
ENDBRANCH   1   5
TORSDOF 2
ENDMDL
