MODEL 1
REMARK VINA RESULT:    -5.256      0.000      0.000
REMARK INTER + INTRA:          -5.826
REMARK INTER:                  -5.563
REMARK INTRA:                  -0.263
REMARK UNBOUND:                -0.263
REMARK SMILES CC1=CC[C@H](C(C)C)C=C1
REMARK SMILES IDX 1 1 2 2 3 3 4 4 5 5 9 6 10 7 6 8 7 9 8 10
REMARK H PARENT
REMARK Flexibility Score: inf
ROOT
ATOM      1  C   UNL     1       3.626  16.483   1.828  1.00  0.00     0.044 C 
ATOM      2  C   UNL     1       3.132  15.167   2.349  1.00  0.00    -0.055 C 
ATOM      3  C   UNL     1       1.908  14.722   2.020  1.00  0.00    -0.023 C 
ATOM      4  C   UNL     1       1.469  13.340   2.433  1.00  0.00     0.035 C 
ATOM      5  C   UNL     1       2.030  12.971   3.830  1.00  0.00     0.018 C 
ATOM      6  C   UNL     1       3.519  13.260   3.837  1.00  0.00    -0.023 C 
ATOM      7  C   UNL     1       4.014  14.321   3.187  1.00  0.00    -0.001 C 
ENDROOT
BRANCH   5   8
ATOM      8  C   UNL     1       1.317  13.723   4.999  1.00  0.00    -0.010 C 
ATOM      9  C   UNL     1      -0.181  13.379   5.084  1.00  0.00     0.008 C 
ATOM     10  C   UNL     1       1.978  13.402   6.353  1.00  0.00     0.008 C 
ENDBRANCH   5   8
TORSDOF 1
ENDMDL
MODEL 2
REMARK VINA RESULT:    -5.167      1.774      4.346
REMARK INTER + INTRA:          -5.732
REMARK INTER:                  -5.469
REMARK INTRA:                  -0.263
REMARK UNBOUND:                -0.263
REMARK SMILES CC1=CC[C@H](C(C)C)C=C1
REMARK SMILES IDX 1 1 2 2 3 3 4 4 5 5 9 6 10 7 6 8 7 9 8 10
REMARK H PARENT
REMARK Flexibility Score: inf
ROOT
ATOM      1  C   UNL     1      -1.278  11.527   6.696  1.00  0.00     0.044 C 
ATOM      2  C   UNL     1      -0.318  12.471   6.036  1.00  0.00    -0.055 C 
ATOM      3  C   UNL     1      -0.659  13.105   4.902  1.00  0.00    -0.023 C 
ATOM      4  C   UNL     1       0.253  14.154   4.319  1.00  0.00     0.035 C 
ATOM      5  C   UNL     1       1.743  13.776   4.526  1.00  0.00     0.018 C 
ATOM      6  C   UNL     1       1.943  13.412   5.985  1.00  0.00    -0.023 C 
ATOM      7  C   UNL     1       0.994  12.753   6.664  1.00  0.00    -0.001 C 
ENDROOT
BRANCH   5   8
ATOM      8  C   UNL     1       2.219  12.614   3.598  1.00  0.00    -0.010 C 
ATOM      9  C   UNL     1       2.136  12.989   2.107  1.00  0.00     0.008 C 
ATOM     10  C   UNL     1       3.664  12.196   3.926  1.00  0.00     0.008 C 
ENDBRANCH   5   8
TORSDOF 1
ENDMDL
MODEL 3
REMARK VINA RESULT:    -5.030      0.999      4.071
REMARK INTER + INTRA:          -5.587
REMARK INTER:                  -5.363
REMARK INTRA:                  -0.223
REMARK UNBOUND:                -0.263
REMARK SMILES CC1=CC[C@H](C(C)C)C=C1
REMARK SMILES IDX 1 1 2 2 3 3 4 4 5 5 9 6 10 7 6 8 7 9 8 10
REMARK H PARENT
REMARK Flexibility Score: inf
ROOT
ATOM      1  C   UNL     1       0.239  13.731   6.463  1.00  0.00     0.044 C 
ATOM      2  C   UNL     1       0.951  13.503   5.164  1.00  0.00    -0.055 C 
ATOM      3  C   UNL     1       2.173  12.946   5.147  1.00  0.00    -0.023 C 
ATOM      4  C   UNL     1       2.825  12.593   3.835  1.00  0.00     0.035 C 
ATOM      5  C   UNL     1       2.485  13.641   2.743  1.00  0.00     0.018 C 
ATOM      6  C   UNL     1       0.983  13.853   2.740  1.00  0.00    -0.023 C 
ATOM      7  C   UNL     1       0.286  13.842   3.884  1.00  0.00    -0.001 C 
ENDROOT
BRANCH   5   8
ATOM      8  C   UNL     1       3.232  14.999   2.937  1.00  0.00    -0.010 C 
ATOM      9  C   UNL     1       4.702  14.798   3.351  1.00  0.00     0.008 C 
ATOM     10  C   UNL     1       3.189  15.847   1.652  1.00  0.00     0.008 C 
ENDBRANCH   5   8
TORSDOF 1
ENDMDL
MODEL 4
REMARK VINA RESULT:    -4.837      0.914      1.022
REMARK INTER + INTRA:          -5.382
REMARK INTER:                  -5.139
REMARK INTRA:                  -0.244
REMARK UNBOUND:                -0.263
REMARK SMILES CC1=CC[C@H](C(C)C)C=C1
REMARK SMILES IDX 1 1 2 2 3 3 4 4 5 5 9 6 10 7 6 8 7 9 8 10
REMARK H PARENT
REMARK Flexibility Score: inf
ROOT
ATOM      1  C   UNL     1       3.954  17.053   1.939  1.00  0.00     0.044 C 
ATOM      2  C   UNL     1       3.361  15.692   2.146  1.00  0.00    -0.055 C 
ATOM      3  C   UNL     1       2.276  15.311   1.454  1.00  0.00    -0.023 C 
ATOM      4  C   UNL     1       1.767  13.897   1.564  1.00  0.00     0.035 C 
ATOM      5  C   UNL     1       1.943  13.351   3.005  1.00  0.00     0.018 C 
ATOM      6  C   UNL     1       3.372  13.613   3.441  1.00  0.00    -0.023 C 
ATOM      7  C   UNL     1       4.005  14.737   3.079  1.00  0.00    -0.001 C 
ENDROOT
BRANCH   5   8
ATOM      8  C   UNL     1       0.934  13.967   4.026  1.00  0.00    -0.010 C 
ATOM      9  C   UNL     1      -0.504  13.998   3.475  1.00  0.00     0.008 C 
ATOM     10  C   UNL     1       0.941  13.188   5.355  1.00  0.00     0.008 C 
ENDBRANCH   5   8
TORSDOF 1
ENDMDL
MODEL 5
REMARK VINA RESULT:    -4.832      1.567      2.375
REMARK INTER + INTRA:          -5.378
REMARK INTER:                  -5.385
REMARK INTRA:                   0.007
REMARK UNBOUND:                -0.263
REMARK SMILES CC1=CC[C@H](C(C)C)C=C1
REMARK SMILES IDX 1 1 2 2 3 3 4 4 5 5 9 6 10 7 6 8 7 9 8 10
REMARK H PARENT
REMARK Flexibility Score: inf
ROOT
ATOM      1  C   UNL     1       4.662  14.454   3.539  1.00  0.00     0.044 C 
ATOM      2  C   UNL     1       3.550  13.728   4.232  1.00  0.00    -0.055 C 
ATOM      3  C   UNL     1       2.711  12.945   3.536  1.00  0.00    -0.023 C 
ATOM      4  C   UNL     1       1.681  12.111   4.254  1.00  0.00     0.035 C 
ATOM      5  C   UNL     1       1.123  12.858   5.493  1.00  0.00     0.018 C 
ATOM      6  C   UNL     1       2.296  13.371   6.307  1.00  0.00    -0.023 C 
ATOM      7  C   UNL     1       3.402  13.827   5.704  1.00  0.00    -0.001 C 
ENDROOT
BRANCH   5   8
ATOM      8  C   UNL     1       0.156  14.028   5.124  1.00  0.00    -0.010 C 
ATOM      9  C   UNL     1      -0.385  13.902   3.687  1.00  0.00     0.008 C 
ATOM     10  C   UNL     1      -1.034  14.096   6.099  1.00  0.00     0.008 C 
ENDBRANCH   5   8
TORSDOF 1
ENDMDL
MODEL 6
REMARK VINA RESULT:    -4.542      1.960      3.417
REMARK INTER + INTRA:          -5.070
REMARK INTER:                  -4.950
REMARK INTRA:                  -0.120
REMARK UNBOUND:                -0.263
REMARK SMILES CC1=CC[C@H](C(C)C)C=C1
REMARK SMILES IDX 1 1 2 2 3 3 4 4 5 5 9 6 10 7 6 8 7 9 8 10
REMARK H PARENT
REMARK Flexibility Score: inf
ROOT
ATOM      1  C   UNL     1       3.407  11.845   3.226  1.00  0.00     0.044 C 
ATOM      2  C   UNL     1       2.460  12.675   4.038  1.00  0.00    -0.055 C 
ATOM      3  C   UNL     1       2.616  12.781   5.367  1.00  0.00    -0.023 C 
ATOM      4  C   UNL     1       1.747  13.724   6.159  1.00  0.00     0.035 C 
ATOM      5  C   UNL     1       0.306  13.768   5.588  1.00  0.00     0.018 C 
ATOM      6  C   UNL     1       0.395  13.993   4.090  1.00  0.00    -0.023 C 
ATOM      7  C   UNL     1       1.375  13.432   3.369  1.00  0.00    -0.001 C 
ENDROOT
BRANCH   5   8
ATOM      8  C   UNL     1      -0.521  12.481   5.902  1.00  0.00    -0.010 C 
ATOM      9  C   UNL     1      -0.082  11.815   7.220  1.00  0.00     0.008 C 
ATOM     10  C   UNL     1      -2.028  12.793   5.981  1.00  0.00     0.008 C 
ENDBRANCH   5   8
TORSDOF 1
ENDMDL
MODEL 7
REMARK VINA RESULT:    -4.514      1.658      3.816
REMARK INTER + INTRA:          -5.041
REMARK INTER:                  -4.799
REMARK INTRA:                  -0.242
REMARK UNBOUND:                -0.263
REMARK SMILES CC1=CC[C@H](C(C)C)C=C1
REMARK SMILES IDX 1 1 2 2 3 3 4 4 5 5 9 6 10 7 6 8 7 9 8 10
REMARK H PARENT
REMARK Flexibility Score: inf
ROOT
ATOM      1  C   UNL     1       3.894  12.357   3.897  1.00  0.00     0.044 C 
ATOM      2  C   UNL     1       2.851  13.287   3.356  1.00  0.00    -0.055 C 
ATOM      3  C   UNL     1       1.548  13.056   3.587  1.00  0.00    -0.023 C 
ATOM      4  C   UNL     1       0.513  14.065   3.160  1.00  0.00     0.035 C 
ATOM      5  C   UNL     1       0.909  14.738   1.820  1.00  0.00     0.018 C 
ATOM      6  C   UNL     1       2.344  15.217   1.934  1.00  0.00    -0.023 C 
ATOM      7  C   UNL     1       3.254  14.501   2.608  1.00  0.00    -0.001 C 
ENDROOT
BRANCH   5   8
ATOM      8  C   UNL     1       0.739  13.798   0.584  1.00  0.00    -0.010 C 
ATOM      9  C   UNL     1      -0.731  13.680   0.141  1.00  0.00     0.008 C 
ATOM     10  C   UNL     1       1.580  14.289  -0.609  1.00  0.00     0.008 C 
ENDBRANCH   5   8
TORSDOF 1
ENDMDL
MODEL 8
REMARK VINA RESULT:    -4.353      1.833      3.341
REMARK INTER + INTRA:          -4.870
REMARK INTER:                  -4.613
REMARK INTRA:                  -0.258
REMARK UNBOUND:                -0.263
REMARK SMILES CC1=CC[C@H](C(C)C)C=C1
REMARK SMILES IDX 1 1 2 2 3 3 4 4 5 5 9 6 10 7 6 8 7 9 8 10
REMARK H PARENT
REMARK Flexibility Score: inf
ROOT
ATOM      1  C   UNL     1      -0.060  13.078  -0.782  1.00  0.00     0.044 C 
ATOM      2  C   UNL     1       0.394  13.695   0.506  1.00  0.00    -0.055 C 
ATOM      3  C   UNL     1       1.694  13.958   0.713  1.00  0.00    -0.023 C 
ATOM      4  C   UNL     1       2.129  14.702   1.950  1.00  0.00     0.035 C 
ATOM      5  C   UNL     1       1.260  14.308   3.172  1.00  0.00     0.018 C 
ATOM      6  C   UNL     1      -0.200  14.414   2.772  1.00  0.00    -0.023 C 
ATOM      7  C   UNL     1      -0.600  14.071   1.540  1.00  0.00    -0.001 C 
ENDROOT
BRANCH   5   8
ATOM      8  C   UNL     1       1.578  12.881   3.721  1.00  0.00    -0.010 C 
ATOM      9  C   UNL     1       3.084  12.680   3.977  1.00  0.00     0.008 C 
ATOM     10  C   UNL     1       0.810  12.602   5.027  1.00  0.00     0.008 C 
ENDBRANCH   5   8
TORSDOF 1
ENDMDL
MODEL 9
REMARK VINA RESULT:    -4.173      1.549      3.894
REMARK INTER + INTRA:          -4.680
REMARK INTER:                  -4.518
REMARK INTRA:                  -0.162
REMARK UNBOUND:                -0.263
REMARK SMILES CC1=CC[C@H](C(C)C)C=C1
REMARK SMILES IDX 1 1 2 2 3 3 4 4 5 5 9 6 10 7 6 8 7 9 8 10
REMARK H PARENT
REMARK Flexibility Score: inf
ROOT
ATOM      1  C   UNL     1      -1.771  14.980   2.878  1.00  0.00     0.044 C 
ATOM      2  C   UNL     1      -0.446  14.294   2.740  1.00  0.00    -0.055 C 
ATOM      3  C   UNL     1       0.193  13.824   3.823  1.00  0.00    -0.023 C 
ATOM      4  C   UNL     1       1.456  13.016   3.667  1.00  0.00     0.035 C 
ATOM      5  C   UNL     1       2.312  13.542   2.486  1.00  0.00     0.018 C 
ATOM      6  C   UNL     1       1.414  13.676   1.270  1.00  0.00    -0.023 C 
ATOM      7  C   UNL     1       0.144  14.081   1.397  1.00  0.00    -0.001 C 
ENDROOT
BRANCH   5   8
ATOM      8  C   UNL     1       3.023  14.898   2.796  1.00  0.00    -0.010 C 
ATOM      9  C   UNL     1       4.427  14.693   3.395  1.00  0.00     0.008 C 
ATOM     10  C   UNL     1       3.145  15.766   1.529  1.00  0.00     0.008 C 
ENDBRANCH   5   8
TORSDOF 1
ENDMDL
