MODEL 1
REMARK VINA RESULT:    -5.127      0.000      0.000
REMARK INTER + INTRA:          -5.463
REMARK INTER:                  -5.427
REMARK INTRA:                  -0.036
REMARK UNBOUND:                -0.036
REMARK SMILES COc1ccc2ccc(=O)oc2c1
REMARK SMILES IDX 3 1 13 2 12 3 6 4 5 5 4 6 7 7 8 8 9 9 10 10 11 11 2 12 1 13
REMARK H PARENT
REMARK Flexibility Score: inf
ROOT
ATOM      1  C   UNL     1      20.284  21.622  38.476  1.00  0.00     0.122 A 
ATOM      2  C   UNL     1      19.803  22.641  37.643  1.00  0.00     0.094 A 
ATOM      3  C   UNL     1      19.654  23.945  38.127  1.00  0.00     0.142 A 
ATOM      4  C   UNL     1      19.991  24.238  39.466  1.00  0.00     0.018 A 
ATOM      5  C   UNL     1      20.472  23.223  40.303  1.00  0.00     0.016 A 
ATOM      6  C   UNL     1      20.618  21.922  39.812  1.00  0.00     0.047 A 
ATOM      7  C   UNL     1      19.833  25.550  39.922  1.00  0.00     0.019 A 
ATOM      8  C   UNL     1      19.349  26.525  39.048  1.00  0.00     0.094 A 
ATOM      9  C   UNL     1      19.035  26.161  37.734  1.00  0.00     0.336 A 
ATOM     10  O   UNL     1      18.599  27.025  36.930  1.00  0.00    -0.246 OA
ATOM     11  O   UNL     1      19.197  24.904  37.326  1.00  0.00    -0.423 OA
ENDROOT
BRANCH   1  12
ATOM     12  O   UNL     1      20.413  20.332  37.941  1.00  0.00    -0.497 OA
ATOM     13  C   UNL     1      19.338  19.578  37.391  1.00  0.00     0.278 C 
ENDBRANCH   1  12
TORSDOF 1
ENDMDL
MODEL 2
REMARK VINA RESULT:    -5.095      1.015      4.582
REMARK INTER + INTRA:          -5.429
REMARK INTER:                  -5.391
REMARK INTRA:                  -0.038
REMARK UNBOUND:                -0.036
REMARK SMILES COc1ccc2ccc(=O)oc2c1
REMARK SMILES IDX 3 1 13 2 12 3 6 4 5 5 4 6 7 7 8 8 9 9 10 10 11 11 2 12 1 13
REMARK H PARENT
REMARK Flexibility Score: inf
ROOT
ATOM      1  C   UNL     1      18.996  26.089  37.755  1.00  0.00     0.122 A 
ATOM      2  C   UNL     1      19.134  24.776  37.288  1.00  0.00     0.094 A 
ATOM      3  C   UNL     1      19.634  23.772  38.124  1.00  0.00     0.142 A 
ATOM      4  C   UNL     1      20.004  24.083  39.449  1.00  0.00     0.018 A 
ATOM      5  C   UNL     1      19.869  25.395  39.922  1.00  0.00     0.016 A 
ATOM      6  C   UNL     1      19.368  26.393  39.081  1.00  0.00     0.047 A 
ATOM      7  C   UNL     1      20.500  23.059  40.262  1.00  0.00     0.019 A 
ATOM      8  C   UNL     1      20.616  21.769  39.743  1.00  0.00     0.094 A 
ATOM      9  C   UNL     1      20.229  21.534  38.418  1.00  0.00     0.336 A 
ATOM     10  O   UNL     1      20.324  20.377  37.932  1.00  0.00    -0.246 OA
ATOM     11  O   UNL     1      19.759  22.528  37.668  1.00  0.00    -0.423 OA
ENDROOT
BRANCH   1  12
ATOM     12  O   UNL     1      18.490  27.058  36.877  1.00  0.00    -0.497 OA
ATOM     13  C   UNL     1      17.327  26.886  36.074  1.00  0.00     0.278 C 
ENDBRANCH   1  12
TORSDOF 1
ENDMDL
MODEL 3
REMARK VINA RESULT:    -4.961      1.846      2.527
REMARK INTER + INTRA:          -5.287
REMARK INTER:                  -5.253
REMARK INTRA:                  -0.033
REMARK UNBOUND:                -0.036
REMARK SMILES COc1ccc2ccc(=O)oc2c1
REMARK SMILES IDX 3 1 13 2 12 3 6 4 5 5 4 6 7 7 8 8 9 9 10 10 11 11 2 12 1 13
REMARK H PARENT
REMARK Flexibility Score: inf
ROOT
ATOM      1  C   UNL     1      20.081  22.003  38.345  1.00  0.00     0.122 A 
ATOM      2  C   UNL     1      20.149  22.671  39.574  1.00  0.00     0.094 A 
ATOM      3  C   UNL     1      19.867  24.038  39.657  1.00  0.00     0.142 A 
ATOM      4  C   UNL     1      19.513  24.753  38.493  1.00  0.00     0.018 A 
ATOM      5  C   UNL     1      19.444  24.091  37.261  1.00  0.00     0.016 A 
ATOM      6  C   UNL     1      19.726  22.723  37.186  1.00  0.00     0.047 A 
ATOM      7  C   UNL     1      19.237  26.119  38.607  1.00  0.00     0.019 A 
ATOM      8  C   UNL     1      19.320  26.732  39.857  1.00  0.00     0.094 A 
ATOM      9  C   UNL     1      19.678  25.960  40.968  1.00  0.00     0.336 A 
ATOM     10  O   UNL     1      19.758  26.495  42.105  1.00  0.00    -0.246 OA
ATOM     11  O   UNL     1      19.935  24.661  40.831  1.00  0.00    -0.423 OA
ENDROOT
BRANCH   1  12
ATOM     12  O   UNL     1      20.372  20.631  38.316  1.00  0.00    -0.497 OA
ATOM     13  C   UNL     1      19.717  19.687  37.476  1.00  0.00     0.278 C 
ENDBRANCH   1  12
TORSDOF 1
ENDMDL
MODEL 4
REMARK VINA RESULT:    -4.888      5.547      7.223
REMARK INTER + INTRA:          -5.210
REMARK INTER:                  -5.178
REMARK INTRA:                  -0.033
REMARK UNBOUND:                -0.036
REMARK SMILES COc1ccc2ccc(=O)oc2c1
REMARK SMILES IDX 3 1 13 2 12 3 6 4 5 5 4 6 7 7 8 8 9 9 10 10 11 11 2 12 1 13
REMARK H PARENT
REMARK Flexibility Score: inf
ROOT
ATOM      1  C   UNL     1      17.395  26.231  45.390  1.00  0.00     0.122 A 
ATOM      2  C   UNL     1      18.679  26.624  44.990  1.00  0.00     0.094 A 
ATOM      3  C   UNL     1      19.000  26.729  43.632  1.00  0.00     0.142 A 
ATOM      4  C   UNL     1      18.024  26.435  42.656  1.00  0.00     0.018 A 
ATOM      5  C   UNL     1      16.738  26.042  43.050  1.00  0.00     0.016 A 
ATOM      6  C   UNL     1      16.425  25.940  44.410  1.00  0.00     0.047 A 
ATOM      7  C   UNL     1      18.373  26.549  41.307  1.00  0.00     0.019 A 
ATOM      8  C   UNL     1      19.667  26.945  40.967  1.00  0.00     0.094 A 
ATOM      9  C   UNL     1      20.583  27.220  41.989  1.00  0.00     0.336 A 
ATOM     10  O   UNL     1      21.755  27.579  41.702  1.00  0.00    -0.246 OA
ATOM     11  O   UNL     1      20.223  27.104  43.265  1.00  0.00    -0.423 OA
ENDROOT
BRANCH   1  12
ATOM     12  O   UNL     1      17.125  26.142  46.763  1.00  0.00    -0.497 OA
ATOM     13  C   UNL     1      15.934  26.618  47.381  1.00  0.00     0.278 C 
ENDBRANCH   1  12
TORSDOF 1
ENDMDL
MODEL 5
REMARK VINA RESULT:    -4.869      1.938      4.985
REMARK INTER + INTRA:          -5.190
REMARK INTER:                  -5.159
REMARK INTRA:                  -0.031
REMARK UNBOUND:                -0.036
REMARK SMILES COc1ccc2ccc(=O)oc2c1
REMARK SMILES IDX 3 1 13 2 12 3 6 4 5 5 4 6 7 7 8 8 9 9 10 10 11 11 2 12 1 13
REMARK H PARENT
REMARK Flexibility Score: inf
ROOT
ATOM      1  C   UNL     1      20.012  25.711  40.427  1.00  0.00     0.122 A 
ATOM      2  C   UNL     1      20.287  24.338  40.364  1.00  0.00     0.094 A 
ATOM      3  C   UNL     1      19.991  23.606  39.209  1.00  0.00     0.142 A 
ATOM      4  C   UNL     1      19.410  24.253  38.098  1.00  0.00     0.018 A 
ATOM      5  C   UNL     1      19.132  25.625  38.156  1.00  0.00     0.016 A 
ATOM      6  C   UNL     1      19.431  26.351  39.314  1.00  0.00     0.047 A 
ATOM      7  C   UNL     1      19.126  23.496  36.958  1.00  0.00     0.019 A 
ATOM      8  C   UNL     1      19.421  22.133  36.951  1.00  0.00     0.094 A 
ATOM      9  C   UNL     1      19.997  21.558  38.090  1.00  0.00     0.336 A 
ATOM     10  O   UNL     1      20.272  20.330  38.103  1.00  0.00    -0.246 OA
ATOM     11  O   UNL     1      20.258  22.303  39.161  1.00  0.00    -0.423 OA
ENDROOT
BRANCH   1  12
ATOM     12  O   UNL     1      20.327  26.398  41.608  1.00  0.00    -0.497 OA
ATOM     13  C   UNL     1      21.201  27.520  41.676  1.00  0.00     0.278 C 
ENDBRANCH   1  12
TORSDOF 1
ENDMDL
MODEL 6
REMARK VINA RESULT:    -4.766      4.607      6.380
REMARK INTER + INTRA:          -5.081
REMARK INTER:                  -5.045
REMARK INTRA:                  -0.036
REMARK UNBOUND:                -0.036
REMARK SMILES COc1ccc2ccc(=O)oc2c1
REMARK SMILES IDX 3 1 13 2 12 3 6 4 5 5 4 6 7 7 8 8 9 9 10 10 11 11 2 12 1 13
REMARK H PARENT
REMARK Flexibility Score: inf
ROOT
ATOM      1  C   UNL     1      17.487  26.461  44.495  1.00  0.00     0.122 A 
ATOM      2  C   UNL     1      17.333  26.333  43.108  1.00  0.00     0.094 A 
ATOM      3  C   UNL     1      18.410  26.568  42.247  1.00  0.00     0.142 A 
ATOM      4  C   UNL     1      19.663  26.940  42.778  1.00  0.00     0.018 A 
ATOM      5  C   UNL     1      19.824  27.070  44.164  1.00  0.00     0.016 A 
ATOM      6  C   UNL     1      18.742  26.833  45.018  1.00  0.00     0.047 A 
ATOM      7  C   UNL     1      20.722  27.169  41.894  1.00  0.00     0.019 A 
ATOM      8  C   UNL     1      20.510  27.026  40.522  1.00  0.00     0.094 A 
ATOM      9  C   UNL     1      19.240  26.654  40.067  1.00  0.00     0.336 A 
ATOM     10  O   UNL     1      19.029  26.519  38.834  1.00  0.00    -0.246 OA
ATOM     11  O   UNL     1      18.250  26.442  40.932  1.00  0.00    -0.423 OA
ENDROOT
BRANCH   1  12
ATOM     12  O   UNL     1      16.375  26.214  45.313  1.00  0.00    -0.497 OA
ATOM     13  C   UNL     1      16.390  26.293  46.734  1.00  0.00     0.278 C 
ENDBRANCH   1  12
TORSDOF 1
ENDMDL
MODEL 7
REMARK VINA RESULT:    -4.676      3.521      4.241
REMARK INTER + INTRA:          -4.985
REMARK INTER:                  -4.952
REMARK INTRA:                  -0.033
REMARK UNBOUND:                -0.036
REMARK SMILES COc1ccc2ccc(=O)oc2c1
REMARK SMILES IDX 3 1 13 2 12 3 6 4 5 5 4 6 7 7 8 8 9 9 10 10 11 11 2 12 1 13
REMARK H PARENT
REMARK Flexibility Score: inf
ROOT
ATOM      1  C   UNL     1      20.016  23.247  40.577  1.00  0.00     0.122 A 
ATOM      2  C   UNL     1      18.959  23.202  41.495  1.00  0.00     0.094 A 
ATOM      3  C   UNL     1      18.337  24.380  41.922  1.00  0.00     0.142 A 
ATOM      4  C   UNL     1      18.778  25.625  41.425  1.00  0.00     0.018 A 
ATOM      5  C   UNL     1      19.835  25.676  40.507  1.00  0.00     0.016 A 
ATOM      6  C   UNL     1      20.451  24.494  40.085  1.00  0.00     0.047 A 
ATOM      7  C   UNL     1      18.137  26.786  41.870  1.00  0.00     0.019 A 
ATOM      8  C   UNL     1      17.089  26.681  42.785  1.00  0.00     0.094 A 
ATOM      9  C   UNL     1      16.706  25.412  43.234  1.00  0.00     0.336 A 
ATOM     10  O   UNL     1      15.763  25.297  44.059  1.00  0.00    -0.246 OA
ATOM     11  O   UNL     1      17.333  24.324  42.794  1.00  0.00    -0.423 OA
ENDROOT
BRANCH   1  12
ATOM     12  O   UNL     1      20.605  22.037  40.182  1.00  0.00    -0.497 OA
ATOM     13  C   UNL     1      20.447  21.448  38.895  1.00  0.00     0.278 C 
ENDBRANCH   1  12
TORSDOF 1
ENDMDL
MODEL 8
REMARK VINA RESULT:    -4.601      7.665      9.663
REMARK INTER + INTRA:          -4.906
REMARK INTER:                  -4.864
REMARK INTRA:                  -0.043
REMARK UNBOUND:                -0.036
REMARK SMILES COc1ccc2ccc(=O)oc2c1
REMARK SMILES IDX 3 1 13 2 12 3 6 4 5 5 4 6 7 7 8 8 9 9 10 10 11 11 2 12 1 13
REMARK H PARENT
REMARK Flexibility Score: inf
ROOT
ATOM      1  C   UNL     1      16.752  23.094  44.994  1.00  0.00     0.122 A 
ATOM      2  C   UNL     1      16.760  22.307  46.152  1.00  0.00     0.094 A 
ATOM      3  C   UNL     1      16.784  20.911  46.064  1.00  0.00     0.142 A 
ATOM      4  C   UNL     1      16.799  20.289  44.797  1.00  0.00     0.018 A 
ATOM      5  C   UNL     1      16.791  21.071  43.635  1.00  0.00     0.016 A 
ATOM      6  C   UNL     1      16.767  22.467  43.732  1.00  0.00     0.047 A 
ATOM      7  C   UNL     1      16.823  18.892  44.740  1.00  0.00     0.019 A 
ATOM      8  C   UNL     1      16.830  18.159  45.926  1.00  0.00     0.094 A 
ATOM      9  C   UNL     1      16.814  18.843  47.147  1.00  0.00     0.336 A 
ATOM     10  O   UNL     1      16.821  18.200  48.228  1.00  0.00    -0.246 OA
ATOM     11  O   UNL     1      16.792  20.174  47.172  1.00  0.00    -0.423 OA
ENDROOT
BRANCH   1  12
ATOM     12  O   UNL     1      16.727  24.489  45.138  1.00  0.00    -0.497 OA
ATOM     13  C   UNL     1      17.055  25.179  46.340  1.00  0.00     0.278 C 
ENDBRANCH   1  12
TORSDOF 1
ENDMDL
MODEL 9
REMARK VINA RESULT:    -4.564      6.877      8.309
REMARK INTER + INTRA:          -4.867
REMARK INTER:                  -4.832
REMARK INTRA:                  -0.035
REMARK UNBOUND:                -0.036
REMARK SMILES COc1ccc2ccc(=O)oc2c1
REMARK SMILES IDX 3 1 13 2 12 3 6 4 5 5 4 6 7 7 8 8 9 9 10 10 11 11 2 12 1 13
REMARK H PARENT
REMARK Flexibility Score: inf
ROOT
ATOM      1  C   UNL     1      18.972  26.626  43.546  1.00  0.00     0.122 A 
ATOM      2  C   UNL     1      18.601  27.159  44.788  1.00  0.00     0.094 A 
ATOM      3  C   UNL     1      17.441  26.719  45.433  1.00  0.00     0.142 A 
ATOM      4  C   UNL     1      16.636  25.729  44.830  1.00  0.00     0.018 A 
ATOM      5  C   UNL     1      17.002  25.192  43.589  1.00  0.00     0.016 A 
ATOM      6  C   UNL     1      18.163  25.637  42.950  1.00  0.00     0.047 A 
ATOM      7  C   UNL     1      15.483  25.308  45.499  1.00  0.00     0.019 A 
ATOM      8  C   UNL     1      15.162  25.875  46.733  1.00  0.00     0.094 A 
ATOM      9  C   UNL     1      16.008  26.852  47.271  1.00  0.00     0.336 A 
ATOM     10  O   UNL     1      15.736  27.374  48.383  1.00  0.00    -0.246 OA
ATOM     11  O   UNL     1      17.100  27.233  46.612  1.00  0.00    -0.423 OA
ENDROOT
BRANCH   1  12
ATOM     12  O   UNL     1      20.144  27.102  42.942  1.00  0.00    -0.497 OA
ATOM     13  C   UNL     1      20.440  26.981  41.554  1.00  0.00     0.278 C 
ENDBRANCH   1  12
TORSDOF 1
ENDMDL
