MODEL 1
REMARK VINA RESULT:    82.653      0.000      0.000
REMARK INTER + INTRA:         138.082
REMARK INTER:                 135.805
REMARK INTRA:                   2.278
REMARK UNBOUND:                 2.278
REMARK SMILES COc1ccc([C@H]2CC(=O)c3c(O)cc(O[C@@H]4O[C@@H](CO[C@@H]5O[C@@H](C)[C@@H](O)[C@H](O)[C@@H]5O)[C@@H](O)[C@H](O)[C@@H]4O)cc3O2)cc1O
REMARK SMILES IDX 19 1 32 2 34 3 36 4 17 5 18 6 20 7 21 8 22 9 25 10 24 11
REMARK SMILES IDX 26 12 23 13 28 14 30 15 27 16 29 18 31 20 33 22 35 24 16 26
REMARK SMILES IDX 15 27 14 28 38 29 12 30 39 31 11 32 40 33 9 34 7 35 10 36
REMARK SMILES IDX 8 37 13 38 6 40 41 41 5 42 42 43 4 44 3 45 43 46 2 48 1 49
REMARK SMILES IDX 37 50
REMARK H PARENT 27 17 29 19 31 21 33 23 35 25 13 39 43 47 37 51
REMARK Flexibility Score: inf
ROOT
ATOM      1  C   UNL     1      24.669  21.665  16.854  1.00  0.00     0.180 C 
ATOM      2  C   UNL     1      23.974  20.950  18.038  1.00  0.00     0.177 C 
ATOM      3  C   UNL     1      22.692  20.290  17.529  1.00  0.00     0.180 C 
ATOM      4  C   UNL     1      21.803  21.304  16.762  1.00  0.00     0.214 C 
ATOM      5  C   UNL     1      22.506  22.669  16.481  1.00  0.00     0.339 C 
ATOM      6  O   UNL     1      23.886  22.616  16.146  1.00  0.00    -0.332 OA
ENDROOT
BRANCH   1   7
ATOM      7  C   UNL     1      26.001  22.307  17.264  1.00  0.00     0.198 C 
BRANCH   7   8
ATOM      8  O   UNL     1      26.943  22.227  16.210  1.00  0.00    -0.347 OA
BRANCH   8   9
ATOM      9  C   UNL     1      27.945  23.221  16.371  1.00  0.00     0.281 C 
ATOM     10  C   UNL     1      26.063  26.127  15.129  1.00  0.00     0.041 C 
ATOM     11  C   UNL     1      26.826  24.803  15.052  1.00  0.00     0.150 C 
ATOM     12  C   UNL     1      27.915  24.853  13.963  1.00  0.00     0.174 C 
ATOM     13  O   UNL     1      27.408  24.537  16.316  1.00  0.00    -0.344 OA
ATOM     14  C   UNL     1      28.681  23.514  13.916  1.00  0.00     0.179 C 
ATOM     15  C   UNL     1      29.082  23.038  15.336  1.00  0.00     0.202 C 
BRANCH  12  16
ATOM     16  O   UNL     1      28.813  25.899  14.246  1.00  0.00    -0.388 OA
ATOM     17  H   UNL     1      29.726  25.538  14.096  1.00  0.00     0.211 HD
ENDBRANCH  12  16
BRANCH  14  18
ATOM     18  O   UNL     1      27.960  22.538  13.203  1.00  0.00    -0.387 OA
ATOM     19  H   UNL     1      28.559  21.769  13.034  1.00  0.00     0.211 HD
ENDBRANCH  14  18
BRANCH  15  20
ATOM     20  O   UNL     1      29.495  21.695  15.314  1.00  0.00    -0.385 OA
ATOM     21  H   UNL     1      29.476  21.402  14.368  1.00  0.00     0.211 HD
ENDBRANCH  15  20
ENDBRANCH   8   9
ENDBRANCH   7   8
ENDBRANCH   1   7
BRANCH   2  22
ATOM     22  O   UNL     1      23.679  21.856  19.072  1.00  0.00    -0.387 OA
ATOM     23  H   UNL     1      23.123  22.577  18.678  1.00  0.00     0.211 HD
ENDBRANCH   2  22
BRANCH   3  24
ATOM     24  O   UNL     1      23.037  19.203  16.704  1.00  0.00    -0.387 OA
ATOM     25  H   UNL     1      23.837  19.469  16.185  1.00  0.00     0.211 HD
ENDBRANCH   3  24
BRANCH   5  26
ATOM     26  O   UNL     1      21.804  23.398  15.465  1.00  0.00    -0.462 OA
BRANCH  26  27
ATOM     27  C   UNL     1      20.566  23.046  14.885  1.00  0.00     0.130 A 
ATOM     28  C   UNL     1      19.524  22.668  15.736  1.00  0.00     0.093 A 
ATOM     29  C   UNL     1      20.341  23.047  13.497  1.00  0.00     0.094 A 
ATOM     30  C   UNL     1      18.276  22.281  15.232  1.00  0.00     0.133 A 
ATOM     31  C   UNL     1      19.095  22.702  12.979  1.00  0.00     0.138 A 
ATOM     32  C   UNL     1      18.040  22.332  13.834  1.00  0.00     0.102 A 
ATOM     33  O   UNL     1      18.918  22.715  11.590  1.00  0.00    -0.484 OA
ATOM     34  C   UNL     1      16.747  21.995  13.190  1.00  0.00     0.174 C 
ATOM     35  C   UNL     1      17.638  22.611  10.969  1.00  0.00     0.211 C 
ATOM     36  O   UNL     1      15.657  22.089  13.809  1.00  0.00    -0.294 OA
ATOM     37  C   UNL     1      16.743  21.625  11.736  1.00  0.00     0.131 C 
BRANCH  30  38
ATOM     38  O   UNL     1      17.334  21.816  16.147  1.00  0.00    -0.507 OA
ATOM     39  H   UNL     1      16.790  22.416  16.750  1.00  0.00     0.293 HD
ENDBRANCH  30  38
BRANCH  35  40
ATOM     40  C   UNL     1      17.826  22.210   9.523  1.00  0.00    -0.003 A 
ATOM     41  C   UNL     1      17.795  23.177   8.504  1.00  0.00     0.057 A 
ATOM     42  C   UNL     1      17.941  20.857   9.171  1.00  0.00     0.011 A 
ATOM     43  C   UNL     1      17.883  22.803   7.159  1.00  0.00     0.158 A 
ATOM     44  C   UNL     1      18.023  20.478   7.829  1.00  0.00     0.051 A 
ATOM     45  C   UNL     1      17.988  21.446   6.809  1.00  0.00     0.160 A 
BRANCH  43  46
ATOM     46  O   UNL     1      17.853  23.796   6.181  1.00  0.00    -0.504 OA
ATOM     47  H   UNL     1      17.864  24.782   6.406  1.00  0.00     0.293 HD
ENDBRANCH  43  46
BRANCH  45  48
ATOM     48  O   UNL     1      18.041  21.096   5.451  1.00  0.00    -0.493 OA
ATOM     49  C   UNL     1      18.140  22.031   4.383  1.00  0.00     0.278 C 
ENDBRANCH  45  48
ENDBRANCH  35  40
ENDBRANCH  26  27
ENDBRANCH   5  26
BRANCH   4  50
ATOM     50  O   UNL     1      21.301  20.739  15.577  1.00  0.00    -0.384 OA
ATOM     51  H   UNL     1      20.782  21.448  15.112  1.00  0.00     0.211 HD
ENDBRANCH   4  50
TORSDOF 15
ENDMDL
MODEL 2
REMARK VINA RESULT:    82.865      1.906     10.162
REMARK INTER + INTRA:         138.431
REMARK INTER:                 135.435
REMARK INTRA:                   2.996
REMARK UNBOUND:                 2.278
REMARK SMILES COc1ccc([C@H]2CC(=O)c3c(O)cc(O[C@@H]4O[C@@H](CO[C@@H]5O[C@@H](C)[C@@H](O)[C@H](O)[C@@H]5O)[C@@H](O)[C@H](O)[C@@H]4O)cc3O2)cc1O
REMARK SMILES IDX 19 1 32 2 34 3 36 4 17 5 18 6 20 7 21 8 22 9 25 10 24 11
REMARK SMILES IDX 26 12 23 13 28 14 30 15 27 16 29 18 31 20 33 22 35 24 16 26
REMARK SMILES IDX 15 27 14 28 38 29 12 30 39 31 11 32 40 33 9 34 7 35 10 36
REMARK SMILES IDX 8 37 13 38 6 40 41 41 5 42 42 43 4 44 3 45 43 46 2 48 1 49
REMARK SMILES IDX 37 50
REMARK H PARENT 27 17 29 19 31 21 33 23 35 25 13 39 43 47 37 51
REMARK Flexibility Score: inf
ROOT
ATOM      1  C   UNL     1      18.489  23.170  13.115  1.00  0.00     0.180 C 
ATOM      2  C   UNL     1      17.514  21.971  13.214  1.00  0.00     0.177 C 
ATOM      3  C   UNL     1      16.884  21.963  14.608  1.00  0.00     0.180 C 
ATOM      4  C   UNL     1      17.969  22.020  15.715  1.00  0.00     0.214 C 
ATOM      5  C   UNL     1      19.405  22.308  15.176  1.00  0.00     0.339 C 
ATOM      6  O   UNL     1      19.506  23.236  14.104  1.00  0.00    -0.332 OA
ENDROOT
BRANCH   1   7
ATOM      7  C   UNL     1      19.124  23.289  11.724  1.00  0.00     0.198 C 
BRANCH   7   8
ATOM      8  O   UNL     1      18.172  23.014  10.712  1.00  0.00    -0.347 OA
BRANCH   8   9
ATOM      9  C   UNL     1      17.758  21.657  10.784  1.00  0.00     0.281 C 
ATOM     10  C   UNL     1      21.041  20.044  10.395  1.00  0.00     0.041 C 
ATOM     11  C   UNL     1      19.791  20.819   9.972  1.00  0.00     0.150 C 
ATOM     12  C   UNL     1      19.179  20.225   8.688  1.00  0.00     0.174 C 
ATOM     13  O   UNL     1      18.848  20.777  11.029  1.00  0.00    -0.344 OA
ATOM     14  C   UNL     1      17.911  21.011   8.292  1.00  0.00     0.179 C 
ATOM     15  C   UNL     1      16.982  21.244   9.510  1.00  0.00     0.202 C 
BRANCH  12  16
ATOM     16  O   UNL     1      18.847  18.876   8.907  1.00  0.00    -0.388 OA
ATOM     17  H   UNL     1      18.553  18.805   9.854  1.00  0.00     0.211 HD
ENDBRANCH  12  16
BRANCH  14  18
ATOM     18  O   UNL     1      18.240  22.208   7.627  1.00  0.00    -0.387 OA
ATOM     19  H   UNL     1      17.766  22.222   6.759  1.00  0.00     0.211 HD
ENDBRANCH  14  18
BRANCH  15  20
ATOM     20  O   UNL     1      16.003  22.207   9.214  1.00  0.00    -0.385 OA
ATOM     21  H   UNL     1      15.123  21.786   9.384  1.00  0.00     0.211 HD
ENDBRANCH  15  20
ENDBRANCH   8   9
ENDBRANCH   7   8
ENDBRANCH   1   7
BRANCH   2  22
ATOM     22  O   UNL     1      18.181  20.756  12.973  1.00  0.00    -0.387 OA
ATOM     23  H   UNL     1      18.105  20.214  13.801  1.00  0.00     0.211 HD
ENDBRANCH   2  22
BRANCH   3  24
ATOM     24  O   UNL     1      16.003  23.055  14.714  1.00  0.00    -0.387 OA
ATOM     25  H   UNL     1      15.386  22.866  15.465  1.00  0.00     0.211 HD
ENDBRANCH   3  24
BRANCH   5  26
ATOM     26  O   UNL     1      20.270  22.723  16.241  1.00  0.00    -0.462 OA
BRANCH  26  27
ATOM     27  C   UNL     1      21.622  22.358  16.415  1.00  0.00     0.130 A 
ATOM     28  C   UNL     1      21.902  21.192  17.132  1.00  0.00     0.093 A 
ATOM     29  C   UNL     1      22.693  23.118  15.913  1.00  0.00     0.094 A 
ATOM     30  C   UNL     1      23.219  20.780  17.367  1.00  0.00     0.133 A 
ATOM     31  C   UNL     1      24.009  22.705  16.104  1.00  0.00     0.138 A 
ATOM     32  C   UNL     1      24.294  21.524  16.816  1.00  0.00     0.102 A 
ATOM     33  O   UNL     1      25.043  23.495  15.588  1.00  0.00    -0.484 OA
ATOM     34  C   UNL     1      25.724  21.159  16.955  1.00  0.00     0.174 C 
ATOM     35  C   UNL     1      26.398  23.054  15.519  1.00  0.00     0.211 C 
ATOM     36  O   UNL     1      26.087  19.970  17.151  1.00  0.00    -0.294 OA
ATOM     37  C   UNL     1      26.761  22.226  16.761  1.00  0.00     0.131 C 
BRANCH  30  38
ATOM     38  O   UNL     1      23.404  19.666  18.184  1.00  0.00    -0.507 OA
ATOM     39  H   UNL     1      24.204  19.535  18.785  1.00  0.00     0.293 HD
ENDBRANCH  30  38
BRANCH  35  40
ATOM     40  C   UNL     1      27.297  24.257  15.347  1.00  0.00    -0.003 A 
ATOM     41  C   UNL     1      26.877  25.529  15.769  1.00  0.00     0.057 A 
ATOM     42  C   UNL     1      28.525  24.135  14.679  1.00  0.00     0.011 A 
ATOM     43  C   UNL     1      27.670  26.659  15.537  1.00  0.00     0.158 A 
ATOM     44  C   UNL     1      29.317  25.260  14.439  1.00  0.00     0.051 A 
ATOM     45  C   UNL     1      28.894  26.534  14.858  1.00  0.00     0.160 A 
BRANCH  43  46
ATOM     46  O   UNL     1      27.216  27.901  15.977  1.00  0.00    -0.504 OA
ATOM     47  H   UNL     1      26.382  28.338  15.608  1.00  0.00     0.293 HD
ENDBRANCH  43  46
BRANCH  45  48
ATOM     48  O   UNL     1      29.653  27.688  14.609  1.00  0.00    -0.493 OA
ATOM     49  C   UNL     1      31.024  27.841  14.960  1.00  0.00     0.278 C 
ENDBRANCH  45  48
ENDBRANCH  35  40
ENDBRANCH  26  27
ENDBRANCH   5  26
BRANCH   4  50
ATOM     50  O   UNL     1      17.613  22.934  16.722  1.00  0.00    -0.384 OA
ATOM     51  H   UNL     1      18.348  23.601  16.784  1.00  0.00     0.211 HD
ENDBRANCH   4  50
TORSDOF 15
ENDMDL
MODEL 3
REMARK VINA RESULT:    84.949      0.883      1.661
REMARK INTER + INTRA:         141.854
REMARK INTER:                 138.855
REMARK INTRA:                   2.999
REMARK UNBOUND:                 2.278
REMARK SMILES COc1ccc([C@H]2CC(=O)c3c(O)cc(O[C@@H]4O[C@@H](CO[C@@H]5O[C@@H](C)[C@@H](O)[C@H](O)[C@@H]5O)[C@@H](O)[C@H](O)[C@@H]4O)cc3O2)cc1O
REMARK SMILES IDX 19 1 32 2 34 3 36 4 17 5 18 6 20 7 21 8 22 9 25 10 24 11
REMARK SMILES IDX 26 12 23 13 28 14 30 15 27 16 29 18 31 20 33 22 35 24 16 26
REMARK SMILES IDX 15 27 14 28 38 29 12 30 39 31 11 32 40 33 9 34 7 35 10 36
REMARK SMILES IDX 8 37 13 38 6 40 41 41 5 42 42 43 4 44 3 45 43 46 2 48 1 49
REMARK SMILES IDX 37 50
REMARK H PARENT 27 17 29 19 31 21 33 23 35 25 13 39 43 47 37 51
REMARK Flexibility Score: inf
ROOT
ATOM      1  C   UNL     1      24.910  21.906  16.584  1.00  0.00     0.180 C 
ATOM      2  C   UNL     1      24.348  21.243  17.866  1.00  0.00     0.177 C 
ATOM      3  C   UNL     1      23.004  20.594  17.535  1.00  0.00     0.180 C 
ATOM      4  C   UNL     1      22.048  21.602  16.845  1.00  0.00     0.214 C 
ATOM      5  C   UNL     1      22.735  22.943  16.437  1.00  0.00     0.339 C 
ATOM      6  O   UNL     1      24.065  22.850  15.943  1.00  0.00    -0.332 OA
ENDROOT
BRANCH   1   7
ATOM      7  C   UNL     1      26.292  22.533  16.813  1.00  0.00     0.198 C 
BRANCH   7   8
ATOM      8  O   UNL     1      26.632  23.400  15.746  1.00  0.00    -0.347 OA
BRANCH   8   9
ATOM      9  C   UNL     1      27.505  22.743  14.839  1.00  0.00     0.281 C 
ATOM     10  C   UNL     1      30.466  22.468  17.004  1.00  0.00     0.041 C 
ATOM     11  C   UNL     1      29.423  23.157  16.122  1.00  0.00     0.150 C 
ATOM     12  C   UNL     1      30.096  24.047  15.060  1.00  0.00     0.174 C 
ATOM     13  O   UNL     1      28.626  22.166  15.498  1.00  0.00    -0.344 OA
ATOM     14  C   UNL     1      29.025  24.717  14.172  1.00  0.00     0.179 C 
ATOM     15  C   UNL     1      27.954  23.697  13.706  1.00  0.00     0.202 C 
BRANCH  12  16
ATOM     16  O   UNL     1      30.946  23.262  14.260  1.00  0.00    -0.388 OA
ATOM     17  H   UNL     1      31.273  22.520  14.835  1.00  0.00     0.211 HD
ENDBRANCH  12  16
BRANCH  14  18
ATOM     18  O   UNL     1      28.462  25.838  14.810  1.00  0.00    -0.387 OA
ATOM     19  H   UNL     1      28.908  26.650  14.464  1.00  0.00     0.211 HD
ENDBRANCH  14  18
BRANCH  15  20
ATOM     20  O   UNL     1      26.837  24.359  13.169  1.00  0.00    -0.385 OA
ATOM     21  H   UNL     1      27.128  25.277  12.938  1.00  0.00     0.211 HD
ENDBRANCH  15  20
ENDBRANCH   8   9
ENDBRANCH   7   8
ENDBRANCH   1   7
BRANCH   2  22
ATOM     22  O   UNL     1      24.194  22.186  18.897  1.00  0.00    -0.387 OA
ATOM     23  H   UNL     1      23.219  22.313  19.032  1.00  0.00     0.211 HD
ENDBRANCH   2  22
BRANCH   3  24
ATOM     24  O   UNL     1      23.231  19.475  16.712  1.00  0.00    -0.387 OA
ATOM     25  H   UNL     1      23.254  19.797  15.775  1.00  0.00     0.211 HD
ENDBRANCH   3  24
BRANCH   5  26
ATOM     26  O   UNL     1      21.929  23.653  15.487  1.00  0.00    -0.462 OA
BRANCH  26  27
ATOM     27  C   UNL     1      20.701  23.224  14.942  1.00  0.00     0.130 A 
ATOM     28  C   UNL     1      19.704  22.794  15.822  1.00  0.00     0.093 A 
ATOM     29  C   UNL     1      20.442  23.196  13.560  1.00  0.00     0.094 A 
ATOM     30  C   UNL     1      18.469  22.329  15.353  1.00  0.00     0.133 A 
ATOM     31  C   UNL     1      19.206  22.773  13.076  1.00  0.00     0.138 A 
ATOM     32  C   UNL     1      18.196  22.351  13.962  1.00  0.00     0.102 A 
ATOM     33  O   UNL     1      18.995  22.761  11.692  1.00  0.00    -0.484 OA
ATOM     34  C   UNL     1      16.910  21.932  13.354  1.00  0.00     0.174 C 
ATOM     35  C   UNL     1      17.708  22.575  11.105  1.00  0.00     0.211 C 
ATOM     36  O   UNL     1      15.831  21.968  13.999  1.00  0.00    -0.294 OA
ATOM     37  C   UNL     1      16.892  21.547  11.903  1.00  0.00     0.131 C 
BRANCH  30  38
ATOM     38  O   UNL     1      17.579  21.819  16.297  1.00  0.00    -0.507 OA
ATOM     39  H   UNL     1      16.702  22.256  16.538  1.00  0.00     0.293 HD
ENDBRANCH  30  38
BRANCH  35  40
ATOM     40  C   UNL     1      17.884  22.171   9.659  1.00  0.00    -0.003 A 
ATOM     41  C   UNL     1      17.830  23.133   8.637  1.00  0.00     0.057 A 
ATOM     42  C   UNL     1      18.009  20.818   9.310  1.00  0.00     0.011 A 
ATOM     43  C   UNL     1      17.907  22.755   7.292  1.00  0.00     0.158 A 
ATOM     44  C   UNL     1      18.079  20.434   7.969  1.00  0.00     0.051 A 
ATOM     45  C   UNL     1      18.022  21.398   6.946  1.00  0.00     0.160 A 
BRANCH  43  46
ATOM     46  O   UNL     1      17.855  23.744   6.310  1.00  0.00    -0.504 OA
ATOM     47  H   UNL     1      18.285  23.632   5.402  1.00  0.00     0.293 HD
ENDBRANCH  43  46
BRANCH  45  48
ATOM     48  O   UNL     1      18.064  21.043   5.588  1.00  0.00    -0.493 OA
ATOM     49  C   UNL     1      18.141  21.976   4.516  1.00  0.00     0.278 C 
ENDBRANCH  45  48
ENDBRANCH  35  40
ENDBRANCH  26  27
ENDBRANCH   5  26
BRANCH   4  50
ATOM     50  O   UNL     1      21.399  21.010  15.747  1.00  0.00    -0.384 OA
ATOM     51  H   UNL     1      22.063  20.956  15.009  1.00  0.00     0.211 HD
ENDBRANCH   4  50
TORSDOF 15
ENDMDL
