MODEL 1
REMARK VINA RESULT:    89.992      0.000      0.000
REMARK INTER + INTRA:          98.459
REMARK INTER:                  97.884
REMARK INTRA:                   0.576
REMARK UNBOUND:                 0.576
REMARK SMILES C[C@@H]1[C@@H](C)CC[C@@]2(C(=O)[O-])CC[C@@]3(C)C(=CC[C@@H]4[C@]5(C)CC[C@@H](O)C(C)(C)[C@@H]5CC[C@]43C)[C@@H]12
REMARK SMILES IDX 7 1 6 2 11 3 33 4 5 5 12 6 15 7 2 8 3 9 13 10 16 11 1 12
REMARK SMILES IDX 4 13 14 14 31 15 17 16 18 17 30 18 32 19 19 20 29 21 28 22
REMARK SMILES IDX 21 23 20 24 25 25 22 26 23 27 26 28 27 29 8 30 9 31 10 32
REMARK SMILES IDX 24 33
REMARK H PARENT 24 34
REMARK Flexibility Score: inf
ROOT
ATOM      1  C   UNL     1      -4.613  -8.557  12.247  1.00  0.00     0.017 C 
ATOM      2  C   UNL     1      -5.706  -7.805  11.444  1.00  0.00     0.014 C 
ATOM      3  C   UNL     1      -3.232  -8.449  11.536  1.00  0.00     0.014 C 
ATOM      4  C   UNL     1      -4.506  -7.987  13.703  1.00  0.00     0.030 C 
ATOM      5  C   UNL     1      -5.601  -6.282  11.530  1.00  0.00     0.004 C 
ATOM      6  C   UNL     1      -2.104  -9.185  12.304  1.00  0.00     0.013 C 
ATOM      7  C   UNL     1      -3.341  -8.681  14.431  1.00  0.00    -0.063 C 
ATOM      8  C   UNL     1      -4.470  -6.426  13.790  1.00  0.00    -0.003 C 
ATOM      9  C   UNL     1      -5.650  -5.806  12.991  1.00  0.00    -0.011 C 
ATOM     10  C   UNL     1      -1.918  -8.709  13.786  1.00  0.00    -0.006 C 
ATOM     11  C   UNL     1      -3.685  -9.491  15.474  1.00  0.00    -0.027 C 
ATOM     12  C   UNL     1      -4.499  -5.975  15.265  1.00  0.00     0.008 C 
ATOM     13  C   UNL     1      -5.636  -4.267  13.020  1.00  0.00     0.008 C 
ATOM     14  C   UNL     1      -1.304  -7.266  13.735  1.00  0.00     0.017 C 
ATOM     15  C   UNL     1      -0.935  -9.659  14.652  1.00  0.00    -0.020 C 
ATOM     16  C   UNL     1      -2.843 -10.627  16.007  1.00  0.00     0.032 C 
ATOM     17  C   UNL     1      -1.711 -10.977  15.019  1.00  0.00     0.006 C 
ATOM     18  C   UNL     1       0.391 -10.039  13.904  1.00  0.00     0.008 C 
ATOM     19  C   UNL     1      -0.539  -8.858  15.956  1.00  0.00     0.012 C 
ATOM     20  C   UNL     1      -0.831 -12.272  15.330  1.00  0.00    -0.025 C 
ATOM     21  C   UNL     1       0.334 -11.375  13.150  1.00  0.00     0.005 C 
ATOM     22  C   UNL     1       0.049 -12.638  14.047  1.00  0.00     0.003 C 
ATOM     23  C   UNL     1       0.070 -12.071  16.582  1.00  0.00     0.010 C 
ATOM     24  C   UNL     1      -1.829 -13.434  15.627  1.00  0.00     0.012 C 
ATOM     25  C   UNL     1       1.299 -13.633  14.290  1.00  0.00    -0.006 C 
ATOM     26  C   UNL     1       1.044 -13.216  16.825  1.00  0.00     0.033 C 
ATOM     27  C   UNL     1       2.018 -13.325  15.640  1.00  0.00     0.120 C 
ATOM     28  C   UNL     1       2.370 -13.524  13.166  1.00  0.00     0.014 C 
ATOM     29  C   UNL     1       0.834 -15.125  14.252  1.00  0.00     0.014 C 
ENDROOT
BRANCH   1  30
ATOM     30  C   UNL     1      -5.045 -10.025  12.273  1.00  0.00     0.048 C 
ATOM     31  O   UNL     1      -5.306 -10.629  11.198  1.00  0.00    -0.550 OA
ATOM     32  O   UNL     1      -5.261 -10.688  13.476  1.00  0.00    -0.550 OA
ENDBRANCH   1  30
BRANCH  27  33
ATOM     33  O   UNL     1       3.041 -14.254  15.915  1.00  0.00    -0.393 OA
ATOM     34  H   UNL     1       2.736 -15.152  15.623  1.00  0.00     0.210 HD
ENDBRANCH  27  33
TORSDOF 2
ENDMDL
MODEL 2
REMARK VINA RESULT:    92.914      1.973      7.791
REMARK INTER + INTRA:         101.637
REMARK INTER:                 100.855
REMARK INTRA:                   0.783
REMARK UNBOUND:                 0.576
REMARK SMILES C[C@@H]1[C@@H](C)CC[C@@]2(C(=O)[O-])CC[C@@]3(C)C(=CC[C@@H]4[C@]5(C)CC[C@@H](O)C(C)(C)[C@@H]5CC[C@]43C)[C@@H]12
REMARK SMILES IDX 7 1 6 2 11 3 33 4 5 5 12 6 15 7 2 8 3 9 13 10 16 11 1 12
REMARK SMILES IDX 4 13 14 14 31 15 17 16 18 17 30 18 32 19 19 20 29 21 28 22
REMARK SMILES IDX 21 23 20 24 25 25 22 26 23 27 26 28 27 29 8 30 9 31 10 32
REMARK SMILES IDX 24 33
REMARK H PARENT 24 34
REMARK Flexibility Score: inf
ROOT
ATOM      1  C   UNL     1       0.877 -13.237  14.041  1.00  0.00     0.017 C 
ATOM      2  C   UNL     1       1.704 -14.548  13.988  1.00  0.00     0.014 C 
ATOM      3  C   UNL     1      -0.594 -13.528  14.461  1.00  0.00     0.014 C 
ATOM      4  C   UNL     1       1.522 -12.218  15.042  1.00  0.00     0.030 C 
ATOM      5  C   UNL     1       2.041 -15.125  15.364  1.00  0.00     0.004 C 
ATOM      6  C   UNL     1      -1.461 -12.244  14.530  1.00  0.00     0.013 C 
ATOM      7  C   UNL     1       0.617 -10.976  15.149  1.00  0.00    -0.063 C 
ATOM      8  C   UNL     1       1.929 -12.828  16.422  1.00  0.00    -0.003 C 
ATOM      9  C   UNL     1       2.801 -14.100  16.222  1.00  0.00    -0.011 C 
ATOM     10  C   UNL     1      -0.899 -11.139  15.489  1.00  0.00    -0.006 C 
ATOM     11  C   UNL     1       1.133  -9.815  14.652  1.00  0.00    -0.027 C 
ATOM     12  C   UNL     1       2.671 -11.775  17.272  1.00  0.00     0.008 C 
ATOM     13  C   UNL     1       3.198 -14.756  17.557  1.00  0.00     0.008 C 
ATOM     14  C   UNL     1      -1.085 -11.662  16.957  1.00  0.00     0.017 C 
ATOM     15  C   UNL     1      -1.655  -9.716  15.349  1.00  0.00    -0.020 C 
ATOM     16  C   UNL     1       0.317  -8.631  14.188  1.00  0.00     0.032 C 
ATOM     17  C   UNL     1      -1.167  -9.020  14.025  1.00  0.00     0.006 C 
ATOM     18  C   UNL     1      -3.219  -9.835  15.316  1.00  0.00     0.008 C 
ATOM     19  C   UNL     1      -1.266  -8.852  16.615  1.00  0.00     0.012 C 
ATOM     20  C   UNL     1      -2.147  -7.944  13.369  1.00  0.00    -0.025 C 
ATOM     21  C   UNL     1      -3.821  -9.900  13.905  1.00  0.00     0.005 C 
ATOM     22  C   UNL     1      -3.534  -8.646  12.996  1.00  0.00     0.003 C 
ATOM     23  C   UNL     1      -2.376  -6.725  14.307  1.00  0.00     0.010 C 
ATOM     24  C   UNL     1      -1.452  -7.438  12.067  1.00  0.00     0.012 C 
ATOM     25  C   UNL     1      -4.789  -7.665  12.725  1.00  0.00    -0.006 C 
ATOM     26  C   UNL     1      -3.428  -5.749  13.795  1.00  0.00     0.033 C 
ATOM     27  C   UNL     1      -4.791  -6.456  13.712  1.00  0.00     0.120 C 
ATOM     28  C   UNL     1      -6.155  -8.390  12.887  1.00  0.00     0.014 C 
ATOM     29  C   UNL     1      -4.782  -7.155  11.246  1.00  0.00     0.014 C 
ENDROOT
BRANCH   1  30
ATOM     30  C   UNL     1       0.886 -12.676  12.618  1.00  0.00     0.048 C 
ATOM     31  O   UNL     1       0.122 -11.723  12.306  1.00  0.00    -0.550 OA
ATOM     32  O   UNL     1       1.651 -13.267  11.619  1.00  0.00    -0.550 OA
ENDBRANCH   1  30
BRANCH  27  33
ATOM     33  O   UNL     1      -5.816  -5.537  13.415  1.00  0.00    -0.393 OA
ATOM     34  H   UNL     1      -5.409  -4.741  12.983  1.00  0.00     0.210 HD
ENDBRANCH  27  33
TORSDOF 2
ENDMDL
