MODEL 1
REMARK VINA RESULT:    -2.446      0.000      0.000
REMARK INTER + INTRA:          -2.446
REMARK INTER:                  -2.446
REMARK INTRA:                   0.000
REMARK UNBOUND:                 0.000
REMARK SMILES CC(=O)[O-]
REMARK SMILES IDX 1 1 2 2 3 3 4 4
REMARK H PARENT
REMARK Flexibility Score: inf
ROOT
ATOM      1  C   UNL     1       2.077  -1.248 -11.629  1.00  0.00     0.063 C 
ATOM      2  C   UNL     1       2.737  -1.631 -10.348  1.00  0.00     0.038 C 
ATOM      3  O   UNL     1       2.076  -2.206  -9.444  1.00  0.00    -0.550 OA
ATOM      4  O   UNL     1       4.095  -1.403 -10.169  1.00  0.00    -0.550 OA
ENDROOT
TORSDOF 0
ENDMDL
MODEL 2
REMARK VINA RESULT:    -2.410      3.418      4.091
REMARK INTER + INTRA:          -2.410
REMARK INTER:                  -2.410
REMARK INTRA:                   0.000
REMARK UNBOUND:                 0.000
REMARK SMILES CC(=O)[O-]
REMARK SMILES IDX 1 1 2 2 3 3 4 4
REMARK H PARENT
REMARK Flexibility Score: inf
ROOT
ATOM      1  C   UNL     1       7.114  -0.229 -11.374  1.00  0.00     0.063 C 
ATOM      2  C   UNL     1       6.436  -1.155 -10.422  1.00  0.00     0.038 C 
ATOM      3  O   UNL     1       7.119  -1.914  -9.685  1.00  0.00    -0.550 OA
ATOM      4  O   UNL     1       5.053  -1.144 -10.306  1.00  0.00    -0.550 OA
ENDROOT
TORSDOF 0
ENDMDL
MODEL 3
REMARK VINA RESULT:    -2.297     12.356     12.897
REMARK INTER + INTRA:          -2.297
REMARK INTER:                  -2.297
REMARK INTRA:                   0.000
REMARK UNBOUND:                 0.000
REMARK SMILES CC(=O)[O-]
REMARK SMILES IDX 1 1 2 2 3 3 4 4
REMARK H PARENT
REMARK Flexibility Score: inf
ROOT
ATOM      1  C   UNL     1      -9.654   4.586  -7.559  1.00  0.00     0.063 C 
ATOM      2  C   UNL     1      -8.563   3.651  -7.956  1.00  0.00     0.038 C 
ATOM      3  O   UNL     1      -7.413   4.094  -8.216  1.00  0.00    -0.550 OA
ATOM      4  O   UNL     1      -8.796   2.283  -7.987  1.00  0.00    -0.550 OA
ENDROOT
TORSDOF 0
ENDMDL
MODEL 4
REMARK VINA RESULT:    -2.217     13.281     13.669
REMARK INTER + INTRA:          -2.217
REMARK INTER:                  -2.217
REMARK INTRA:                   0.000
REMARK UNBOUND:                 0.000
REMARK SMILES CC(=O)[O-]
REMARK SMILES IDX 1 1 2 2 3 3 4 4
REMARK H PARENT
REMARK Flexibility Score: inf
ROOT
ATOM      1  C   UNL     1      -9.358   6.807  -9.459  1.00  0.00     0.063 C 
ATOM      2  C   UNL     1      -7.872   6.794  -9.570  1.00  0.00     0.038 C 
ATOM      3  O   UNL     1      -7.160   7.090  -8.574  1.00  0.00    -0.550 OA
ATOM      4  O   UNL     1      -7.266   6.404 -10.757  1.00  0.00    -0.550 OA
ENDROOT
TORSDOF 0
ENDMDL
MODEL 5
REMARK VINA RESULT:    -2.190     11.090     11.487
REMARK INTER + INTRA:          -2.190
REMARK INTER:                  -2.190
REMARK INTRA:                   0.000
REMARK UNBOUND:                 0.000
REMARK SMILES CC(=O)[O-]
REMARK SMILES IDX 1 1 2 2 3 3 4 4
REMARK H PARENT
REMARK Flexibility Score: inf
ROOT
ATOM      1  C   UNL     1      -1.606 -11.027  -9.759  1.00  0.00     0.063 C 
ATOM      2  C   UNL     1      -1.238 -12.346  -9.167  1.00  0.00     0.038 C 
ATOM      3  O   UNL     1      -2.136 -13.125  -8.751  1.00  0.00    -0.550 OA
ATOM      4  O   UNL     1       0.092 -12.742  -9.123  1.00  0.00    -0.550 OA
ENDROOT
TORSDOF 0
ENDMDL
MODEL 6
REMARK VINA RESULT:    -2.126     10.143     10.581
REMARK INTER + INTRA:          -2.126
REMARK INTER:                  -2.126
REMARK INTRA:                   0.000
REMARK UNBOUND:                 0.000
REMARK SMILES CC(=O)[O-]
REMARK SMILES IDX 1 1 2 2 3 3 4 4
REMARK H PARENT
REMARK Flexibility Score: inf
ROOT
ATOM      1  C   UNL     1      -2.053  -9.321 -10.915  1.00  0.00     0.063 C 
ATOM      2  C   UNL     1      -2.901 -10.440 -10.412  1.00  0.00     0.038 C 
ATOM      3  O   UNL     1      -2.376 -11.398  -9.785  1.00  0.00    -0.550 OA
ATOM      4  O   UNL     1      -4.277 -10.403 -10.587  1.00  0.00    -0.550 OA
ENDROOT
TORSDOF 0
ENDMDL
MODEL 7
REMARK VINA RESULT:    -2.089     13.178     13.668
REMARK INTER + INTRA:          -2.089
REMARK INTER:                  -2.089
REMARK INTRA:                   0.000
REMARK UNBOUND:                 0.000
REMARK SMILES CC(=O)[O-]
REMARK SMILES IDX 1 1 2 2 3 3 4 4
REMARK H PARENT
REMARK Flexibility Score: inf
ROOT
ATOM      1  C   UNL     1      -8.555   5.661  -8.488  1.00  0.00     0.063 C 
ATOM      2  C   UNL     1      -9.145   4.529  -7.717  1.00  0.00     0.038 C 
ATOM      3  O   UNL     1     -10.394   4.422  -7.606  1.00  0.00    -0.550 OA
ATOM      4  O   UNL     1      -8.319   3.559  -7.165  1.00  0.00    -0.550 OA
ENDROOT
TORSDOF 0
ENDMDL
MODEL 8
REMARK VINA RESULT:    -2.003      6.665      7.063
REMARK INTER + INTRA:          -2.003
REMARK INTER:                  -2.003
REMARK INTRA:                   0.000
REMARK UNBOUND:                 0.000
REMARK SMILES CC(=O)[O-]
REMARK SMILES IDX 1 1 2 2 3 3 4 4
REMARK H PARENT
REMARK Flexibility Score: inf
ROOT
ATOM      1  C   UNL     1      -0.220  -7.604 -10.245  1.00  0.00     0.063 C 
ATOM      2  C   UNL     1       1.100  -8.279 -10.093  1.00  0.00     0.038 C 
ATOM      3  O   UNL     1       2.041  -7.700  -9.490  1.00  0.00    -0.550 OA
ATOM      4  O   UNL     1       1.280  -9.571 -10.569  1.00  0.00    -0.550 OA
ENDROOT
TORSDOF 0
ENDMDL
MODEL 9
REMARK VINA RESULT:    -1.955     11.746     11.959
REMARK INTER + INTRA:          -1.955
REMARK INTER:                  -1.955
REMARK INTRA:                   0.000
REMARK UNBOUND:                 0.000
REMARK SMILES CC(=O)[O-]
REMARK SMILES IDX 1 1 2 2 3 3 4 4
REMARK H PARENT
REMARK Flexibility Score: inf
ROOT
ATOM      1  C   UNL     1      -9.003   1.611  -8.831  1.00  0.00     0.063 C 
ATOM      2  C   UNL     1      -8.191   2.740  -9.367  1.00  0.00     0.038 C 
ATOM      3  O   UNL     1      -7.517   3.462  -8.585  1.00  0.00    -0.550 OA
ATOM      4  O   UNL     1      -8.132   2.967 -10.736  1.00  0.00    -0.550 OA
ENDROOT
TORSDOF 0
ENDMDL
