MODEL 1
REMARK VINA RESULT:    -6.438      0.000      0.000
REMARK INTER + INTRA:          -7.692
REMARK INTER:                  -7.567
REMARK INTRA:                  -0.124
REMARK UNBOUND:                -0.124
REMARK SMILES O=C([O-])C=Cc1ccc(O)c(O)c1
REMARK SMILES IDX 6 1 13 2 7 3 11 4 8 5 9 6 5 7 4 8 2 9 1 10 3 11 12 12 10 14
REMARK H PARENT 12 13 10 15
REMARK Flexibility Score: inf
ROOT
ATOM      1  C   UNL     1     -29.496  18.316  56.701  1.00  0.00    -0.022 A 
ATOM      2  C   UNL     1     -29.339  18.685  58.053  1.00  0.00     0.058 A 
ATOM      3  C   UNL     1     -28.621  18.855  55.745  1.00  0.00     0.012 A 
ATOM      4  C   UNL     1     -28.312  19.555  58.440  1.00  0.00     0.157 A 
ATOM      5  C   UNL     1     -27.595  19.721  56.129  1.00  0.00     0.051 A 
ATOM      6  C   UNL     1     -27.433  20.073  57.475  1.00  0.00     0.157 A 
ENDROOT
BRANCH   1   7
ATOM      7  C   UNL     1     -30.576  17.406  56.242  1.00  0.00     0.010 C 
ATOM      8  C   UNL     1     -31.468  16.837  57.063  1.00  0.00     0.025 C 
BRANCH   8   9
ATOM      9  C   UNL     1     -32.516  15.931  56.564  1.00  0.00     0.064 C 
ATOM     10  O   UNL     1     -32.197  14.948  55.846  1.00  0.00    -0.545 OA
ATOM     11  O   UNL     1     -33.854  16.142  56.875  1.00  0.00    -0.545 OA
ENDBRANCH   8   9
ENDBRANCH   1   7
BRANCH   4  12
ATOM     12  O   UNL     1     -28.185  19.895  59.786  1.00  0.00    -0.504 OA
ATOM     13  H   UNL     1     -27.501  19.457  60.389  1.00  0.00     0.293 HD
ENDBRANCH   4  12
BRANCH   6  14
ATOM     14  O   UNL     1     -26.407  20.937  57.855  1.00  0.00    -0.504 OA
ATOM     15  H   UNL     1     -25.869  21.455  57.171  1.00  0.00     0.293 HD
ENDBRANCH   6  14
TORSDOF 4
ENDMDL
MODEL 2
REMARK VINA RESULT:    -6.390      1.594      2.036
REMARK INTER + INTRA:          -7.635
REMARK INTER:                  -7.513
REMARK INTRA:                  -0.122
REMARK UNBOUND:                -0.124
REMARK SMILES O=C([O-])C=Cc1ccc(O)c(O)c1
REMARK SMILES IDX 6 1 13 2 7 3 11 4 8 5 9 6 5 7 4 8 2 9 1 10 3 11 12 12 10 14
REMARK H PARENT 12 13 10 15
REMARK Flexibility Score: inf
ROOT
ATOM      1  C   UNL     1     -29.708  18.528  57.112  1.00  0.00    -0.022 A 
ATOM      2  C   UNL     1     -28.551  17.939  56.561  1.00  0.00     0.058 A 
ATOM      3  C   UNL     1     -29.706  19.905  57.379  1.00  0.00     0.012 A 
ATOM      4  C   UNL     1     -27.427  18.719  56.262  1.00  0.00     0.157 A 
ATOM      5  C   UNL     1     -28.586  20.686  57.079  1.00  0.00     0.051 A 
ATOM      6  C   UNL     1     -27.445  20.099  56.518  1.00  0.00     0.157 A 
ENDROOT
BRANCH   1   7
ATOM      7  C   UNL     1     -30.918  17.740  57.456  1.00  0.00     0.010 C 
ATOM      8  C   UNL     1     -31.511  16.881  56.616  1.00  0.00     0.025 C 
BRANCH   8   9
ATOM      9  C   UNL     1     -32.718  16.128  56.996  1.00  0.00     0.064 C 
ATOM     10  O   UNL     1     -33.707  16.109  56.219  1.00  0.00    -0.545 OA
ATOM     11  O   UNL     1     -32.781  15.436  58.199  1.00  0.00    -0.545 OA
ENDBRANCH   8   9
ENDBRANCH   1   7
BRANCH   4  12
ATOM     12  O   UNL     1     -26.302  18.103  55.716  1.00  0.00    -0.504 OA
ATOM     13  H   UNL     1     -25.432  18.600  55.574  1.00  0.00     0.293 HD
ENDBRANCH   4  12
BRANCH   6  14
ATOM     14  O   UNL     1     -26.330  20.881  56.220  1.00  0.00    -0.504 OA
ATOM     15  H   UNL     1     -26.157  21.220  55.281  1.00  0.00     0.293 HD
ENDBRANCH   6  14
TORSDOF 4
ENDMDL
MODEL 3
REMARK VINA RESULT:    -6.365      1.664      2.182
REMARK INTER + INTRA:          -7.606
REMARK INTER:                  -7.481
REMARK INTRA:                  -0.125
REMARK UNBOUND:                -0.124
REMARK SMILES O=C([O-])C=Cc1ccc(O)c(O)c1
REMARK SMILES IDX 6 1 13 2 7 3 11 4 8 5 9 6 5 7 4 8 2 9 1 10 3 11 12 12 10 14
REMARK H PARENT 12 13 10 15
REMARK Flexibility Score: inf
ROOT
ATOM      1  C   UNL     1     -29.372  18.272  57.076  1.00  0.00    -0.022 A 
ATOM      2  C   UNL     1     -29.863  19.290  56.231  1.00  0.00     0.058 A 
ATOM      3  C   UNL     1     -28.137  18.459  57.715  1.00  0.00     0.012 A 
ATOM      4  C   UNL     1     -29.142  20.477  56.053  1.00  0.00     0.157 A 
ATOM      5  C   UNL     1     -27.418  19.644  57.540  1.00  0.00     0.051 A 
ATOM      6  C   UNL     1     -27.916  20.658  56.713  1.00  0.00     0.157 A 
ENDROOT
BRANCH   1   7
ATOM      7  C   UNL     1     -30.095  16.992  57.286  1.00  0.00     0.010 C 
ATOM      8  C   UNL     1     -31.138  16.596  56.546  1.00  0.00     0.025 C 
BRANCH   8   9
ATOM      9  C   UNL     1     -31.832  15.322  56.799  1.00  0.00     0.064 C 
ATOM     10  O   UNL     1     -32.148  15.011  57.976  1.00  0.00    -0.545 OA
ATOM     11  O   UNL     1     -32.147  14.458  55.757  1.00  0.00    -0.545 OA
ENDBRANCH   8   9
ENDBRANCH   1   7
BRANCH   4  12
ATOM     12  O   UNL     1     -29.660  21.462  55.213  1.00  0.00    -0.504 OA
ATOM     13  H   UNL     1     -29.073  21.992  54.580  1.00  0.00     0.293 HD
ENDBRANCH   4  12
BRANCH   6  14
ATOM     14  O   UNL     1     -27.197  21.839  56.542  1.00  0.00    -0.504 OA
ATOM     15  H   UNL     1     -26.221  21.909  56.806  1.00  0.00     0.293 HD
ENDBRANCH   6  14
TORSDOF 4
ENDMDL
MODEL 4
REMARK VINA RESULT:    -5.949      3.340      7.654
REMARK INTER + INTRA:          -7.117
REMARK INTER:                  -6.971
REMARK INTRA:                  -0.145
REMARK UNBOUND:                -0.124
REMARK SMILES O=C([O-])C=Cc1ccc(O)c(O)c1
REMARK SMILES IDX 6 1 13 2 7 3 11 4 8 5 9 6 5 7 4 8 2 9 1 10 3 11 12 12 10 14
REMARK H PARENT 12 13 10 15
REMARK Flexibility Score: inf
ROOT
ATOM      1  C   UNL     1     -33.691  14.985  57.653  1.00  0.00    -0.022 A 
ATOM      2  C   UNL     1     -34.000  14.079  58.688  1.00  0.00     0.058 A 
ATOM      3  C   UNL     1     -34.532  15.046  56.531  1.00  0.00     0.012 A 
ATOM      4  C   UNL     1     -35.142  13.272  58.611  1.00  0.00     0.157 A 
ATOM      5  C   UNL     1     -35.673  14.244  56.454  1.00  0.00     0.051 A 
ATOM      6  C   UNL     1     -35.985  13.356  57.491  1.00  0.00     0.157 A 
ENDROOT
BRANCH   1   7
ATOM      7  C   UNL     1     -32.486  15.852  57.685  1.00  0.00     0.010 C 
ATOM      8  C   UNL     1     -31.776  16.181  56.597  1.00  0.00     0.025 C 
BRANCH   8   9
ATOM      9  C   UNL     1     -30.580  17.035  56.679  1.00  0.00     0.064 C 
ATOM     10  O   UNL     1     -30.397  17.929  55.813  1.00  0.00    -0.545 OA
ATOM     11  O   UNL     1     -29.650  16.872  57.699  1.00  0.00    -0.545 OA
ENDBRANCH   8   9
ENDBRANCH   1   7
BRANCH   4  12
ATOM     12  O   UNL     1     -35.419  12.390  59.655  1.00  0.00    -0.504 OA
ATOM     13  H   UNL     1     -36.307  12.392  60.140  1.00  0.00     0.293 HD
ENDBRANCH   4  12
BRANCH   6  14
ATOM     14  O   UNL     1     -37.125  12.558  57.411  1.00  0.00    -0.504 OA
ATOM     15  H   UNL     1     -38.027  12.944  57.157  1.00  0.00     0.293 HD
ENDBRANCH   6  14
TORSDOF 4
ENDMDL
MODEL 5
REMARK VINA RESULT:    -5.920      3.423      7.878
REMARK INTER + INTRA:          -7.083
REMARK INTER:                  -6.931
REMARK INTRA:                  -0.151
REMARK UNBOUND:                -0.124
REMARK SMILES O=C([O-])C=Cc1ccc(O)c(O)c1
REMARK SMILES IDX 6 1 13 2 7 3 11 4 8 5 9 6 5 7 4 8 2 9 1 10 3 11 12 12 10 14
REMARK H PARENT 12 13 10 15
REMARK Flexibility Score: inf
ROOT
ATOM      1  C   UNL     1     -32.644  13.900  56.807  1.00  0.00    -0.022 A 
ATOM      2  C   UNL     1     -32.987  12.926  55.846  1.00  0.00     0.058 A 
ATOM      3  C   UNL     1     -33.266  13.860  58.065  1.00  0.00     0.012 A 
ATOM      4  C   UNL     1     -33.913  11.921  56.149  1.00  0.00     0.157 A 
ATOM      5  C   UNL     1     -34.189  12.856  58.369  1.00  0.00     0.051 A 
ATOM      6  C   UNL     1     -34.515  11.882  57.417  1.00  0.00     0.157 A 
ENDROOT
BRANCH   1   7
ATOM      7  C   UNL     1     -31.677  14.991  56.528  1.00  0.00     0.010 C 
ATOM      8  C   UNL     1     -31.454  16.019  57.358  1.00  0.00     0.025 C 
BRANCH   8   9
ATOM      9  C   UNL     1     -30.492  17.085  57.034  1.00  0.00     0.064 C 
ATOM     10  O   UNL     1     -30.684  17.807  56.021  1.00  0.00    -0.545 OA
ATOM     11  O   UNL     1     -29.376  17.310  57.830  1.00  0.00    -0.545 OA
ENDBRANCH   8   9
ENDBRANCH   1   7
BRANCH   4  12
ATOM     12  O   UNL     1     -34.226  10.973  55.175  1.00  0.00    -0.504 OA
ATOM     13  H   UNL     1     -34.594  11.235  54.269  1.00  0.00     0.293 HD
ENDBRANCH   4  12
BRANCH   6  14
ATOM     14  O   UNL     1     -35.435  10.881  57.725  1.00  0.00    -0.504 OA
ATOM     15  H   UNL     1     -36.386  11.100  57.995  1.00  0.00     0.293 HD
ENDBRANCH   6  14
TORSDOF 4
ENDMDL
MODEL 6
REMARK VINA RESULT:    -5.903      2.899      7.174
REMARK INTER + INTRA:          -7.063
REMARK INTER:                  -6.940
REMARK INTRA:                  -0.123
REMARK UNBOUND:                -0.124
REMARK SMILES O=C([O-])C=Cc1ccc(O)c(O)c1
REMARK SMILES IDX 6 1 13 2 7 3 11 4 8 5 9 6 5 7 4 8 2 9 1 10 3 11 12 12 10 14
REMARK H PARENT 12 13 10 15
REMARK Flexibility Score: inf
ROOT
ATOM      1  C   UNL     1     -32.753  15.041  56.209  1.00  0.00    -0.022 A 
ATOM      2  C   UNL     1     -31.885  13.930  56.162  1.00  0.00     0.058 A 
ATOM      3  C   UNL     1     -34.108  14.857  55.895  1.00  0.00     0.012 A 
ATOM      4  C   UNL     1     -32.372  12.659  55.832  1.00  0.00     0.157 A 
ATOM      5  C   UNL     1     -34.596  13.590  55.567  1.00  0.00     0.051 A 
ATOM      6  C   UNL     1     -33.734  12.486  55.537  1.00  0.00     0.157 A 
ENDROOT
BRANCH   1   7
ATOM      7  C   UNL     1     -32.280  16.409  56.543  1.00  0.00     0.010 C 
ATOM      8  C   UNL     1     -30.999  16.793  56.467  1.00  0.00     0.025 C 
BRANCH   8   9
ATOM      9  C   UNL     1     -30.575  18.158  56.820  1.00  0.00     0.064 C 
ATOM     10  O   UNL     1     -30.184  18.939  55.914  1.00  0.00    -0.545 OA
ATOM     11  O   UNL     1     -30.602  18.600  58.137  1.00  0.00    -0.545 OA
ENDBRANCH   8   9
ENDBRANCH   1   7
BRANCH   4  12
ATOM     12  O   UNL     1     -31.486  11.583  55.798  1.00  0.00    -0.504 OA
ATOM     13  H   UNL     1     -31.620  10.758  56.369  1.00  0.00     0.293 HD
ENDBRANCH   4  12
BRANCH   6  14
ATOM     14  O   UNL     1     -34.224  11.223  55.211  1.00  0.00    -0.504 OA
ATOM     15  H   UNL     1     -34.899  10.748  55.799  1.00  0.00     0.293 HD
ENDBRANCH   6  14
TORSDOF 4
ENDMDL
MODEL 7
REMARK VINA RESULT:    -5.869      1.489      2.015
REMARK INTER + INTRA:          -7.022
REMARK INTER:                  -6.869
REMARK INTRA:                  -0.153
REMARK UNBOUND:                -0.124
REMARK SMILES O=C([O-])C=Cc1ccc(O)c(O)c1
REMARK SMILES IDX 6 1 13 2 7 3 11 4 8 5 9 6 5 7 4 8 2 9 1 10 3 11 12 12 10 14
REMARK H PARENT 12 13 10 15
REMARK Flexibility Score: inf
ROOT
ATOM      1  C   UNL     1     -30.152  17.216  57.277  1.00  0.00    -0.022 A 
ATOM      2  C   UNL     1     -28.747  17.121  57.343  1.00  0.00     0.058 A 
ATOM      3  C   UNL     1     -30.778  18.370  57.772  1.00  0.00     0.012 A 
ATOM      4  C   UNL     1     -27.986  18.171  57.871  1.00  0.00     0.157 A 
ATOM      5  C   UNL     1     -30.020  19.420  58.297  1.00  0.00     0.051 A 
ATOM      6  C   UNL     1     -28.624  19.328  58.347  1.00  0.00     0.157 A 
ENDROOT
BRANCH   1   7
ATOM      7  C   UNL     1     -31.001  16.124  56.736  1.00  0.00     0.010 C 
ATOM      8  C   UNL     1     -32.318  16.242  56.520  1.00  0.00     0.025 C 
BRANCH   8   9
ATOM      9  C   UNL     1     -33.123  15.128  55.993  1.00  0.00     0.064 C 
ATOM     10  O   UNL     1     -32.786  13.944  56.251  1.00  0.00    -0.545 OA
ATOM     11  O   UNL     1     -34.251  15.363  55.216  1.00  0.00    -0.545 OA
ENDBRANCH   8   9
ENDBRANCH   1   7
BRANCH   4  12
ATOM     12  O   UNL     1     -26.598  18.043  57.918  1.00  0.00    -0.504 OA
ATOM     13  H   UNL     1     -25.982  18.842  57.837  1.00  0.00     0.293 HD
ENDBRANCH   4  12
BRANCH   6  14
ATOM     14  O   UNL     1     -27.871  20.378  58.870  1.00  0.00    -0.504 OA
ATOM     15  H   UNL     1     -27.506  20.349  59.815  1.00  0.00     0.293 HD
ENDBRANCH   6  14
TORSDOF 4
ENDMDL
MODEL 8
REMARK VINA RESULT:    -5.868      3.229      7.720
REMARK INTER + INTRA:          -7.022
REMARK INTER:                  -6.893
REMARK INTRA:                  -0.128
REMARK UNBOUND:                -0.124
REMARK SMILES O=C([O-])C=Cc1ccc(O)c(O)c1
REMARK SMILES IDX 6 1 13 2 7 3 11 4 8 5 9 6 5 7 4 8 2 9 1 10 3 11 12 12 10 14
REMARK H PARENT 12 13 10 15
REMARK Flexibility Score: inf
ROOT
ATOM      1  C   UNL     1     -32.908  14.345  55.978  1.00  0.00    -0.022 A 
ATOM      2  C   UNL     1     -34.159  14.837  55.553  1.00  0.00     0.058 A 
ATOM      3  C   UNL     1     -32.722  12.957  56.074  1.00  0.00     0.012 A 
ATOM      4  C   UNL     1     -35.192  13.956  55.209  1.00  0.00     0.157 A 
ATOM      5  C   UNL     1     -33.751  12.077  55.729  1.00  0.00     0.051 A 
ATOM      6  C   UNL     1     -34.987  12.570  55.293  1.00  0.00     0.157 A 
ENDROOT
BRANCH   1   7
ATOM      7  C   UNL     1     -31.787  15.240  56.364  1.00  0.00     0.010 C 
ATOM      8  C   UNL     1     -31.956  16.445  56.923  1.00  0.00     0.025 C 
BRANCH   8   9
ATOM      9  C   UNL     1     -30.815  17.304  57.279  1.00  0.00     0.064 C 
ATOM     10  O   UNL     1     -29.664  16.802  57.364  1.00  0.00    -0.545 OA
ATOM     11  O   UNL     1     -30.987  18.662  57.521  1.00  0.00    -0.545 OA
ENDBRANCH   8   9
ENDBRANCH   1   7
BRANCH   4  12
ATOM     12  O   UNL     1     -36.415  14.479  54.790  1.00  0.00    -0.504 OA
ATOM     13  H   UNL     1     -36.535  14.902  53.878  1.00  0.00     0.293 HD
ENDBRANCH   4  12
BRANCH   6  14
ATOM     14  O   UNL     1     -36.010  11.689  54.948  1.00  0.00    -0.504 OA
ATOM     15  H   UNL     1     -35.885  10.985  54.230  1.00  0.00     0.293 HD
ENDBRANCH   6  14
TORSDOF 4
ENDMDL
MODEL 9
REMARK VINA RESULT:    -5.851      2.983      6.798
REMARK INTER + INTRA:          -7.002
REMARK INTER:                  -6.878
REMARK INTRA:                  -0.124
REMARK UNBOUND:                -0.124
REMARK SMILES O=C([O-])C=Cc1ccc(O)c(O)c1
REMARK SMILES IDX 6 1 13 2 7 3 11 4 8 5 9 6 5 7 4 8 2 9 1 10 3 11 12 12 10 14
REMARK H PARENT 12 13 10 15
REMARK Flexibility Score: inf
ROOT
ATOM      1  C   UNL     1     -32.436  15.086  57.329  1.00  0.00    -0.022 A 
ATOM      2  C   UNL     1     -33.118  15.301  58.545  1.00  0.00     0.058 A 
ATOM      3  C   UNL     1     -32.493  13.815  56.736  1.00  0.00     0.012 A 
ATOM      4  C   UNL     1     -33.861  14.272  59.137  1.00  0.00     0.157 A 
ATOM      5  C   UNL     1     -33.236  12.788  57.324  1.00  0.00     0.051 A 
ATOM      6  C   UNL     1     -33.924  13.011  58.523  1.00  0.00     0.157 A 
ENDROOT
BRANCH   1   7
ATOM      7  C   UNL     1     -31.627  16.142  56.670  1.00  0.00     0.010 C 
ATOM      8  C   UNL     1     -31.208  17.254  57.289  1.00  0.00     0.025 C 
BRANCH   8   9
ATOM      9  C   UNL     1     -30.417  18.280  56.591  1.00  0.00     0.064 C 
ATOM     10  O   UNL     1     -30.456  19.472  56.992  1.00  0.00    -0.545 OA
ATOM     11  O   UNL     1     -29.624  17.954  55.497  1.00  0.00    -0.545 OA
ENDBRANCH   8   9
ENDBRANCH   1   7
BRANCH   4  12
ATOM     12  O   UNL     1     -34.525  14.523  60.337  1.00  0.00    -0.504 OA
ATOM     13  H   UNL     1     -35.081  13.815  60.802  1.00  0.00     0.293 HD
ENDBRANCH   4  12
BRANCH   6  14
ATOM     14  O   UNL     1     -34.665  11.985  59.107  1.00  0.00    -0.504 OA
ATOM     15  H   UNL     1     -35.384  12.175  59.795  1.00  0.00     0.293 HD
ENDBRANCH   6  14
TORSDOF 4
ENDMDL
