MODEL 1
REMARK VINA RESULT:    -5.810      0.000      0.000
REMARK INTER + INTRA:          -5.980
REMARK INTER:                  -5.980
REMARK INTRA:                   0.000
REMARK UNBOUND:                 0.000
REMARK SMILES O=c1ccc2ccc(O)cc2o1
REMARK SMILES IDX 6 1 7 2 8 3 10 4 11 5 5 6 4 7 3 8 2 9 1 10 12 11 9 12
REMARK H PARENT 9 13
REMARK Flexibility Score: inf
ROOT
ATOM      1  C   UNL     1      58.657 154.181   1.816  1.00  0.00     0.016 A 
ATOM      2  C   UNL     1      59.189 154.502   0.562  1.00  0.00     0.047 A 
ATOM      3  C   UNL     1      60.458 154.039   0.193  1.00  0.00     0.119 A 
ATOM      4  C   UNL     1      61.202 153.252   1.084  1.00  0.00     0.094 A 
ATOM      5  C   UNL     1      60.679 152.927   2.340  1.00  0.00     0.142 A 
ATOM      6  C   UNL     1      59.398 153.395   2.709  1.00  0.00     0.018 A 
ATOM      7  C   UNL     1      58.901 153.054   3.970  1.00  0.00     0.019 A 
ATOM      8  C   UNL     1      59.677 152.269   4.822  1.00  0.00     0.094 A 
ATOM      9  C   UNL     1      60.937 151.840   4.389  1.00  0.00     0.336 A 
ATOM     10  O   UNL     1      61.652 151.131   5.144  1.00  0.00    -0.246 OA
ATOM     11  O   UNL     1      61.386 152.179   3.184  1.00  0.00    -0.423 OA
ENDROOT
BRANCH   3  12
ATOM     12  O   UNL     1      60.971 154.368  -1.061  1.00  0.00    -0.508 OA
ATOM     13  H   UNL     1      60.547 154.022  -1.913  1.00  0.00     0.293 HD
ENDBRANCH   3  12
TORSDOF 1
ENDMDL
MODEL 2
REMARK VINA RESULT:    -5.642      5.081      5.987
REMARK INTER + INTRA:          -5.807
REMARK INTER:                  -5.807
REMARK INTRA:                   0.000
REMARK UNBOUND:                 0.000
REMARK SMILES O=c1ccc2ccc(O)cc2o1
REMARK SMILES IDX 6 1 7 2 8 3 10 4 11 5 5 6 4 7 3 8 2 9 1 10 12 11 9 12
REMARK H PARENT 9 13
REMARK Flexibility Score: inf
ROOT
ATOM      1  C   UNL     1      64.635 149.753   4.872  1.00  0.00     0.016 A 
ATOM      2  C   UNL     1      64.946 151.116   4.885  1.00  0.00     0.047 A 
ATOM      3  C   UNL     1      64.017 152.049   5.361  1.00  0.00     0.119 A 
ATOM      4  C   UNL     1      62.766 151.617   5.825  1.00  0.00     0.094 A 
ATOM      5  C   UNL     1      62.446 150.255   5.815  1.00  0.00     0.142 A 
ATOM      6  C   UNL     1      63.386 149.317   5.334  1.00  0.00     0.018 A 
ATOM      7  C   UNL     1      63.038 147.963   5.337  1.00  0.00     0.019 A 
ATOM      8  C   UNL     1      61.782 147.580   5.808  1.00  0.00     0.094 A 
ATOM      9  C   UNL     1      60.902 148.565   6.270  1.00  0.00     0.336 A 
ATOM     10  O   UNL     1      59.764 148.239   6.699  1.00  0.00    -0.246 OA
ATOM     11  O   UNL     1      61.258 149.847   6.257  1.00  0.00    -0.423 OA
ENDROOT
BRANCH   3  12
ATOM     12  O   UNL     1      64.346 153.404   5.368  1.00  0.00    -0.508 OA
ATOM     13  H   UNL     1      64.811 153.832   6.159  1.00  0.00     0.293 HD
ENDBRANCH   3  12
TORSDOF 1
ENDMDL
MODEL 3
REMARK VINA RESULT:    -5.497      5.397      6.686
REMARK INTER + INTRA:          -5.658
REMARK INTER:                  -5.658
REMARK INTRA:                   0.000
REMARK UNBOUND:                 0.000
REMARK SMILES O=c1ccc2ccc(O)cc2o1
REMARK SMILES IDX 6 1 7 2 8 3 10 4 11 5 5 6 4 7 3 8 2 9 1 10 12 11 9 12
REMARK H PARENT 9 13
REMARK Flexibility Score: inf
ROOT
ATOM      1  C   UNL     1      62.770 147.774   5.392  1.00  0.00     0.016 A 
ATOM      2  C   UNL     1      61.439 147.663   5.808  1.00  0.00     0.047 A 
ATOM      3  C   UNL     1      60.733 148.796   6.232  1.00  0.00     0.119 A 
ATOM      4  C   UNL     1      61.362 150.049   6.241  1.00  0.00     0.094 A 
ATOM      5  C   UNL     1      62.693 150.170   5.827  1.00  0.00     0.142 A 
ATOM      6  C   UNL     1      63.402 149.025   5.401  1.00  0.00     0.018 A 
ATOM      7  C   UNL     1      64.730 149.177   4.992  1.00  0.00     0.019 A 
ATOM      8  C   UNL     1      65.314 150.443   5.019  1.00  0.00     0.094 A 
ATOM      9  C   UNL     1      64.551 151.533   5.454  1.00  0.00     0.336 A 
ATOM     10  O   UNL     1      65.060 152.683   5.485  1.00  0.00    -0.246 OA
ATOM     11  O   UNL     1      63.288 151.361   5.836  1.00  0.00    -0.423 OA
ENDROOT
BRANCH   3  12
ATOM     12  O   UNL     1      59.407 148.665   6.642  1.00  0.00    -0.508 OA
ATOM     13  H   UNL     1      58.640 148.743   5.985  1.00  0.00     0.293 HD
ENDBRANCH   3  12
TORSDOF 1
ENDMDL
MODEL 4
REMARK VINA RESULT:    -5.398      5.078      5.978
REMARK INTER + INTRA:          -5.556
REMARK INTER:                  -5.556
REMARK INTRA:                   0.000
REMARK UNBOUND:                 0.000
REMARK SMILES O=c1ccc2ccc(O)cc2o1
REMARK SMILES IDX 6 1 7 2 8 3 10 4 11 5 5 6 4 7 3 8 2 9 1 10 12 11 9 12
REMARK H PARENT 9 13
REMARK Flexibility Score: inf
ROOT
ATOM      1  C   UNL     1      65.091 151.205   5.156  1.00  0.00     0.016 A 
ATOM      2  C   UNL     1      64.876 152.562   5.416  1.00  0.00     0.047 A 
ATOM      3  C   UNL     1      63.633 153.003   5.888  1.00  0.00     0.119 A 
ATOM      4  C   UNL     1      62.598 152.082   6.099  1.00  0.00     0.094 A 
ATOM      5  C   UNL     1      62.804 150.722   5.841  1.00  0.00     0.142 A 
ATOM      6  C   UNL     1      64.059 150.281   5.365  1.00  0.00     0.018 A 
ATOM      7  C   UNL     1      64.235 148.917   5.116  1.00  0.00     0.019 A 
ATOM      8  C   UNL     1      63.176 148.037   5.341  1.00  0.00     0.094 A 
ATOM      9  C   UNL     1      61.961 148.546   5.813  1.00  0.00     0.336 A 
ATOM     10  O   UNL     1      60.994 147.768   6.022  1.00  0.00    -0.246 OA
ATOM     11  O   UNL     1      61.820 149.849   6.042  1.00  0.00    -0.423 OA
ENDROOT
BRANCH   3  12
ATOM     12  O   UNL     1      63.438 154.360   6.143  1.00  0.00    -0.508 OA
ATOM     13  H   UNL     1      63.107 154.687   7.043  1.00  0.00     0.293 HD
ENDBRANCH   3  12
TORSDOF 1
ENDMDL
MODEL 5
REMARK VINA RESULT:    -5.323      1.554      2.136
REMARK INTER + INTRA:          -5.479
REMARK INTER:                  -5.479
REMARK INTRA:                   0.000
REMARK UNBOUND:                 0.000
REMARK SMILES O=c1ccc2ccc(O)cc2o1
REMARK SMILES IDX 6 1 7 2 8 3 10 4 11 5 5 6 4 7 3 8 2 9 1 10 12 11 9 12
REMARK H PARENT 9 13
REMARK Flexibility Score: inf
ROOT
ATOM      1  C   UNL     1      59.338 152.938   3.682  1.00  0.00     0.016 A 
ATOM      2  C   UNL     1      58.885 153.548   2.507  1.00  0.00     0.047 A 
ATOM      3  C   UNL     1      59.708 153.602   1.376  1.00  0.00     0.119 A 
ATOM      4  C   UNL     1      60.994 153.044   1.419  1.00  0.00     0.094 A 
ATOM      5  C   UNL     1      61.456 152.432   2.589  1.00  0.00     0.142 A 
ATOM      6  C   UNL     1      60.622 152.380   3.729  1.00  0.00     0.018 A 
ATOM      7  C   UNL     1      61.110 151.762   4.884  1.00  0.00     0.019 A 
ATOM      8  C   UNL     1      62.396 151.221   4.880  1.00  0.00     0.094 A 
ATOM      9  C   UNL     1      63.165 151.310   3.714  1.00  0.00     0.336 A 
ATOM     10  O   UNL     1      64.328 150.828   3.690  1.00  0.00    -0.246 OA
ATOM     11  O   UNL     1      62.676 151.903   2.628  1.00  0.00    -0.423 OA
ENDROOT
BRANCH   3  12
ATOM     12  O   UNL     1      59.239 154.213   0.214  1.00  0.00    -0.508 OA
ATOM     13  H   UNL     1      59.047 153.678  -0.625  1.00  0.00     0.293 HD
ENDBRANCH   3  12
TORSDOF 1
ENDMDL
MODEL 6
REMARK VINA RESULT:    -5.290     20.026     21.068
REMARK INTER + INTRA:          -5.445
REMARK INTER:                  -5.445
REMARK INTRA:                   0.000
REMARK UNBOUND:                 0.000
REMARK SMILES O=c1ccc2ccc(O)cc2o1
REMARK SMILES IDX 6 1 7 2 8 3 10 4 11 5 5 6 4 7 3 8 2 9 1 10 12 11 9 12
REMARK H PARENT 9 13
REMARK Flexibility Score: inf
ROOT
ATOM      1  C   UNL     1      72.802 137.589  -8.761  1.00  0.00     0.016 A 
ATOM      2  C   UNL     1      73.119 138.479  -9.791  1.00  0.00     0.047 A 
ATOM      3  C   UNL     1      72.393 139.666  -9.949  1.00  0.00     0.119 A 
ATOM      4  C   UNL     1      71.340 139.964  -9.072  1.00  0.00     0.094 A 
ATOM      5  C   UNL     1      71.015 139.079  -8.038  1.00  0.00     0.142 A 
ATOM      6  C   UNL     1      71.750 137.883  -7.882  1.00  0.00     0.018 A 
ATOM      7  C   UNL     1      71.403 137.018  -6.840  1.00  0.00     0.019 A 
ATOM      8  C   UNL     1      70.348 137.356  -5.993  1.00  0.00     0.094 A 
ATOM      9  C   UNL     1      69.664 138.558  -6.208  1.00  0.00     0.336 A 
ATOM     10  O   UNL     1      68.710 138.881  -5.453  1.00  0.00    -0.246 OA
ATOM     11  O   UNL     1      70.016 139.364  -7.206  1.00  0.00    -0.423 OA
ENDROOT
BRANCH   3  12
ATOM     12  O   UNL     1      72.724 140.542 -10.981  1.00  0.00    -0.508 OA
ATOM     13  H   UNL     1      72.747 141.545 -10.838  1.00  0.00     0.293 HD
ENDBRANCH   3  12
TORSDOF 1
ENDMDL
MODEL 7
REMARK VINA RESULT:    -5.147      1.639      2.536
REMARK INTER + INTRA:          -5.297
REMARK INTER:                  -5.297
REMARK INTRA:                   0.000
REMARK UNBOUND:                 0.000
REMARK SMILES O=c1ccc2ccc(O)cc2o1
REMARK SMILES IDX 6 1 7 2 8 3 10 4 11 5 5 6 4 7 3 8 2 9 1 10 12 11 9 12
REMARK H PARENT 9 13
REMARK Flexibility Score: inf
ROOT
ATOM      1  C   UNL     1      61.250 152.664   1.607  1.00  0.00     0.016 A 
ATOM      2  C   UNL     1      60.207 153.420   1.062  1.00  0.00     0.047 A 
ATOM      3  C   UNL     1      59.103 153.774   1.848  1.00  0.00     0.119 A 
ATOM      4  C   UNL     1      59.041 153.367   3.189  1.00  0.00     0.094 A 
ATOM      5  C   UNL     1      60.079 152.611   3.743  1.00  0.00     0.142 A 
ATOM      6  C   UNL     1      61.191 152.256   2.946  1.00  0.00     0.018 A 
ATOM      7  C   UNL     1      62.213 151.500   3.526  1.00  0.00     0.019 A 
ATOM      8  C   UNL     1      62.107 151.118   4.864  1.00  0.00     0.094 A 
ATOM      9  C   UNL     1      60.977 151.506   5.592  1.00  0.00     0.336 A 
ATOM     10  O   UNL     1      60.863 151.171   6.800  1.00  0.00    -0.246 OA
ATOM     11  O   UNL     1      60.019 152.226   5.016  1.00  0.00    -0.423 OA
ENDROOT
BRANCH   3  12
ATOM     12  O   UNL     1      58.074 154.528   1.288  1.00  0.00    -0.508 OA
ATOM     13  H   UNL     1      58.102 155.541   1.283  1.00  0.00     0.293 HD
ENDBRANCH   3  12
TORSDOF 1
ENDMDL
MODEL 8
REMARK VINA RESULT:    -5.133      3.573      5.557
REMARK INTER + INTRA:          -5.283
REMARK INTER:                  -5.283
REMARK INTRA:                   0.000
REMARK UNBOUND:                 0.000
REMARK SMILES O=c1ccc2ccc(O)cc2o1
REMARK SMILES IDX 6 1 7 2 8 3 10 4 11 5 5 6 4 7 3 8 2 9 1 10 12 11 9 12
REMARK H PARENT 9 13
REMARK Flexibility Score: inf
ROOT
ATOM      1  C   UNL     1      63.882 151.145   3.533  1.00  0.00     0.016 A 
ATOM      2  C   UNL     1      64.890 150.325   4.051  1.00  0.00     0.047 A 
ATOM      3  C   UNL     1      64.710 149.674   5.278  1.00  0.00     0.119 A 
ATOM      4  C   UNL     1      63.516 149.846   5.993  1.00  0.00     0.094 A 
ATOM      5  C   UNL     1      62.503 150.664   5.482  1.00  0.00     0.142 A 
ATOM      6  C   UNL     1      62.688 151.319   4.244  1.00  0.00     0.018 A 
ATOM      7  C   UNL     1      61.658 152.130   3.759  1.00  0.00     0.019 A 
ATOM      8  C   UNL     1      60.488 152.271   4.505  1.00  0.00     0.094 A 
ATOM      9  C   UNL     1      60.375 151.591   5.723  1.00  0.00     0.336 A 
ATOM     10  O   UNL     1      59.327 151.705   6.411  1.00  0.00    -0.246 OA
ATOM     11  O   UNL     1      61.370 150.825   6.162  1.00  0.00    -0.423 OA
ENDROOT
BRANCH   3  12
ATOM     12  O   UNL     1      65.725 148.860   5.778  1.00  0.00    -0.508 OA
ATOM     13  H   UNL     1      66.138 148.124   5.218  1.00  0.00     0.293 HD
ENDBRANCH   3  12
TORSDOF 1
ENDMDL
MODEL 9
REMARK VINA RESULT:    -5.100     20.541     21.819
REMARK INTER + INTRA:          -5.249
REMARK INTER:                  -5.249
REMARK INTRA:                   0.000
REMARK UNBOUND:                 0.000
REMARK SMILES O=c1ccc2ccc(O)cc2o1
REMARK SMILES IDX 6 1 7 2 8 3 10 4 11 5 5 6 4 7 3 8 2 9 1 10 12 11 9 12
REMARK H PARENT 9 13
REMARK Flexibility Score: inf
ROOT
ATOM      1  C   UNL     1      69.791 139.673  -8.466  1.00  0.00     0.016 A 
ATOM      2  C   UNL     1      69.517 139.270  -7.156  1.00  0.00     0.047 A 
ATOM      3  C   UNL     1      70.358 138.357  -6.507  1.00  0.00     0.119 A 
ATOM      4  C   UNL     1      71.479 137.842  -7.173  1.00  0.00     0.094 A 
ATOM      5  C   UNL     1      71.761 138.240  -8.484  1.00  0.00     0.142 A 
ATOM      6  C   UNL     1      70.911 139.161  -9.136  1.00  0.00     0.018 A 
ATOM      7  C   UNL     1      71.217 139.540 -10.446  1.00  0.00     0.019 A 
ATOM      8  C   UNL     1      72.343 139.001 -11.069  1.00  0.00     0.094 A 
ATOM      9  C   UNL     1      73.140 138.094 -10.361  1.00  0.00     0.336 A 
ATOM     10  O   UNL     1      74.160 137.597 -10.906  1.00  0.00    -0.246 OA
ATOM     11  O   UNL     1      72.826 137.751  -9.115  1.00  0.00    -0.423 OA
ENDROOT
BRANCH   3  12
ATOM     12  O   UNL     1      70.070 137.967  -5.200  1.00  0.00    -0.508 OA
ATOM     13  H   UNL     1      69.978 138.645  -4.453  1.00  0.00     0.293 HD
ENDBRANCH   3  12
TORSDOF 1
ENDMDL
