MODEL 1
REMARK VINA RESULT:    50.072      0.000      0.000
REMARK INTER + INTRA:          57.242
REMARK INTER:                  57.390
REMARK INTRA:                  -0.148
REMARK UNBOUND:                -0.148
REMARK SMILES C=C(C)[C@@H]1CC[C@@]2(C(=O)[O-])CC[C@@]3(C)[C@@H](CC[C@@H]4[C@@]5(C)CC[C@H](O)C(C)(C)[C@H]5CC[C@]43C)[C@@H]12
REMARK SMILES IDX 7 1 6 2 33 3 11 4 5 5 15 6 4 7 12 8 16 9 13 10 17 11 31 12
REMARK SMILES IDX 14 13 18 14 30 15 32 16 19 17 29 18 21 19 20 20 28 21 22 22
REMARK SMILES IDX 25 23 23 24 26 25 27 26 8 27 9 28 10 29 2 30 3 31 1 32 24 33
REMARK H PARENT 24 34
REMARK Flexibility Score: inf
ROOT
ATOM      1  C   UNL     1      12.966  31.324 -21.040  1.00  0.00     0.014 C 
ATOM      2  C   UNL     1      12.852  30.316 -22.202  1.00  0.00     0.014 C 
ATOM      3  C   UNL     1      11.584  32.037 -21.038  1.00  0.00     0.012 C 
ATOM      4  C   UNL     1      14.162  32.324 -21.246  1.00  0.00     0.014 C 
ATOM      5  C   UNL     1      11.921  30.924 -23.233  1.00  0.00     0.009 C 
ATOM      6  C   UNL     1      11.684  33.440 -20.362  1.00  0.00     0.000 C 
ATOM      7  C   UNL     1      11.060  31.962 -22.499  1.00  0.00     0.018 C 
ATOM      8  C   UNL     1      13.793  33.727 -21.782  1.00  0.00     0.008 C 
ATOM      9  C   UNL     1      10.347  34.072 -19.898  1.00  0.00     0.005 C 
ATOM     10  C   UNL     1      12.623  34.490 -21.046  1.00  0.00    -0.024 C 
ATOM     11  C   UNL     1      10.543  35.511 -19.329  1.00  0.00     0.005 C 
ATOM     12  C   UNL     1      13.132  35.536 -19.901  1.00  0.00    -0.024 C 
ATOM     13  C   UNL     1      11.817  35.281 -22.166  1.00  0.00     0.012 C 
ATOM     14  C   UNL     1      11.995  35.744 -18.804  1.00  0.00     0.002 C 
ATOM     15  C   UNL     1      14.354  35.011 -19.073  1.00  0.00     0.008 C 
ATOM     16  C   UNL     1      13.604  36.860 -20.604  1.00  0.00     0.012 C 
ATOM     17  C   UNL     1      12.237  36.909 -17.746  1.00  0.00    -0.026 C 
ATOM     18  C   UNL     1      14.528  35.643 -17.654  1.00  0.00     0.005 C 
ATOM     19  C   UNL     1      11.408  36.546 -16.459  1.00  0.00     0.010 C 
ATOM     20  C   UNL     1      11.702  38.263 -18.308  1.00  0.00     0.012 C 
ATOM     21  C   UNL     1      13.801  37.010 -17.408  1.00  0.00     0.003 C 
ATOM     22  C   UNL     1      11.777  37.329 -15.203  1.00  0.00     0.033 C 
ATOM     23  C   UNL     1      14.166  37.693 -16.012  1.00  0.00    -0.006 C 
ATOM     24  C   UNL     1      13.256  37.154 -14.873  1.00  0.00     0.120 C 
ATOM     25  C   UNL     1      14.053  39.242 -16.124  1.00  0.00     0.014 C 
ATOM     26  C   UNL     1      15.643  37.425 -15.611  1.00  0.00     0.014 C 
ENDROOT
BRANCH   1  27
ATOM     27  C   UNL     1      13.217  30.544 -19.755  1.00  0.00     0.048 C 
ATOM     28  O   UNL     1      12.304  30.455 -18.889  1.00  0.00    -0.550 OA
ATOM     29  O   UNL     1      14.414  29.868 -19.538  1.00  0.00    -0.550 OA
ENDBRANCH   1  27
BRANCH   7  30
ATOM     30  C   UNL     1       9.568  31.644 -22.577  1.00  0.00    -0.077 C 
ATOM     31  C   UNL     1       9.013  30.895 -23.761  1.00  0.00     0.039 C 
ATOM     32  C   UNL     1       8.727  32.013 -21.596  1.00  0.00     0.008 C 
ENDBRANCH   7  30
BRANCH  24  33
ATOM     33  O   UNL     1      13.519  37.817 -13.659  1.00  0.00    -0.393 OA
ATOM     34  H   UNL     1      12.646  38.094 -13.278  1.00  0.00     0.210 HD
ENDBRANCH  24  33
TORSDOF 3
ENDMDL
