MODEL 1
REMARK VINA RESULT:    -3.846      0.000      0.000
REMARK INTER + INTRA:          -4.905
REMARK INTER:                  -4.633
REMARK INTRA:                  -0.272
REMARK UNBOUND:                -0.272
REMARK SMILES O=c1ccn([C@H]2O[C@H](CO)[C@H](O)[C@H]2O)c(=O)[nH]1
REMARK SMILES IDX 6 1 13 2 11 3 8 4 7 5 5 6 3 7 4 8 2 9 17 10 1 11 15 12 16 14
REMARK SMILES IDX 14 15 12 17 9 19 10 20
REMARK H PARENT 17 13 14 16 12 18 10 21
REMARK Flexibility Score: inf
ROOT
ATOM      1  C   UNL     1     157.141 160.913 169.327  1.00  0.00     0.255 C 
ATOM      2  C   UNL     1     155.814 160.627 170.034  1.00  0.00     0.196 C 
ATOM      3  C   UNL     1     154.957 161.776 169.573  1.00  0.00     0.179 C 
ATOM      4  C   UNL     1     155.534 162.058 168.183  1.00  0.00     0.178 C 
ATOM      5  O   UNL     1     156.900 161.701 168.177  1.00  0.00    -0.347 OA
ENDROOT
BRANCH   1   6
ATOM      6  N   UNL     1     157.865 159.670 168.982  1.00  0.00    -0.271 N 
ATOM      7  C   UNL     1     158.303 157.876 167.449  1.00  0.00     0.090 A 
ATOM      8  C   UNL     1     157.648 159.061 167.775  1.00  0.00     0.099 A 
ATOM      9  C   UNL     1     159.170 157.315 168.381  1.00  0.00     0.253 A 
ATOM     10  N   UNL     1     159.356 157.923 169.581  1.00  0.00    -0.274 N 
ATOM     11  O   UNL     1     159.777 156.244 168.112  1.00  0.00    -0.269 OA
ATOM     12  C   UNL     1     158.710 159.081 169.892  1.00  0.00     0.330 A 
ATOM     13  H   UNL     1     160.002 157.490 170.281  1.00  0.00     0.175 HD
ATOM     14  O   UNL     1     158.896 159.602 171.026  1.00  0.00    -0.248 OA
ENDBRANCH   1   6
BRANCH   2  15
ATOM     15  O   UNL     1     155.264 159.408 169.598  1.00  0.00    -0.386 OA
ATOM     16  H   UNL     1     154.589 159.633 168.906  1.00  0.00     0.211 HD
ENDBRANCH   2  15
BRANCH   3  17
ATOM     17  O   UNL     1     155.141 162.867 170.443  1.00  0.00    -0.387 OA
ATOM     18  H   UNL     1     155.641 162.525 171.230  1.00  0.00     0.211 HD
ENDBRANCH   3  17
BRANCH   4  19
ATOM     19  C   UNL     1     155.361 163.514 167.726  1.00  0.00     0.191 C 
BRANCH  19  20
ATOM     20  O   UNL     1     156.313 164.336 168.345  1.00  0.00    -0.394 OA
ATOM     21  H   UNL     1     156.556 163.897 169.202  1.00  0.00     0.210 HD
ENDBRANCH  19  20
ENDBRANCH   4  19
TORSDOF 5
ENDMDL
MODEL 2
REMARK VINA RESULT:    -3.838     11.457     14.068
REMARK INTER + INTRA:          -4.895
REMARK INTER:                  -4.629
REMARK INTRA:                  -0.266
REMARK UNBOUND:                -0.272
REMARK SMILES O=c1ccn([C@H]2O[C@H](CO)[C@H](O)[C@H]2O)c(=O)[nH]1
REMARK SMILES IDX 6 1 13 2 11 3 8 4 7 5 5 6 3 7 4 8 2 9 17 10 1 11 15 12 16 14
REMARK SMILES IDX 14 15 12 17 9 19 10 20
REMARK H PARENT 17 13 14 16 12 18 10 21
REMARK Flexibility Score: inf
ROOT
ATOM      1  C   UNL     1     169.660 157.067 169.331  1.00  0.00     0.255 C 
ATOM      2  C   UNL     1     169.947 155.745 170.048  1.00  0.00     0.196 C 
ATOM      3  C   UNL     1     168.812 154.876 169.573  1.00  0.00     0.179 C 
ATOM      4  C   UNL     1     168.547 155.446 168.177  1.00  0.00     0.178 C 
ATOM      5  O   UNL     1     168.892 156.814 168.171  1.00  0.00    -0.347 OA
ENDROOT
BRANCH   1   6
ATOM      6  N   UNL     1     170.902 157.800 169.003  1.00  0.00    -0.271 N 
ATOM      7  C   UNL     1     172.714 158.250 167.494  1.00  0.00     0.090 A 
ATOM      8  C   UNL     1     171.530 157.586 167.804  1.00  0.00     0.099 A 
ATOM      9  C   UNL     1     173.254 159.122 168.433  1.00  0.00     0.253 A 
ATOM     10  N   UNL     1     172.629 159.306 169.624  1.00  0.00    -0.274 N 
ATOM     11  O   UNL     1     174.325 159.737 168.178  1.00  0.00    -0.269 OA
ATOM     12  C   UNL     1     171.472 158.651 169.920  1.00  0.00     0.330 A 
ATOM     13  H   UNL     1     173.047 159.956 170.329  1.00  0.00     0.175 HD
ATOM     14  O   UNL     1     170.933 158.834 171.046  1.00  0.00    -0.248 OA
ENDBRANCH   1   6
BRANCH   2  15
ATOM     15  O   UNL     1     171.177 155.204 169.634  1.00  0.00    -0.386 OA
ATOM     16  H   UNL     1     171.039 154.225 169.543  1.00  0.00     0.211 HD
ENDBRANCH   2  15
BRANCH   3  17
ATOM     17  O   UNL     1     167.706 155.055 170.425  1.00  0.00    -0.387 OA
ATOM     18  H   UNL     1     167.492 156.024 170.417  1.00  0.00     0.211 HD
ENDBRANCH   3  17
BRANCH   4  19
ATOM     19  C   UNL     1     167.100 155.258 167.697  1.00  0.00     0.191 C 
BRANCH  19  20
ATOM     20  O   UNL     1     166.256 156.187 168.321  1.00  0.00    -0.394 OA
ATOM     21  H   UNL     1     165.817 155.713 169.075  1.00  0.00     0.210 HD
ENDBRANCH  19  20
ENDBRANCH   4  19
TORSDOF 5
ENDMDL
MODEL 3
REMARK VINA RESULT:    -3.833      7.048     10.204
REMARK INTER + INTRA:          -4.889
REMARK INTER:                  -4.618
REMARK INTRA:                  -0.271
REMARK UNBOUND:                -0.272
REMARK SMILES O=c1ccn([C@H]2O[C@H](CO)[C@H](O)[C@H]2O)c(=O)[nH]1
REMARK SMILES IDX 6 1 13 2 11 3 8 4 7 5 5 6 3 7 4 8 2 9 17 10 1 11 15 12 16 14
REMARK SMILES IDX 14 15 12 17 9 19 10 20
REMARK H PARENT 17 13 14 16 12 18 10 21
REMARK Flexibility Score: inf
ROOT
ATOM      1  C   UNL     1     161.007 157.056 161.272  1.00  0.00     0.255 C 
ATOM      2  C   UNL     1     160.722 155.726 160.570  1.00  0.00     0.196 C 
ATOM      3  C   UNL     1     161.879 154.875 161.026  1.00  0.00     0.179 C 
ATOM      4  C   UNL     1     162.165 155.457 162.413  1.00  0.00     0.178 C 
ATOM      5  O   UNL     1     161.803 156.821 162.418  1.00  0.00    -0.347 OA
ENDROOT
BRANCH   1   6
ATOM      6  N   UNL     1     159.762 157.775 161.622  1.00  0.00    -0.271 N 
ATOM      7  C   UNL     1     157.971 158.202 163.163  1.00  0.00     0.090 A 
ATOM      8  C   UNL     1     159.157 157.553 162.831  1.00  0.00     0.099 A 
ATOM      9  C   UNL     1     157.405 159.070 162.234  1.00  0.00     0.253 A 
ATOM     10  N   UNL     1     158.008 159.262 161.032  1.00  0.00    -0.274 N 
ATOM     11  O   UNL     1     156.332 159.672 162.508  1.00  0.00    -0.269 OA
ATOM     12  C   UNL     1     159.168 158.620 160.717  1.00  0.00     0.330 A 
ATOM     13  H   UNL     1     157.571 159.908 160.336  1.00  0.00     0.175 HD
ATOM     14  O   UNL     1     159.685 158.811 159.582  1.00  0.00    -0.248 OA
ENDBRANCH   1   6
BRANCH   2  15
ATOM     15  O   UNL     1     159.509 155.171 161.014  1.00  0.00    -0.386 OA
ATOM     16  H   UNL     1     158.785 155.662 160.544  1.00  0.00     0.211 HD
ENDBRANCH   2  15
BRANCH   3  17
ATOM     17  O   UNL     1     162.963 155.063 160.150  1.00  0.00    -0.387 OA
ATOM     18  H   UNL     1     162.846 154.416 159.405  1.00  0.00     0.211 HD
ENDBRANCH   3  17
BRANCH   4  19
ATOM     19  C   UNL     1     163.625 155.292 162.862  1.00  0.00     0.191 C 
BRANCH  19  20
ATOM     20  O   UNL     1     164.437 156.254 162.245  1.00  0.00    -0.394 OA
ATOM     21  H   UNL     1     163.833 156.845 161.722  1.00  0.00     0.210 HD
ENDBRANCH  19  20
ENDBRANCH   4  19
TORSDOF 5
ENDMDL
MODEL 4
REMARK VINA RESULT:    -3.832     10.219     13.392
REMARK INTER + INTRA:          -4.888
REMARK INTER:                  -4.629
REMARK INTRA:                  -0.259
REMARK UNBOUND:                -0.272
REMARK SMILES O=c1ccn([C@H]2O[C@H](CO)[C@H](O)[C@H]2O)c(=O)[nH]1
REMARK SMILES IDX 6 1 13 2 11 3 8 4 7 5 5 6 3 7 4 8 2 9 17 10 1 11 15 12 16 14
REMARK SMILES IDX 14 15 12 17 9 19 10 20
REMARK H PARENT 17 13 14 16 12 18 10 21
REMARK Flexibility Score: inf
ROOT
ATOM      1  C   UNL     1     157.168 169.605 161.223  1.00  0.00     0.255 C 
ATOM      2  C   UNL     1     155.825 169.891 160.548  1.00  0.00     0.196 C 
ATOM      3  C   UNL     1     154.977 168.745 161.033  1.00  0.00     0.179 C 
ATOM      4  C   UNL     1     155.588 168.467 162.409  1.00  0.00     0.178 C 
ATOM      5  O   UNL     1     156.953 168.821 162.381  1.00  0.00    -0.347 OA
ENDROOT
BRANCH   1   6
ATOM      6  N   UNL     1     157.903 170.848 161.546  1.00  0.00    -0.271 N 
ATOM      7  C   UNL     1     158.358 172.662 163.051  1.00  0.00     0.090 A 
ATOM      8  C   UNL     1     157.694 171.477 162.745  1.00  0.00     0.099 A 
ATOM      9  C   UNL     1     159.226 173.202 162.107  1.00  0.00     0.253 A 
ATOM     10  N   UNL     1     159.404 172.574 160.915  1.00  0.00    -0.274 N 
ATOM     11  O   UNL     1     159.842 174.273 162.357  1.00  0.00    -0.269 OA
ATOM     12  C   UNL     1     158.748 171.416 160.625  1.00  0.00     0.330 A 
ATOM     13  H   UNL     1     160.051 172.992 160.207  1.00  0.00     0.175 HD
ATOM     14  O   UNL     1     158.927 170.876 159.499  1.00  0.00    -0.248 OA
ENDBRANCH   1   6
BRANCH   2  15
ATOM     15  O   UNL     1     155.288 171.112 160.992  1.00  0.00    -0.386 OA
ATOM     16  H   UNL     1     155.426 171.766 160.257  1.00  0.00     0.211 HD
ENDBRANCH   2  15
BRANCH   3  17
ATOM     17  O   UNL     1     155.139 167.651 160.163  1.00  0.00    -0.387 OA
ATOM     18  H   UNL     1     155.454 168.018 159.296  1.00  0.00     0.211 HD
ENDBRANCH   3  17
BRANCH   4  19
ATOM     19  C   UNL     1     155.423 167.013 162.876  1.00  0.00     0.191 C 
BRANCH  19  20
ATOM     20  O   UNL     1     156.364 166.188 162.243  1.00  0.00    -0.394 OA
ATOM     21  H   UNL     1     156.092 165.251 162.427  1.00  0.00     0.210 HD
ENDBRANCH  19  20
ENDBRANCH   4  19
TORSDOF 5
ENDMDL
MODEL 5
REMARK VINA RESULT:    -3.570     12.832     14.303
REMARK INTER + INTRA:          -4.572
REMARK INTER:                  -4.315
REMARK INTRA:                  -0.257
REMARK UNBOUND:                -0.272
REMARK SMILES O=c1ccn([C@H]2O[C@H](CO)[C@H](O)[C@H]2O)c(=O)[nH]1
REMARK SMILES IDX 6 1 13 2 11 3 8 4 7 5 5 6 3 7 4 8 2 9 17 10 1 11 15 12 16 14
REMARK SMILES IDX 14 15 12 17 9 19 10 20
REMARK H PARENT 17 13 14 16 12 18 10 21
REMARK Flexibility Score: inf
ROOT
ATOM      1  C   UNL     1     159.623 171.560 160.641  1.00  0.00     0.255 C 
ATOM      2  C   UNL     1     160.586 170.821 161.574  1.00  0.00     0.196 C 
ATOM      3  C   UNL     1     161.322 171.957 162.233  1.00  0.00     0.179 C 
ATOM      4  C   UNL     1     160.254 173.055 162.243  1.00  0.00     0.178 C 
ATOM      5  O   UNL     1     159.394 172.863 161.141  1.00  0.00    -0.347 OA
ENDROOT
BRANCH   1   6
ATOM      6  N   UNL     1     158.352 170.825 160.459  1.00  0.00    -0.271 N 
ATOM      7  C   UNL     1     156.034 170.515 161.000  1.00  0.00     0.090 A 
ATOM      8  C   UNL     1     157.229 171.214 161.141  1.00  0.00     0.099 A 
ATOM      9  C   UNL     1     156.007 169.402 160.166  1.00  0.00     0.253 A 
ATOM     10  N   UNL     1     157.136 169.018 159.515  1.00  0.00    -0.274 N 
ATOM     11  O   UNL     1     154.939 168.751 160.018  1.00  0.00    -0.269 OA
ATOM     12  C   UNL     1     158.302 169.708 159.660  1.00  0.00     0.330 A 
ATOM     13  H   UNL     1     157.110 168.175 158.897  1.00  0.00     0.175 HD
ATOM     14  O   UNL     1     159.332 169.306 159.053  1.00  0.00    -0.248 OA
ENDBRANCH   1   6
BRANCH   2  15
ATOM     15  O   UNL     1     159.882 170.077 162.537  1.00  0.00    -0.386 OA
ATOM     16  H   UNL     1     160.340 169.198 162.607  1.00  0.00     0.211 HD
ENDBRANCH   2  15
BRANCH   3  17
ATOM     17  O   UNL     1     162.426 172.314 161.437  1.00  0.00    -0.387 OA
ATOM     18  H   UNL     1     162.190 172.088 160.500  1.00  0.00     0.211 HD
ENDBRANCH   3  17
BRANCH   4  19
ATOM     19  C   UNL     1     160.832 174.478 162.228  1.00  0.00     0.191 C 
BRANCH  19  20
ATOM     20  O   UNL     1     161.245 174.823 160.933  1.00  0.00    -0.394 OA
ATOM     21  H   UNL     1     160.461 174.691 160.338  1.00  0.00     0.210 HD
ENDBRANCH  19  20
ENDBRANCH   4  19
TORSDOF 5
ENDMDL
MODEL 6
REMARK VINA RESULT:    -3.567     12.880     14.607
REMARK INTER + INTRA:          -4.569
REMARK INTER:                  -4.295
REMARK INTRA:                  -0.274
REMARK UNBOUND:                -0.272
REMARK SMILES O=c1ccn([C@H]2O[C@H](CO)[C@H](O)[C@H]2O)c(=O)[nH]1
REMARK SMILES IDX 6 1 13 2 11 3 8 4 7 5 5 6 3 7 4 8 2 9 17 10 1 11 15 12 16 14
REMARK SMILES IDX 14 15 12 17 9 19 10 20
REMARK H PARENT 17 13 14 16 12 18 10 21
REMARK Flexibility Score: inf
ROOT
ATOM      1  C   UNL     1     171.610 159.622 169.924  1.00  0.00     0.255 C 
ATOM      2  C   UNL     1     170.899 160.535 168.922  1.00  0.00     0.196 C 
ATOM      3  C   UNL     1     172.054 161.254 168.275  1.00  0.00     0.179 C 
ATOM      4  C   UNL     1     173.160 160.199 168.354  1.00  0.00     0.178 C 
ATOM      5  O   UNL     1     172.934 159.386 169.485  1.00  0.00    -0.347 OA
ENDROOT
BRANCH   1   6
ATOM      6  N   UNL     1     170.879 158.353 170.133  1.00  0.00    -0.271 N 
ATOM      7  C   UNL     1     170.595 156.016 169.664  1.00  0.00     0.090 A 
ATOM      8  C   UNL     1     171.290 157.211 169.497  1.00  0.00     0.099 A 
ATOM      9  C   UNL     1     169.467 156.009 170.477  1.00  0.00     0.253 A 
ATOM     10  N   UNL     1     169.062 157.156 171.082  1.00  0.00    -0.274 N 
ATOM     11  O   UNL     1     168.819 154.941 170.647  1.00  0.00    -0.269 OA
ATOM     12  C   UNL     1     169.748 158.321 170.911  1.00  0.00     0.330 A 
ATOM     13  H   UNL     1     168.207 157.145 171.684  1.00  0.00     0.175 HD
ATOM     14  O   UNL     1     169.327 159.368 171.476  1.00  0.00    -0.248 OA
ENDBRANCH   1   6
BRANCH   2  15
ATOM     15  O   UNL     1     170.199 159.782 167.963  1.00  0.00    -0.386 OA
ATOM     16  H   UNL     1     170.223 160.305 167.119  1.00  0.00     0.211 HD
ENDBRANCH   2  15
BRANCH   3  17
ATOM     17  O   UNL     1     172.370 162.396 169.034  1.00  0.00    -0.387 OA
ATOM     18  H   UNL     1     171.535 162.927 169.114  1.00  0.00     0.211 HD
ENDBRANCH   3  17
BRANCH   4  19
ATOM     19  C   UNL     1     174.577 160.791 168.398  1.00  0.00     0.191 C 
BRANCH  19  20
ATOM     20  O   UNL     1     174.891 161.206 169.700  1.00  0.00    -0.394 OA
ATOM     21  H   UNL     1     175.124 162.170 169.644  1.00  0.00     0.210 HD
ENDBRANCH  19  20
ENDBRANCH   4  19
TORSDOF 5
ENDMDL
MODEL 7
REMARK VINA RESULT:    -3.567      2.148      5.849
REMARK INTER + INTRA:          -4.568
REMARK INTER:                  -4.303
REMARK INTRA:                  -0.265
REMARK UNBOUND:                -0.272
REMARK SMILES O=c1ccn([C@H]2O[C@H](CO)[C@H](O)[C@H]2O)c(=O)[nH]1
REMARK SMILES IDX 6 1 13 2 11 3 8 4 7 5 5 6 3 7 4 8 2 9 17 10 1 11 15 12 16 14
REMARK SMILES IDX 14 15 12 17 9 19 10 20
REMARK H PARENT 17 13 14 16 12 18 10 21
REMARK Flexibility Score: inf
ROOT
ATOM      1  C   UNL     1     159.672 158.961 169.886  1.00  0.00     0.255 C 
ATOM      2  C   UNL     1     160.577 159.645 168.859  1.00  0.00     0.196 C 
ATOM      3  C   UNL     1     161.279 158.473 168.227  1.00  0.00     0.179 C 
ATOM      4  C   UNL     1     160.218 157.376 168.341  1.00  0.00     0.178 C 
ATOM      5  O   UNL     1     159.421 157.630 169.477  1.00  0.00    -0.347 OA
ENDROOT
BRANCH   1   6
ATOM      6  N   UNL     1     158.410 159.705 170.096  1.00  0.00    -0.271 N 
ATOM      7  C   UNL     1     156.066 159.988 169.660  1.00  0.00     0.090 A 
ATOM      8  C   UNL     1     157.255 159.282 169.493  1.00  0.00     0.099 A 
ATOM      9  C   UNL     1     156.080 161.140 170.439  1.00  0.00     0.253 A 
ATOM     10  N   UNL     1     157.239 161.555 171.012  1.00  0.00    -0.274 N 
ATOM     11  O   UNL     1     155.019 161.799 170.608  1.00  0.00    -0.269 OA
ATOM     12  C   UNL     1     158.398 160.859 170.841  1.00  0.00     0.330 A 
ATOM     13  H   UNL     1     157.243 162.428 171.588  1.00  0.00     0.175 HD
ATOM     14  O   UNL     1     159.457 161.290 171.374  1.00  0.00    -0.248 OA
ENDBRANCH   1   6
BRANCH   2  15
ATOM     15  O   UNL     1     159.817 160.331 167.896  1.00  0.00    -0.386 OA
ATOM     16  H   UNL     1     160.023 161.296 168.007  1.00  0.00     0.211 HD
ENDBRANCH   2  15
BRANCH   3  17
ATOM     17  O   UNL     1     162.429 158.164 168.978  1.00  0.00    -0.387 OA
ATOM     18  H   UNL     1     163.153 158.761 168.654  1.00  0.00     0.211 HD
ENDBRANCH   3  17
BRANCH   4  19
ATOM     19  C   UNL     1     160.801 155.956 168.407  1.00  0.00     0.191 C 
BRANCH  19  20
ATOM     20  O   UNL     1     161.299 155.692 169.691  1.00  0.00    -0.394 OA
ATOM     21  H   UNL     1     162.226 156.047 169.716  1.00  0.00     0.210 HD
ENDBRANCH  19  20
ENDBRANCH   4  19
TORSDOF 5
ENDMDL
MODEL 8
REMARK VINA RESULT:    -3.557      7.638      8.783
REMARK INTER + INTRA:          -4.557
REMARK INTER:                  -4.277
REMARK INTRA:                  -0.280
REMARK UNBOUND:                -0.272
REMARK SMILES O=c1ccn([C@H]2O[C@H](CO)[C@H](O)[C@H]2O)c(=O)[nH]1
REMARK SMILES IDX 6 1 13 2 11 3 8 4 7 5 5 6 3 7 4 8 2 9 17 10 1 11 15 12 16 14
REMARK SMILES IDX 14 15 12 17 9 19 10 20
REMARK H PARENT 17 13 14 16 12 18 10 21
REMARK Flexibility Score: inf
ROOT
ATOM      1  C   UNL     1     159.078 159.640 160.577  1.00  0.00     0.255 C 
ATOM      2  C   UNL     1     159.842 160.611 161.480  1.00  0.00     0.196 C 
ATOM      3  C   UNL     1     158.725 161.380 162.133  1.00  0.00     0.179 C 
ATOM      4  C   UNL     1     157.610 160.331 162.179  1.00  0.00     0.178 C 
ATOM      5  O   UNL     1     157.777 159.444 161.094  1.00  0.00    -0.347 OA
ENDROOT
BRANCH   1   6
ATOM      6  N   UNL     1     159.792 158.354 160.417  1.00  0.00    -0.271 N 
ATOM      7  C   UNL     1     160.086 156.050 161.025  1.00  0.00     0.090 A 
ATOM      8  C   UNL     1     159.406 157.259 161.145  1.00  0.00     0.099 A 
ATOM      9  C   UNL     1     161.174 155.981 160.161  1.00  0.00     0.253 A 
ATOM     10  N   UNL     1     161.554 157.082 159.463  1.00  0.00    -0.274 N 
ATOM     11  O   UNL     1     161.807 154.899 160.031  1.00  0.00    -0.269 OA
ATOM     12  C   UNL     1     160.884 158.261 159.589  1.00  0.00     0.330 A 
ATOM     13  H   UNL     1     162.380 157.024 158.824  1.00  0.00     0.175 HD
ATOM     14  O   UNL     1     161.283 159.266 158.938  1.00  0.00    -0.248 OA
ENDBRANCH   1   6
BRANCH   2  15
ATOM     15  O   UNL     1     160.585 159.917 162.452  1.00  0.00    -0.386 OA
ATOM     16  H   UNL     1     160.031 159.142 162.731  1.00  0.00     0.211 HD
ENDBRANCH   2  15
BRANCH   3  17
ATOM     17  O   UNL     1     158.377 162.472 161.317  1.00  0.00    -0.387 OA
ATOM     18  H   UNL     1     157.432 162.697 161.524  1.00  0.00     0.211 HD
ENDBRANCH   3  17
BRANCH   4  19
ATOM     19  C   UNL     1     156.196 160.931 162.164  1.00  0.00     0.191 C 
BRANCH  19  20
ATOM     20  O   UNL     1     155.796 161.205 160.849  1.00  0.00    -0.394 OA
ATOM     21  H   UNL     1     155.300 162.065 160.874  1.00  0.00     0.210 HD
ENDBRANCH  19  20
ENDBRANCH   4  19
TORSDOF 5
ENDMDL
MODEL 9
REMARK VINA RESULT:    -3.520     18.804     20.027
REMARK INTER + INTRA:          -4.512
REMARK INTER:                  -4.242
REMARK INTRA:                  -0.271
REMARK UNBOUND:                -0.272
REMARK SMILES O=c1ccn([C@H]2O[C@H](CO)[C@H](O)[C@H]2O)c(=O)[nH]1
REMARK SMILES IDX 6 1 13 2 11 3 8 4 7 5 5 6 3 7 4 8 2 9 17 10 1 11 15 12 16 14
REMARK SMILES IDX 14 15 12 17 9 19 10 20
REMARK H PARENT 17 13 14 16 12 18 10 21
REMARK Flexibility Score: inf
ROOT
ATOM      1  C   UNL     1     169.768 173.018 161.380  1.00  0.00     0.255 C 
ATOM      2  C   UNL     1     169.963 174.315 160.592  1.00  0.00     0.196 C 
ATOM      3  C   UNL     1     168.766 175.125 161.016  1.00  0.00     0.179 C 
ATOM      4  C   UNL     1     168.536 174.616 162.442  1.00  0.00     0.178 C 
ATOM      5  O   UNL     1     168.978 173.278 162.524  1.00  0.00    -0.347 OA
ENDROOT
BRANCH   1   6
ATOM      6  N   UNL     1     171.058 172.395 161.749  1.00  0.00    -0.271 N 
ATOM      7  C   UNL     1     172.850 172.098 163.320  1.00  0.00     0.090 A 
ATOM      8  C   UNL     1     171.623 172.656 162.970  1.00  0.00     0.099 A 
ATOM      9  C   UNL     1     173.498 171.283 162.398  1.00  0.00     0.253 A 
ATOM     10  N   UNL     1     172.933 171.053 161.184  1.00  0.00    -0.274 N 
ATOM     11  O   UNL     1     174.609 170.764 162.688  1.00  0.00    -0.269 OA
ATOM     12  C   UNL     1     171.733 171.605 160.851  1.00  0.00     0.330 A 
ATOM     13  H   UNL     1     173.432 170.447 160.493  1.00  0.00     0.175 HD
ATOM     14  O   UNL     1     171.253 171.382 159.705  1.00  0.00    -0.248 OA
ENDBRANCH   1   6
BRANCH   2  15
ATOM     15  O   UNL     1     171.149 174.965 160.976  1.00  0.00    -0.386 OA
ATOM     16  H   UNL     1     171.895 174.350 160.750  1.00  0.00     0.211 HD
ENDBRANCH   2  15
BRANCH   3  17
ATOM     17  O   UNL     1     167.680 174.820 160.175  1.00  0.00    -0.387 OA
ATOM     18  H   UNL     1     167.771 173.863 159.924  1.00  0.00     0.211 HD
ENDBRANCH   3  17
BRANCH   4  19
ATOM     19  C   UNL     1     167.077 174.725 162.909  1.00  0.00     0.191 C 
BRANCH  19  20
ATOM     20  O   UNL     1     166.292 173.742 162.289  1.00  0.00    -0.394 OA
ATOM     21  H   UNL     1     166.897 172.982 162.081  1.00  0.00     0.210 HD
ENDBRANCH  19  20
ENDBRANCH   4  19
TORSDOF 5
ENDMDL
