MODEL 1
REMARK VINA RESULT:    -3.633      0.000      0.000
REMARK INTER + INTRA:          -9.418
REMARK INTER:                  -7.030
REMARK INTRA:                  -2.388
REMARK UNBOUND:                -2.388
REMARK SMILES CCCCCCCCCCCCCCCCCC(=O)[O-]
REMARK SMILES IDX 10 1 11 2 12 3 13 4 14 5 15 6 16 7 17 8 18 9 19 10 20 11
REMARK SMILES IDX 9 12 8 13 7 14 6 15 5 16 4 17 3 18 2 19 1 20
REMARK H PARENT
REMARK Flexibility Score: inf
ROOT
ATOM      1  C   UNL     1    -118.745  13.900  24.597  1.00  0.00     0.000 C 
ENDROOT
BRANCH   1   2
ATOM      2  C   UNL     1    -119.851  12.965  24.081  1.00  0.00     0.000 C 
BRANCH   2   3
ATOM      3  C   UNL     1    -119.352  11.525  23.861  1.00  0.00     0.000 C 
BRANCH   3   4
ATOM      4  C   UNL     1    -117.961  11.284  24.472  1.00  0.00     0.000 C 
BRANCH   4   5
ATOM      5  C   UNL     1    -116.961  10.699  23.463  1.00  0.00     0.000 C 
BRANCH   5   6
ATOM      6  C   UNL     1    -115.827  11.695  23.177  1.00  0.00     0.000 C 
BRANCH   6   7
ATOM      7  C   UNL     1    -115.278  12.352  24.455  1.00  0.00     0.006 C 
BRANCH   7   8
ATOM      8  C   UNL     1    -114.358  11.416  25.250  1.00  0.00     0.053 C 
BRANCH   8   9
ATOM      9  C   UNL     1    -112.946  11.545  24.775  1.00  0.00     0.041 C 
ATOM     10  O   UNL     1    -112.339  10.543  24.311  1.00  0.00    -0.550 OA
ATOM     11  O   UNL     1    -112.315  12.783  24.797  1.00  0.00    -0.550 OA
ENDBRANCH   8   9
ENDBRANCH   7   8
ENDBRANCH   6   7
ENDBRANCH   5   6
ENDBRANCH   4   5
ENDBRANCH   3   4
ENDBRANCH   2   3
ENDBRANCH   1   2
BRANCH   1  12
ATOM     12  C   UNL     1    -118.160  14.794  23.494  1.00  0.00     0.000 C 
BRANCH  12  13
ATOM     13  C   UNL     1    -119.216  15.097  22.418  1.00  0.00    -0.000 C 
BRANCH  13  14
ATOM     14  C   UNL     1    -118.691  14.867  20.992  1.00  0.00    -0.000 C 
BRANCH  14  15
ATOM     15  C   UNL     1    -118.857  13.414  20.525  1.00  0.00    -0.000 C 
BRANCH  15  16
ATOM     16  C   UNL     1    -117.492  12.760  20.271  1.00  0.00    -0.000 C 
BRANCH  16  17
ATOM     17  C   UNL     1    -117.406  12.065  18.900  1.00  0.00    -0.000 C 
BRANCH  17  18
ATOM     18  C   UNL     1    -117.998  12.866  17.723  1.00  0.00    -0.000 C 
BRANCH  18  19
ATOM     19  C   UNL     1    -117.049  13.905  17.100  1.00  0.00    -0.003 C 
ATOM     20  C   UNL     1    -117.379  15.337  17.515  1.00  0.00     0.004 C 
ENDBRANCH  18  19
ENDBRANCH  17  18
ENDBRANCH  16  17
ENDBRANCH  15  16
ENDBRANCH  14  15
ENDBRANCH  13  14
ENDBRANCH  12  13
ENDBRANCH   1  12
TORSDOF 16
ENDMDL
MODEL 2
REMARK VINA RESULT:    -3.630      1.726      4.407
REMARK INTER + INTRA:          -9.412
REMARK INTER:                  -7.180
REMARK INTRA:                  -2.232
REMARK UNBOUND:                -2.388
REMARK SMILES CCCCCCCCCCCCCCCCCC(=O)[O-]
REMARK SMILES IDX 10 1 11 2 12 3 13 4 14 5 15 6 16 7 17 8 18 9 19 10 20 11
REMARK SMILES IDX 9 12 8 13 7 14 6 15 5 16 4 17 3 18 2 19 1 20
REMARK H PARENT
REMARK Flexibility Score: inf
ROOT
ATOM      1  C   UNL     1    -116.542  11.521  20.580  1.00  0.00     0.000 C 
ENDROOT
BRANCH   1   2
ATOM      2  C   UNL     1    -115.671  10.687  21.535  1.00  0.00     0.000 C 
BRANCH   2   3
ATOM      3  C   UNL     1    -116.049  10.896  23.012  1.00  0.00     0.000 C 
BRANCH   3   4
ATOM      4  C   UNL     1    -116.000  12.375  23.430  1.00  0.00     0.000 C 
BRANCH   4   5
ATOM      5  C   UNL     1    -114.923  12.660  24.488  1.00  0.00     0.000 C 
BRANCH   5   6
ATOM      6  C   UNL     1    -114.474  11.361  25.174  1.00  0.00     0.000 C 
BRANCH   6   7
ATOM      7  C   UNL     1    -112.955  11.309  25.407  1.00  0.00     0.006 C 
BRANCH   7   8
ATOM      8  C   UNL     1    -112.398   9.880  25.359  1.00  0.00     0.053 C 
BRANCH   8   9
ATOM      9  C   UNL     1    -111.741   9.621  24.040  1.00  0.00     0.041 C 
ATOM     10  O   UNL     1    -110.648   8.997  23.988  1.00  0.00    -0.550 OA
ATOM     11  O   UNL     1    -112.359  10.026  22.864  1.00  0.00    -0.550 OA
ENDBRANCH   8   9
ENDBRANCH   7   8
ENDBRANCH   6   7
ENDBRANCH   5   6
ENDBRANCH   4   5
ENDBRANCH   3   4
ENDBRANCH   2   3
ENDBRANCH   1   2
BRANCH   1  12
ATOM     12  C   UNL     1    -118.043  11.245  20.751  1.00  0.00     0.000 C 
BRANCH  12  13
ATOM     13  C   UNL     1    -118.868  12.511  20.468  1.00  0.00    -0.000 C 
BRANCH  13  14
ATOM     14  C   UNL     1    -118.023  13.794  20.526  1.00  0.00    -0.000 C 
BRANCH  14  15
ATOM     15  C   UNL     1    -118.856  15.038  20.869  1.00  0.00    -0.000 C 
BRANCH  15  16
ATOM     16  C   UNL     1    -119.578  14.861  22.213  1.00  0.00    -0.000 C 
BRANCH  16  17
ATOM     17  C   UNL     1    -118.615  14.849  23.413  1.00  0.00    -0.000 C 
BRANCH  17  18
ATOM     18  C   UNL     1    -119.040  13.939  24.584  1.00  0.00    -0.000 C 
BRANCH  18  19
ATOM     19  C   UNL     1    -119.451  12.512  24.181  1.00  0.00    -0.003 C 
ATOM     20  C   UNL     1    -119.242  11.494  25.300  1.00  0.00     0.004 C 
ENDBRANCH  18  19
ENDBRANCH  17  18
ENDBRANCH  16  17
ENDBRANCH  15  16
ENDBRANCH  14  15
ENDBRANCH  13  14
ENDBRANCH  12  13
ENDBRANCH   1  12
TORSDOF 16
ENDMDL
MODEL 3
REMARK VINA RESULT:    -3.585      1.393      2.191
REMARK INTER + INTRA:          -9.326
REMARK INTER:                  -6.933
REMARK INTRA:                  -2.393
REMARK UNBOUND:                -2.388
REMARK SMILES CCCCCCCCCCCCCCCCCC(=O)[O-]
REMARK SMILES IDX 10 1 11 2 12 3 13 4 14 5 15 6 16 7 17 8 18 9 19 10 20 11
REMARK SMILES IDX 9 12 8 13 7 14 6 15 5 16 4 17 3 18 2 19 1 20
REMARK H PARENT
REMARK Flexibility Score: inf
ROOT
ATOM      1  C   UNL     1    -116.924  13.494  23.723  1.00  0.00     0.000 C 
ENDROOT
BRANCH   1   2
ATOM      2  C   UNL     1    -117.778  12.216  23.798  1.00  0.00     0.000 C 
BRANCH   2   3
ATOM      3  C   UNL     1    -117.758  11.416  22.483  1.00  0.00     0.000 C 
BRANCH   3   4
ATOM      4  C   UNL     1    -116.647  11.880  21.527  1.00  0.00     0.000 C 
BRANCH   4   5
ATOM      5  C   UNL     1    -115.720  10.735  21.090  1.00  0.00     0.000 C 
BRANCH   5   6
ATOM      6  C   UNL     1    -115.432   9.787  22.264  1.00  0.00     0.000 C 
BRANCH   6   7
ATOM      7  C   UNL     1    -114.067  10.053  22.920  1.00  0.00     0.006 C 
BRANCH   7   8
ATOM      8  C   UNL     1    -114.166  10.992  24.130  1.00  0.00     0.053 C 
BRANCH   8   9
ATOM      9  C   UNL     1    -112.810  11.244  24.706  1.00  0.00     0.041 C 
ATOM     10  O   UNL     1    -112.484  12.403  25.079  1.00  0.00    -0.550 OA
ATOM     11  O   UNL     1    -111.921  10.191  24.879  1.00  0.00    -0.550 OA
ENDBRANCH   8   9
ENDBRANCH   7   8
ENDBRANCH   6   7
ENDBRANCH   5   6
ENDBRANCH   4   5
ENDBRANCH   3   4
ENDBRANCH   2   3
ENDBRANCH   1   2
BRANCH   1  12
ATOM     12  C   UNL     1    -117.744  14.770  23.960  1.00  0.00     0.000 C 
BRANCH  12  13
ATOM     13  C   UNL     1    -119.216  14.556  23.571  1.00  0.00    -0.000 C 
BRANCH  13  14
ATOM     14  C   UNL     1    -119.600  15.292  22.277  1.00  0.00    -0.000 C 
BRANCH  14  15
ATOM     15  C   UNL     1    -119.603  14.370  21.049  1.00  0.00    -0.000 C 
BRANCH  15  16
ATOM     16  C   UNL     1    -118.448  14.720  20.099  1.00  0.00    -0.000 C 
BRANCH  16  17
ATOM     17  C   UNL     1    -118.776  14.429  18.624  1.00  0.00    -0.000 C 
BRANCH  17  18
ATOM     18  C   UNL     1    -117.575  13.992  17.761  1.00  0.00    -0.000 C 
BRANCH  18  19
ATOM     19  C   UNL     1    -117.177  12.512  17.903  1.00  0.00    -0.003 C 
ATOM     20  C   UNL     1    -118.369  11.599  18.182  1.00  0.00     0.004 C 
ENDBRANCH  18  19
ENDBRANCH  17  18
ENDBRANCH  16  17
ENDBRANCH  15  16
ENDBRANCH  14  15
ENDBRANCH  13  14
ENDBRANCH  12  13
ENDBRANCH   1  12
TORSDOF 16
ENDMDL
MODEL 4
REMARK VINA RESULT:    -3.520      1.575      2.521
REMARK INTER + INTRA:          -9.201
REMARK INTER:                  -6.952
REMARK INTRA:                  -2.248
REMARK UNBOUND:                -2.388
REMARK SMILES CCCCCCCCCCCCCCCCCC(=O)[O-]
REMARK SMILES IDX 10 1 11 2 12 3 13 4 14 5 15 6 16 7 17 8 18 9 19 10 20 11
REMARK SMILES IDX 9 12 8 13 7 14 6 15 5 16 4 17 3 18 2 19 1 20
REMARK H PARENT
REMARK Flexibility Score: inf
ROOT
ATOM      1  C   UNL     1    -119.772  15.213  22.253  1.00  0.00     0.000 C 
ENDROOT
BRANCH   1   2
ATOM      2  C   UNL     1    -118.551  14.924  23.142  1.00  0.00     0.000 C 
BRANCH   2   3
ATOM      3  C   UNL     1    -118.840  13.857  24.213  1.00  0.00     0.000 C 
BRANCH   3   4
ATOM      4  C   UNL     1    -118.009  12.579  24.012  1.00  0.00     0.000 C 
BRANCH   4   5
ATOM      5  C   UNL     1    -116.520  12.869  23.768  1.00  0.00     0.000 C 
BRANCH   5   6
ATOM      6  C   UNL     1    -115.643  11.753  24.355  1.00  0.00     0.000 C 
BRANCH   6   7
ATOM      7  C   UNL     1    -114.234  12.241  24.730  1.00  0.00     0.006 C 
BRANCH   7   8
ATOM      8  C   UNL     1    -113.507  11.278  25.678  1.00  0.00     0.053 C 
BRANCH   8   9
ATOM      9  C   UNL     1    -112.534  10.434  24.919  1.00  0.00     0.041 C 
ATOM     10  O   UNL     1    -111.898   9.518  25.504  1.00  0.00    -0.550 OA
ATOM     11  O   UNL     1    -112.365  10.625  23.553  1.00  0.00    -0.550 OA
ENDBRANCH   8   9
ENDBRANCH   7   8
ENDBRANCH   6   7
ENDBRANCH   5   6
ENDBRANCH   4   5
ENDBRANCH   3   4
ENDBRANCH   2   3
ENDBRANCH   1   2
BRANCH   1  12
ATOM     12  C   UNL     1    -119.635  14.617  20.844  1.00  0.00     0.000 C 
BRANCH  12  13
ATOM     13  C   UNL     1    -118.156  14.444  20.464  1.00  0.00    -0.000 C 
BRANCH  13  14
ATOM     14  C   UNL     1    -117.876  13.101  19.769  1.00  0.00    -0.000 C 
BRANCH  14  15
ATOM     15  C   UNL     1    -118.604  11.924  20.436  1.00  0.00    -0.000 C 
BRANCH  15  16
ATOM     16  C   UNL     1    -117.609  10.837  20.863  1.00  0.00    -0.000 C 
BRANCH  16  17
ATOM     17  C   UNL     1    -116.155  11.172  20.484  1.00  0.00    -0.000 C 
BRANCH  17  18
ATOM     18  C   UNL     1    -115.483  10.174  19.520  1.00  0.00    -0.000 C 
BRANCH  18  19
ATOM     19  C   UNL     1    -116.176  10.025  18.154  1.00  0.00    -0.003 C 
ATOM     20  C   UNL     1    -115.721  11.071  17.138  1.00  0.00     0.004 C 
ENDBRANCH  18  19
ENDBRANCH  17  18
ENDBRANCH  16  17
ENDBRANCH  15  16
ENDBRANCH  14  15
ENDBRANCH  13  14
ENDBRANCH  12  13
ENDBRANCH   1  12
TORSDOF 16
ENDMDL
MODEL 5
REMARK VINA RESULT:    -3.510      1.692      2.890
REMARK INTER + INTRA:          -9.181
REMARK INTER:                  -7.082
REMARK INTRA:                  -2.099
REMARK UNBOUND:                -2.388
REMARK SMILES CCCCCCCCCCCCCCCCCC(=O)[O-]
REMARK SMILES IDX 10 1 11 2 12 3 13 4 14 5 15 6 16 7 17 8 18 9 19 10 20 11
REMARK SMILES IDX 9 12 8 13 7 14 6 15 5 16 4 17 3 18 2 19 1 20
REMARK H PARENT
REMARK Flexibility Score: inf
ROOT
ATOM      1  C   UNL     1    -117.920  14.746  23.788  1.00  0.00     0.000 C 
ENDROOT
BRANCH   1   2
ATOM      2  C   UNL     1    -116.833  13.660  23.858  1.00  0.00     0.000 C 
BRANCH   2   3
ATOM      3  C   UNL     1    -117.412  12.263  24.141  1.00  0.00     0.000 C 
BRANCH   3   4
ATOM      4  C   UNL     1    -116.335  11.256  24.578  1.00  0.00     0.000 C 
BRANCH   4   5
ATOM      5  C   UNL     1    -114.925  11.652  24.115  1.00  0.00     0.000 C 
BRANCH   5   6
ATOM      6  C   UNL     1    -113.958  11.724  25.306  1.00  0.00     0.000 C 
BRANCH   6   7
ATOM      7  C   UNL     1    -112.686  10.888  25.088  1.00  0.00     0.006 C 
BRANCH   7   8
ATOM      8  C   UNL     1    -112.924   9.676  24.177  1.00  0.00     0.053 C 
BRANCH   8   9
ATOM      9  C   UNL     1    -112.062   9.763  22.959  1.00  0.00     0.041 C 
ATOM     10  O   UNL     1    -110.838  10.040  23.066  1.00  0.00    -0.550 OA
ATOM     11  O   UNL     1    -112.598   9.488  21.706  1.00  0.00    -0.550 OA
ENDBRANCH   8   9
ENDBRANCH   7   8
ENDBRANCH   6   7
ENDBRANCH   5   6
ENDBRANCH   4   5
ENDBRANCH   3   4
ENDBRANCH   2   3
ENDBRANCH   1   2
BRANCH   1  12
ATOM     12  C   UNL     1    -119.327  14.165  23.586  1.00  0.00     0.000 C 
BRANCH  12  13
ATOM     13  C   UNL     1    -120.046  14.864  22.421  1.00  0.00    -0.000 C 
BRANCH  13  14
ATOM     14  C   UNL     1    -119.097  15.212  21.263  1.00  0.00    -0.000 C 
BRANCH  14  15
ATOM     15  C   UNL     1    -119.252  14.265  20.063  1.00  0.00    -0.000 C 
BRANCH  15  16
ATOM     16  C   UNL     1    -117.925  13.561  19.746  1.00  0.00    -0.000 C 
BRANCH  16  17
ATOM     17  C   UNL     1    -117.819  12.165  20.386  1.00  0.00    -0.000 C 
BRANCH  17  18
ATOM     18  C   UNL     1    -116.394  11.740  20.797  1.00  0.00    -0.000 C 
BRANCH  18  19
ATOM     19  C   UNL     1    -116.144  10.222  20.798  1.00  0.00    -0.003 C 
ATOM     20  C   UNL     1    -115.569   9.713  19.477  1.00  0.00     0.004 C 
ENDBRANCH  18  19
ENDBRANCH  17  18
ENDBRANCH  16  17
ENDBRANCH  15  16
ENDBRANCH  14  15
ENDBRANCH  13  14
ENDBRANCH  12  13
ENDBRANCH   1  12
TORSDOF 16
ENDMDL
MODEL 6
REMARK VINA RESULT:    -3.510      1.470      3.133
REMARK INTER + INTRA:          -9.180
REMARK INTER:                  -7.474
REMARK INTRA:                  -1.706
REMARK UNBOUND:                -2.388
REMARK SMILES CCCCCCCCCCCCCCCCCC(=O)[O-]
REMARK SMILES IDX 10 1 11 2 12 3 13 4 14 5 15 6 16 7 17 8 18 9 19 10 20 11
REMARK SMILES IDX 9 12 8 13 7 14 6 15 5 16 4 17 3 18 2 19 1 20
REMARK H PARENT
REMARK Flexibility Score: inf
ROOT
ATOM      1  C   UNL     1    -118.261  14.093  21.615  1.00  0.00     0.000 C 
ENDROOT
BRANCH   1   2
ATOM      2  C   UNL     1    -118.564  14.811  22.941  1.00  0.00     0.000 C 
BRANCH   2   3
ATOM      3  C   UNL     1    -117.711  14.281  24.107  1.00  0.00     0.000 C 
BRANCH   3   4
ATOM      4  C   UNL     1    -116.665  13.250  23.651  1.00  0.00     0.000 C 
BRANCH   4   5
ATOM      5  C   UNL     1    -116.895  11.859  24.261  1.00  0.00     0.000 C 
BRANCH   5   6
ATOM      6  C   UNL     1    -115.593  11.300  24.855  1.00  0.00     0.000 C 
BRANCH   6   7
ATOM      7  C   UNL     1    -114.377  12.195  24.565  1.00  0.00     0.006 C 
BRANCH   7   8
ATOM      8  C   UNL     1    -113.176  11.869  25.463  1.00  0.00     0.053 C 
BRANCH   8   9
ATOM      9  C   UNL     1    -112.398  10.724  24.897  1.00  0.00     0.041 C 
ATOM     10  O   UNL     1    -111.841  10.831  23.772  1.00  0.00    -0.550 OA
ATOM     11  O   UNL     1    -112.244   9.556  25.633  1.00  0.00    -0.550 OA
ENDBRANCH   8   9
ENDBRANCH   7   8
ENDBRANCH   6   7
ENDBRANCH   5   6
ENDBRANCH   4   5
ENDBRANCH   3   4
ENDBRANCH   2   3
ENDBRANCH   1   2
BRANCH   1  12
ATOM     12  C   UNL     1    -118.601  14.949  20.385  1.00  0.00     0.000 C 
BRANCH  12  13
ATOM     13  C   UNL     1    -119.220  14.087  19.273  1.00  0.00    -0.000 C 
BRANCH  13  14
ATOM     14  C   UNL     1    -118.276  13.900  18.075  1.00  0.00    -0.000 C 
BRANCH  14  15
ATOM     15  C   UNL     1    -118.133  12.429  17.656  1.00  0.00    -0.000 C 
BRANCH  15  16
ATOM     16  C   UNL     1    -116.667  11.977  17.735  1.00  0.00    -0.000 C 
BRANCH  16  17
ATOM     17  C   UNL     1    -116.436  10.873  18.783  1.00  0.00    -0.000 C 
BRANCH  17  18
ATOM     18  C   UNL     1    -116.394  11.358  20.246  1.00  0.00    -0.000 C 
BRANCH  18  19
ATOM     19  C   UNL     1    -115.855  10.330  21.256  1.00  0.00    -0.003 C 
ATOM     20  C   UNL     1    -114.596   9.617  20.765  1.00  0.00     0.004 C 
ENDBRANCH  18  19
ENDBRANCH  17  18
ENDBRANCH  16  17
ENDBRANCH  15  16
ENDBRANCH  14  15
ENDBRANCH  13  14
ENDBRANCH  12  13
ENDBRANCH   1  12
TORSDOF 16
ENDMDL
MODEL 7
REMARK VINA RESULT:    -3.504      1.309      2.125
REMARK INTER + INTRA:          -9.169
REMARK INTER:                  -6.413
REMARK INTRA:                  -2.757
REMARK UNBOUND:                -2.388
REMARK SMILES CCCCCCCCCCCCCCCCCC(=O)[O-]
REMARK SMILES IDX 10 1 11 2 12 3 13 4 14 5 15 6 16 7 17 8 18 9 19 10 20 11
REMARK SMILES IDX 9 12 8 13 7 14 6 15 5 16 4 17 3 18 2 19 1 20
REMARK H PARENT
REMARK Flexibility Score: inf
ROOT
ATOM      1  C   UNL     1    -118.887  14.289  24.533  1.00  0.00     0.000 C 
ENDROOT
BRANCH   1   2
ATOM      2  C   UNL     1    -119.923  13.155  24.463  1.00  0.00     0.000 C 
BRANCH   2   3
ATOM      3  C   UNL     1    -119.272  11.760  24.460  1.00  0.00     0.000 C 
BRANCH   3   4
ATOM      4  C   UNL     1    -118.756  11.354  23.070  1.00  0.00     0.000 C 
BRANCH   4   5
ATOM      5  C   UNL     1    -117.276  10.942  23.080  1.00  0.00     0.000 C 
BRANCH   5   6
ATOM      6  C   UNL     1    -116.369  12.152  22.812  1.00  0.00     0.000 C 
BRANCH   6   7
ATOM      7  C   UNL     1    -115.596  12.603  24.063  1.00  0.00     0.006 C 
BRANCH   7   8
ATOM      8  C   UNL     1    -115.130  11.423  24.926  1.00  0.00     0.053 C 
BRANCH   8   9
ATOM      9  C   UNL     1    -113.709  11.077  24.611  1.00  0.00     0.041 C 
ATOM     10  O   UNL     1    -113.418  10.528  23.516  1.00  0.00    -0.550 OA
ATOM     11  O   UNL     1    -112.699  11.405  25.506  1.00  0.00    -0.550 OA
ENDBRANCH   8   9
ENDBRANCH   7   8
ENDBRANCH   6   7
ENDBRANCH   5   6
ENDBRANCH   4   5
ENDBRANCH   3   4
ENDBRANCH   2   3
ENDBRANCH   1   2
BRANCH   1  12
ATOM     12  C   UNL     1    -118.554  14.876  23.153  1.00  0.00     0.000 C 
BRANCH  12  13
ATOM     13  C   UNL     1    -119.828  15.050  22.311  1.00  0.00    -0.000 C 
BRANCH  13  14
ATOM     14  C   UNL     1    -119.669  14.520  20.877  1.00  0.00    -0.000 C 
BRANCH  14  15
ATOM     15  C   UNL     1    -118.198  14.379  20.457  1.00  0.00    -0.000 C 
BRANCH  15  16
ATOM     16  C   UNL     1    -118.066  13.483  19.217  1.00  0.00    -0.000 C 
BRANCH  16  17
ATOM     17  C   UNL     1    -117.894  11.994  19.569  1.00  0.00    -0.000 C 
BRANCH  17  18
ATOM     18  C   UNL     1    -116.550  11.372  19.140  1.00  0.00    -0.000 C 
BRANCH  18  19
ATOM     19  C   UNL     1    -116.322   9.927  19.618  1.00  0.00    -0.003 C 
ATOM     20  C   UNL     1    -114.967   9.732  20.298  1.00  0.00     0.004 C 
ENDBRANCH  18  19
ENDBRANCH  17  18
ENDBRANCH  16  17
ENDBRANCH  15  16
ENDBRANCH  14  15
ENDBRANCH  13  14
ENDBRANCH  12  13
ENDBRANCH   1  12
TORSDOF 16
ENDMDL
MODEL 8
REMARK VINA RESULT:    -3.478      3.381      6.807
REMARK INTER + INTRA:          -9.118
REMARK INTER:                  -7.101
REMARK INTRA:                  -2.017
REMARK UNBOUND:                -2.388
REMARK SMILES CCCCCCCCCCCCCCCCCC(=O)[O-]
REMARK SMILES IDX 10 1 11 2 12 3 13 4 14 5 15 6 16 7 17 8 18 9 19 10 20 11
REMARK SMILES IDX 9 12 8 13 7 14 6 15 5 16 4 17 3 18 2 19 1 20
REMARK H PARENT
REMARK Flexibility Score: inf
ROOT
ATOM      1  C   UNL     1    -117.370  14.639  23.957  1.00  0.00     0.000 C 
ENDROOT
BRANCH   1   2
ATOM      2  C   UNL     1    -118.811  14.122  24.103  1.00  0.00     0.000 C 
BRANCH   2   3
ATOM      3  C   UNL     1    -119.774  14.767  23.091  1.00  0.00     0.000 C 
BRANCH   3   4
ATOM      4  C   UNL     1    -119.823  14.008  21.755  1.00  0.00     0.000 C 
BRANCH   4   5
ATOM      5  C   UNL     1    -119.189  14.797  20.599  1.00  0.00     0.000 C 
BRANCH   5   6
ATOM      6  C   UNL     1    -117.908  14.108  20.104  1.00  0.00     0.000 C 
BRANCH   6   7
ATOM      7  C   UNL     1    -118.046  13.553  18.677  1.00  0.00     0.006 C 
BRANCH   7   8
ATOM      8  C   UNL     1    -118.740  14.537  17.725  1.00  0.00     0.053 C 
BRANCH   8   9
ATOM      9  C   UNL     1    -117.733  15.221  16.857  1.00  0.00     0.041 C 
ATOM     10  O   UNL     1    -118.036  16.281  16.247  1.00  0.00    -0.550 OA
ATOM     11  O   UNL     1    -116.441  14.718  16.761  1.00  0.00    -0.550 OA
ENDBRANCH   8   9
ENDBRANCH   7   8
ENDBRANCH   6   7
ENDBRANCH   5   6
ENDBRANCH   4   5
ENDBRANCH   3   4
ENDBRANCH   2   3
ENDBRANCH   1   2
BRANCH   1  12
ATOM     12  C   UNL     1    -116.324  13.517  24.050  1.00  0.00     0.000 C 
BRANCH  12  13
ATOM     13  C   UNL     1    -116.894  12.192  23.519  1.00  0.00    -0.000 C 
BRANCH  13  14
ATOM     14  C   UNL     1    -116.035  11.584  22.398  1.00  0.00    -0.000 C 
BRANCH  14  15
ATOM     15  C   UNL     1    -115.443  10.219  22.778  1.00  0.00    -0.000 C 
BRANCH  15  16
ATOM     16  C   UNL     1    -115.628   9.940  24.277  1.00  0.00    -0.000 C 
BRANCH  16  17
ATOM     17  C   UNL     1    -114.304   9.984  25.062  1.00  0.00    -0.000 C 
BRANCH  17  18
ATOM     18  C   UNL     1    -113.926  11.367  25.629  1.00  0.00    -0.000 C 
BRANCH  18  19
ATOM     19  C   UNL     1    -112.757  12.066  24.912  1.00  0.00    -0.003 C 
ATOM     20  C   UNL     1    -111.980  11.129  23.989  1.00  0.00     0.004 C 
ENDBRANCH  18  19
ENDBRANCH  17  18
ENDBRANCH  16  17
ENDBRANCH  15  16
ENDBRANCH  14  15
ENDBRANCH  13  14
ENDBRANCH  12  13
ENDBRANCH   1  12
TORSDOF 16
ENDMDL
MODEL 9
REMARK VINA RESULT:    -3.328     17.596     19.502
REMARK INTER + INTRA:          -8.828
REMARK INTER:                  -6.158
REMARK INTRA:                  -2.670
REMARK UNBOUND:                -2.388
REMARK SMILES CCCCCCCCCCCCCCCCCC(=O)[O-]
REMARK SMILES IDX 10 1 11 2 12 3 13 4 14 5 15 6 16 7 17 8 18 9 19 10 20 11
REMARK SMILES IDX 9 12 8 13 7 14 6 15 5 16 4 17 3 18 2 19 1 20
REMARK H PARENT
REMARK Flexibility Score: inf
ROOT
ATOM      1  C   UNL     1    -101.951  27.054  19.671  1.00  0.00     0.000 C 
ENDROOT
BRANCH   1   2
ATOM      2  C   UNL     1    -102.781  25.767  19.814  1.00  0.00     0.000 C 
BRANCH   2   3
ATOM      3  C   UNL     1    -101.903  24.513  19.977  1.00  0.00     0.000 C 
BRANCH   3   4
ATOM      4  C   UNL     1    -100.481  24.714  19.427  1.00  0.00     0.000 C 
BRANCH   4   5
ATOM      5  C   UNL     1    -100.361  24.351  17.939  1.00  0.00     0.000 C 
BRANCH   5   6
ATOM      6  C   UNL     1    -101.270  23.164  17.590  1.00  0.00     0.000 C 
BRANCH   6   7
ATOM      7  C   UNL     1    -102.268  23.490  16.467  1.00  0.00     0.006 C 
BRANCH   7   8
ATOM      8  C   UNL     1    -103.445  22.507  16.418  1.00  0.00     0.053 C 
BRANCH   8   9
ATOM      9  C   UNL     1    -104.342  22.709  17.598  1.00  0.00     0.041 C 
ATOM     10  O   UNL     1    -104.362  21.864  18.532  1.00  0.00    -0.550 OA
ATOM     11  O   UNL     1    -105.120  23.856  17.692  1.00  0.00    -0.550 OA
ENDBRANCH   8   9
ENDBRANCH   7   8
ENDBRANCH   6   7
ENDBRANCH   5   6
ENDBRANCH   4   5
ENDBRANCH   3   4
ENDBRANCH   2   3
ENDBRANCH   1   2
BRANCH   1  12
ATOM     12  C   UNL     1    -102.420  28.171  20.615  1.00  0.00     0.000 C 
BRANCH  12  13
ATOM     13  C   UNL     1    -103.402  27.625  21.664  1.00  0.00    -0.000 C 
BRANCH  13  14
ATOM     14  C   UNL     1    -104.580  28.577  21.925  1.00  0.00    -0.000 C 
BRANCH  14  15
ATOM     15  C   UNL     1    -105.944  27.913  21.684  1.00  0.00    -0.000 C 
BRANCH  15  16
ATOM     16  C   UNL     1    -106.089  27.476  20.219  1.00  0.00    -0.000 C 
BRANCH  16  17
ATOM     17  C   UNL     1    -106.121  28.663  19.239  1.00  0.00    -0.000 C 
BRANCH  17  18
ATOM     18  C   UNL     1    -105.118  28.573  18.071  1.00  0.00    -0.000 C 
BRANCH  18  19
ATOM     19  C   UNL     1    -105.158  27.253  17.281  1.00  0.00    -0.003 C 
ATOM     20  C   UNL     1    -103.867  26.980  16.511  1.00  0.00     0.004 C 
ENDBRANCH  18  19
ENDBRANCH  17  18
ENDBRANCH  16  17
ENDBRANCH  15  16
ENDBRANCH  14  15
ENDBRANCH  13  14
ENDBRANCH  12  13
ENDBRANCH   1  12
TORSDOF 16
ENDMDL
