MODEL 1
REMARK VINA RESULT:    -6.159      0.000      0.000
REMARK INTER + INTRA:         -12.776
REMARK INTER:                 -10.839
REMARK INTRA:                  -1.937
REMARK UNBOUND:                -1.937
REMARK SMILES CCCCCCC=CCCCCCCCC(=O)[O-]
REMARK SMILES IDX 10 1 11 2 12 3 13 4 14 5 15 6 16 7 17 8 18 9 9 10 8 11 7 12
REMARK SMILES IDX 6 13 5 14 4 15 3 16 2 17 1 18
REMARK H PARENT
REMARK Flexibility Score: inf
ROOT
ATOM      1  C   UNL     1      25.027  -2.567  -1.707  1.00  0.00     0.004 C 
ENDROOT
BRANCH   1   2
ATOM      2  C   UNL     1      25.841  -3.789  -1.250  1.00  0.00     0.000 C 
BRANCH   2   3
ATOM      3  C   UNL     1      26.916  -3.428  -0.214  1.00  0.00     0.000 C 
BRANCH   3   4
ATOM      4  C   UNL     1      26.594  -3.981   1.187  1.00  0.00     0.000 C 
BRANCH   4   5
ATOM      5  C   UNL     1      25.292  -4.797   1.214  1.00  0.00     0.006 C 
BRANCH   5   6
ATOM      6  C   UNL     1      24.176  -4.099   2.004  1.00  0.00     0.053 C 
BRANCH   6   7
ATOM      7  C   UNL     1      22.854  -4.733   1.708  1.00  0.00     0.041 C 
ATOM      8  O   UNL     1      22.532  -5.007   0.521  1.00  0.00    -0.550 OA
ATOM      9  O   UNL     1      21.995  -5.068   2.747  1.00  0.00    -0.550 OA
ENDBRANCH   6   7
ENDBRANCH   5   6
ENDBRANCH   4   5
ENDBRANCH   3   4
ENDBRANCH   2   3
ENDBRANCH   1   2
BRANCH   1  10
ATOM     10  C   UNL     1      25.263  -1.343  -0.813  1.00  0.00     0.027 C 
BRANCH  10  11
ATOM     11  C   UNL     1      24.134  -1.145   0.169  1.00  0.00    -0.031 C 
ATOM     12  C   UNL     1      23.230  -0.148   0.137  1.00  0.00    -0.031 C 
BRANCH  12  13
ATOM     13  C   UNL     1      23.202   0.985  -0.860  1.00  0.00     0.027 C 
BRANCH  13  14
ATOM     14  C   UNL     1      22.116   0.775  -1.927  1.00  0.00     0.004 C 
BRANCH  14  15
ATOM     15  C   UNL     1      22.314  -0.498  -2.771  1.00  0.00     0.000 C 
BRANCH  15  16
ATOM     16  C   UNL     1      21.071  -1.405  -2.761  1.00  0.00    -0.000 C 
BRANCH  16  17
ATOM     17  C   UNL     1      21.192  -2.557  -1.751  1.00  0.00    -0.003 C 
ATOM     18  C   UNL     1      20.577  -2.221  -0.394  1.00  0.00     0.004 C 
ENDBRANCH  16  17
ENDBRANCH  15  16
ENDBRANCH  14  15
ENDBRANCH  13  14
ENDBRANCH  12  13
ENDBRANCH  10  11
ENDBRANCH   1  10
TORSDOF 13
ENDMDL
MODEL 2
REMARK VINA RESULT:    -6.092      3.289      5.439
REMARK INTER + INTRA:         -12.659
REMARK INTER:                 -10.917
REMARK INTRA:                  -1.743
REMARK UNBOUND:                -1.937
REMARK SMILES CCCCCCC=CCCCCCCCC(=O)[O-]
REMARK SMILES IDX 10 1 11 2 12 3 13 4 14 5 15 6 16 7 17 8 18 9 9 10 8 11 7 12
REMARK SMILES IDX 6 13 5 14 4 15 3 16 2 17 1 18
REMARK H PARENT
REMARK Flexibility Score: inf
ROOT
ATOM      1  C   UNL     1      21.732  -1.187  -2.820  1.00  0.00     0.004 C 
ENDROOT
BRANCH   1   2
ATOM      2  C   UNL     1      22.541  -2.235  -3.603  1.00  0.00     0.000 C 
BRANCH   2   3
ATOM      3  C   UNL     1      21.792  -3.569  -3.751  1.00  0.00     0.000 C 
BRANCH   3   4
ATOM      4  C   UNL     1      22.236  -4.613  -2.711  1.00  0.00     0.000 C 
BRANCH   4   5
ATOM      5  C   UNL     1      22.638  -5.951  -3.352  1.00  0.00     0.006 C 
BRANCH   5   6
ATOM      6  C   UNL     1      21.446  -6.681  -3.988  1.00  0.00     0.053 C 
BRANCH   6   7
ATOM      7  C   UNL     1      21.738  -7.006  -5.419  1.00  0.00     0.041 C 
ATOM      8  O   UNL     1      21.321  -8.082  -5.923  1.00  0.00    -0.550 OA
ATOM      9  O   UNL     1      22.428  -6.097  -6.211  1.00  0.00    -0.550 OA
ENDBRANCH   6   7
ENDBRANCH   5   6
ENDBRANCH   4   5
ENDBRANCH   3   4
ENDBRANCH   2   3
ENDBRANCH   1   2
BRANCH   1  10
ATOM     10  C   UNL     1      22.568   0.050  -2.471  1.00  0.00     0.027 C 
BRANCH  10  11
ATOM     11  C   UNL     1      22.229   0.582  -1.100  1.00  0.00    -0.031 C 
ATOM     12  C   UNL     1      22.848   0.249   0.049  1.00  0.00    -0.031 C 
BRANCH  12  13
ATOM     13  C   UNL     1      23.969  -0.754   0.186  1.00  0.00     0.027 C 
BRANCH  13  14
ATOM     14  C   UNL     1      23.434  -2.168   0.464  1.00  0.00     0.004 C 
BRANCH  14  15
ATOM     15  C   UNL     1      24.290  -3.288  -0.155  1.00  0.00     0.000 C 
BRANCH  15  16
ATOM     16  C   UNL     1      25.233  -2.763  -1.252  1.00  0.00    -0.000 C 
BRANCH  16  17
ATOM     17  C   UNL     1      26.676  -3.258  -1.073  1.00  0.00    -0.003 C 
ATOM     18  C   UNL     1      26.960  -3.753   0.344  1.00  0.00     0.004 C 
ENDBRANCH  16  17
ENDBRANCH  15  16
ENDBRANCH  14  15
ENDBRANCH  13  14
ENDBRANCH  12  13
ENDBRANCH  10  11
ENDBRANCH   1  10
TORSDOF 13
ENDMDL
MODEL 3
REMARK VINA RESULT:    -6.090      2.511      5.052
REMARK INTER + INTRA:         -12.657
REMARK INTER:                 -10.263
REMARK INTRA:                  -2.393
REMARK UNBOUND:                -1.937
REMARK SMILES CCCCCCC=CCCCCCCCC(=O)[O-]
REMARK SMILES IDX 10 1 11 2 12 3 13 4 14 5 15 6 16 7 17 8 18 9 9 10 8 11 7 12
REMARK SMILES IDX 6 13 5 14 4 15 3 16 2 17 1 18
REMARK H PARENT
REMARK Flexibility Score: inf
ROOT
ATOM      1  C   UNL     1      21.827  -0.110  -0.943  1.00  0.00     0.004 C 
ENDROOT
BRANCH   1   2
ATOM      2  C   UNL     1      22.254   0.341  -2.350  1.00  0.00     0.000 C 
BRANCH   2   3
ATOM      3  C   UNL     1      22.746  -0.826  -3.220  1.00  0.00     0.000 C 
BRANCH   3   4
ATOM      4  C   UNL     1      21.826  -2.057  -3.130  1.00  0.00     0.000 C 
BRANCH   4   5
ATOM      5  C   UNL     1      22.438  -3.300  -3.796  1.00  0.00     0.006 C 
BRANCH   5   6
ATOM      6  C   UNL     1      21.390  -4.377  -4.109  1.00  0.00     0.053 C 
BRANCH   6   7
ATOM      7  C   UNL     1      22.053  -5.614  -4.627  1.00  0.00     0.041 C 
ATOM      8  O   UNL     1      22.225  -5.770  -5.865  1.00  0.00    -0.550 OA
ATOM      9  O   UNL     1      22.527  -6.573  -3.741  1.00  0.00    -0.550 OA
ENDBRANCH   6   7
ENDBRANCH   5   6
ENDBRANCH   4   5
ENDBRANCH   3   4
ENDBRANCH   2   3
ENDBRANCH   1   2
BRANCH   1  10
ATOM     10  C   UNL     1      22.890   0.207   0.117  1.00  0.00     0.027 C 
BRANCH  10  11
ATOM     11  C   UNL     1      23.400  -1.046   0.786  1.00  0.00    -0.031 C 
ATOM     12  C   UNL     1      24.462  -1.773   0.389  1.00  0.00    -0.031 C 
BRANCH  12  13
ATOM     13  C   UNL     1      25.315  -1.496  -0.826  1.00  0.00     0.027 C 
BRANCH  13  14
ATOM     14  C   UNL     1      25.438  -2.736  -1.726  1.00  0.00     0.004 C 
BRANCH  14  15
ATOM     15  C   UNL     1      25.583  -4.056  -0.947  1.00  0.00     0.000 C 
BRANCH  15  16
ATOM     16  C   UNL     1      24.437  -5.039  -1.243  1.00  0.00    -0.000 C 
BRANCH  16  17
ATOM     17  C   UNL     1      23.488  -5.212  -0.048  1.00  0.00    -0.003 C 
ATOM     18  C   UNL     1      22.114  -4.587  -0.288  1.00  0.00     0.004 C 
ENDBRANCH  16  17
ENDBRANCH  15  16
ENDBRANCH  14  15
ENDBRANCH  13  14
ENDBRANCH  12  13
ENDBRANCH  10  11
ENDBRANCH   1  10
TORSDOF 13
ENDMDL
MODEL 4
REMARK VINA RESULT:    -6.033      1.483      4.534
REMARK INTER + INTRA:         -12.555
REMARK INTER:                 -10.123
REMARK INTRA:                  -2.432
REMARK UNBOUND:                -1.937
REMARK SMILES CCCCCCC=CCCCCCCCC(=O)[O-]
REMARK SMILES IDX 10 1 11 2 12 3 13 4 14 5 15 6 16 7 17 8 18 9 9 10 8 11 7 12
REMARK SMILES IDX 6 13 5 14 4 15 3 16 2 17 1 18
REMARK H PARENT
REMARK Flexibility Score: inf
ROOT
ATOM      1  C   UNL     1      22.065   0.742  -1.515  1.00  0.00     0.004 C 
ENDROOT
BRANCH   1   2
ATOM      2  C   UNL     1      22.451  -0.001  -2.806  1.00  0.00     0.000 C 
BRANCH   2   3
ATOM      3  C   UNL     1      21.851  -1.413  -2.875  1.00  0.00     0.000 C 
BRANCH   3   4
ATOM      4  C   UNL     1      22.814  -2.433  -3.509  1.00  0.00     0.000 C 
BRANCH   4   5
ATOM      5  C   UNL     1      22.627  -3.851  -2.945  1.00  0.00     0.006 C 
BRANCH   5   6
ATOM      6  C   UNL     1      22.117  -3.846  -1.497  1.00  0.00     0.053 C 
BRANCH   6   7
ATOM      7  C   UNL     1      21.127  -4.948  -1.290  1.00  0.00     0.041 C 
ATOM      8  O   UNL     1      20.666  -5.581  -2.276  1.00  0.00    -0.550 OA
ATOM      9  O   UNL     1      20.749  -5.310  -0.003  1.00  0.00    -0.550 OA
ENDBRANCH   6   7
ENDBRANCH   5   6
ENDBRANCH   4   5
ENDBRANCH   3   4
ENDBRANCH   2   3
ENDBRANCH   1   2
BRANCH   1  10
ATOM     10  C   UNL     1      23.231   0.827  -0.522  1.00  0.00     0.027 C 
BRANCH  10  11
ATOM     11  C   UNL     1      23.234  -0.342   0.433  1.00  0.00    -0.031 C 
ATOM     12  C   UNL     1      24.064  -1.402   0.376  1.00  0.00    -0.031 C 
BRANCH  12  13
ATOM     13  C   UNL     1      25.116  -1.641  -0.680  1.00  0.00     0.027 C 
BRANCH  13  14
ATOM     14  C   UNL     1      26.089  -2.759  -0.268  1.00  0.00     0.004 C 
BRANCH  14  15
ATOM     15  C   UNL     1      25.931  -4.051  -1.090  1.00  0.00     0.000 C 
BRANCH  15  16
ATOM     16  C   UNL     1      25.174  -5.146  -0.318  1.00  0.00    -0.000 C 
BRANCH  16  17
ATOM     17  C   UNL     1      25.169  -4.899   1.198  1.00  0.00    -0.003 C 
ATOM     18  C   UNL     1      23.761  -4.903   1.793  1.00  0.00     0.004 C 
ENDBRANCH  16  17
ENDBRANCH  15  16
ENDBRANCH  14  15
ENDBRANCH  13  14
ENDBRANCH  12  13
ENDBRANCH  10  11
ENDBRANCH   1  10
TORSDOF 13
ENDMDL
MODEL 5
REMARK VINA RESULT:    -5.981      1.848      5.208
REMARK INTER + INTRA:         -12.464
REMARK INTER:                 -10.560
REMARK INTRA:                  -1.904
REMARK UNBOUND:                -1.937
REMARK SMILES CCCCCCC=CCCCCCCCC(=O)[O-]
REMARK SMILES IDX 10 1 11 2 12 3 13 4 14 5 15 6 16 7 17 8 18 9 9 10 8 11 7 12
REMARK SMILES IDX 6 13 5 14 4 15 3 16 2 17 1 18
REMARK H PARENT
REMARK Flexibility Score: inf
ROOT
ATOM      1  C   UNL     1      24.996  -1.071  -0.645  1.00  0.00     0.004 C 
ENDROOT
BRANCH   1   2
ATOM      2  C   UNL     1      23.850  -1.101   0.379  1.00  0.00     0.000 C 
BRANCH   2   3
ATOM      3  C   UNL     1      22.677  -0.192  -0.021  1.00  0.00     0.000 C 
BRANCH   3   4
ATOM      4  C   UNL     1      22.973   0.629  -1.290  1.00  0.00     0.000 C 
BRANCH   4   5
ATOM      5  C   UNL     1      22.181   0.133  -2.511  1.00  0.00     0.006 C 
BRANCH   5   6
ATOM      6  C   UNL     1      21.251  -1.039  -2.172  1.00  0.00     0.053 C 
BRANCH   6   7
ATOM      7  C   UNL     1      21.668  -2.267  -2.918  1.00  0.00     0.041 C 
ATOM      8  O   UNL     1      21.115  -3.373  -2.680  1.00  0.00    -0.550 OA
ATOM      9  O   UNL     1      22.635  -2.182  -3.912  1.00  0.00    -0.550 OA
ENDBRANCH   6   7
ENDBRANCH   5   6
ENDBRANCH   4   5
ENDBRANCH   3   4
ENDBRANCH   2   3
ENDBRANCH   1   2
BRANCH   1  10
ATOM     10  C   UNL     1      25.092  -2.374  -1.449  1.00  0.00     0.027 C 
BRANCH  10  11
ATOM     11  C   UNL     1      26.296  -3.190  -1.044  1.00  0.00    -0.031 C 
ATOM     12  C   UNL     1      26.263  -4.415  -0.485  1.00  0.00    -0.031 C 
BRANCH  12  13
ATOM     13  C   UNL     1      25.016  -5.184  -0.118  1.00  0.00     0.027 C 
BRANCH  13  14
ATOM     14  C   UNL     1      24.796  -5.214   1.404  1.00  0.00     0.004 C 
BRANCH  14  15
ATOM     15  C   UNL     1      24.052  -3.981   1.946  1.00  0.00     0.000 C 
BRANCH  15  16
ATOM     16  C   UNL     1      22.573  -4.277   2.250  1.00  0.00    -0.000 C 
BRANCH  16  17
ATOM     17  C   UNL     1      21.674  -4.112   1.016  1.00  0.00    -0.003 C 
ATOM     18  C   UNL     1      20.658  -2.982   1.171  1.00  0.00     0.004 C 
ENDBRANCH  16  17
ENDBRANCH  15  16
ENDBRANCH  14  15
ENDBRANCH  13  14
ENDBRANCH  12  13
ENDBRANCH  10  11
ENDBRANCH   1  10
TORSDOF 13
ENDMDL
MODEL 6
REMARK VINA RESULT:    -5.970      3.163      4.478
REMARK INTER + INTRA:         -12.444
REMARK INTER:                 -10.323
REMARK INTRA:                  -2.121
REMARK UNBOUND:                -1.937
REMARK SMILES CCCCCCC=CCCCCCCCC(=O)[O-]
REMARK SMILES IDX 10 1 11 2 12 3 13 4 14 5 15 6 16 7 17 8 18 9 9 10 8 11 7 12
REMARK SMILES IDX 6 13 5 14 4 15 3 16 2 17 1 18
REMARK H PARENT
REMARK Flexibility Score: inf
ROOT
ATOM      1  C   UNL     1      25.685  -4.196  -0.411  1.00  0.00     0.004 C 
ENDROOT
BRANCH   1   2
ATOM      2  C   UNL     1      24.579  -5.261  -0.499  1.00  0.00     0.000 C 
BRANCH   2   3
ATOM      3  C   UNL     1      23.871  -5.265  -1.862  1.00  0.00     0.000 C 
BRANCH   3   4
ATOM      4  C   UNL     1      22.350  -5.063  -1.738  1.00  0.00     0.000 C 
BRANCH   4   5
ATOM      5  C   UNL     1      21.575  -5.679  -2.914  1.00  0.00     0.006 C 
BRANCH   5   6
ATOM      6  C   UNL     1      22.501  -6.313  -3.962  1.00  0.00     0.053 C 
BRANCH   6   7
ATOM      7  C   UNL     1      21.867  -6.263  -5.315  1.00  0.00     0.041 C 
ATOM      8  O   UNL     1      20.686  -6.671  -5.479  1.00  0.00    -0.550 OA
ATOM      9  O   UNL     1      22.562  -5.721  -6.389  1.00  0.00    -0.550 OA
ENDBRANCH   6   7
ENDBRANCH   5   6
ENDBRANCH   4   5
ENDBRANCH   3   4
ENDBRANCH   2   3
ENDBRANCH   1   2
BRANCH   1  10
ATOM     10  C   UNL     1      25.349  -2.940  -1.225  1.00  0.00     0.027 C 
BRANCH  10  11
ATOM     11  C   UNL     1      25.224  -1.722  -0.342  1.00  0.00    -0.031 C 
ATOM     12  C   UNL     1      24.151  -1.397   0.403  1.00  0.00    -0.031 C 
BRANCH  12  13
ATOM     13  C   UNL     1      22.852  -2.167   0.460  1.00  0.00     0.027 C 
BRANCH  13  14
ATOM     14  C   UNL     1      21.717  -1.418  -0.257  1.00  0.00     0.004 C 
BRANCH  14  15
ATOM     15  C   UNL     1      22.113  -0.012  -0.743  1.00  0.00     0.000 C 
BRANCH  15  16
ATOM     16  C   UNL     1      22.282   0.052  -2.271  1.00  0.00    -0.000 C 
BRANCH  16  17
ATOM     17  C   UNL     1      21.758  -1.209  -2.974  1.00  0.00    -0.003 C 
ATOM     18  C   UNL     1      22.854  -1.968  -3.721  1.00  0.00     0.004 C 
ENDBRANCH  16  17
ENDBRANCH  15  16
ENDBRANCH  14  15
ENDBRANCH  13  14
ENDBRANCH  12  13
ENDBRANCH  10  11
ENDBRANCH   1  10
TORSDOF 13
ENDMDL
MODEL 7
REMARK VINA RESULT:    -5.967      3.050      5.364
REMARK INTER + INTRA:         -12.440
REMARK INTER:                  -9.896
REMARK INTRA:                  -2.544
REMARK UNBOUND:                -1.937
REMARK SMILES CCCCCCC=CCCCCCCCC(=O)[O-]
REMARK SMILES IDX 10 1 11 2 12 3 13 4 14 5 15 6 16 7 17 8 18 9 9 10 8 11 7 12
REMARK SMILES IDX 6 13 5 14 4 15 3 16 2 17 1 18
REMARK H PARENT
REMARK Flexibility Score: inf
ROOT
ATOM      1  C   UNL     1      21.796  -1.889  -0.694  1.00  0.00     0.004 C 
ENDROOT
BRANCH   1   2
ATOM      2  C   UNL     1      21.318  -2.887  -1.762  1.00  0.00     0.000 C 
BRANCH   2   3
ATOM      3  C   UNL     1      22.032  -2.698  -3.109  1.00  0.00     0.000 C 
BRANCH   3   4
ATOM      4  C   UNL     1      21.921  -3.938  -4.015  1.00  0.00     0.000 C 
BRANCH   4   5
ATOM      5  C   UNL     1      21.701  -5.233  -3.218  1.00  0.00     0.006 C 
BRANCH   5   6
ATOM      6  C   UNL     1      22.621  -6.372  -3.680  1.00  0.00     0.053 C 
BRANCH   6   7
ATOM      7  C   UNL     1      22.034  -7.067  -4.867  1.00  0.00     0.041 C 
ATOM      8  O   UNL     1      22.714  -7.213  -5.917  1.00  0.00    -0.550 OA
ATOM      9  O   UNL     1      20.751  -7.597  -4.799  1.00  0.00    -0.550 OA
ENDBRANCH   6   7
ENDBRANCH   5   6
ENDBRANCH   4   5
ENDBRANCH   3   4
ENDBRANCH   2   3
ENDBRANCH   1   2
BRANCH   1  10
ATOM     10  C   UNL     1      22.746  -0.832  -1.271  1.00  0.00     0.027 C 
BRANCH  10  11
ATOM     11  C   UNL     1      24.013  -0.720  -0.459  1.00  0.00    -0.031 C 
ATOM     12  C   UNL     1      25.138  -1.435  -0.652  1.00  0.00    -0.031 C 
BRANCH  12  13
ATOM     13  C   UNL     1      25.327  -2.515  -1.690  1.00  0.00     0.027 C 
BRANCH  13  14
ATOM     14  C   UNL     1      25.725  -3.855  -1.049  1.00  0.00     0.004 C 
BRANCH  14  15
ATOM     15  C   UNL     1      24.597  -4.903  -1.054  1.00  0.00     0.000 C 
BRANCH  15  16
ATOM     16  C   UNL     1      23.850  -4.964   0.290  1.00  0.00    -0.000 C 
BRANCH  16  17
ATOM     17  C   UNL     1      24.700  -4.443   1.459  1.00  0.00    -0.003 C 
ATOM     18  C   UNL     1      23.989  -3.361   2.271  1.00  0.00     0.004 C 
ENDBRANCH  16  17
ENDBRANCH  15  16
ENDBRANCH  14  15
ENDBRANCH  13  14
ENDBRANCH  12  13
ENDBRANCH  10  11
ENDBRANCH   1  10
TORSDOF 13
ENDMDL
MODEL 8
REMARK VINA RESULT:    -5.965      2.177      3.985
REMARK INTER + INTRA:         -12.435
REMARK INTER:                  -9.862
REMARK INTRA:                  -2.573
REMARK UNBOUND:                -1.937
REMARK SMILES CCCCCCC=CCCCCCCCC(=O)[O-]
REMARK SMILES IDX 10 1 11 2 12 3 13 4 14 5 15 6 16 7 17 8 18 9 9 10 8 11 7 12
REMARK SMILES IDX 6 13 5 14 4 15 3 16 2 17 1 18
REMARK H PARENT
REMARK Flexibility Score: inf
ROOT
ATOM      1  C   UNL     1      25.135  -3.052   1.383  1.00  0.00     0.004 C 
ENDROOT
BRANCH   1   2
ATOM      2  C   UNL     1      25.803  -4.335   0.861  1.00  0.00     0.000 C 
BRANCH   2   3
ATOM      3  C   UNL     1      25.752  -4.446  -0.670  1.00  0.00     0.000 C 
BRANCH   3   4
ATOM      4  C   UNL     1      25.137  -3.199  -1.332  1.00  0.00     0.000 C 
BRANCH   4   5
ATOM      5  C   UNL     1      23.833  -3.512  -2.082  1.00  0.00     0.006 C 
BRANCH   5   6
ATOM      6  C   UNL     1      23.442  -4.994  -1.991  1.00  0.00     0.053 C 
BRANCH   6   7
ATOM      7  C   UNL     1      22.622  -5.390  -3.178  1.00  0.00     0.041 C 
ATOM      8  O   UNL     1      22.578  -6.593  -3.546  1.00  0.00    -0.550 OA
ATOM      9  O   UNL     1      21.865  -4.437  -3.849  1.00  0.00    -0.550 OA
ENDBRANCH   6   7
ENDBRANCH   5   6
ENDBRANCH   4   5
ENDBRANCH   3   4
ENDBRANCH   2   3
ENDBRANCH   1   2
BRANCH   1  10
ATOM     10  C   UNL     1      24.009  -3.347   2.382  1.00  0.00     0.027 C 
BRANCH  10  11
ATOM     11  C   UNL     1      23.169  -4.522   1.942  1.00  0.00    -0.031 C 
ATOM     12  C   UNL     1      21.921  -4.454   1.443  1.00  0.00    -0.031 C 
BRANCH  12  13
ATOM     13  C   UNL     1      21.108  -3.193   1.272  1.00  0.00     0.027 C 
BRANCH  13  14
ATOM     14  C   UNL     1      21.014  -2.775  -0.205  1.00  0.00     0.004 C 
BRANCH  14  15
ATOM     15  C   UNL     1      21.209  -1.265  -0.434  1.00  0.00     0.000 C 
BRANCH  15  16
ATOM     16  C   UNL     1      22.564  -0.764   0.094  1.00  0.00    -0.000 C 
BRANCH  16  17
ATOM     17  C   UNL     1      23.282   0.154  -0.908  1.00  0.00    -0.003 C 
ATOM     18  C   UNL     1      22.523   0.301  -2.225  1.00  0.00     0.004 C 
ENDBRANCH  16  17
ENDBRANCH  15  16
ENDBRANCH  14  15
ENDBRANCH  13  14
ENDBRANCH  12  13
ENDBRANCH  10  11
ENDBRANCH   1  10
TORSDOF 13
ENDMDL
MODEL 9
REMARK VINA RESULT:    -5.910      1.933      3.224
REMARK INTER + INTRA:         -12.339
REMARK INTER:                  -9.882
REMARK INTRA:                  -2.457
REMARK UNBOUND:                -1.937
REMARK SMILES CCCCCCC=CCCCCCCCC(=O)[O-]
REMARK SMILES IDX 10 1 11 2 12 3 13 4 14 5 15 6 16 7 17 8 18 9 9 10 8 11 7 12
REMARK SMILES IDX 6 13 5 14 4 15 3 16 2 17 1 18
REMARK H PARENT
REMARK Flexibility Score: inf
ROOT
ATOM      1  C   UNL     1      24.488  -4.808  -0.961  1.00  0.00     0.004 C 
ENDROOT
BRANCH   1   2
ATOM      2  C   UNL     1      23.317  -4.962   0.023  1.00  0.00     0.000 C 
BRANCH   2   3
ATOM      3  C   UNL     1      23.744  -4.762   1.485  1.00  0.00     0.000 C 
BRANCH   3   4
ATOM      4  C   UNL     1      22.641  -4.111   2.339  1.00  0.00     0.000 C 
BRANCH   4   5
ATOM      5  C   UNL     1      21.243  -4.663   2.017  1.00  0.00     0.006 C 
BRANCH   5   6
ATOM      6  C   UNL     1      20.118  -3.763   2.546  1.00  0.00     0.053 C 
BRANCH   6   7
ATOM      7  C   UNL     1      19.640  -4.254   3.876  1.00  0.00     0.041 C 
ATOM      8  O   UNL     1      19.829  -5.452   4.216  1.00  0.00    -0.550 OA
ATOM      9  O   UNL     1      19.028  -3.376   4.762  1.00  0.00    -0.550 OA
ENDBRANCH   6   7
ENDBRANCH   5   6
ENDBRANCH   4   5
ENDBRANCH   3   4
ENDBRANCH   2   3
ENDBRANCH   1   2
BRANCH   1  10
ATOM     10  C   UNL     1      25.491  -3.740  -0.508  1.00  0.00     0.027 C 
BRANCH  10  11
ATOM     11  C   UNL     1      25.363  -2.475  -1.322  1.00  0.00    -0.031 C 
ATOM     12  C   UNL     1      24.707  -1.360  -0.946  1.00  0.00    -0.031 C 
BRANCH  12  13
ATOM     13  C   UNL     1      23.938  -1.183   0.342  1.00  0.00     0.027 C 
BRANCH  13  14
ATOM     14  C   UNL     1      22.496  -0.720   0.081  1.00  0.00     0.004 C 
BRANCH  14  15
ATOM     15  C   UNL     1      21.584  -1.823  -0.486  1.00  0.00     0.000 C 
BRANCH  15  16
ATOM     16  C   UNL     1      21.069  -1.488  -1.897  1.00  0.00    -0.000 C 
BRANCH  16  17
ATOM     17  C   UNL     1      21.326  -2.622  -2.901  1.00  0.00    -0.003 C 
ATOM     18  C   UNL     1      22.592  -2.404  -3.728  1.00  0.00     0.004 C 
ENDBRANCH  16  17
ENDBRANCH  15  16
ENDBRANCH  14  15
ENDBRANCH  13  14
ENDBRANCH  12  13
ENDBRANCH  10  11
ENDBRANCH   1  10
TORSDOF 13
ENDMDL
