MODEL 1
REMARK VINA RESULT:    -4.029      0.000      0.000
REMARK INTER + INTRA:          -5.026
REMARK INTER:                  -4.971
REMARK INTRA:                  -0.055
REMARK UNBOUND:                -0.055
REMARK SMILES CCCCCC(=O)[O-]
REMARK SMILES IDX 4 1 5 2 6 3 7 4 8 5 3 6 2 7 1 8
REMARK H PARENT
REMARK Flexibility Score: inf
ROOT
ATOM      1  C   UNL     1      24.234   6.898  18.775  1.00  0.00     0.006 C 
ENDROOT
BRANCH   1   2
ATOM      2  C   UNL     1      25.392   6.028  19.273  1.00  0.00     0.053 C 
BRANCH   2   3
ATOM      3  C   UNL     1      25.574   4.839  18.384  1.00  0.00     0.041 C 
ATOM      4  O   UNL     1      24.660   4.493  17.591  1.00  0.00    -0.550 OA
ATOM      5  O   UNL     1      26.736   4.081  18.467  1.00  0.00    -0.550 OA
ENDBRANCH   2   3
ENDBRANCH   1   2
BRANCH   1   6
ATOM      6  C   UNL     1      23.538   7.607  19.942  1.00  0.00     0.000 C 
BRANCH   6   7
ATOM      7  C   UNL     1      23.101   9.022  19.544  1.00  0.00    -0.003 C 
ATOM      8  C   UNL     1      21.886   9.472  20.349  1.00  0.00     0.004 C 
ENDBRANCH   6   7
ENDBRANCH   1   6
TORSDOF 4
ENDMDL
MODEL 2
REMARK VINA RESULT:    -3.630      2.625      5.022
REMARK INTER + INTRA:          -4.534
REMARK INTER:                  -4.436
REMARK INTRA:                  -0.098
REMARK UNBOUND:                -0.055
REMARK SMILES CCCCCC(=O)[O-]
REMARK SMILES IDX 4 1 5 2 6 3 7 4 8 5 3 6 2 7 1 8
REMARK H PARENT
REMARK Flexibility Score: inf
ROOT
ATOM      1  C   UNL     1      26.020   5.531  18.425  1.00  0.00     0.006 C 
ENDROOT
BRANCH   1   2
ATOM      2  C   UNL     1      24.560   5.919  18.678  1.00  0.00     0.053 C 
BRANCH   2   3
ATOM      3  C   UNL     1      24.482   7.095  19.598  1.00  0.00     0.041 C 
ATOM      4  O   UNL     1      25.307   7.219  20.542  1.00  0.00    -0.550 OA
ATOM      5  O   UNL     1      23.468   8.032  19.444  1.00  0.00    -0.550 OA
ENDBRANCH   2   3
ENDBRANCH   1   2
BRANCH   1   6
ATOM      6  C   UNL     1      26.177   4.009  18.333  1.00  0.00     0.000 C 
BRANCH   6   7
ATOM      7  C   UNL     1      25.153   3.408  17.362  1.00  0.00    -0.003 C 
ATOM      8  C   UNL     1      25.803   2.375  16.445  1.00  0.00     0.004 C 
ENDBRANCH   6   7
ENDBRANCH   1   6
TORSDOF 4
ENDMDL
MODEL 3
REMARK VINA RESULT:    -3.529     10.669     11.691
REMARK INTER + INTRA:          -4.410
REMARK INTER:                  -4.239
REMARK INTRA:                  -0.171
REMARK UNBOUND:                -0.055
REMARK SMILES CCCCCC(=O)[O-]
REMARK SMILES IDX 4 1 5 2 6 3 7 4 8 5 3 6 2 7 1 8
REMARK H PARENT
REMARK Flexibility Score: inf
ROOT
ATOM      1  C   UNL     1      22.613  -4.267  21.129  1.00  0.00     0.006 C 
ENDROOT
BRANCH   1   2
ATOM      2  C   UNL     1      23.418  -4.728  19.910  1.00  0.00     0.053 C 
BRANCH   2   3
ATOM      3  C   UNL     1      23.629  -6.208  19.949  1.00  0.00     0.041 C 
ATOM      4  O   UNL     1      24.795  -6.683  19.931  1.00  0.00    -0.550 OA
ATOM      5  O   UNL     1      22.537  -7.066  19.957  1.00  0.00    -0.550 OA
ENDBRANCH   2   3
ENDBRANCH   1   2
BRANCH   1   6
ATOM      6  C   UNL     1      21.258  -3.689  20.707  1.00  0.00     0.000 C 
BRANCH   6   7
ATOM      7  C   UNL     1      21.175  -3.538  19.183  1.00  0.00    -0.003 C 
ATOM      8  C   UNL     1      20.398  -2.283  18.795  1.00  0.00     0.004 C 
ENDBRANCH   6   7
ENDBRANCH   1   6
TORSDOF 4
ENDMDL
MODEL 4
REMARK VINA RESULT:    -3.418     12.098     12.508
REMARK INTER + INTRA:          -4.273
REMARK INTER:                  -4.223
REMARK INTRA:                  -0.050
REMARK UNBOUND:                -0.055
REMARK SMILES CCCCCC(=O)[O-]
REMARK SMILES IDX 4 1 5 2 6 3 7 4 8 5 3 6 2 7 1 8
REMARK H PARENT
REMARK Flexibility Score: inf
ROOT
ATOM      1  C   UNL     1      19.401   3.340   8.239  1.00  0.00     0.006 C 
ENDROOT
BRANCH   1   2
ATOM      2  C   UNL     1      19.228   2.000   8.959  1.00  0.00     0.053 C 
BRANCH   2   3
ATOM      3  C   UNL     1      17.870   1.909   9.578  1.00  0.00     0.041 C 
ATOM      4  O   UNL     1      16.974   2.739   9.270  1.00  0.00    -0.550 OA
ATOM      5  O   UNL     1      17.606   0.936  10.535  1.00  0.00    -0.550 OA
ENDBRANCH   2   3
ENDBRANCH   1   2
BRANCH   1   6
ATOM      6  C   UNL     1      20.867   3.787   8.253  1.00  0.00     0.000 C 
BRANCH   6   7
ATOM      7  C   UNL     1      21.023   5.181   7.633  1.00  0.00    -0.003 C 
ATOM      8  C   UNL     1      22.446   5.406   7.131  1.00  0.00     0.004 C 
ENDBRANCH   6   7
ENDBRANCH   1   6
TORSDOF 4
ENDMDL
MODEL 5
REMARK VINA RESULT:    -3.396     10.613     11.264
REMARK INTER + INTRA:          -4.246
REMARK INTER:                  -4.124
REMARK INTRA:                  -0.123
REMARK UNBOUND:                -0.055
REMARK SMILES CCCCCC(=O)[O-]
REMARK SMILES IDX 4 1 5 2 6 3 7 4 8 5 3 6 2 7 1 8
REMARK H PARENT
REMARK Flexibility Score: inf
ROOT
ATOM      1  C   UNL     1      23.185  -4.116  18.556  1.00  0.00     0.006 C 
ENDROOT
BRANCH   1   2
ATOM      2  C   UNL     1      22.963  -4.343  20.054  1.00  0.00     0.053 C 
BRANCH   2   3
ATOM      3  C   UNL     1      21.589  -3.906  20.453  1.00  0.00     0.041 C 
ATOM      4  O   UNL     1      21.193  -4.057  21.639  1.00  0.00    -0.550 OA
ATOM      5  O   UNL     1      20.725  -3.377  19.502  1.00  0.00    -0.550 OA
ENDBRANCH   2   3
ENDBRANCH   1   2
BRANCH   1   6
ATOM      6  C   UNL     1      24.651  -3.775  18.263  1.00  0.00     0.000 C 
BRANCH   6   7
ATOM      7  C   UNL     1      25.483  -3.777  19.551  1.00  0.00    -0.003 C 
ATOM      8  C   UNL     1      26.848  -3.130  19.327  1.00  0.00     0.004 C 
ENDBRANCH   6   7
ENDBRANCH   1   6
TORSDOF 4
ENDMDL
MODEL 6
REMARK VINA RESULT:    -3.329     11.129     11.778
REMARK INTER + INTRA:          -4.162
REMARK INTER:                  -3.979
REMARK INTRA:                  -0.184
REMARK UNBOUND:                -0.055
REMARK SMILES CCCCCC(=O)[O-]
REMARK SMILES IDX 4 1 5 2 6 3 7 4 8 5 3 6 2 7 1 8
REMARK H PARENT
REMARK Flexibility Score: inf
ROOT
ATOM      1  C   UNL     1      22.857  -4.183  20.231  1.00  0.00     0.006 C 
ENDROOT
BRANCH   1   2
ATOM      2  C   UNL     1      23.023  -5.667  20.571  1.00  0.00     0.053 C 
BRANCH   2   3
ATOM      3  C   UNL     1      23.806  -6.365  19.504  1.00  0.00     0.041 C 
ATOM      4  O   UNL     1      23.278  -6.609  18.387  1.00  0.00    -0.550 OA
ATOM      5  O   UNL     1      25.103  -6.791  19.760  1.00  0.00    -0.550 OA
ENDBRANCH   2   3
ENDBRANCH   1   2
BRANCH   1   6
ATOM      6  C   UNL     1      21.394  -3.749  20.366  1.00  0.00     0.000 C 
BRANCH   6   7
ATOM      7  C   UNL     1      20.837  -3.265  19.021  1.00  0.00    -0.003 C 
ATOM      8  C   UNL     1      21.892  -3.360  17.922  1.00  0.00     0.004 C 
ENDBRANCH   6   7
ENDBRANCH   1   6
TORSDOF 4
ENDMDL
MODEL 7
REMARK VINA RESULT:    -3.315     12.117     12.782
REMARK INTER + INTRA:          -4.146
REMARK INTER:                  -4.025
REMARK INTRA:                  -0.120
REMARK UNBOUND:                -0.055
REMARK SMILES CCCCCC(=O)[O-]
REMARK SMILES IDX 4 1 5 2 6 3 7 4 8 5 3 6 2 7 1 8
REMARK H PARENT
REMARK Flexibility Score: inf
ROOT
ATOM      1  C   UNL     1      19.663   0.422   9.899  1.00  0.00     0.006 C 
ENDROOT
BRANCH   1   2
ATOM      2  C   UNL     1      18.517   0.235  10.896  1.00  0.00     0.053 C 
BRANCH   2   3
ATOM      3  C   UNL     1      17.494   1.313  10.728  1.00  0.00     0.041 C 
ATOM      4  O   UNL     1      16.684   1.571  11.658  1.00  0.00    -0.550 OA
ATOM      5  O   UNL     1      17.402   2.003   9.526  1.00  0.00    -0.550 OA
ENDBRANCH   2   3
ENDBRANCH   1   2
BRANCH   1   6
ATOM      6  C   UNL     1      20.690  -0.709  10.022  1.00  0.00     0.000 C 
BRANCH   6   7
ATOM      7  C   UNL     1      20.107  -1.899  10.793  1.00  0.00    -0.003 C 
ATOM      8  C   UNL     1      21.148  -2.519  11.721  1.00  0.00     0.004 C 
ENDBRANCH   6   7
ENDBRANCH   1   6
TORSDOF 4
ENDMDL
MODEL 8
REMARK VINA RESULT:    -3.291     10.447     10.963
REMARK INTER + INTRA:          -4.116
REMARK INTER:                  -3.862
REMARK INTRA:                  -0.254
REMARK UNBOUND:                -0.055
REMARK SMILES CCCCCC(=O)[O-]
REMARK SMILES IDX 4 1 5 2 6 3 7 4 8 5 3 6 2 7 1 8
REMARK H PARENT
REMARK Flexibility Score: inf
ROOT
ATOM      1  C   UNL     1      22.842  -5.295  19.863  1.00  0.00     0.006 C 
ENDROOT
BRANCH   1   2
ATOM      2  C   UNL     1      24.339  -5.331  19.544  1.00  0.00     0.053 C 
BRANCH   2   3
ATOM      3  C   UNL     1      24.794  -4.010  19.010  1.00  0.00     0.041 C 
ATOM      4  O   UNL     1      24.291  -3.546  17.953  1.00  0.00    -0.550 OA
ATOM      5  O   UNL     1      25.808  -3.312  19.652  1.00  0.00    -0.550 OA
ENDBRANCH   2   3
ENDBRANCH   1   2
BRANCH   1   6
ATOM      6  C   UNL     1      22.558  -4.392  21.068  1.00  0.00     0.000 C 
BRANCH   6   7
ATOM      7  C   UNL     1      21.250  -3.615  20.877  1.00  0.00    -0.003 C 
ATOM      8  C   UNL     1      20.953  -3.391  19.397  1.00  0.00     0.004 C 
ENDBRANCH   6   7
ENDBRANCH   1   6
TORSDOF 4
ENDMDL
MODEL 9
REMARK VINA RESULT:    -3.230     11.839     12.683
REMARK INTER + INTRA:          -4.040
REMARK INTER:                  -3.860
REMARK INTRA:                  -0.181
REMARK UNBOUND:                -0.055
REMARK SMILES CCCCCC(=O)[O-]
REMARK SMILES IDX 4 1 5 2 6 3 7 4 8 5 3 6 2 7 1 8
REMARK H PARENT
REMARK Flexibility Score: inf
ROOT
ATOM      1  C   UNL     1      23.320  -5.157  19.868  1.00  0.00     0.006 C 
ENDROOT
BRANCH   1   2
ATOM      2  C   UNL     1      23.855  -6.285  18.981  1.00  0.00     0.053 C 
BRANCH   2   3
ATOM      3  C   UNL     1      23.101  -7.552  19.231  1.00  0.00     0.041 C 
ATOM      4  O   UNL     1      22.146  -7.571  20.052  1.00  0.00    -0.550 OA
ATOM      5  O   UNL     1      23.484  -8.726  18.595  1.00  0.00    -0.550 OA
ENDBRANCH   2   3
ENDBRANCH   1   2
BRANCH   1   6
ATOM      6  C   UNL     1      22.432  -4.200  19.066  1.00  0.00     0.000 C 
BRANCH   6   7
ATOM      7  C   UNL     1      21.230  -3.737  19.898  1.00  0.00    -0.003 C 
ATOM      8  C   UNL     1      21.417  -4.078  21.374  1.00  0.00     0.004 C 
ENDBRANCH   6   7
ENDBRANCH   1   6
TORSDOF 4
ENDMDL
