MODEL 1
REMARK VINA RESULT:    -3.364      0.000      0.000
REMARK INTER + INTRA:          -5.557
REMARK INTER:                  -4.643
REMARK INTRA:                  -0.914
REMARK UNBOUND:                -0.914
REMARK SMILES OC[C@@H](O)C(O)[C@H](O)CO
REMARK SMILES IDX 5 1 7 2 9 3 10 4 8 6 3 8 2 9 1 10 4 12 6 14
REMARK H PARENT 10 5 8 7 1 11 4 13 6 15
REMARK Flexibility Score: inf
ROOT
ATOM      1  C   UNL     1     163.590 178.918 167.719  1.00  0.00     0.176 C 
ENDROOT
BRANCH   1   2
ATOM      2  C   UNL     1     164.707 177.834 167.736  1.00  0.00     0.171 C 
BRANCH   2   3
ATOM      3  C   UNL     1     164.732 176.999 166.439  1.00  0.00     0.190 C 
BRANCH   3   4
ATOM      4  O   UNL     1     163.563 176.237 166.302  1.00  0.00    -0.394 OA
ATOM      5  H   UNL     1     163.849 175.292 166.203  1.00  0.00     0.210 HD
ENDBRANCH   3   4
ENDBRANCH   2   3
BRANCH   2   6
ATOM      6  O   UNL     1     165.968 178.423 167.940  1.00  0.00    -0.388 OA
ATOM      7  H   UNL     1     166.150 179.017 167.165  1.00  0.00     0.211 HD
ENDBRANCH   2   6
ENDBRANCH   1   2
BRANCH   1   8
ATOM      8  C   UNL     1     162.495 178.652 168.787  1.00  0.00     0.171 C 
BRANCH   8   9
ATOM      9  C   UNL     1     161.115 178.378 168.160  1.00  0.00     0.190 C 
BRANCH   9  10
ATOM     10  O   UNL     1     161.104 177.115 167.554  1.00  0.00    -0.394 OA
ATOM     11  H   UNL     1     161.713 176.546 168.092  1.00  0.00     0.210 HD
ENDBRANCH   9  10
ENDBRANCH   8   9
BRANCH   8  12
ATOM     12  O   UNL     1     162.866 177.606 169.653  1.00  0.00    -0.388 OA
ATOM     13  H   UNL     1     163.587 177.084 169.212  1.00  0.00     0.211 HD
ENDBRANCH   8  12
ENDBRANCH   1   8
BRANCH   1  14
ATOM     14  O   UNL     1     163.021 179.047 166.437  1.00  0.00    -0.388 OA
ATOM     15  H   UNL     1     163.521 178.454 165.819  1.00  0.00     0.211 HD
ENDBRANCH   1  14
TORSDOF 9
ENDMDL
MODEL 2
REMARK VINA RESULT:    -3.226      1.215      1.255
REMARK INTER + INTRA:          -5.365
REMARK INTER:                  -4.824
REMARK INTRA:                  -0.541
REMARK UNBOUND:                -0.914
REMARK SMILES OC[C@@H](O)C(O)[C@H](O)CO
REMARK SMILES IDX 5 1 7 2 9 3 10 4 8 6 3 8 2 9 1 10 4 12 6 14
REMARK H PARENT 10 5 8 7 1 11 4 13 6 15
REMARK Flexibility Score: inf
ROOT
ATOM      1  C   UNL     1     162.923 178.408 167.670  1.00  0.00     0.176 C 
ENDROOT
BRANCH   1   2
ATOM      2  C   UNL     1     164.461 178.479 167.897  1.00  0.00     0.171 C 
BRANCH   2   3
ATOM      3  C   UNL     1     165.237 177.540 166.950  1.00  0.00     0.190 C 
BRANCH   3   4
ATOM      4  O   UNL     1     165.245 176.224 167.436  1.00  0.00    -0.394 OA
ATOM      5  H   UNL     1     165.358 176.285 168.420  1.00  0.00     0.210 HD
ENDBRANCH   3   4
ENDBRANCH   2   3
BRANCH   2   6
ATOM      6  O   UNL     1     164.927 179.797 167.735  1.00  0.00    -0.388 OA
ATOM      7  H   UNL     1     164.823 180.036 166.777  1.00  0.00     0.211 HD
ENDBRANCH   2   6
ENDBRANCH   1   2
BRANCH   1   8
ATOM      8  C   UNL     1     162.131 178.397 169.006  1.00  0.00     0.171 C 
BRANCH   8   9
ATOM      9  C   UNL     1     160.626 178.149 168.796  1.00  0.00     0.190 C 
BRANCH   9  10
ATOM     10  O   UNL     1     160.365 176.774 168.759  1.00  0.00    -0.394 OA
ATOM     11  H   UNL     1     161.143 176.335 169.191  1.00  0.00     0.210 HD
ENDBRANCH   9  10
ENDBRANCH   8   9
BRANCH   8  12
ATOM     12  O   UNL     1     162.668 177.465 169.913  1.00  0.00    -0.388 OA
ATOM     13  H   UNL     1     163.503 177.849 170.290  1.00  0.00     0.211 HD
ENDBRANCH   8  12
ENDBRANCH   1   8
BRANCH   1  14
ATOM     14  O   UNL     1     162.574 177.303 166.870  1.00  0.00    -0.388 OA
ATOM     15  H   UNL     1     163.371 176.718 166.792  1.00  0.00     0.211 HD
ENDBRANCH   1  14
TORSDOF 9
ENDMDL
MODEL 3
REMARK VINA RESULT:    -3.211      1.639      4.127
REMARK INTER + INTRA:          -5.345
REMARK INTER:                  -4.896
REMARK INTRA:                  -0.449
REMARK UNBOUND:                -0.914
REMARK SMILES OC[C@@H](O)C(O)[C@H](O)CO
REMARK SMILES IDX 5 1 7 2 9 3 10 4 8 6 3 8 2 9 1 10 4 12 6 14
REMARK H PARENT 10 5 8 7 1 11 4 13 6 15
REMARK Flexibility Score: inf
ROOT
ATOM      1  C   UNL     1     162.527 178.531 168.761  1.00  0.00     0.176 C 
ENDROOT
BRANCH   1   2
ATOM      2  C   UNL     1     160.986 178.520 168.550  1.00  0.00     0.171 C 
BRANCH   2   3
ATOM      3  C   UNL     1     160.249 177.734 169.654  1.00  0.00     0.190 C 
BRANCH   3   4
ATOM      4  O   UNL     1     160.310 178.406 170.883  1.00  0.00    -0.394 OA
ATOM      5  H   UNL     1     159.410 178.795 171.040  1.00  0.00     0.210 HD
ENDBRANCH   3   4
ENDBRANCH   2   3
BRANCH   2   6
ATOM      6  O   UNL     1     160.483 179.833 168.494  1.00  0.00    -0.388 OA
ATOM      7  H   UNL     1     160.340 180.059 167.538  1.00  0.00     0.211 HD
ENDBRANCH   2   6
ENDBRANCH   1   2
BRANCH   1   8
ATOM      8  C   UNL     1     163.303 178.250 167.445  1.00  0.00     0.171 C 
BRANCH   8   9
ATOM      9  C   UNL     1     164.749 177.785 167.701  1.00  0.00     0.190 C 
BRANCH   9  10
ATOM     10  O   UNL     1     164.855 176.404 167.493  1.00  0.00    -0.394 OA
ATOM     11  H   UNL     1     164.911 176.278 166.510  1.00  0.00     0.210 HD
ENDBRANCH   9  10
ENDBRANCH   8   9
BRANCH   8  12
ATOM     12  O   UNL     1     162.619 177.326 166.633  1.00  0.00    -0.388 OA
ATOM     13  H   UNL     1     161.830 177.785 166.243  1.00  0.00     0.211 HD
ENDBRANCH   8  12
ENDBRANCH   1   8
BRANCH   1  14
ATOM     14  O   UNL     1     162.912 177.630 169.772  1.00  0.00    -0.388 OA
ATOM     15  H   UNL     1     162.392 176.794 169.652  1.00  0.00     0.211 HD
ENDBRANCH   1  14
TORSDOF 9
ENDMDL
MODEL 4
REMARK VINA RESULT:    -3.188      0.570      3.116
REMARK INTER + INTRA:          -5.314
REMARK INTER:                  -4.834
REMARK INTRA:                  -0.480
REMARK UNBOUND:                -0.914
REMARK SMILES OC[C@@H](O)C(O)[C@H](O)CO
REMARK SMILES IDX 5 1 7 2 9 3 10 4 8 6 3 8 2 9 1 10 4 12 6 14
REMARK H PARENT 10 5 8 7 1 11 4 13 6 15
REMARK Flexibility Score: inf
ROOT
ATOM      1  C   UNL     1     163.562 178.640 167.626  1.00  0.00     0.176 C 
ENDROOT
BRANCH   1   2
ATOM      2  C   UNL     1     162.537 178.527 168.791  1.00  0.00     0.171 C 
BRANCH   2   3
ATOM      3  C   UNL     1     161.128 178.142 168.295  1.00  0.00     0.190 C 
BRANCH   3   4
ATOM      4  O   UNL     1     161.191 177.141 167.315  1.00  0.00    -0.394 OA
ATOM      5  H   UNL     1     160.423 176.534 167.479  1.00  0.00     0.210 HD
ENDBRANCH   3   4
ENDBRANCH   2   3
BRANCH   2   6
ATOM      6  O   UNL     1     162.971 177.589 169.745  1.00  0.00    -0.388 OA
ATOM      7  H   UNL     1     163.138 176.733 169.271  1.00  0.00     0.211 HD
ENDBRANCH   2   6
ENDBRANCH   1   2
BRANCH   1   8
ATOM      8  C   UNL     1     164.847 177.808 167.889  1.00  0.00     0.171 C 
BRANCH   8   9
ATOM      9  C   UNL     1     165.030 176.669 166.868  1.00  0.00     0.190 C 
BRANCH   9  10
ATOM     10  O   UNL     1     163.789 176.291 166.340  1.00  0.00    -0.394 OA
ATOM     11  H   UNL     1     163.942 176.118 165.375  1.00  0.00     0.210 HD
ENDBRANCH   9  10
ENDBRANCH   8   9
BRANCH   8  12
ATOM     12  O   UNL     1     165.990 178.627 167.932  1.00  0.00    -0.388 OA
ATOM     13  H   UNL     1     166.572 178.384 167.165  1.00  0.00     0.211 HD
ENDBRANCH   8  12
ENDBRANCH   1   8
BRANCH   1  14
ATOM     14  O   UNL     1     163.882 179.984 167.354  1.00  0.00    -0.388 OA
ATOM     15  H   UNL     1     163.614 180.528 168.138  1.00  0.00     0.211 HD
ENDBRANCH   1  14
TORSDOF 9
ENDMDL
MODEL 5
REMARK VINA RESULT:    -3.181      1.330      2.171
REMARK INTER + INTRA:          -5.304
REMARK INTER:                  -4.853
REMARK INTRA:                  -0.450
REMARK UNBOUND:                -0.914
REMARK SMILES OC[C@@H](O)C(O)[C@H](O)CO
REMARK SMILES IDX 5 1 7 2 9 3 10 4 8 6 3 8 2 9 1 10 4 12 6 14
REMARK H PARENT 10 5 8 7 1 11 4 13 6 15
REMARK Flexibility Score: inf
ROOT
ATOM      1  C   UNL     1     163.415 177.322 166.094  1.00  0.00     0.176 C 
ENDROOT
BRANCH   1   2
ATOM      2  C   UNL     1     164.952 177.221 166.314  1.00  0.00     0.171 C 
BRANCH   2   3
ATOM      3  C   UNL     1     165.601 178.599 166.556  1.00  0.00     0.190 C 
BRANCH   3   4
ATOM      4  O   UNL     1     166.678 178.503 167.450  1.00  0.00    -0.394 OA
ATOM      5  H   UNL     1     167.120 177.633 167.270  1.00  0.00     0.210 HD
ENDBRANCH   3   4
ENDBRANCH   2   3
BRANCH   2   6
ATOM      6  O   UNL     1     165.244 176.368 167.394  1.00  0.00    -0.388 OA
ATOM      7  H   UNL     1     165.733 176.902 168.074  1.00  0.00     0.211 HD
ENDBRANCH   2   6
ENDBRANCH   1   2
BRANCH   1   8
ATOM      8  C   UNL     1     162.707 178.102 167.235  1.00  0.00     0.171 C 
BRANCH   8   9
ATOM      9  C   UNL     1     161.175 178.116 167.077  1.00  0.00     0.190 C 
BRANCH   9  10
ATOM     10  O   UNL     1     160.619 176.979 167.675  1.00  0.00    -0.394 OA
ATOM     11  H   UNL     1     160.738 176.239 167.024  1.00  0.00     0.210 HD
ENDBRANCH   9  10
ENDBRANCH   8   9
BRANCH   8  12
ATOM     12  O   UNL     1     163.073 177.606 168.500  1.00  0.00    -0.388 OA
ATOM     13  H   UNL     1     163.920 178.048 168.771  1.00  0.00     0.211 HD
ENDBRANCH   8  12
ENDBRANCH   1   8
BRANCH   1  14
ATOM     14  O   UNL     1     162.837 176.049 165.923  1.00  0.00    -0.388 OA
ATOM     15  H   UNL     1     162.889 175.570 166.789  1.00  0.00     0.211 HD
ENDBRANCH   1  14
TORSDOF 9
ENDMDL
MODEL 6
REMARK VINA RESULT:    -3.151      1.158      3.661
REMARK INTER + INTRA:          -5.262
REMARK INTER:                  -4.750
REMARK INTRA:                  -0.512
REMARK UNBOUND:                -0.914
REMARK SMILES OC[C@@H](O)C(O)[C@H](O)CO
REMARK SMILES IDX 5 1 7 2 9 3 10 4 8 6 3 8 2 9 1 10 4 12 6 14
REMARK H PARENT 10 5 8 7 1 11 4 13 6 15
REMARK Flexibility Score: inf
ROOT
ATOM      1  C   UNL     1     164.060 178.190 168.341  1.00  0.00     0.176 C 
ENDROOT
BRANCH   1   2
ATOM      2  C   UNL     1     162.658 178.372 168.994  1.00  0.00     0.171 C 
BRANCH   2   3
ATOM      3  C   UNL     1     161.529 178.441 167.945  1.00  0.00     0.190 C 
BRANCH   3   4
ATOM      4  O   UNL     1     161.568 177.335 167.083  1.00  0.00    -0.394 OA
ATOM      5  H   UNL     1     161.163 177.628 166.226  1.00  0.00     0.210 HD
ENDBRANCH   3   4
ENDBRANCH   2   3
BRANCH   2   6
ATOM      6  O   UNL     1     162.394 177.329 169.900  1.00  0.00    -0.388 OA
ATOM      7  H   UNL     1     162.961 177.478 170.702  1.00  0.00     0.211 HD
ENDBRANCH   2   6
ENDBRANCH   1   2
BRANCH   1   8
ATOM      8  C   UNL     1     164.405 179.343 167.360  1.00  0.00     0.171 C 
BRANCH   8   9
ATOM      9  C   UNL     1     165.894 179.737 167.415  1.00  0.00     0.190 C 
BRANCH   9  10
ATOM     10  O   UNL     1     166.695 178.589 167.429  1.00  0.00    -0.394 OA
ATOM     11  H   UNL     1     166.972 178.458 168.373  1.00  0.00     0.210 HD
ENDBRANCH   9  10
ENDBRANCH   8   9
BRANCH   8  12
ATOM     12  O   UNL     1     164.022 179.029 166.043  1.00  0.00    -0.388 OA
ATOM     13  H   UNL     1     163.036 178.908 166.031  1.00  0.00     0.211 HD
ENDBRANCH   8  12
ENDBRANCH   1   8
BRANCH   1  14
ATOM     14  O   UNL     1     164.170 176.939 167.705  1.00  0.00    -0.388 OA
ATOM     15  H   UNL     1     164.285 176.248 168.407  1.00  0.00     0.211 HD
ENDBRANCH   1  14
TORSDOF 9
ENDMDL
MODEL 7
REMARK VINA RESULT:    -3.056      1.672      2.989
REMARK INTER + INTRA:          -5.131
REMARK INTER:                  -4.153
REMARK INTRA:                  -0.978
REMARK UNBOUND:                -0.914
REMARK SMILES OC[C@@H](O)C(O)[C@H](O)CO
REMARK SMILES IDX 5 1 7 2 9 3 10 4 8 6 3 8 2 9 1 10 4 12 6 14
REMARK H PARENT 10 5 8 7 1 11 4 13 6 15
REMARK Flexibility Score: inf
ROOT
ATOM      1  C   UNL     1     164.960 177.300 166.045  1.00  0.00     0.176 C 
ENDROOT
BRANCH   1   2
ATOM      2  C   UNL     1     165.186 178.382 167.140  1.00  0.00     0.171 C 
BRANCH   2   3
ATOM      3  C   UNL     1     164.504 178.017 168.474  1.00  0.00     0.190 C 
BRANCH   3   4
ATOM      4  O   UNL     1     163.119 177.865 168.310  1.00  0.00    -0.394 OA
ATOM      5  H   UNL     1     162.819 177.224 169.006  1.00  0.00     0.210 HD
ENDBRANCH   3   4
ENDBRANCH   2   3
BRANCH   2   6
ATOM      6  O   UNL     1     166.561 178.589 167.357  1.00  0.00    -0.388 OA
ATOM      7  H   UNL     1     167.034 177.755 167.099  1.00  0.00     0.211 HD
ENDBRANCH   2   6
ENDBRANCH   1   2
BRANCH   1   8
ATOM      8  C   UNL     1     163.832 177.694 165.052  1.00  0.00     0.171 C 
BRANCH   8   9
ATOM      9  C   UNL     1     162.771 176.589 164.898  1.00  0.00     0.190 C 
BRANCH   9  10
ATOM     10  O   UNL     1     161.977 176.520 166.050  1.00  0.00    -0.394 OA
ATOM     11  H   UNL     1     162.152 175.630 166.452  1.00  0.00     0.210 HD
ENDBRANCH   9  10
ENDBRANCH   8   9
BRANCH   8  12
ATOM     12  O   UNL     1     163.232 178.914 165.415  1.00  0.00    -0.388 OA
ATOM     13  H   UNL     1     162.282 178.734 165.641  1.00  0.00     0.211 HD
ENDBRANCH   8  12
ENDBRANCH   1   8
BRANCH   1  14
ATOM     14  O   UNL     1     164.708 176.038 166.616  1.00  0.00    -0.388 OA
ATOM     15  H   UNL     1     164.875 176.104 167.591  1.00  0.00     0.211 HD
ENDBRANCH   1  14
TORSDOF 9
ENDMDL
MODEL 8
REMARK VINA RESULT:    -3.056      1.655      2.738
REMARK INTER + INTRA:          -5.131
REMARK INTER:                  -4.466
REMARK INTRA:                  -0.665
REMARK UNBOUND:                -0.914
REMARK SMILES OC[C@@H](O)C(O)[C@H](O)CO
REMARK SMILES IDX 5 1 7 2 9 3 10 4 8 6 3 8 2 9 1 10 4 12 6 14
REMARK H PARENT 10 5 8 7 1 11 4 13 6 15
REMARK Flexibility Score: inf
ROOT
ATOM      1  C   UNL     1     163.971 177.706 166.656  1.00  0.00     0.176 C 
ENDROOT
BRANCH   1   2
ATOM      2  C   UNL     1     164.405 178.621 167.837  1.00  0.00     0.171 C 
BRANCH   2   3
ATOM      3  C   UNL     1     165.775 179.285 167.591  1.00  0.00     0.190 C 
BRANCH   3   4
ATOM      4  O   UNL     1     166.761 178.327 167.314  1.00  0.00    -0.394 OA
ATOM      5  H   UNL     1     166.506 177.895 166.458  1.00  0.00     0.210 HD
ENDBRANCH   3   4
ENDBRANCH   2   3
BRANCH   2   6
ATOM      6  O   UNL     1     163.438 179.614 168.077  1.00  0.00    -0.388 OA
ATOM      7  H   UNL     1     163.825 180.484 167.794  1.00  0.00     0.211 HD
ENDBRANCH   2   6
ENDBRANCH   1   2
BRANCH   1   8
ATOM      8  C   UNL     1     162.439 177.754 166.405  1.00  0.00     0.171 C 
BRANCH   8   9
ATOM      9  C   UNL     1     162.006 176.858 165.230  1.00  0.00     0.190 C 
BRANCH   9  10
ATOM     10  O   UNL     1     162.076 175.509 165.602  1.00  0.00    -0.394 OA
ATOM     11  H   UNL     1     162.931 175.404 166.094  1.00  0.00     0.210 HD
ENDBRANCH   9  10
ENDBRANCH   8   9
BRANCH   8  12
ATOM     12  O   UNL     1     161.718 177.432 167.570  1.00  0.00    -0.388 OA
ATOM     13  H   UNL     1     162.183 177.848 168.344  1.00  0.00     0.211 HD
ENDBRANCH   8  12
ENDBRANCH   1   8
BRANCH   1  14
ATOM     14  O   UNL     1     164.407 176.380 166.847  1.00  0.00    -0.388 OA
ATOM     15  H   UNL     1     165.234 176.406 167.394  1.00  0.00     0.211 HD
ENDBRANCH   1  14
TORSDOF 9
ENDMDL
MODEL 9
REMARK VINA RESULT:    -2.988      1.308      3.793
REMARK INTER + INTRA:          -5.038
REMARK INTER:                  -4.295
REMARK INTRA:                  -0.743
REMARK UNBOUND:                -0.914
REMARK SMILES OC[C@@H](O)C(O)[C@H](O)CO
REMARK SMILES IDX 5 1 7 2 9 3 10 4 8 6 3 8 2 9 1 10 4 12 6 14
REMARK H PARENT 10 5 8 7 1 11 4 13 6 15
REMARK Flexibility Score: inf
ROOT
ATOM      1  C   UNL     1     163.217 178.861 167.138  1.00  0.00     0.176 C 
ENDROOT
BRANCH   1   2
ATOM      2  C   UNL     1     161.896 178.152 167.556  1.00  0.00     0.171 C 
BRANCH   2   3
ATOM      3  C   UNL     1     161.625 178.265 169.071  1.00  0.00     0.190 C 
BRANCH   3   4
ATOM      4  O   UNL     1     162.540 177.500 169.809  1.00  0.00    -0.394 OA
ATOM      5  H   UNL     1     162.964 178.116 170.462  1.00  0.00     0.210 HD
ENDBRANCH   3   4
ENDBRANCH   2   3
BRANCH   2   6
ATOM      6  O   UNL     1     160.804 178.677 166.843  1.00  0.00    -0.388 OA
ATOM      7  H   UNL     1     160.797 178.249 165.947  1.00  0.00     0.211 HD
ENDBRANCH   2   6
ENDBRANCH   1   2
BRANCH   1   8
ATOM      8  C   UNL     1     164.303 177.854 166.669  1.00  0.00     0.171 C 
BRANCH   8   9
ATOM      9  C   UNL     1     165.643 178.541 166.346  1.00  0.00     0.190 C 
BRANCH   9  10
ATOM     10  O   UNL     1     166.465 178.551 167.480  1.00  0.00    -0.394 OA
ATOM     11  H   UNL     1     167.386 178.720 167.151  1.00  0.00     0.210 HD
ENDBRANCH   9  10
ENDBRANCH   8   9
BRANCH   8  12
ATOM     12  O   UNL     1     164.486 176.822 167.609  1.00  0.00    -0.388 OA
ATOM     13  H   UNL     1     163.935 176.046 167.324  1.00  0.00     0.211 HD
ENDBRANCH   8  12
ENDBRANCH   1   8
BRANCH   1  14
ATOM     14  O   UNL     1     163.707 179.682 168.172  1.00  0.00    -0.388 OA
ATOM     15  H   UNL     1     164.670 179.482 168.292  1.00  0.00     0.211 HD
ENDBRANCH   1  14
TORSDOF 9
ENDMDL
