MODEL 1
REMARK VINA RESULT:    -3.887      0.000      0.000
REMARK INTER + INTRA:          -5.797
REMARK INTER:                  -5.250
REMARK INTRA:                  -0.547
REMARK UNBOUND:                -0.547
REMARK SMILES O=C[C@@H](O)[C@@H](O)[C@@H](O)CO
REMARK SMILES IDX 7 1 9 2 10 3 5 5 3 6 2 7 1 8 4 9 6 11 8 13
REMARK H PARENT 10 4 4 10 6 12 8 14
REMARK Flexibility Score: inf
ROOT
ATOM      1  C   UNL     1      -6.690  -4.900 -14.418  1.00  0.00     0.171 C 
ENDROOT
BRANCH   1   2
ATOM      2  C   UNL     1      -6.075  -5.607 -13.190  1.00  0.00     0.190 C 
BRANCH   2   3
ATOM      3  O   UNL     1      -5.282  -6.697 -13.574  1.00  0.00    -0.394 OA
ATOM      4  H   UNL     1      -5.834  -7.248 -14.189  1.00  0.00     0.210 HD
ENDBRANCH   2   3
ENDBRANCH   1   2
BRANCH   1   5
ATOM      5  C   UNL     1      -5.652  -4.402 -15.472  1.00  0.00     0.181 C 
BRANCH   5   6
ATOM      6  C   UNL     1      -4.549  -3.464 -14.912  1.00  0.00     0.209 C 
BRANCH   6   7
ATOM      7  C   UNL     1      -3.232  -3.718 -15.599  1.00  0.00     0.258 C 
ATOM      8  O   UNL     1      -2.422  -4.496 -15.121  1.00  0.00    -0.300 OA
ENDBRANCH   6   7
BRANCH   6   9
ATOM      9  O   UNL     1      -4.911  -2.124 -15.116  1.00  0.00    -0.383 OA
ATOM     10  H   UNL     1      -4.076  -1.587 -15.062  1.00  0.00     0.211 HD
ENDBRANCH   6   9
ENDBRANCH   5   6
BRANCH   5  11
ATOM     11  O   UNL     1      -5.073  -5.515 -16.109  1.00  0.00    -0.387 OA
ATOM     12  H   UNL     1      -4.137  -5.593 -15.782  1.00  0.00     0.211 HD
ENDBRANCH   5  11
ENDBRANCH   1   5
BRANCH   1  13
ATOM     13  O   UNL     1      -7.685  -5.695 -15.015  1.00  0.00    -0.388 OA
ATOM     14  H   UNL     1      -7.746  -5.442 -15.972  1.00  0.00     0.211 HD
ENDBRANCH   1  13
TORSDOF 8
ENDMDL
MODEL 2
REMARK VINA RESULT:    -3.872      1.349      2.839
REMARK INTER + INTRA:          -5.777
REMARK INTER:                  -4.995
REMARK INTRA:                  -0.782
REMARK UNBOUND:                -0.547
REMARK SMILES O=C[C@@H](O)[C@@H](O)[C@@H](O)CO
REMARK SMILES IDX 7 1 9 2 10 3 5 5 3 6 2 7 1 8 4 9 6 11 8 13
REMARK H PARENT 10 4 4 10 6 12 8 14
REMARK Flexibility Score: inf
ROOT
ATOM      1  C   UNL     1      -6.944  -3.753 -15.775  1.00  0.00     0.171 C 
ENDROOT
BRANCH   1   2
ATOM      2  C   UNL     1      -7.974  -4.769 -16.319  1.00  0.00     0.190 C 
BRANCH   2   3
ATOM      3  O   UNL     1      -8.242  -5.774 -15.379  1.00  0.00    -0.394 OA
ATOM      4  H   UNL     1      -8.065  -6.641 -15.830  1.00  0.00     0.210 HD
ENDBRANCH   2   3
ENDBRANCH   1   2
BRANCH   1   5
ATOM      5  C   UNL     1      -5.463  -4.243 -15.809  1.00  0.00     0.181 C 
BRANCH   5   6
ATOM      6  C   UNL     1      -4.730  -4.207 -14.441  1.00  0.00     0.209 C 
BRANCH   6   7
ATOM      7  C   UNL     1      -5.458  -5.045 -13.422  1.00  0.00     0.258 C 
ATOM      8  O   UNL     1      -5.768  -6.199 -13.674  1.00  0.00    -0.300 OA
ENDBRANCH   6   7
BRANCH   6   9
ATOM      9  O   UNL     1      -3.426  -4.704 -14.584  1.00  0.00    -0.383 OA
ATOM     10  H   UNL     1      -2.818  -3.918 -14.616  1.00  0.00     0.211 HD
ENDBRANCH   6   9
ENDBRANCH   5   6
BRANCH   5  11
ATOM     11  O   UNL     1      -5.419  -5.540 -16.355  1.00  0.00    -0.387 OA
ATOM     12  H   UNL     1      -5.811  -6.160 -15.683  1.00  0.00     0.211 HD
ENDBRANCH   5  11
ENDBRANCH   1   5
BRANCH   1  13
ATOM     13  O   UNL     1      -7.086  -2.503 -16.405  1.00  0.00    -0.388 OA
ATOM     14  H   UNL     1      -7.298  -1.832 -15.706  1.00  0.00     0.211 HD
ENDBRANCH   1  13
TORSDOF 8
ENDMDL
MODEL 3
REMARK VINA RESULT:    -3.856      1.878      3.643
REMARK INTER + INTRA:          -5.755
REMARK INTER:                  -5.318
REMARK INTRA:                  -0.437
REMARK UNBOUND:                -0.547
REMARK SMILES O=C[C@@H](O)[C@@H](O)[C@@H](O)CO
REMARK SMILES IDX 7 1 9 2 10 3 5 5 3 6 2 7 1 8 4 9 6 11 8 13
REMARK H PARENT 10 4 4 10 6 12 8 14
REMARK Flexibility Score: inf
ROOT
ATOM      1  C   UNL     1      -5.916  -5.381 -14.761  1.00  0.00     0.171 C 
ENDROOT
BRANCH   1   2
ATOM      2  C   UNL     1      -5.009  -4.720 -13.700  1.00  0.00     0.190 C 
BRANCH   2   3
ATOM      3  O   UNL     1      -5.258  -5.240 -12.422  1.00  0.00    -0.394 OA
ATOM      4  H   UNL     1      -5.664  -4.506 -11.890  1.00  0.00     0.210 HD
ENDBRANCH   2   3
ENDBRANCH   1   2
BRANCH   1   5
ATOM      5  C   UNL     1      -7.365  -4.809 -14.830  1.00  0.00     0.181 C 
BRANCH   5   6
ATOM      6  C   UNL     1      -7.609  -3.776 -15.963  1.00  0.00     0.209 C 
BRANCH   6   7
ATOM      7  C   UNL     1      -8.947  -3.103 -15.795  1.00  0.00     0.258 C 
ATOM      8  O   UNL     1      -9.890  -3.708 -15.310  1.00  0.00    -0.300 OA
ENDBRANCH   6   7
BRANCH   6   9
ATOM      9  O   UNL     1      -6.607  -2.795 -15.940  1.00  0.00    -0.383 OA
ATOM     10  H   UNL     1      -5.916  -3.071 -16.598  1.00  0.00     0.211 HD
ENDBRANCH   6   9
ENDBRANCH   5   6
BRANCH   5  11
ATOM     11  O   UNL     1      -8.277  -5.877 -14.936  1.00  0.00    -0.387 OA
ATOM     12  H   UNL     1      -9.193  -5.491 -14.915  1.00  0.00     0.211 HD
ENDBRANCH   5  11
ENDBRANCH   1   5
BRANCH   1  13
ATOM     13  O   UNL     1      -5.301  -5.374 -16.027  1.00  0.00    -0.388 OA
ATOM     14  H   UNL     1      -5.696  -4.633 -16.555  1.00  0.00     0.211 HD
ENDBRANCH   1  13
TORSDOF 8
ENDMDL
MODEL 4
REMARK VINA RESULT:    -3.807      1.822      3.478
REMARK INTER + INTRA:          -5.689
REMARK INTER:                  -5.206
REMARK INTRA:                  -0.483
REMARK UNBOUND:                -0.547
REMARK SMILES O=C[C@@H](O)[C@@H](O)[C@@H](O)CO
REMARK SMILES IDX 7 1 9 2 10 3 5 5 3 6 2 7 1 8 4 9 6 11 8 13
REMARK H PARENT 10 4 4 10 6 12 8 14
REMARK Flexibility Score: inf
ROOT
ATOM      1  C   UNL     1      -7.882  -4.581 -15.949  1.00  0.00     0.171 C 
ENDROOT
BRANCH   1   2
ATOM      2  C   UNL     1      -9.123  -3.763 -16.373  1.00  0.00     0.190 C 
BRANCH   2   3
ATOM      3  O   UNL     1     -10.048  -3.661 -15.324  1.00  0.00    -0.394 OA
ATOM      4  H   UNL     1     -10.208  -4.585 -14.995  1.00  0.00     0.210 HD
ENDBRANCH   2   3
ENDBRANCH   1   2
BRANCH   1   5
ATOM      5  C   UNL     1      -6.770  -3.755 -15.232  1.00  0.00     0.181 C 
BRANCH   5   6
ATOM      6  C   UNL     1      -5.499  -4.562 -14.849  1.00  0.00     0.209 C 
BRANCH   6   7
ATOM      7  C   UNL     1      -5.534  -4.955 -13.395  1.00  0.00     0.258 C 
ATOM      8  O   UNL     1      -6.071  -5.993 -13.044  1.00  0.00    -0.300 OA
ENDBRANCH   6   7
BRANCH   6   9
ATOM      9  O   UNL     1      -5.419  -5.726 -15.627  1.00  0.00    -0.383 OA
ATOM     10  H   UNL     1      -4.887  -5.498 -16.435  1.00  0.00     0.211 HD
ENDBRANCH   6   9
ENDBRANCH   5   6
BRANCH   5  11
ATOM     11  O   UNL     1      -6.426  -2.651 -16.035  1.00  0.00    -0.387 OA
ATOM     12  H   UNL     1      -5.807  -2.079 -15.508  1.00  0.00     0.211 HD
ENDBRANCH   5  11
ENDBRANCH   1   5
BRANCH   1  13
ATOM     13  O   UNL     1      -8.253  -5.707 -15.192  1.00  0.00    -0.388 OA
ATOM     14  H   UNL     1      -8.365  -6.471 -15.816  1.00  0.00     0.211 HD
ENDBRANCH   1  13
TORSDOF 8
ENDMDL
MODEL 5
REMARK VINA RESULT:    -3.762      1.231      3.704
REMARK INTER + INTRA:          -5.629
REMARK INTER:                  -4.937
REMARK INTRA:                  -0.692
REMARK UNBOUND:                -0.547
REMARK SMILES O=C[C@@H](O)[C@@H](O)[C@@H](O)CO
REMARK SMILES IDX 7 1 9 2 10 3 5 5 3 6 2 7 1 8 4 9 6 11 8 13
REMARK H PARENT 10 4 4 10 6 12 8 14
REMARK Flexibility Score: inf
ROOT
ATOM      1  C   UNL     1      -4.333  -3.467 -15.444  1.00  0.00     0.171 C 
ENDROOT
BRANCH   1   2
ATOM      2  C   UNL     1      -3.000  -4.132 -15.034  1.00  0.00     0.190 C 
BRANCH   2   3
ATOM      3  O   UNL     1      -2.473  -4.903 -16.080  1.00  0.00    -0.394 OA
ATOM      4  H   UNL     1      -2.171  -5.760 -15.678  1.00  0.00     0.210 HD
ENDBRANCH   2   3
ENDBRANCH   1   2
BRANCH   1   5
ATOM      5  C   UNL     1      -5.607  -4.313 -15.137  1.00  0.00     0.181 C 
BRANCH   5   6
ATOM      6  C   UNL     1      -6.851  -3.959 -15.995  1.00  0.00     0.209 C 
BRANCH   6   7
ATOM      7  C   UNL     1      -8.103  -4.534 -15.384  1.00  0.00     0.258 C 
ATOM      8  O   UNL     1      -8.253  -5.742 -15.295  1.00  0.00    -0.300 OA
ENDBRANCH   6   7
BRANCH   6   9
ATOM      9  O   UNL     1      -6.992  -2.566 -16.082  1.00  0.00    -0.383 OA
ATOM     10  H   UNL     1      -7.876  -2.390 -16.500  1.00  0.00     0.211 HD
ENDBRANCH   6   9
ENDBRANCH   5   6
BRANCH   5  11
ATOM     11  O   UNL     1      -5.294  -5.679 -15.266  1.00  0.00    -0.387 OA
ATOM     12  H   UNL     1      -4.631  -5.902 -14.560  1.00  0.00     0.211 HD
ENDBRANCH   5  11
ENDBRANCH   1   5
BRANCH   1  13
ATOM     13  O   UNL     1      -4.436  -2.170 -14.909  1.00  0.00    -0.388 OA
ATOM     14  H   UNL     1      -5.331  -1.812 -15.147  1.00  0.00     0.211 HD
ENDBRANCH   1  13
TORSDOF 8
ENDMDL
MODEL 6
REMARK VINA RESULT:    -3.632      1.802      3.971
REMARK INTER + INTRA:          -5.454
REMARK INTER:                  -5.166
REMARK INTRA:                  -0.288
REMARK UNBOUND:                -0.547
REMARK SMILES O=C[C@@H](O)[C@@H](O)[C@@H](O)CO
REMARK SMILES IDX 7 1 9 2 10 3 5 5 3 6 2 7 1 8 4 9 6 11 8 13
REMARK H PARENT 10 4 4 10 6 12 8 14
REMARK Flexibility Score: inf
ROOT
ATOM      1  C   UNL     1      -5.302  -5.334 -14.874  1.00  0.00     0.171 C 
ENDROOT
BRANCH   1   2
ATOM      2  C   UNL     1      -5.655  -5.716 -13.419  1.00  0.00     0.190 C 
BRANCH   2   3
ATOM      3  O   UNL     1      -5.597  -4.600 -12.572  1.00  0.00    -0.394 OA
ATOM      4  H   UNL     1      -6.493  -4.516 -12.151  1.00  0.00     0.210 HD
ENDBRANCH   2   3
ENDBRANCH   1   2
BRANCH   1   5
ATOM      5  C   UNL     1      -6.377  -4.470 -15.602  1.00  0.00     0.181 C 
BRANCH   5   6
ATOM      6  C   UNL     1      -7.848  -4.827 -15.257  1.00  0.00     0.209 C 
BRANCH   6   7
ATOM      7  C   UNL     1      -8.766  -3.673 -15.569  1.00  0.00     0.258 C 
ATOM      8  O   UNL     1      -9.949  -3.723 -15.273  1.00  0.00    -0.300 OA
ENDBRANCH   6   7
BRANCH   6   9
ATOM      9  O   UNL     1      -8.257  -5.941 -16.004  1.00  0.00    -0.383 OA
ATOM     10  H   UNL     1      -8.670  -6.582 -15.367  1.00  0.00     0.211 HD
ENDBRANCH   6   9
ENDBRANCH   5   6
BRANCH   5  11
ATOM     11  O   UNL     1      -6.129  -3.109 -15.339  1.00  0.00    -0.387 OA
ATOM     12  H   UNL     1      -6.810  -2.580 -15.832  1.00  0.00     0.211 HD
ENDBRANCH   5  11
ENDBRANCH   1   5
BRANCH   1  13
ATOM     13  O   UNL     1      -4.029  -4.738 -14.946  1.00  0.00    -0.388 OA
ATOM     14  H   UNL     1      -3.477  -5.107 -14.209  1.00  0.00     0.211 HD
ENDBRANCH   1  13
TORSDOF 8
ENDMDL
MODEL 7
REMARK VINA RESULT:    -3.544      0.963      4.068
REMARK INTER + INTRA:          -5.335
REMARK INTER:                  -4.809
REMARK INTRA:                  -0.526
REMARK UNBOUND:                -0.547
REMARK SMILES O=C[C@@H](O)[C@@H](O)[C@@H](O)CO
REMARK SMILES IDX 7 1 9 2 10 3 5 5 3 6 2 7 1 8 4 9 6 11 8 13
REMARK H PARENT 10 4 4 10 6 12 8 14
REMARK Flexibility Score: inf
ROOT
ATOM      1  C   UNL     1      -3.734  -3.991 -15.152  1.00  0.00     0.171 C 
ENDROOT
BRANCH   1   2
ATOM      2  C   UNL     1      -3.591  -2.515 -15.584  1.00  0.00     0.190 C 
BRANCH   2   3
ATOM      3  O   UNL     1      -4.438  -1.682 -14.839  1.00  0.00    -0.394 OA
ATOM      4  H   UNL     1      -5.076  -1.276 -15.484  1.00  0.00     0.210 HD
ENDBRANCH   2   3
ENDBRANCH   1   2
BRANCH   1   5
ATOM      5  C   UNL     1      -5.102  -4.648 -15.515  1.00  0.00     0.181 C 
BRANCH   5   6
ATOM      6  C   UNL     1      -5.954  -5.100 -14.299  1.00  0.00     0.209 C 
BRANCH   6   7
ATOM      7  C   UNL     1      -7.412  -5.190 -14.671  1.00  0.00     0.258 C 
ATOM      8  O   UNL     1      -7.758  -5.771 -15.688  1.00  0.00    -0.300 OA
ENDBRANCH   6   7
BRANCH   6   9
ATOM      9  O   UNL     1      -5.525  -6.359 -13.855  1.00  0.00    -0.383 OA
ATOM     10  H   UNL     1      -5.896  -7.031 -14.486  1.00  0.00     0.211 HD
ENDBRANCH   6   9
ENDBRANCH   5   6
BRANCH   5  11
ATOM     11  O   UNL     1      -5.836  -3.762 -16.326  1.00  0.00    -0.387 OA
ATOM     12  H   UNL     1      -5.952  -4.196 -17.213  1.00  0.00     0.211 HD
ENDBRANCH   5  11
ENDBRANCH   1   5
BRANCH   1  13
ATOM     13  O   UNL     1      -2.655  -4.762 -15.621  1.00  0.00    -0.388 OA
ATOM     14  H   UNL     1      -2.988  -5.681 -15.794  1.00  0.00     0.211 HD
ENDBRANCH   1  13
TORSDOF 8
ENDMDL
MODEL 8
REMARK VINA RESULT:    -3.535     10.391     12.702
REMARK INTER + INTRA:          -5.321
REMARK INTER:                  -4.481
REMARK INTRA:                  -0.841
REMARK UNBOUND:                -0.547
REMARK SMILES O=C[C@@H](O)[C@@H](O)[C@@H](O)CO
REMARK SMILES IDX 7 1 9 2 10 3 5 5 3 6 2 7 1 8 4 9 6 11 8 13
REMARK H PARENT 10 4 4 10 6 12 8 14
REMARK Flexibility Score: inf
ROOT
ATOM      1  C   UNL     1       8.046  -7.269 -14.143  1.00  0.00     0.171 C 
ENDROOT
BRANCH   1   2
ATOM      2  C   UNL     1       9.133  -6.180 -14.273  1.00  0.00     0.190 C 
BRANCH   2   3
ATOM      3  O   UNL     1       8.623  -4.911 -13.961  1.00  0.00    -0.394 OA
ATOM      4  H   UNL     1       9.087  -4.264 -14.555  1.00  0.00     0.210 HD
ENDBRANCH   2   3
ENDBRANCH   1   2
BRANCH   1   5
ATOM      5  C   UNL     1       6.865  -7.138 -15.155  1.00  0.00     0.181 C 
BRANCH   5   6
ATOM      6  C   UNL     1       5.485  -6.829 -14.514  1.00  0.00     0.209 C 
BRANCH   6   7
ATOM      7  C   UNL     1       5.125  -5.377 -14.695  1.00  0.00     0.258 C 
ATOM      8  O   UNL     1       5.720  -4.508 -14.079  1.00  0.00    -0.300 OA
ENDBRANCH   6   7
BRANCH   6   9
ATOM      9  O   UNL     1       4.492  -7.617 -15.114  1.00  0.00    -0.383 OA
ATOM     10  H   UNL     1       4.958  -8.311 -15.652  1.00  0.00     0.211 HD
ENDBRANCH   6   9
ENDBRANCH   5   6
BRANCH   5  11
ATOM     11  O   UNL     1       7.189  -6.162 -16.116  1.00  0.00    -0.387 OA
ATOM     12  H   UNL     1       8.153  -6.267 -16.335  1.00  0.00     0.211 HD
ENDBRANCH   5  11
ENDBRANCH   1   5
BRANCH   1  13
ATOM     13  O   UNL     1       8.613  -8.556 -14.181  1.00  0.00    -0.388 OA
ATOM     14  H   UNL     1       7.874  -9.213 -14.265  1.00  0.00     0.211 HD
ENDBRANCH   1  13
TORSDOF 8
ENDMDL
MODEL 9
REMARK VINA RESULT:    -3.463     10.709     12.485
REMARK INTER + INTRA:          -5.225
REMARK INTER:                  -4.414
REMARK INTRA:                  -0.811
REMARK UNBOUND:                -0.547
REMARK SMILES O=C[C@@H](O)[C@@H](O)[C@@H](O)CO
REMARK SMILES IDX 7 1 9 2 10 3 5 5 3 6 2 7 1 8 4 9 6 11 8 13
REMARK H PARENT 10 4 4 10 6 12 8 14
REMARK Flexibility Score: inf
ROOT
ATOM      1  C   UNL     1       5.853  -6.432 -14.428  1.00  0.00     0.171 C 
ENDROOT
BRANCH   1   2
ATOM      2  C   UNL     1       5.965  -7.907 -14.872  1.00  0.00     0.190 C 
BRANCH   2   3
ATOM      3  O   UNL     1       7.209  -8.452 -14.522  1.00  0.00    -0.394 OA
ATOM      4  H   UNL     1       7.313  -9.286 -15.051  1.00  0.00     0.210 HD
ENDBRANCH   2   3
ENDBRANCH   1   2
BRANCH   1   5
ATOM      5  C   UNL     1       6.778  -5.444 -15.204  1.00  0.00     0.181 C 
BRANCH   5   6
ATOM      6  C   UNL     1       7.833  -4.712 -14.333  1.00  0.00     0.209 C 
BRANCH   6   7
ATOM      7  C   UNL     1       9.154  -5.437 -14.370  1.00  0.00     0.258 C 
ATOM      8  O   UNL     1       9.287  -6.514 -13.812  1.00  0.00    -0.300 OA
ENDBRANCH   6   7
BRANCH   6   9
ATOM      9  O   UNL     1       8.024  -3.406 -14.808  1.00  0.00    -0.383 OA
ATOM     10  H   UNL     1       7.121  -3.024 -14.975  1.00  0.00     0.211 HD
ENDBRANCH   6   9
ENDBRANCH   5   6
BRANCH   5  11
ATOM     11  O   UNL     1       7.406  -6.134 -16.258  1.00  0.00    -0.387 OA
ATOM     12  H   UNL     1       6.881  -5.961 -17.084  1.00  0.00     0.211 HD
ENDBRANCH   5  11
ENDBRANCH   1   5
BRANCH   1  13
ATOM     13  O   UNL     1       4.514  -5.999 -14.441  1.00  0.00    -0.388 OA
ATOM     14  H   UNL     1       4.509  -5.026 -14.634  1.00  0.00     0.211 HD
ENDBRANCH   1  13
TORSDOF 8
ENDMDL
