MODEL 1
REMARK VINA RESULT:    -5.733      0.000      0.000
REMARK INTER + INTRA:          -6.301
REMARK INTER:                  -6.235
REMARK INTRA:                  -0.065
REMARK UNBOUND:                -0.065
REMARK SMILES COc1cc2ccc(=O)oc2cc1O
REMARK SMILES IDX 3 1 13 2 12 3 11 4 5 5 4 6 6 7 7 8 8 9 9 10 10 11 2 12 1 13
REMARK SMILES IDX 14 14
REMARK H PARENT 14 15
REMARK Flexibility Score: inf
ROOT
ATOM      1  C   UNL     1     -10.009  16.226   6.112  1.00  0.00     0.161 A 
ATOM      2  C   UNL     1      -9.339  16.986   7.091  1.00  0.00     0.161 A 
ATOM      3  C   UNL     1      -7.992  16.736   7.378  1.00  0.00     0.098 A 
ATOM      4  C   UNL     1      -7.299  15.732   6.697  1.00  0.00     0.142 A 
ATOM      5  C   UNL     1      -7.961  14.966   5.716  1.00  0.00     0.022 A 
ATOM      6  C   UNL     1      -9.310  15.212   5.425  1.00  0.00     0.062 A 
ATOM      7  C   UNL     1      -7.240  13.968   5.053  1.00  0.00     0.019 A 
ATOM      8  C   UNL     1      -5.900  13.759   5.378  1.00  0.00     0.094 A 
ATOM      9  C   UNL     1      -5.309  14.559   6.362  1.00  0.00     0.336 A 
ATOM     10  O   UNL     1      -4.101  14.388   6.670  1.00  0.00    -0.246 OA
ATOM     11  O   UNL     1      -6.018  15.501   6.977  1.00  0.00    -0.423 OA
ENDROOT
BRANCH   1  12
ATOM     12  O   UNL     1     -11.361  16.504   5.849  1.00  0.00    -0.493 OA
ATOM     13  C   UNL     1     -12.454  15.746   6.355  1.00  0.00     0.278 C 
ENDBRANCH   1  12
BRANCH   2  14
ATOM     14  O   UNL     1      -9.997  17.997   7.790  1.00  0.00    -0.504 OA
ATOM     15  H   UNL     1     -10.781  18.506   7.397  1.00  0.00     0.293 HD
ENDBRANCH   2  14
TORSDOF 2
ENDMDL
MODEL 2
REMARK VINA RESULT:    -5.641      1.244      5.417
REMARK INTER + INTRA:          -6.201
REMARK INTER:                  -6.139
REMARK INTRA:                  -0.062
REMARK UNBOUND:                -0.065
REMARK SMILES COc1cc2ccc(=O)oc2cc1O
REMARK SMILES IDX 3 1 13 2 12 3 11 4 5 5 4 6 6 7 7 8 8 9 9 10 10 11 2 12 1 13
REMARK SMILES IDX 14 14
REMARK H PARENT 14 15
REMARK Flexibility Score: inf
ROOT
ATOM      1  C   UNL     1      -5.728  14.757   6.153  1.00  0.00     0.161 A 
ATOM      2  C   UNL     1      -6.409  13.898   5.267  1.00  0.00     0.161 A 
ATOM      3  C   UNL     1      -7.781  14.060   5.044  1.00  0.00     0.098 A 
ATOM      4  C   UNL     1      -8.489  15.073   5.696  1.00  0.00     0.142 A 
ATOM      5  C   UNL     1      -7.816  15.937   6.584  1.00  0.00     0.022 A 
ATOM      6  C   UNL     1      -6.442  15.779   6.811  1.00  0.00     0.062 A 
ATOM      7  C   UNL     1      -8.553  16.940   7.222  1.00  0.00     0.019 A 
ATOM      8  C   UNL     1      -9.919  17.058   6.964  1.00  0.00     0.094 A 
ATOM      9  C   UNL     1     -10.518  16.164   6.070  1.00  0.00     0.336 A 
ATOM     10  O   UNL     1     -11.749  16.253   5.823  1.00  0.00    -0.246 OA
ATOM     11  O   UNL     1      -9.794  15.219   5.477  1.00  0.00    -0.423 OA
ENDROOT
BRANCH   1  12
ATOM     12  O   UNL     1      -4.351  14.567   6.354  1.00  0.00    -0.493 OA
ATOM     13  C   UNL     1      -3.769  14.096   7.564  1.00  0.00     0.278 C 
ENDBRANCH   1  12
BRANCH   2  14
ATOM     14  O   UNL     1      -5.737  12.877   4.597  1.00  0.00    -0.504 OA
ATOM     15  H   UNL     1      -5.570  12.903   3.598  1.00  0.00     0.293 HD
ENDBRANCH   2  14
TORSDOF 2
ENDMDL
MODEL 3
REMARK VINA RESULT:    -5.628      3.336      5.855
REMARK INTER + INTRA:          -6.187
REMARK INTER:                  -6.143
REMARK INTRA:                  -0.044
REMARK UNBOUND:                -0.065
REMARK SMILES COc1cc2ccc(=O)oc2cc1O
REMARK SMILES IDX 3 1 13 2 12 3 11 4 5 5 4 6 6 7 7 8 8 9 9 10 10 11 2 12 1 13
REMARK SMILES IDX 14 14
REMARK H PARENT 14 15
REMARK Flexibility Score: inf
ROOT
ATOM      1  C   UNL     1      -3.421  15.109   9.092  1.00  0.00     0.161 A 
ATOM      2  C   UNL     1      -4.615  15.071   9.841  1.00  0.00     0.161 A 
ATOM      3  C   UNL     1      -5.813  14.672   9.237  1.00  0.00     0.098 A 
ATOM      4  C   UNL     1      -5.838  14.308   7.889  1.00  0.00     0.142 A 
ATOM      5  C   UNL     1      -4.650  14.343   7.132  1.00  0.00     0.022 A 
ATOM      6  C   UNL     1      -3.447  14.742   7.731  1.00  0.00     0.062 A 
ATOM      7  C   UNL     1      -4.708  13.973   5.784  1.00  0.00     0.019 A 
ATOM      8  C   UNL     1      -5.929  13.584   5.232  1.00  0.00     0.094 A 
ATOM      9  C   UNL     1      -7.067  13.574   6.045  1.00  0.00     0.336 A 
ATOM     10  O   UNL     1      -8.178  13.226   5.567  1.00  0.00    -0.246 OA
ATOM     11  O   UNL     1      -6.983  13.931   7.324  1.00  0.00    -0.423 OA
ENDROOT
BRANCH   1  12
ATOM     12  O   UNL     1      -2.236  15.514   9.729  1.00  0.00    -0.493 OA
ATOM     13  C   UNL     1      -0.927  15.269   9.229  1.00  0.00     0.278 C 
ENDBRANCH   1  12
BRANCH   2  14
ATOM     14  O   UNL     1      -4.629  15.426  11.189  1.00  0.00    -0.504 OA
ATOM     15  H   UNL     1      -3.924  15.102  11.842  1.00  0.00     0.293 HD
ENDBRANCH   2  14
TORSDOF 2
ENDMDL
MODEL 4
REMARK VINA RESULT:    -5.508      2.143      3.778
REMARK INTER + INTRA:          -6.056
REMARK INTER:                  -6.008
REMARK INTRA:                  -0.048
REMARK UNBOUND:                -0.065
REMARK SMILES COc1cc2ccc(=O)oc2cc1O
REMARK SMILES IDX 3 1 13 2 12 3 11 4 5 5 4 6 6 7 7 8 8 9 9 10 10 11 2 12 1 13
REMARK SMILES IDX 14 14
REMARK H PARENT 14 15
REMARK Flexibility Score: inf
ROOT
ATOM      1  C   UNL     1      -7.368  15.130   5.807  1.00  0.00     0.161 A 
ATOM      2  C   UNL     1      -6.682  13.989   5.345  1.00  0.00     0.161 A 
ATOM      3  C   UNL     1      -5.441  13.643   5.893  1.00  0.00     0.098 A 
ATOM      4  C   UNL     1      -4.870  14.424   6.901  1.00  0.00     0.142 A 
ATOM      5  C   UNL     1      -5.549  15.567   7.369  1.00  0.00     0.022 A 
ATOM      6  C   UNL     1      -6.792  15.918   6.824  1.00  0.00     0.062 A 
ATOM      7  C   UNL     1      -4.952  16.329   8.379  1.00  0.00     0.019 A 
ATOM      8  C   UNL     1      -3.713  15.940   8.890  1.00  0.00     0.094 A 
ATOM      9  C   UNL     1      -3.100  14.793   8.376  1.00  0.00     0.336 A 
ATOM     10  O   UNL     1      -1.982  14.424   8.823  1.00  0.00    -0.246 OA
ATOM     11  O   UNL     1      -3.690  14.087   7.415  1.00  0.00    -0.423 OA
ENDROOT
BRANCH   1  12
ATOM     12  O   UNL     1      -8.611  15.448   5.236  1.00  0.00    -0.493 OA
ATOM     13  C   UNL     1      -9.739  15.917   5.966  1.00  0.00     0.278 C 
ENDBRANCH   1  12
BRANCH   2  14
ATOM     14  O   UNL     1      -7.219  13.184   4.341  1.00  0.00    -0.504 OA
ATOM     15  H   UNL     1      -8.215  13.015   4.259  1.00  0.00     0.293 HD
ENDBRANCH   2  14
TORSDOF 2
ENDMDL
MODEL 5
REMARK VINA RESULT:    -5.215      2.404      3.555
REMARK INTER + INTRA:          -5.738
REMARK INTER:                  -5.690
REMARK INTRA:                  -0.048
REMARK UNBOUND:                -0.065
REMARK SMILES COc1cc2ccc(=O)oc2cc1O
REMARK SMILES IDX 3 1 13 2 12 3 11 4 5 5 4 6 6 7 7 8 8 9 9 10 10 11 2 12 1 13
REMARK SMILES IDX 14 14
REMARK H PARENT 14 15
REMARK Flexibility Score: inf
ROOT
ATOM      1  C   UNL     1      -6.930  14.686   6.016  1.00  0.00     0.161 A 
ATOM      2  C   UNL     1      -7.317  15.786   6.807  1.00  0.00     0.161 A 
ATOM      3  C   UNL     1      -6.475  16.254   7.823  1.00  0.00     0.098 A 
ATOM      4  C   UNL     1      -5.246  15.635   8.064  1.00  0.00     0.142 A 
ATOM      5  C   UNL     1      -4.851  14.533   7.278  1.00  0.00     0.022 A 
ATOM      6  C   UNL     1      -5.690  14.061   6.259  1.00  0.00     0.062 A 
ATOM      7  C   UNL     1      -3.615  13.935   7.544  1.00  0.00     0.019 A 
ATOM      8  C   UNL     1      -2.815  14.440   8.569  1.00  0.00     0.094 A 
ATOM      9  C   UNL     1      -3.273  15.537   9.307  1.00  0.00     0.336 A 
ATOM     10  O   UNL     1      -2.567  16.009  10.236  1.00  0.00    -0.246 OA
ATOM     11  O   UNL     1      -4.453  16.087   9.033  1.00  0.00    -0.423 OA
ENDROOT
BRANCH   1  12
ATOM     12  O   UNL     1      -7.799  14.242   5.005  1.00  0.00    -0.493 OA
ATOM     13  C   UNL     1      -8.827  13.275   5.189  1.00  0.00     0.278 C 
ENDBRANCH   1  12
BRANCH   2  14
ATOM     14  O   UNL     1      -8.535  16.430   6.596  1.00  0.00    -0.504 OA
ATOM     15  H   UNL     1      -8.728  16.961   5.754  1.00  0.00     0.293 HD
ENDBRANCH   2  14
TORSDOF 2
ENDMDL
MODEL 6
REMARK VINA RESULT:    -5.208      4.340      6.567
REMARK INTER + INTRA:          -5.730
REMARK INTER:                  -5.666
REMARK INTRA:                  -0.063
REMARK UNBOUND:                -0.065
REMARK SMILES COc1cc2ccc(=O)oc2cc1O
REMARK SMILES IDX 3 1 13 2 12 3 11 4 5 5 4 6 6 7 7 8 8 9 9 10 10 11 2 12 1 13
REMARK SMILES IDX 14 14
REMARK H PARENT 14 15
REMARK Flexibility Score: inf
ROOT
ATOM      1  C   UNL     1      -4.069  14.796   7.942  1.00  0.00     0.161 A 
ATOM      2  C   UNL     1      -3.811  15.768   6.955  1.00  0.00     0.161 A 
ATOM      3  C   UNL     1      -2.529  16.310   6.818  1.00  0.00     0.098 A 
ATOM      4  C   UNL     1      -1.492  15.896   7.658  1.00  0.00     0.142 A 
ATOM      5  C   UNL     1      -1.741  14.924   8.649  1.00  0.00     0.022 A 
ATOM      6  C   UNL     1      -3.024  14.378   8.790  1.00  0.00     0.062 A 
ATOM      7  C   UNL     1      -0.683  14.530   9.475  1.00  0.00     0.019 A 
ATOM      8  C   UNL     1       0.576  15.104   9.298  1.00  0.00     0.094 A 
ATOM      9  C   UNL     1       0.748  16.062   8.293  1.00  0.00     0.336 A 
ATOM     10  O   UNL     1       1.876  16.591   8.116  1.00  0.00    -0.246 OA
ATOM     11  O   UNL     1      -0.276  16.418   7.521  1.00  0.00    -0.423 OA
ENDROOT
BRANCH   1  12
ATOM     12  O   UNL     1      -5.368  14.271   8.051  1.00  0.00    -0.493 OA
ATOM     13  C   UNL     1      -6.272  14.567   9.110  1.00  0.00     0.278 C 
ENDBRANCH   1  12
BRANCH   2  14
ATOM     14  O   UNL     1      -4.819  16.206   6.097  1.00  0.00    -0.504 OA
ATOM     15  H   UNL     1      -4.821  15.986   5.107  1.00  0.00     0.293 HD
ENDBRANCH   2  14
TORSDOF 2
ENDMDL
MODEL 7
REMARK VINA RESULT:    -5.151      3.215      5.224
REMARK INTER + INTRA:          -5.668
REMARK INTER:                  -5.603
REMARK INTRA:                  -0.065
REMARK UNBOUND:                -0.065
REMARK SMILES COc1cc2ccc(=O)oc2cc1O
REMARK SMILES IDX 3 1 13 2 12 3 11 4 5 5 4 6 6 7 7 8 8 9 9 10 10 11 2 12 1 13
REMARK SMILES IDX 14 14
REMARK H PARENT 14 15
REMARK Flexibility Score: inf
ROOT
ATOM      1  C   UNL     1      -5.433  15.231   6.987  1.00  0.00     0.161 A 
ATOM      2  C   UNL     1      -5.267  14.510   8.186  1.00  0.00     0.161 A 
ATOM      3  C   UNL     1      -4.019  14.473   8.818  1.00  0.00     0.098 A 
ATOM      4  C   UNL     1      -2.927  15.148   8.268  1.00  0.00     0.142 A 
ATOM      5  C   UNL     1      -3.084  15.872   7.068  1.00  0.00     0.022 A 
ATOM      6  C   UNL     1      -4.331  15.913   6.431  1.00  0.00     0.062 A 
ATOM      7  C   UNL     1      -1.971  16.537   6.542  1.00  0.00     0.019 A 
ATOM      8  C   UNL     1      -0.750  16.467   7.212  1.00  0.00     0.094 A 
ATOM      9  C   UNL     1      -0.670  15.730   8.398  1.00  0.00     0.336 A 
ATOM     10  O   UNL     1       0.422  15.653   9.019  1.00  0.00    -0.246 OA
ATOM     11  O   UNL     1      -1.744  15.106   8.877  1.00  0.00    -0.423 OA
ENDROOT
BRANCH   1  12
ATOM     12  O   UNL     1      -6.700  15.249   6.378  1.00  0.00    -0.493 OA
ATOM     13  C   UNL     1      -7.052  14.492   5.226  1.00  0.00     0.278 C 
ENDBRANCH   1  12
BRANCH   2  14
ATOM     14  O   UNL     1      -6.333  13.825   8.766  1.00  0.00    -0.504 OA
ATOM     15  H   UNL     1      -7.246  13.772   8.328  1.00  0.00     0.293 HD
ENDBRANCH   2  14
TORSDOF 2
ENDMDL
MODEL 8
REMARK VINA RESULT:    -4.998      2.446      5.340
REMARK INTER + INTRA:          -5.502
REMARK INTER:                  -5.443
REMARK INTRA:                  -0.059
REMARK UNBOUND:                -0.065
REMARK SMILES COc1cc2ccc(=O)oc2cc1O
REMARK SMILES IDX 3 1 13 2 12 3 11 4 5 5 4 6 6 7 7 8 8 9 9 10 10 11 2 12 1 13
REMARK SMILES IDX 14 14
REMARK H PARENT 14 15
REMARK Flexibility Score: inf
ROOT
ATOM      1  C   UNL     1      -4.756  15.607   8.193  1.00  0.00     0.161 A 
ATOM      2  C   UNL     1      -4.421  14.314   7.746  1.00  0.00     0.161 A 
ATOM      3  C   UNL     1      -5.321  13.585   6.960  1.00  0.00     0.098 A 
ATOM      4  C   UNL     1      -6.558  14.131   6.611  1.00  0.00     0.142 A 
ATOM      5  C   UNL     1      -6.903  15.424   7.055  1.00  0.00     0.022 A 
ATOM      6  C   UNL     1      -6.005  16.158   7.842  1.00  0.00     0.062 A 
ATOM      7  C   UNL     1      -8.149  15.943   6.689  1.00  0.00     0.019 A 
ATOM      8  C   UNL     1      -9.009  15.174   5.905  1.00  0.00     0.094 A 
ATOM      9  C   UNL     1      -8.599  13.899   5.502  1.00  0.00     0.336 A 
ATOM     10  O   UNL     1      -9.359  13.189   4.793  1.00  0.00    -0.246 OA
ATOM     11  O   UNL     1      -7.408  13.430   5.863  1.00  0.00    -0.423 OA
ENDROOT
BRANCH   1  12
ATOM     12  O   UNL     1      -3.829  16.311   8.981  1.00  0.00    -0.493 OA
ATOM     13  C   UNL     1      -3.805  16.300  10.403  1.00  0.00     0.278 C 
ENDBRANCH   1  12
BRANCH   2  14
ATOM     14  O   UNL     1      -3.195  13.735   8.072  1.00  0.00    -0.504 OA
ATOM     15  H   UNL     1      -2.933  12.808   7.756  1.00  0.00     0.293 HD
ENDBRANCH   2  14
TORSDOF 2
ENDMDL
MODEL 9
REMARK VINA RESULT:    -4.933      4.268      7.876
REMARK INTER + INTRA:          -5.430
REMARK INTER:                  -5.386
REMARK INTRA:                  -0.045
REMARK UNBOUND:                -0.065
REMARK SMILES COc1cc2ccc(=O)oc2cc1O
REMARK SMILES IDX 3 1 13 2 12 3 11 4 5 5 4 6 6 7 7 8 8 9 9 10 10 11 2 12 1 13
REMARK SMILES IDX 14 14
REMARK H PARENT 14 15
REMARK Flexibility Score: inf
ROOT
ATOM      1  C   UNL     1      -0.304  15.823   8.399  1.00  0.00     0.161 A 
ATOM      2  C   UNL     1      -0.394  16.583   7.217  1.00  0.00     0.161 A 
ATOM      3  C   UNL     1      -1.575  16.584   6.467  1.00  0.00     0.098 A 
ATOM      4  C   UNL     1      -2.677  15.831   6.882  1.00  0.00     0.142 A 
ATOM      5  C   UNL     1      -2.596  15.066   8.064  1.00  0.00     0.022 A 
ATOM      6  C   UNL     1      -1.415  15.063   8.818  1.00  0.00     0.062 A 
ATOM      7  C   UNL     1      -3.715  14.323   8.453  1.00  0.00     0.019 A 
ATOM      8  C   UNL     1      -4.868  14.357   7.668  1.00  0.00     0.094 A 
ATOM      9  C   UNL     1      -4.874  15.139   6.508  1.00  0.00     0.336 A 
ATOM     10  O   UNL     1      -5.904  15.185   5.787  1.00  0.00    -0.246 OA
ATOM     11  O   UNL     1      -3.796  15.837   6.161  1.00  0.00    -0.423 OA
ENDROOT
BRANCH   1  12
ATOM     12  O   UNL     1       0.897  15.846   9.128  1.00  0.00    -0.493 OA
ATOM     13  C   UNL     1       1.003  15.556  10.518  1.00  0.00     0.278 C 
ENDBRANCH   1  12
BRANCH   2  14
ATOM     14  O   UNL     1       0.683  17.348   6.770  1.00  0.00    -0.504 OA
ATOM     15  H   UNL     1       0.713  18.356   6.878  1.00  0.00     0.293 HD
ENDBRANCH   2  14
TORSDOF 2
ENDMDL
