MODEL 1
REMARK VINA RESULT:    -7.781      0.000      0.000
REMARK INTER + INTRA:         -10.737
REMARK INTER:                 -10.510
REMARK INTRA:                  -0.227
REMARK UNBOUND:                -0.227
REMARK SMILES O=c1c(-c2ccc(O)cc2)coc2c([C@@H]3O[C@@H](CO)[C@H](O)[C@H](O)[C@H]3O)c(O)ccc12
REMARK SMILES IDX 3 1 11 2 12 3 13 4 30 5 2 6 1 7 29 8 28 9 26 10 14 11 4 12
REMARK SMILES IDX 5 13 6 14 7 15 10 16 9 17 8 18 15 20 24 21 16 22 22 23 17 24
REMARK SMILES IDX 20 25 25 26 23 28 18 30 19 31 21 33 27 35
REMARK H PARENT 8 19 25 27 23 29 19 32 21 34 27 36
REMARK Flexibility Score: inf
ROOT
ATOM      1  C   UNL     1      13.880   5.331  26.606  1.00  0.00     0.065 A 
ATOM      2  C   UNL     1      14.428   4.197  25.952  1.00  0.00     0.208 A 
ATOM      3  O   UNL     1      13.641   3.221  25.502  1.00  0.00    -0.463 OA
ATOM      4  C   UNL     1      12.299   3.269  25.636  1.00  0.00     0.147 A 
ATOM      5  C   UNL     1      11.662   4.451  26.046  1.00  0.00     0.066 A 
ATOM      6  C   UNL     1      12.502   5.549  26.374  1.00  0.00     0.200 A 
ATOM      7  O   UNL     1      12.010   6.701  26.554  1.00  0.00    -0.288 OA
ATOM      8  C   UNL     1      10.251   4.488  25.998  1.00  0.00     0.020 A 
ATOM      9  C   UNL     1       9.564   3.272  25.940  1.00  0.00     0.047 A 
ATOM     10  C   UNL     1      10.364   2.058  25.888  1.00  0.00     0.125 A 
ATOM     11  C   UNL     1      11.538   2.242  25.107  1.00  0.00     0.069 A 
ENDROOT
BRANCH   1  12
ATOM     12  C   UNL     1      14.533   5.911  27.814  1.00  0.00    -0.011 A 
ATOM     13  C   UNL     1      15.801   6.509  27.664  1.00  0.00     0.013 A 
ATOM     14  C   UNL     1      16.325   7.352  28.603  1.00  0.00     0.047 A 
ATOM     15  C   UNL     1      15.685   7.482  29.867  1.00  0.00     0.115 A 
ATOM     16  C   UNL     1      13.890   6.051  29.071  1.00  0.00     0.013 A 
ATOM     17  C   UNL     1      14.472   6.809  30.086  1.00  0.00     0.047 A 
BRANCH  15  18
ATOM     18  O   UNL     1      16.323   8.221  30.855  1.00  0.00    -0.508 OA
ATOM     19  H   UNL     1      17.096   8.809  30.621  1.00  0.00     0.293 HD
ENDBRANCH  15  18
ENDBRANCH   1  12
BRANCH  11  20
ATOM     20  C   UNL     1      11.327   2.524  23.533  1.00  0.00     0.188 C 
ATOM     21  C   UNL     1      10.029   1.883  22.894  1.00  0.00     0.179 C 
ATOM     22  O   UNL     1      11.559   3.925  23.115  1.00  0.00    -0.362 OA
ATOM     23  C   UNL     1      10.101   2.134  21.405  1.00  0.00     0.177 C 
ATOM     24  C   UNL     1      10.771   4.531  22.019  1.00  0.00     0.176 C 
ATOM     25  C   UNL     1       9.840   3.645  21.159  1.00  0.00     0.177 C 
BRANCH  21  26
ATOM     26  O   UNL     1       9.934   0.497  23.177  1.00  0.00    -0.387 OA
ATOM     27  H   UNL     1       9.000   0.377  23.480  1.00  0.00     0.211 HD
ENDBRANCH  21  26
BRANCH  23  28
ATOM     28  O   UNL     1       9.164   1.337  20.740  1.00  0.00    -0.387 OA
ATOM     29  H   UNL     1       8.934   1.855  19.904  1.00  0.00     0.211 HD
ENDBRANCH  23  28
BRANCH  24  30
ATOM     30  C   UNL     1      11.717   5.348  21.106  1.00  0.00     0.191 C 
BRANCH  30  31
ATOM     31  O   UNL     1      12.294   6.450  21.795  1.00  0.00    -0.394 OA
ATOM     32  H   UNL     1      11.649   7.233  21.773  1.00  0.00     0.210 HD
ENDBRANCH  30  31
ENDBRANCH  24  30
BRANCH  25  33
ATOM     33  O   UNL     1       8.456   3.918  21.409  1.00  0.00    -0.388 OA
ATOM     34  H   UNL     1       7.906   3.109  21.211  1.00  0.00     0.211 HD
ENDBRANCH  25  33
ENDBRANCH  11  20
BRANCH  10  35
ATOM     35  O   UNL     1      10.019   0.878  26.581  1.00  0.00    -0.507 OA
ATOM     36  H   UNL     1      10.794   0.249  26.716  1.00  0.00     0.293 HD
ENDBRANCH  10  35
TORSDOF 9
ENDMDL
MODEL 2
REMARK VINA RESULT:    -7.765      2.305      4.639
REMARK INTER + INTRA:         -10.715
REMARK INTER:                 -10.210
REMARK INTRA:                  -0.505
REMARK UNBOUND:                -0.227
REMARK SMILES O=c1c(-c2ccc(O)cc2)coc2c([C@@H]3O[C@@H](CO)[C@H](O)[C@H](O)[C@H]3O)c(O)ccc12
REMARK SMILES IDX 3 1 11 2 12 3 13 4 30 5 2 6 1 7 29 8 28 9 26 10 14 11 4 12
REMARK SMILES IDX 5 13 6 14 7 15 10 16 9 17 8 18 15 20 24 21 16 22 22 23 17 24
REMARK SMILES IDX 20 25 25 26 23 28 18 30 19 31 21 33 27 35
REMARK H PARENT 8 19 25 27 23 29 19 32 21 34 27 36
REMARK Flexibility Score: inf
ROOT
ATOM      1  C   UNL     1      14.613   4.283  25.990  1.00  0.00     0.065 A 
ATOM      2  C   UNL     1      13.387   4.792  26.491  1.00  0.00     0.208 A 
ATOM      3  O   UNL     1      12.241   4.574  25.846  1.00  0.00    -0.463 OA
ATOM      4  C   UNL     1      12.193   3.856  24.704  1.00  0.00     0.147 A 
ATOM      5  C   UNL     1      13.307   3.118  24.274  1.00  0.00     0.066 A 
ATOM      6  C   UNL     1      14.487   3.227  25.058  1.00  0.00     0.200 A 
ATOM      7  O   UNL     1      15.462   2.446  24.859  1.00  0.00    -0.288 OA
ATOM      8  C   UNL     1      13.137   2.254  23.170  1.00  0.00     0.020 A 
ATOM      9  C   UNL     1      12.035   2.464  22.336  1.00  0.00     0.047 A 
ATOM     10  C   UNL     1      11.120   3.536  22.699  1.00  0.00     0.125 A 
ATOM     11  C   UNL     1      10.965   3.631  24.109  1.00  0.00     0.069 A 
ENDROOT
BRANCH   1  12
ATOM     12  C   UNL     1      15.856   5.104  26.023  1.00  0.00    -0.011 A 
ATOM     13  C   UNL     1      16.169   5.794  27.212  1.00  0.00     0.013 A 
ATOM     14  C   UNL     1      17.419   6.284  27.463  1.00  0.00     0.047 A 
ATOM     15  C   UNL     1      18.393   6.292  26.426  1.00  0.00     0.115 A 
ATOM     16  C   UNL     1      16.833   5.103  24.993  1.00  0.00     0.013 A 
ATOM     17  C   UNL     1      18.073   5.708  25.190  1.00  0.00     0.047 A 
BRANCH  15  18
ATOM     18  O   UNL     1      19.600   6.938  26.662  1.00  0.00    -0.508 OA
ATOM     19  H   UNL     1      20.089   7.378  25.910  1.00  0.00     0.293 HD
ENDBRANCH  15  18
ENDBRANCH   1  12
BRANCH  11  20
ATOM     20  C   UNL     1      10.263   2.381  24.849  1.00  0.00     0.188 C 
ATOM     21  C   UNL     1       9.223   2.757  25.981  1.00  0.00     0.179 C 
ATOM     22  O   UNL     1       9.789   1.309  23.945  1.00  0.00    -0.362 OA
ATOM     23  C   UNL     1       8.804   1.462  26.641  1.00  0.00     0.177 C 
ATOM     24  C   UNL     1       8.572   0.531  24.264  1.00  0.00     0.176 C 
ATOM     25  C   UNL     1       7.897   0.689  25.646  1.00  0.00     0.177 C 
BRANCH  21  26
ATOM     26  O   UNL     1       9.777   3.658  26.925  1.00  0.00    -0.387 OA
ATOM     27  H   UNL     1      10.717   3.365  27.015  1.00  0.00     0.211 HD
ENDBRANCH  21  26
BRANCH  23  28
ATOM     28  O   UNL     1       8.138   1.732  27.841  1.00  0.00    -0.387 OA
ATOM     29  H   UNL     1       7.619   2.579  27.660  1.00  0.00     0.211 HD
ENDBRANCH  23  28
BRANCH  24  30
ATOM     30  C   UNL     1       8.834  -0.966  23.970  1.00  0.00     0.191 C 
BRANCH  30  31
ATOM     31  O   UNL     1       8.090  -1.812  24.837  1.00  0.00    -0.394 OA
ATOM     32  H   UNL     1       8.430  -2.764  24.747  1.00  0.00     0.210 HD
ENDBRANCH  30  31
ENDBRANCH  24  30
BRANCH  25  33
ATOM     33  O   UNL     1       6.635   1.363  25.556  1.00  0.00    -0.388 OA
ATOM     34  H   UNL     1       6.759   2.270  25.161  1.00  0.00     0.211 HD
ENDBRANCH  25  33
ENDBRANCH  11  20
BRANCH  10  35
ATOM     35  O   UNL     1      10.521   4.391  21.749  1.00  0.00    -0.507 OA
ATOM     36  H   UNL     1       9.972   5.127  22.161  1.00  0.00     0.293 HD
ENDBRANCH  10  35
TORSDOF 9
ENDMDL
MODEL 3
REMARK VINA RESULT:    -7.761      2.178      4.429
REMARK INTER + INTRA:         -10.710
REMARK INTER:                 -10.189
REMARK INTRA:                  -0.521
REMARK UNBOUND:                -0.227
REMARK SMILES O=c1c(-c2ccc(O)cc2)coc2c([C@@H]3O[C@@H](CO)[C@H](O)[C@H](O)[C@H]3O)c(O)ccc12
REMARK SMILES IDX 3 1 11 2 12 3 13 4 30 5 2 6 1 7 29 8 28 9 26 10 14 11 4 12
REMARK SMILES IDX 5 13 6 14 7 15 10 16 9 17 8 18 15 20 24 21 16 22 22 23 17 24
REMARK SMILES IDX 20 25 25 26 23 28 18 30 19 31 21 33 27 35
REMARK H PARENT 8 19 25 27 23 29 19 32 21 34 27 36
REMARK Flexibility Score: inf
ROOT
ATOM      1  C   UNL     1      12.493   3.530  25.502  1.00  0.00     0.065 A 
ATOM      2  C   UNL     1      11.212   3.119  25.954  1.00  0.00     0.208 A 
ATOM      3  O   UNL     1      10.246   2.817  25.087  1.00  0.00    -0.463 OA
ATOM      4  C   UNL     1      10.442   2.875  23.753  1.00  0.00     0.147 A 
ATOM      5  C   UNL     1      11.734   3.033  23.225  1.00  0.00     0.066 A 
ATOM      6  C   UNL     1      12.791   3.197  24.161  1.00  0.00     0.200 A 
ATOM      7  O   UNL     1      13.996   3.141  23.781  1.00  0.00    -0.288 OA
ATOM      8  C   UNL     1      11.891   2.912  21.827  1.00  0.00     0.020 A 
ATOM      9  C   UNL     1      10.755   3.042  21.025  1.00  0.00     0.047 A 
ATOM     10  C   UNL     1       9.483   3.250  21.701  1.00  0.00     0.125 A 
ATOM     11  C   UNL     1       9.410   2.505  22.910  1.00  0.00     0.069 A 
ENDROOT
BRANCH   1  12
ATOM     12  C   UNL     1      13.224   4.643  26.173  1.00  0.00    -0.011 A 
ATOM     13  C   UNL     1      12.473   5.719  26.689  1.00  0.00     0.013 A 
ATOM     14  C   UNL     1      12.988   6.598  27.599  1.00  0.00     0.047 A 
ATOM     15  C   UNL     1      14.380   6.570  27.893  1.00  0.00     0.115 A 
ATOM     16  C   UNL     1      14.610   4.610  26.476  1.00  0.00     0.013 A 
ATOM     17  C   UNL     1      15.177   5.574  27.308  1.00  0.00     0.047 A 
BRANCH  15  18
ATOM     18  O   UNL     1      14.902   7.574  28.699  1.00  0.00    -0.508 OA
ATOM     19  H   UNL     1      15.234   8.423  28.291  1.00  0.00     0.293 HD
ENDBRANCH  15  18
ENDBRANCH   1  12
BRANCH  11  20
ATOM     20  C   UNL     1       9.414   0.898  22.776  1.00  0.00     0.188 C 
ATOM     21  C   UNL     1       8.523   0.125  23.831  1.00  0.00     0.179 C 
ATOM     22  O   UNL     1       9.267   0.388  21.394  1.00  0.00    -0.362 OA
ATOM     23  C   UNL     1       8.785  -1.351  23.631  1.00  0.00     0.177 C 
ATOM     24  C   UNL     1       8.545  -0.874  21.123  1.00  0.00     0.176 C 
ATOM     25  C   UNL     1       8.113  -1.781  22.298  1.00  0.00     0.177 C 
BRANCH  21  26
ATOM     26  O   UNL     1       8.818   0.523  25.160  1.00  0.00    -0.387 OA
ATOM     27  H   UNL     1       9.118  -0.311  25.599  1.00  0.00     0.211 HD
ENDBRANCH  21  26
BRANCH  23  28
ATOM     28  O   UNL     1       8.285  -2.077  24.716  1.00  0.00    -0.387 OA
ATOM     29  H   UNL     1       7.290  -2.133  24.549  1.00  0.00     0.211 HD
ENDBRANCH  23  28
BRANCH  24  30
ATOM     30  C   UNL     1       9.337  -1.698  20.080  1.00  0.00     0.191 C 
BRANCH  30  31
ATOM     31  O   UNL     1       9.245  -1.131  18.779  1.00  0.00    -0.394 OA
ATOM     32  H   UNL     1      10.108  -0.642  18.566  1.00  0.00     0.210 HD
ENDBRANCH  30  31
ENDBRANCH  24  30
BRANCH  25  33
ATOM     33  O   UNL     1       6.692  -1.786  22.482  1.00  0.00    -0.388 OA
ATOM     34  H   UNL     1       6.433  -1.108  23.167  1.00  0.00     0.211 HD
ENDBRANCH  25  33
ENDBRANCH  11  20
BRANCH  10  35
ATOM     35  O   UNL     1       8.489   4.128  21.218  1.00  0.00    -0.507 OA
ATOM     36  H   UNL     1       8.739   5.100  21.295  1.00  0.00     0.293 HD
ENDBRANCH  10  35
TORSDOF 9
ENDMDL
MODEL 4
REMARK VINA RESULT:    -7.710      2.173      4.167
REMARK INTER + INTRA:         -10.642
REMARK INTER:                 -10.119
REMARK INTRA:                  -0.522
REMARK UNBOUND:                -0.227
REMARK SMILES O=c1c(-c2ccc(O)cc2)coc2c([C@@H]3O[C@@H](CO)[C@H](O)[C@H](O)[C@H]3O)c(O)ccc12
REMARK SMILES IDX 3 1 11 2 12 3 13 4 30 5 2 6 1 7 29 8 28 9 26 10 14 11 4 12
REMARK SMILES IDX 5 13 6 14 7 15 10 16 9 17 8 18 15 20 24 21 16 22 22 23 17 24
REMARK SMILES IDX 20 25 25 26 23 28 18 30 19 31 21 33 27 35
REMARK H PARENT 8 19 25 27 23 29 19 32 21 34 27 36
REMARK Flexibility Score: inf
ROOT
ATOM      1  C   UNL     1      14.046   6.181  28.456  1.00  0.00     0.065 A 
ATOM      2  C   UNL     1      12.647   6.377  28.321  1.00  0.00     0.208 A 
ATOM      3  O   UNL     1      11.985   5.885  27.274  1.00  0.00    -0.463 OA
ATOM      4  C   UNL     1      12.606   5.175  26.309  1.00  0.00     0.147 A 
ATOM      5  C   UNL     1      13.926   4.730  26.484  1.00  0.00     0.066 A 
ATOM      6  C   UNL     1      14.580   5.125  27.683  1.00  0.00     0.200 A 
ATOM      7  O   UNL     1      15.686   4.605  28.010  1.00  0.00    -0.288 OA
ATOM      8  C   UNL     1      14.456   3.848  25.517  1.00  0.00     0.020 A 
ATOM      9  C   UNL     1      13.824   3.781  24.273  1.00  0.00     0.047 A 
ATOM     10  C   UNL     1      12.634   4.598  24.086  1.00  0.00     0.125 A 
ATOM     11  C   UNL     1      11.852   4.655  25.273  1.00  0.00     0.069 A 
ENDROOT
BRANCH   1  12
ATOM     12  C   UNL     1      14.934   7.281  28.929  1.00  0.00    -0.011 A 
ATOM     13  C   UNL     1      16.085   7.581  28.173  1.00  0.00     0.013 A 
ATOM     14  C   UNL     1      16.765   8.757  28.316  1.00  0.00     0.047 A 
ATOM     15  C   UNL     1      16.444   9.629  29.394  1.00  0.00     0.115 A 
ATOM     16  C   UNL     1      14.607   8.158  29.996  1.00  0.00     0.013 A 
ATOM     17  C   UNL     1      15.368   9.302  30.233  1.00  0.00     0.047 A 
BRANCH  15  18
ATOM     18  O   UNL     1      17.254  10.738  29.607  1.00  0.00    -0.508 OA
ATOM     19  H   UNL     1      16.845  11.642  29.721  1.00  0.00     0.293 HD
ENDBRANCH  15  18
ENDBRANCH   1  12
BRANCH  11  20
ATOM     20  C   UNL     1      11.186   3.274  25.771  1.00  0.00     0.188 C 
ATOM     21  C   UNL     1       9.697   3.387  26.298  1.00  0.00     0.179 C 
ATOM     22  O   UNL     1      11.407   2.117  24.875  1.00  0.00    -0.362 OA
ATOM     23  C   UNL     1       9.321   2.031  26.852  1.00  0.00     0.177 C 
ATOM     24  C   UNL     1      10.377   1.066  24.723  1.00  0.00     0.176 C 
ATOM     25  C   UNL     1       9.142   1.058  25.655  1.00  0.00     0.177 C 
BRANCH  21  26
ATOM     26  O   UNL     1       9.564   4.399  27.283  1.00  0.00    -0.387 OA
ATOM     27  H   UNL     1      10.470   4.788  27.352  1.00  0.00     0.211 HD
ENDBRANCH  21  26
BRANCH  23  28
ATOM     28  O   UNL     1       8.152   2.133  27.611  1.00  0.00    -0.387 OA
ATOM     29  H   UNL     1       7.972   1.191  27.930  1.00  0.00     0.211 HD
ENDBRANCH  23  28
BRANCH  24  30
ATOM     30  C   UNL     1      11.061  -0.322  24.737  1.00  0.00     0.191 C 
BRANCH  30  31
ATOM     31  O   UNL     1      10.151  -1.362  24.402  1.00  0.00    -0.394 OA
ATOM     32  H   UNL     1      10.388  -1.731  23.487  1.00  0.00     0.210 HD
ENDBRANCH  30  31
ENDBRANCH  24  30
BRANCH  25  33
ATOM     33  O   UNL     1       7.939   1.404  24.959  1.00  0.00    -0.388 OA
ATOM     34  H   UNL     1       7.166   1.408  25.590  1.00  0.00     0.211 HD
ENDBRANCH  25  33
ENDBRANCH  11  20
BRANCH  10  35
ATOM     35  O   UNL     1      12.349   5.279  22.884  1.00  0.00    -0.507 OA
ATOM     36  H   UNL     1      13.098   5.240  22.212  1.00  0.00     0.293 HD
ENDBRANCH  10  35
TORSDOF 9
ENDMDL
MODEL 5
REMARK VINA RESULT:    -7.586      2.217      8.014
REMARK INTER + INTRA:         -10.475
REMARK INTER:                  -9.605
REMARK INTRA:                  -0.870
REMARK UNBOUND:                -0.227
REMARK SMILES O=c1c(-c2ccc(O)cc2)coc2c([C@@H]3O[C@@H](CO)[C@H](O)[C@H](O)[C@H]3O)c(O)ccc12
REMARK SMILES IDX 3 1 11 2 12 3 13 4 30 5 2 6 1 7 29 8 28 9 26 10 14 11 4 12
REMARK SMILES IDX 5 13 6 14 7 15 10 16 9 17 8 18 15 20 24 21 16 22 22 23 17 24
REMARK SMILES IDX 20 25 25 26 23 28 18 30 19 31 21 33 27 35
REMARK H PARENT 8 19 25 27 23 29 19 32 21 34 27 36
REMARK Flexibility Score: inf
ROOT
ATOM      1  C   UNL     1      11.123   1.030  24.801  1.00  0.00     0.065 A 
ATOM      2  C   UNL     1      12.381   1.512  24.355  1.00  0.00     0.208 A 
ATOM      3  O   UNL     1      12.716   2.792  24.507  1.00  0.00    -0.463 OA
ATOM      4  C   UNL     1      11.887   3.680  25.097  1.00  0.00     0.147 A 
ATOM      5  C   UNL     1      10.739   3.245  25.778  1.00  0.00     0.066 A 
ATOM      6  C   UNL     1      10.469   1.850  25.749  1.00  0.00     0.200 A 
ATOM      7  O   UNL     1       9.578   1.355  26.499  1.00  0.00    -0.288 OA
ATOM      8  C   UNL     1      10.012   4.203  26.518  1.00  0.00     0.020 A 
ATOM      9  C   UNL     1      10.217   5.554  26.224  1.00  0.00     0.047 A 
ATOM     10  C   UNL     1      11.204   5.870  25.203  1.00  0.00     0.125 A 
ATOM     11  C   UNL     1      12.316   4.985  25.262  1.00  0.00     0.069 A 
ENDROOT
BRANCH   1  12
ATOM     12  C   UNL     1      10.335   0.065  23.981  1.00  0.00    -0.011 A 
ATOM     13  C   UNL     1       9.514   0.576  22.956  1.00  0.00     0.013 A 
ATOM     14  C   UNL     1       9.030  -0.211  21.950  1.00  0.00     0.047 A 
ATOM     15  C   UNL     1       9.173  -1.624  22.031  1.00  0.00     0.115 A 
ATOM     16  C   UNL     1      10.487  -1.344  24.055  1.00  0.00     0.013 A 
ATOM     17  C   UNL     1       9.895  -2.172  23.104  1.00  0.00     0.047 A 
BRANCH  15  18
ATOM     18  O   UNL     1       8.534  -2.406  21.077  1.00  0.00    -0.508 OA
ATOM     19  H   UNL     1       8.511  -2.112  20.122  1.00  0.00     0.293 HD
ENDBRANCH  15  18
ENDBRANCH   1  12
BRANCH  11  20
ATOM     20  C   UNL     1      13.230   5.055  26.589  1.00  0.00     0.188 C 
ATOM     21  C   UNL     1      14.791   4.945  26.346  1.00  0.00     0.179 C 
ATOM     22  O   UNL     1      12.857   6.120  27.547  1.00  0.00    -0.362 OA
ATOM     23  C   UNL     1      15.444   4.879  27.708  1.00  0.00     0.177 C 
ATOM     24  C   UNL     1      13.886   6.809  28.355  1.00  0.00     0.176 C 
ATOM     25  C   UNL     1      15.341   6.285  28.359  1.00  0.00     0.177 C 
BRANCH  21  26
ATOM     26  O   UNL     1      15.122   3.810  25.562  1.00  0.00    -0.387 OA
ATOM     27  H   UNL     1      15.012   4.122  24.630  1.00  0.00     0.211 HD
ENDBRANCH  21  26
BRANCH  23  28
ATOM     28  O   UNL     1      16.775   4.468  27.580  1.00  0.00    -0.387 OA
ATOM     29  H   UNL     1      16.721   3.557  27.147  1.00  0.00     0.211 HD
ENDBRANCH  23  28
BRANCH  24  30
ATOM     30  C   UNL     1      13.374   6.962  29.807  1.00  0.00     0.191 C 
BRANCH  30  31
ATOM     31  O   UNL     1      13.512   5.753  30.544  1.00  0.00    -0.394 OA
ATOM     32  H   UNL     1      14.281   5.214  30.160  1.00  0.00     0.210 HD
ENDBRANCH  30  31
ENDBRANCH  24  30
BRANCH  25  33
ATOM     33  O   UNL     1      16.236   7.172  27.676  1.00  0.00    -0.388 OA
ATOM     34  H   UNL     1      15.721   7.796  27.092  1.00  0.00     0.211 HD
ENDBRANCH  25  33
ENDBRANCH  11  20
BRANCH  10  35
ATOM     35  O   UNL     1      11.027   6.898  24.252  1.00  0.00    -0.507 OA
ATOM     36  H   UNL     1      10.219   6.768  23.666  1.00  0.00     0.293 HD
ENDBRANCH  10  35
TORSDOF 9
ENDMDL
MODEL 6
REMARK VINA RESULT:    -7.479      3.740      5.292
REMARK INTER + INTRA:         -10.330
REMARK INTER:                  -9.524
REMARK INTRA:                  -0.806
REMARK UNBOUND:                -0.227
REMARK SMILES O=c1c(-c2ccc(O)cc2)coc2c([C@@H]3O[C@@H](CO)[C@H](O)[C@H](O)[C@H]3O)c(O)ccc12
REMARK SMILES IDX 3 1 11 2 12 3 13 4 30 5 2 6 1 7 29 8 28 9 26 10 14 11 4 12
REMARK SMILES IDX 5 13 6 14 7 15 10 16 9 17 8 18 15 20 24 21 16 22 22 23 17 24
REMARK SMILES IDX 20 25 25 26 23 28 18 30 19 31 21 33 27 35
REMARK H PARENT 8 19 25 27 23 29 19 32 21 34 27 36
REMARK Flexibility Score: inf
ROOT
ATOM      1  C   UNL     1      10.012   6.276  30.378  1.00  0.00     0.065 A 
ATOM      2  C   UNL     1       8.963   5.552  29.755  1.00  0.00     0.208 A 
ATOM      3  O   UNL     1       8.989   5.301  28.446  1.00  0.00    -0.463 OA
ATOM      4  C   UNL     1      10.010   5.708  27.663  1.00  0.00     0.147 A 
ATOM      5  C   UNL     1      11.192   6.211  28.231  1.00  0.00     0.066 A 
ATOM      6  C   UNL     1      11.221   6.329  29.647  1.00  0.00     0.200 A 
ATOM      7  O   UNL     1      12.307   6.577  30.246  1.00  0.00    -0.288 OA
ATOM      8  C   UNL     1      12.283   6.455  27.368  1.00  0.00     0.020 A 
ATOM      9  C   UNL     1      12.025   6.573  26.000  1.00  0.00     0.047 A 
ATOM     10  C   UNL     1      10.649   6.387  25.564  1.00  0.00     0.125 A 
ATOM     11  C   UNL     1       9.996   5.376  26.321  1.00  0.00     0.069 A 
ENDROOT
BRANCH   1  12
ATOM     12  C   UNL     1       9.723   7.307  31.416  1.00  0.00    -0.011 A 
ATOM     13  C   UNL     1       9.486   8.630  30.993  1.00  0.00     0.013 A 
ATOM     14  C   UNL     1       8.890   9.558  31.799  1.00  0.00     0.047 A 
ATOM     15  C   UNL     1       8.683   9.263  33.176  1.00  0.00     0.115 A 
ATOM     16  C   UNL     1       9.506   7.011  32.786  1.00  0.00     0.013 A 
ATOM     17  C   UNL     1       9.013   7.984  33.653  1.00  0.00     0.047 A 
BRANCH  15  18
ATOM     18  O   UNL     1       8.222  10.279  34.004  1.00  0.00    -0.508 OA
ATOM     19  H   UNL     1       7.249  10.505  34.026  1.00  0.00     0.293 HD
ENDBRANCH  15  18
ENDBRANCH   1  12
BRANCH  11  20
ATOM     20  C   UNL     1      10.559   3.873  26.164  1.00  0.00     0.188 C 
ATOM     21  C   UNL     1       9.460   2.736  26.104  1.00  0.00     0.179 C 
ATOM     22  O   UNL     1      11.629   3.712  25.153  1.00  0.00    -0.362 OA
ATOM     23  C   UNL     1      10.193   1.413  26.111  1.00  0.00     0.177 C 
ATOM     24  C   UNL     1      11.746   2.466  24.363  1.00  0.00     0.176 C 
ATOM     25  C   UNL     1      10.880   1.238  24.729  1.00  0.00     0.177 C 
BRANCH  21  26
ATOM     26  O   UNL     1       8.552   2.825  27.190  1.00  0.00    -0.387 OA
ATOM     27  H   UNL     1       8.588   1.930  27.608  1.00  0.00     0.211 HD
ENDBRANCH  21  26
BRANCH  23  28
ATOM     28  O   UNL     1       9.298   0.372  26.375  1.00  0.00    -0.387 OA
ATOM     29  H   UNL     1       8.393   0.820  26.426  1.00  0.00     0.211 HD
ENDBRANCH  23  28
BRANCH  24  30
ATOM     30  C   UNL     1      13.236   2.057  24.279  1.00  0.00     0.191 C 
BRANCH  30  31
ATOM     31  O   UNL     1      13.950   2.857  23.345  1.00  0.00    -0.394 OA
ATOM     32  H   UNL     1      14.553   3.500  23.848  1.00  0.00     0.210 HD
ENDBRANCH  30  31
ENDBRANCH  24  30
BRANCH  25  33
ATOM     33  O   UNL     1       9.871   0.979  23.745  1.00  0.00    -0.388 OA
ATOM     34  H   UNL     1       9.454   1.834  23.447  1.00  0.00     0.211 HD
ENDBRANCH  25  33
ENDBRANCH  11  20
BRANCH  10  35
ATOM     35  O   UNL     1      10.050   7.168  24.552  1.00  0.00    -0.507 OA
ATOM     36  H   UNL     1       9.082   7.382  24.729  1.00  0.00     0.293 HD
ENDBRANCH  10  35
TORSDOF 9
ENDMDL
MODEL 7
REMARK VINA RESULT:    -7.368      6.145      9.511
REMARK INTER + INTRA:         -10.179
REMARK INTER:                  -9.872
REMARK INTRA:                  -0.307
REMARK UNBOUND:                -0.227
REMARK SMILES O=c1c(-c2ccc(O)cc2)coc2c([C@@H]3O[C@@H](CO)[C@H](O)[C@H](O)[C@H]3O)c(O)ccc12
REMARK SMILES IDX 3 1 11 2 12 3 13 4 30 5 2 6 1 7 29 8 28 9 26 10 14 11 4 12
REMARK SMILES IDX 5 13 6 14 7 15 10 16 9 17 8 18 15 20 24 21 16 22 22 23 17 24
REMARK SMILES IDX 20 25 25 26 23 28 18 30 19 31 21 33 27 35
REMARK H PARENT 8 19 25 27 23 29 19 32 21 34 27 36
REMARK Flexibility Score: inf
ROOT
ATOM      1  C   UNL     1      12.030   7.271  30.006  1.00  0.00     0.065 A 
ATOM      2  C   UNL     1      10.717   6.767  29.819  1.00  0.00     0.208 A 
ATOM      3  O   UNL     1       9.777   6.945  30.747  1.00  0.00    -0.463 OA
ATOM      4  C   UNL     1      10.025   7.617  31.891  1.00  0.00     0.147 A 
ATOM      5  C   UNL     1      11.211   8.351  32.048  1.00  0.00     0.066 A 
ATOM      6  C   UNL     1      12.148   8.288  30.981  1.00  0.00     0.200 A 
ATOM      7  O   UNL     1      13.140   9.073  30.953  1.00  0.00    -0.288 OA
ATOM      8  C   UNL     1      11.331   9.170  33.193  1.00  0.00     0.020 A 
ATOM      9  C   UNL     1      10.483   8.914  34.274  1.00  0.00     0.047 A 
ATOM     10  C   UNL     1       9.508   7.846  34.117  1.00  0.00     0.125 A 
ATOM     11  C   UNL     1       8.992   7.804  32.792  1.00  0.00     0.069 A 
ENDROOT
BRANCH   1  12
ATOM     12  C   UNL     1      13.224   6.467  29.620  1.00  0.00    -0.011 A 
ATOM     13  C   UNL     1      13.594   6.433  28.260  1.00  0.00     0.013 A 
ATOM     14  C   UNL     1      14.831   6.024  27.850  1.00  0.00     0.047 A 
ATOM     15  C   UNL     1      15.715   5.414  28.784  1.00  0.00     0.115 A 
ATOM     16  C   UNL     1      14.111   5.869  30.552  1.00  0.00     0.013 A 
ATOM     17  C   UNL     1      15.328   5.334  30.132  1.00  0.00     0.047 A 
BRANCH  15  18
ATOM     18  O   UNL     1      16.900   4.866  28.309  1.00  0.00    -0.508 OA
ATOM     19  H   UNL     1      17.612   5.459  27.936  1.00  0.00     0.293 HD
ENDBRANCH  15  18
ENDBRANCH   1  12
BRANCH  11  20
ATOM     20  C   UNL     1       8.121   9.073  32.311  1.00  0.00     0.188 C 
ATOM     21  C   UNL     1       7.411   9.889  33.466  1.00  0.00     0.179 C 
ATOM     22  O   UNL     1       8.778   9.932  31.300  1.00  0.00    -0.362 OA
ATOM     23  C   UNL     1       6.536  10.927  32.799  1.00  0.00     0.177 C 
ATOM     24  C   UNL     1       8.550  11.393  31.282  1.00  0.00     0.176 C 
ATOM     25  C   UNL     1       7.462  12.014  32.189  1.00  0.00     0.177 C 
BRANCH  21  26
ATOM     26  O   UNL     1       6.651   9.046  34.315  1.00  0.00    -0.387 OA
ATOM     27  H   UNL     1       7.266   8.301  34.528  1.00  0.00     0.211 HD
ENDBRANCH  21  26
BRANCH  23  28
ATOM     28  O   UNL     1       5.647  11.472  33.730  1.00  0.00    -0.387 OA
ATOM     29  H   UNL     1       5.666  12.466  33.550  1.00  0.00     0.211 HD
ENDBRANCH  23  28
BRANCH  24  30
ATOM     30  C   UNL     1       8.349  11.858  29.819  1.00  0.00     0.191 C 
BRANCH  30  31
ATOM     31  O   UNL     1       9.373  11.365  28.964  1.00  0.00    -0.394 OA
ATOM     32  H   UNL     1       9.711  10.479  29.325  1.00  0.00     0.210 HD
ENDBRANCH  30  31
ENDBRANCH  24  30
BRANCH  25  33
ATOM     33  O   UNL     1       8.026  12.787  33.255  1.00  0.00    -0.388 OA
ATOM     34  H   UNL     1       7.393  12.821  34.026  1.00  0.00     0.211 HD
ENDBRANCH  25  33
ENDBRANCH  11  20
BRANCH  10  35
ATOM     35  O   UNL     1       9.176   6.947  35.153  1.00  0.00    -0.507 OA
ATOM     36  H   UNL     1       9.280   5.980  34.895  1.00  0.00     0.293 HD
ENDBRANCH  10  35
TORSDOF 9
ENDMDL
MODEL 8
REMARK VINA RESULT:    -7.288      3.048      4.588
REMARK INTER + INTRA:         -10.071
REMARK INTER:                  -9.367
REMARK INTRA:                  -0.704
REMARK UNBOUND:                -0.227
REMARK SMILES O=c1c(-c2ccc(O)cc2)coc2c([C@@H]3O[C@@H](CO)[C@H](O)[C@H](O)[C@H]3O)c(O)ccc12
REMARK SMILES IDX 3 1 11 2 12 3 13 4 30 5 2 6 1 7 29 8 28 9 26 10 14 11 4 12
REMARK SMILES IDX 5 13 6 14 7 15 10 16 9 17 8 18 15 20 24 21 16 22 22 23 17 24
REMARK SMILES IDX 20 25 25 26 23 28 18 30 19 31 21 33 27 35
REMARK H PARENT 8 19 25 27 23 29 19 32 21 34 27 36
REMARK Flexibility Score: inf
ROOT
ATOM      1  C   UNL     1       9.627   5.228  27.034  1.00  0.00     0.065 A 
ATOM      2  C   UNL     1      10.104   6.275  26.203  1.00  0.00     0.208 A 
ATOM      3  O   UNL     1      10.992   6.032  25.239  1.00  0.00    -0.463 OA
ATOM      4  C   UNL     1      11.464   4.790  25.003  1.00  0.00     0.147 A 
ATOM      5  C   UNL     1      10.871   3.670  25.609  1.00  0.00     0.066 A 
ATOM      6  C   UNL     1       9.811   3.924  26.521  1.00  0.00     0.200 A 
ATOM      7  O   UNL     1       9.094   2.974  26.950  1.00  0.00    -0.288 OA
ATOM      8  C   UNL     1      11.297   2.392  25.187  1.00  0.00     0.020 A 
ATOM      9  C   UNL     1      12.520   2.296  24.517  1.00  0.00     0.047 A 
ATOM     10  C   UNL     1      13.240   3.535  24.266  1.00  0.00     0.125 A 
ATOM     11  C   UNL     1      12.350   4.600  23.958  1.00  0.00     0.069 A 
ENDROOT
BRANCH   1  12
ATOM     12  C   UNL     1       9.445   5.434  28.500  1.00  0.00    -0.011 A 
ATOM     13  C   UNL     1      10.436   6.150  29.201  1.00  0.00     0.013 A 
ATOM     14  C   UNL     1      10.213   6.680  30.440  1.00  0.00     0.047 A 
ATOM     15  C   UNL     1       9.028   6.337  31.149  1.00  0.00     0.115 A 
ATOM     16  C   UNL     1       8.258   5.102  29.204  1.00  0.00     0.013 A 
ATOM     17  C   UNL     1       8.067   5.532  30.516  1.00  0.00     0.047 A 
BRANCH  15  18
ATOM     18  O   UNL     1       8.902   6.762  32.466  1.00  0.00    -0.508 OA
ATOM     19  H   UNL     1       9.086   7.715  32.704  1.00  0.00     0.293 HD
ENDBRANCH  15  18
ENDBRANCH   1  12
BRANCH  11  20
ATOM     20  C   UNL     1      11.504   4.469  22.592  1.00  0.00     0.188 C 
ATOM     21  C   UNL     1      11.351   5.803  21.754  1.00  0.00     0.179 C 
ATOM     22  O   UNL     1      11.838   3.288  21.764  1.00  0.00    -0.362 OA
ATOM     23  C   UNL     1      10.410   5.500  20.610  1.00  0.00     0.177 C 
ATOM     24  C   UNL     1      11.775   3.354  20.287  1.00  0.00     0.176 C 
ATOM     25  C   UNL     1      11.162   4.594  19.597  1.00  0.00     0.177 C 
BRANCH  21  26
ATOM     26  O   UNL     1      10.865   6.871  22.550  1.00  0.00    -0.387 OA
ATOM     27  H   UNL     1      10.774   7.623  21.915  1.00  0.00     0.211 HD
ENDBRANCH  21  26
BRANCH  23  28
ATOM     28  O   UNL     1       9.982   6.691  20.016  1.00  0.00    -0.387 OA
ATOM     29  H   UNL     1      10.833   7.197  19.815  1.00  0.00     0.211 HD
ENDBRANCH  23  28
BRANCH  24  30
ATOM     30  C   UNL     1      11.110   2.065  19.749  1.00  0.00     0.191 C 
BRANCH  30  31
ATOM     31  O   UNL     1       9.762   1.945  20.186  1.00  0.00    -0.394 OA
ATOM     32  H   UNL     1       9.444   0.993  20.033  1.00  0.00     0.210 HD
ENDBRANCH  30  31
ENDBRANCH  24  30
BRANCH  25  33
ATOM     33  O   UNL     1      12.152   5.382  18.925  1.00  0.00    -0.388 OA
ATOM     34  H   UNL     1      12.424   6.153  19.498  1.00  0.00     0.211 HD
ENDBRANCH  25  33
ENDBRANCH  11  20
BRANCH  10  35
ATOM     35  O   UNL     1      14.643   3.646  24.375  1.00  0.00    -0.507 OA
ATOM     36  H   UNL     1      15.144   3.036  23.750  1.00  0.00     0.293 HD
ENDBRANCH  10  35
TORSDOF 9
ENDMDL
MODEL 9
REMARK VINA RESULT:    -7.121      4.254      7.167
REMARK INTER + INTRA:          -9.846
REMARK INTER:                  -9.084
REMARK INTRA:                  -0.763
REMARK UNBOUND:                -0.227
REMARK SMILES O=c1c(-c2ccc(O)cc2)coc2c([C@@H]3O[C@@H](CO)[C@H](O)[C@H](O)[C@H]3O)c(O)ccc12
REMARK SMILES IDX 3 1 11 2 12 3 13 4 30 5 2 6 1 7 29 8 28 9 26 10 14 11 4 12
REMARK SMILES IDX 5 13 6 14 7 15 10 16 9 17 8 18 15 20 24 21 16 22 22 23 17 24
REMARK SMILES IDX 20 25 25 26 23 28 18 30 19 31 21 33 27 35
REMARK H PARENT 8 19 25 27 23 29 19 32 21 34 27 36
REMARK Flexibility Score: inf
ROOT
ATOM      1  C   UNL     1      11.323   6.791  29.657  1.00  0.00     0.065 A 
ATOM      2  C   UNL     1      11.453   6.748  28.245  1.00  0.00     0.208 A 
ATOM      3  O   UNL     1      12.649   6.840  27.665  1.00  0.00    -0.463 OA
ATOM      4  C   UNL     1      13.783   6.967  28.387  1.00  0.00     0.147 A 
ATOM      5  C   UNL     1      13.771   6.775  29.778  1.00  0.00     0.066 A 
ATOM      6  C   UNL     1      12.508   6.516  30.377  1.00  0.00     0.200 A 
ATOM      7  O   UNL     1      12.437   6.134  31.581  1.00  0.00    -0.288 OA
ATOM      8  C   UNL     1      15.013   6.750  30.449  1.00  0.00     0.020 A 
ATOM      9  C   UNL     1      16.122   7.299  29.798  1.00  0.00     0.047 A 
ATOM     10  C   UNL     1      15.915   7.816  28.453  1.00  0.00     0.125 A 
ATOM     11  C   UNL     1      14.995   7.014  27.724  1.00  0.00     0.069 A 
ENDROOT
BRANCH   1  12
ATOM     12  C   UNL     1      10.219   7.556  30.304  1.00  0.00    -0.011 A 
ATOM     13  C   UNL     1       9.115   6.838  30.806  1.00  0.00     0.013 A 
ATOM     14  C   UNL     1       8.235   7.384  31.697  1.00  0.00     0.047 A 
ATOM     15  C   UNL     1       8.294   8.777  31.981  1.00  0.00     0.115 A 
ATOM     16  C   UNL     1      10.284   8.943  30.597  1.00  0.00     0.013 A 
ATOM     17  C   UNL     1       9.321   9.543  31.407  1.00  0.00     0.047 A 
BRANCH  15  18
ATOM     18  O   UNL     1       7.291   9.332  32.767  1.00  0.00    -0.508 OA
ATOM     19  H   UNL     1       6.915   8.817  33.535  1.00  0.00     0.293 HD
ENDBRANCH  15  18
ENDBRANCH   1  12
BRANCH  11  20
ATOM     20  C   UNL     1      15.452   5.504  27.391  1.00  0.00     0.188 C 
ATOM     21  C   UNL     1      14.958   4.933  26.000  1.00  0.00     0.179 C 
ATOM     22  O   UNL     1      16.873   5.205  27.679  1.00  0.00    -0.362 OA
ATOM     23  C   UNL     1      15.358   3.476  25.954  1.00  0.00     0.177 C 
ATOM     24  C   UNL     1      17.634   4.255  26.839  1.00  0.00     0.176 C 
ATOM     25  C   UNL     1      16.899   3.407  25.776  1.00  0.00     0.177 C 
BRANCH  21  26
ATOM     26  O   UNL     1      13.557   5.087  25.837  1.00  0.00    -0.387 OA
ATOM     27  H   UNL     1      13.437   6.057  25.691  1.00  0.00     0.211 HD
ENDBRANCH  21  26
BRANCH  23  28
ATOM     28  O   UNL     1      14.690   2.830  24.909  1.00  0.00    -0.387 OA
ATOM     29  H   UNL     1      14.875   3.401  24.096  1.00  0.00     0.211 HD
ENDBRANCH  23  28
BRANCH  24  30
ATOM     30  C   UNL     1      18.485   3.339  27.752  1.00  0.00     0.191 C 
BRANCH  30  31
ATOM     31  O   UNL     1      18.017   1.997  27.735  1.00  0.00    -0.394 OA
ATOM     32  H   UNL     1      18.197   1.569  28.638  1.00  0.00     0.210 HD
ENDBRANCH  30  31
ENDBRANCH  24  30
BRANCH  25  33
ATOM     33  O   UNL     1      17.224   3.814  24.441  1.00  0.00    -0.388 OA
ATOM     34  H   UNL     1      16.391   3.933  23.906  1.00  0.00     0.211 HD
ENDBRANCH  25  33
ENDBRANCH  11  20
BRANCH  10  35
ATOM     35  O   UNL     1      16.525   8.998  27.981  1.00  0.00    -0.507 OA
ATOM     36  H   UNL     1      15.867   9.688  27.657  1.00  0.00     0.293 HD
ENDBRANCH  10  35
TORSDOF 9
ENDMDL
