MODEL 1
REMARK VINA RESULT:    -5.030      0.000      0.000
REMARK INTER + INTRA:          -5.793
REMARK INTER:                  -5.765
REMARK INTRA:                  -0.028
REMARK UNBOUND:                -0.028
REMARK SMILES COc1cc(C(=O)[O-])ccc1O
REMARK SMILES IDX 5 1 9 2 4 3 10 4 3 5 11 6 6 7 7 8 8 9 2 10 1 11 12 12
REMARK H PARENT 12 13
REMARK Flexibility Score: inf
ROOT
ATOM      1  C   UNL     1      82.145  91.763  83.915  1.00  0.00     0.001 A 
ATOM      2  C   UNL     1      81.357  91.721  85.077  1.00  0.00     0.014 A 
ATOM      3  C   UNL     1      83.194  92.696  83.834  1.00  0.00     0.060 A 
ATOM      4  C   UNL     1      81.613  92.592  86.136  1.00  0.00     0.051 A 
ATOM      5  C   UNL     1      83.458  93.579  84.902  1.00  0.00     0.161 A 
ATOM      6  C   UNL     1      82.656  93.519  86.057  1.00  0.00     0.157 A 
ENDROOT
BRANCH   1   7
ATOM      7  C   UNL     1      81.869  90.836  82.794  1.00  0.00     0.072 C 
ATOM      8  O   UNL     1      82.531  89.772  82.665  1.00  0.00    -0.545 OA
ATOM      9  O   UNL     1      80.875  91.127  81.867  1.00  0.00    -0.545 OA
ENDBRANCH   1   7
BRANCH   5  10
ATOM     10  O   UNL     1      84.498  94.520  84.850  1.00  0.00    -0.493 OA
ATOM     11  C   UNL     1      84.326  95.901  84.552  1.00  0.00     0.278 C 
ENDBRANCH   5  10
BRANCH   6  12
ATOM     12  O   UNL     1      82.881  94.373  87.136  1.00  0.00    -0.504 OA
ATOM     13  H   UNL     1      83.486  95.183  87.066  1.00  0.00     0.293 HD
ENDBRANCH   6  12
TORSDOF 3
ENDMDL
MODEL 2
REMARK VINA RESULT:    -4.948     15.526     16.498
REMARK INTER + INTRA:          -5.700
REMARK INTER:                  -5.603
REMARK INTRA:                  -0.096
REMARK UNBOUND:                -0.028
REMARK SMILES COc1cc(C(=O)[O-])ccc1O
REMARK SMILES IDX 5 1 9 2 4 3 10 4 3 5 11 6 6 7 7 8 8 9 2 10 1 11 12 12
REMARK H PARENT 12 13
REMARK Flexibility Score: inf
ROOT
ATOM      1  C   UNL     1      98.300  89.132  83.772  1.00  0.00     0.001 A 
ATOM      2  C   UNL     1      99.302  89.232  84.751  1.00  0.00     0.014 A 
ATOM      3  C   UNL     1      97.319  88.132  83.898  1.00  0.00     0.060 A 
ATOM      4  C   UNL     1      99.323  88.350  85.833  1.00  0.00     0.051 A 
ATOM      5  C   UNL     1      97.335  87.239  84.989  1.00  0.00     0.161 A 
ATOM      6  C   UNL     1      98.348  87.357  85.958  1.00  0.00     0.157 A 
ENDROOT
BRANCH   1   7
ATOM      7  C   UNL     1      98.282  90.070  82.627  1.00  0.00     0.072 C 
ATOM      8  O   UNL     1      98.966  91.129  82.655  1.00  0.00    -0.545 OA
ATOM      9  O   UNL     1      97.510  89.797  81.505  1.00  0.00    -0.545 OA
ENDBRANCH   1   7
BRANCH   5  10
ATOM     10  O   UNL     1      96.369  86.232  85.140  1.00  0.00    -0.493 OA
ATOM     11  C   UNL     1      96.463  84.929  84.573  1.00  0.00     0.278 C 
ENDBRANCH   5  10
BRANCH   6  12
ATOM     12  O   UNL     1      98.403  86.495  87.052  1.00  0.00    -0.504 OA
ATOM     13  H   UNL     1      98.835  86.762  87.929  1.00  0.00     0.293 HD
ENDBRANCH   6  12
TORSDOF 3
ENDMDL
MODEL 3
REMARK VINA RESULT:    -4.904     15.129     16.093
REMARK INTER + INTRA:          -5.649
REMARK INTER:                  -5.569
REMARK INTRA:                  -0.079
REMARK UNBOUND:                -0.028
REMARK SMILES COc1cc(C(=O)[O-])ccc1O
REMARK SMILES IDX 5 1 9 2 4 3 10 4 3 5 11 6 6 7 7 8 8 9 2 10 1 11 12 12
REMARK H PARENT 12 13
REMARK Flexibility Score: inf
ROOT
ATOM      1  C   UNL     1      97.767  87.619  85.456  1.00  0.00     0.001 A 
ATOM      2  C   UNL     1      99.014  88.238  85.643  1.00  0.00     0.014 A 
ATOM      3  C   UNL     1      96.960  88.019  84.376  1.00  0.00     0.060 A 
ATOM      4  C   UNL     1      99.444  89.236  84.768  1.00  0.00     0.051 A 
ATOM      5  C   UNL     1      97.390  89.027  83.490  1.00  0.00     0.161 A 
ATOM      6  C   UNL     1      98.643  89.634  83.695  1.00  0.00     0.157 A 
ENDROOT
BRANCH   1   7
ATOM      7  C   UNL     1      97.316  86.560  86.387  1.00  0.00     0.072 C 
ATOM      8  O   UNL     1      96.093  86.272  86.485  1.00  0.00    -0.545 OA
ATOM      9  O   UNL     1      98.235  85.868  87.166  1.00  0.00    -0.545 OA
ENDBRANCH   1   7
BRANCH   5  10
ATOM     10  O   UNL     1      96.606  89.447  82.403  1.00  0.00    -0.493 OA
ATOM     11  C   UNL     1      95.264  89.034  82.166  1.00  0.00     0.278 C 
ENDBRANCH   5  10
BRANCH   6  12
ATOM     12  O   UNL     1      99.107  90.635  82.843  1.00  0.00    -0.504 OA
ATOM     13  H   UNL     1     100.013  91.074  82.968  1.00  0.00     0.293 HD
ENDBRANCH   6  12
TORSDOF 3
ENDMDL
MODEL 4
REMARK VINA RESULT:    -4.888      1.402      4.361
REMARK INTER + INTRA:          -5.630
REMARK INTER:                  -5.546
REMARK INTRA:                  -0.084
REMARK UNBOUND:                -0.028
REMARK SMILES COc1cc(C(=O)[O-])ccc1O
REMARK SMILES IDX 5 1 9 2 4 3 10 4 3 5 11 6 6 7 7 8 8 9 2 10 1 11 12 12
REMARK H PARENT 12 13
REMARK Flexibility Score: inf
ROOT
ATOM      1  C   UNL     1      82.927  93.552  85.764  1.00  0.00     0.001 A 
ATOM      2  C   UNL     1      81.795  92.776  86.058  1.00  0.00     0.014 A 
ATOM      3  C   UNL     1      83.610  93.334  84.554  1.00  0.00     0.060 A 
ATOM      4  C   UNL     1      81.353  91.803  85.160  1.00  0.00     0.051 A 
ATOM      5  C   UNL     1      83.168  92.352  83.643  1.00  0.00     0.161 A 
ATOM      6  C   UNL     1      82.031  91.586  83.958  1.00  0.00     0.157 A 
ENDROOT
BRANCH   1   7
ATOM      7  C   UNL     1      83.391  94.584  86.719  1.00  0.00     0.072 C 
ATOM      8  O   UNL     1      82.563  95.239  87.406  1.00  0.00    -0.545 OA
ATOM      9  O   UNL     1      84.748  94.844  86.871  1.00  0.00    -0.545 OA
ENDBRANCH   1   7
BRANCH   5  10
ATOM     10  O   UNL     1      83.829  92.113  82.428  1.00  0.00    -0.493 OA
ATOM     11  C   UNL     1      83.513  92.751  81.195  1.00  0.00     0.278 C 
ENDBRANCH   5  10
BRANCH   6  12
ATOM     12  O   UNL     1      81.559  90.605  83.087  1.00  0.00    -0.504 OA
ATOM     13  H   UNL     1      80.795  90.776  82.443  1.00  0.00     0.293 HD
ENDBRANCH   6  12
TORSDOF 3
ENDMDL
MODEL 5
REMARK VINA RESULT:    -4.878      2.095      4.783
REMARK INTER + INTRA:          -5.619
REMARK INTER:                  -5.538
REMARK INTRA:                  -0.081
REMARK UNBOUND:                -0.028
REMARK SMILES COc1cc(C(=O)[O-])ccc1O
REMARK SMILES IDX 5 1 9 2 4 3 10 4 3 5 11 6 6 7 7 8 8 9 2 10 1 11 12 12
REMARK H PARENT 12 13
REMARK Flexibility Score: inf
ROOT
ATOM      1  C   UNL     1      83.196  92.386  83.518  1.00  0.00     0.001 A 
ATOM      2  C   UNL     1      82.187  91.454  83.810  1.00  0.00     0.014 A 
ATOM      3  C   UNL     1      83.783  92.380  82.240  1.00  0.00     0.060 A 
ATOM      4  C   UNL     1      81.774  90.535  82.845  1.00  0.00     0.051 A 
ATOM      5  C   UNL     1      83.369  91.454  81.261  1.00  0.00     0.161 A 
ATOM      6  C   UNL     1      82.357  90.529  81.575  1.00  0.00     0.157 A 
ENDROOT
BRANCH   1   7
ATOM      7  C   UNL     1      83.630  93.359  84.546  1.00  0.00     0.072 C 
ATOM      8  O   UNL     1      84.356  94.341  84.232  1.00  0.00    -0.545 OA
ATOM      9  O   UNL     1      83.244  93.204  85.871  1.00  0.00    -0.545 OA
ENDBRANCH   1   7
BRANCH   5  10
ATOM     10  O   UNL     1      83.937  91.424  79.977  1.00  0.00    -0.493 OA
ATOM     11  C   UNL     1      85.240  91.902  79.657  1.00  0.00     0.278 C 
ENDBRANCH   5  10
BRANCH   6  12
ATOM     12  O   UNL     1      81.917  89.595  80.638  1.00  0.00    -0.504 OA
ATOM     13  H   UNL     1      82.358  88.689  80.530  1.00  0.00     0.293 HD
ENDBRANCH   6  12
TORSDOF 3
ENDMDL
MODEL 6
REMARK VINA RESULT:    -4.773     15.085     15.948
REMARK INTER + INTRA:          -5.498
REMARK INTER:                  -5.395
REMARK INTRA:                  -0.103
REMARK UNBOUND:                -0.028
REMARK SMILES COc1cc(C(=O)[O-])ccc1O
REMARK SMILES IDX 5 1 9 2 4 3 10 4 3 5 11 6 6 7 7 8 8 9 2 10 1 11 12 12
REMARK H PARENT 12 13
REMARK Flexibility Score: inf
ROOT
ATOM      1  C   UNL     1      97.536  88.364  83.773  1.00  0.00     0.001 A 
ATOM      2  C   UNL     1      98.583  89.271  84.000  1.00  0.00     0.014 A 
ATOM      3  C   UNL     1      96.852  88.403  82.544  1.00  0.00     0.060 A 
ATOM      4  C   UNL     1      98.939  90.199  83.019  1.00  0.00     0.051 A 
ATOM      5  C   UNL     1      97.208  89.338  81.551  1.00  0.00     0.161 A 
ATOM      6  C   UNL     1      98.260  90.238  81.799  1.00  0.00     0.157 A 
ENDROOT
BRANCH   1   7
ATOM      7  C   UNL     1      97.163  87.382  84.816  1.00  0.00     0.072 C 
ATOM      8  O   UNL     1      97.904  87.198  85.818  1.00  0.00    -0.545 OA
ATOM      9  O   UNL     1      95.988  86.648  84.704  1.00  0.00    -0.545 OA
ENDBRANCH   1   7
BRANCH   5  10
ATOM     10  O   UNL     1      96.543  89.400  80.315  1.00  0.00    -0.493 OA
ATOM     11  C   UNL     1      96.735  88.480  79.246  1.00  0.00     0.278 C 
ENDBRANCH   5  10
BRANCH   6  12
ATOM     12  O   UNL     1      98.645  91.178  80.845  1.00  0.00    -0.504 OA
ATOM     13  H   UNL     1      99.618  91.388  80.655  1.00  0.00     0.293 HD
ENDBRANCH   6  12
TORSDOF 3
ENDMDL
MODEL 7
REMARK VINA RESULT:    -4.749     14.844     15.715
REMARK INTER + INTRA:          -5.471
REMARK INTER:                  -5.376
REMARK INTRA:                  -0.095
REMARK UNBOUND:                -0.028
REMARK SMILES COc1cc(C(=O)[O-])ccc1O
REMARK SMILES IDX 5 1 9 2 4 3 10 4 3 5 11 6 6 7 7 8 8 9 2 10 1 11 12 12
REMARK H PARENT 12 13
REMARK Flexibility Score: inf
ROOT
ATOM      1  C   UNL     1      96.857  88.886  82.840  1.00  0.00     0.001 A 
ATOM      2  C   UNL     1      98.035  89.632  82.671  1.00  0.00     0.014 A 
ATOM      3  C   UNL     1      96.680  88.147  84.023  1.00  0.00     0.060 A 
ATOM      4  C   UNL     1      99.015  89.638  83.665  1.00  0.00     0.051 A 
ATOM      5  C   UNL     1      97.667  88.150  85.030  1.00  0.00     0.161 A 
ATOM      6  C   UNL     1      98.839  88.904  84.840  1.00  0.00     0.157 A 
ENDROOT
BRANCH   1   7
ATOM      7  C   UNL     1      95.821  88.884  81.783  1.00  0.00     0.072 C 
ATOM      8  O   UNL     1      94.641  89.244  82.042  1.00  0.00    -0.545 OA
ATOM      9  O   UNL     1      96.134  88.483  80.490  1.00  0.00    -0.545 OA
ENDBRANCH   1   7
BRANCH   5  10
ATOM     10  O   UNL     1      97.517  87.422  86.221  1.00  0.00    -0.493 OA
ATOM     11  C   UNL     1      97.868  86.052  86.382  1.00  0.00     0.278 C 
ENDBRANCH   5  10
BRANCH   6  12
ATOM     12  O   UNL     1      99.841  88.936  85.810  1.00  0.00    -0.504 OA
ATOM     13  H   UNL     1      99.873  88.272  86.575  1.00  0.00     0.293 HD
ENDBRANCH   6  12
TORSDOF 3
ENDMDL
MODEL 8
REMARK VINA RESULT:    -4.738      2.131      3.476
REMARK INTER + INTRA:          -5.458
REMARK INTER:                  -5.360
REMARK INTRA:                  -0.098
REMARK UNBOUND:                -0.028
REMARK SMILES COc1cc(C(=O)[O-])ccc1O
REMARK SMILES IDX 5 1 9 2 4 3 10 4 3 5 11 6 6 7 7 8 8 9 2 10 1 11 12 12
REMARK H PARENT 12 13
REMARK Flexibility Score: inf
ROOT
ATOM      1  C   UNL     1      82.643  93.299  85.879  1.00  0.00     0.001 A 
ATOM      2  C   UNL     1      83.628  93.293  84.877  1.00  0.00     0.014 A 
ATOM      3  C   UNL     1      82.639  94.338  86.827  1.00  0.00     0.060 A 
ATOM      4  C   UNL     1      84.588  94.304  84.825  1.00  0.00     0.051 A 
ATOM      5  C   UNL     1      83.607  95.362  86.779  1.00  0.00     0.161 A 
ATOM      6  C   UNL     1      84.584  95.336  85.767  1.00  0.00     0.157 A 
ENDROOT
BRANCH   1   7
ATOM      7  C   UNL     1      81.626  92.224  85.929  1.00  0.00     0.072 C 
ATOM      8  O   UNL     1      81.009  91.876  84.887  1.00  0.00    -0.545 OA
ATOM      9  O   UNL     1      81.337  91.584  87.128  1.00  0.00    -0.545 OA
ENDBRANCH   1   7
BRANCH   5  10
ATOM     10  O   UNL     1      83.627  96.411  87.712  1.00  0.00    -0.493 OA
ATOM     11  C   UNL     1      82.858  97.605  87.604  1.00  0.00     0.278 C 
ENDBRANCH   5  10
BRANCH   6  12
ATOM     12  O   UNL     1      85.560  96.328  85.682  1.00  0.00    -0.504 OA
ATOM     13  H   UNL     1      85.584  97.119  86.316  1.00  0.00     0.293 HD
ENDBRANCH   6  12
TORSDOF 3
ENDMDL
MODEL 9
REMARK VINA RESULT:    -4.699     15.815     16.892
REMARK INTER + INTRA:          -5.414
REMARK INTER:                  -5.313
REMARK INTRA:                  -0.102
REMARK UNBOUND:                -0.028
REMARK SMILES COc1cc(C(=O)[O-])ccc1O
REMARK SMILES IDX 5 1 9 2 4 3 10 4 3 5 11 6 6 7 7 8 8 9 2 10 1 11 12 12
REMARK H PARENT 12 13
REMARK Flexibility Score: inf
ROOT
ATOM      1  C   UNL     1      98.131  87.559  85.898  1.00  0.00     0.001 A 
ATOM      2  C   UNL     1      97.122  87.616  84.922  1.00  0.00     0.014 A 
ATOM      3  C   UNL     1      98.133  86.495  86.818  1.00  0.00     0.060 A 
ATOM      4  C   UNL     1      96.136  86.629  84.867  1.00  0.00     0.051 A 
ATOM      5  C   UNL     1      97.139  85.496  86.767  1.00  0.00     0.161 A 
ATOM      6  C   UNL     1      96.138  85.573  85.781  1.00  0.00     0.157 A 
ENDROOT
BRANCH   1   7
ATOM      7  C   UNL     1      99.174  88.607  85.951  1.00  0.00     0.072 C 
ATOM      8  O   UNL     1      99.687  88.946  87.052  1.00  0.00    -0.545 OA
ATOM      9  O   UNL     1      99.604  89.234  84.788  1.00  0.00    -0.545 OA
ENDBRANCH   1   7
BRANCH   5  10
ATOM     10  O   UNL     1      97.115  84.423  87.672  1.00  0.00    -0.493 OA
ATOM     11  C   UNL     1      97.910  83.247  87.554  1.00  0.00     0.278 C 
ENDBRANCH   5  10
BRANCH   6  12
ATOM     12  O   UNL     1      95.136  84.607  85.694  1.00  0.00    -0.504 OA
ATOM     13  H   UNL     1      94.313  84.627  86.285  1.00  0.00     0.293 HD
ENDBRANCH   6  12
TORSDOF 3
ENDMDL
