MODEL 1
REMARK VINA RESULT:    -4.950      0.000      0.000
REMARK INTER + INTRA:          -9.986
REMARK INTER:                  -9.002
REMARK INTRA:                  -0.984
REMARK UNBOUND:                -0.984
REMARK SMILES CCCCCCCCCCCCCC[C@H](C)C(=O)[O-]
REMARK SMILES IDX 9 1 10 2 11 3 12 4 13 5 14 6 15 7 16 8 17 9 18 10 19 11 8 12
REMARK SMILES IDX 7 13 6 14 5 15 4 16 3 17 2 18 1 19
REMARK H PARENT
REMARK Flexibility Score: inf
ROOT
ATOM      1  C   UNL     1       1.401  20.287  32.864  1.00  0.00     0.000 C 
ENDROOT
BRANCH   1   2
ATOM      2  C   UNL     1       1.245  19.429  34.132  1.00  0.00     0.000 C 
BRANCH   2   3
ATOM      3  C   UNL     1       2.573  18.823  34.608  1.00  0.00     0.000 C 
BRANCH   3   4
ATOM      4  C   UNL     1       3.692  19.870  34.583  1.00  0.00     0.000 C 
BRANCH   4   5
ATOM      5  C   UNL     1       5.041  19.227  34.238  1.00  0.00     0.001 C 
BRANCH   5   6
ATOM      6  C   UNL     1       4.888  18.205  33.100  1.00  0.00     0.009 C 
BRANCH   6   7
ATOM      7  C   UNL     1       5.620  16.877  33.390  1.00  0.00     0.032 C 
ATOM      8  C   UNL     1       6.063  16.763  34.856  1.00  0.00     0.014 C 
BRANCH   7   9
ATOM      9  C   UNL     1       6.817  16.742  32.488  1.00  0.00     0.044 C 
ATOM     10  O   UNL     1       7.028  15.670  31.860  1.00  0.00    -0.550 OA
ATOM     11  O   UNL     1       7.694  17.809  32.334  1.00  0.00    -0.550 OA
ENDBRANCH   7   9
ENDBRANCH   6   7
ENDBRANCH   5   6
ENDBRANCH   4   5
ENDBRANCH   3   4
ENDBRANCH   2   3
ENDBRANCH   1   2
BRANCH   1  12
ATOM     12  C   UNL     1       0.547  21.570  32.841  1.00  0.00     0.000 C 
BRANCH  12  13
ATOM     13  C   UNL     1      -0.664  21.497  31.886  1.00  0.00    -0.000 C 
BRANCH  13  14
ATOM     14  C   UNL     1      -0.439  20.504  30.734  1.00  0.00    -0.000 C 
BRANCH  14  15
ATOM     15  C   UNL     1      -1.683  20.324  29.849  1.00  0.00    -0.000 C 
BRANCH  15  16
ATOM     16  C   UNL     1      -1.515  19.231  28.770  1.00  0.00    -0.000 C 
BRANCH  16  17
ATOM     17  C   UNL     1      -2.678  19.230  27.763  1.00  0.00    -0.000 C 
BRANCH  17  18
ATOM     18  C   UNL     1      -2.702  20.492  26.888  1.00  0.00    -0.003 C 
ATOM     19  C   UNL     1      -1.349  20.790  26.243  1.00  0.00     0.004 C 
ENDBRANCH  17  18
ENDBRANCH  16  17
ENDBRANCH  15  16
ENDBRANCH  14  15
ENDBRANCH  13  14
ENDBRANCH  12  13
ENDBRANCH   1  12
TORSDOF 14
ENDMDL
MODEL 2
REMARK VINA RESULT:    -4.850      4.289      8.998
REMARK INTER + INTRA:          -9.803
REMARK INTER:                  -9.269
REMARK INTRA:                  -0.534
REMARK UNBOUND:                -0.984
REMARK SMILES CCCCCCCCCCCCCC[C@H](C)C(=O)[O-]
REMARK SMILES IDX 9 1 10 2 11 3 12 4 13 5 14 6 15 7 16 8 17 9 18 10 19 11 8 12
REMARK SMILES IDX 7 13 6 14 5 15 4 16 3 17 2 18 1 19
REMARK H PARENT
REMARK Flexibility Score: inf
ROOT
ATOM      1  C   UNL     1       1.720  20.258  32.444  1.00  0.00     0.000 C 
ENDROOT
BRANCH   1   2
ATOM      2  C   UNL     1       0.678  21.322  32.829  1.00  0.00     0.000 C 
BRANCH   2   3
ATOM      3  C   UNL     1      -0.500  21.387  31.846  1.00  0.00     0.000 C 
BRANCH   3   4
ATOM      4  C   UNL     1      -0.483  20.185  30.894  1.00  0.00     0.000 C 
BRANCH   4   5
ATOM      5  C   UNL     1      -1.256  20.492  29.605  1.00  0.00     0.001 C 
BRANCH   5   6
ATOM      6  C   UNL     1      -1.663  19.195  28.886  1.00  0.00     0.009 C 
BRANCH   6   7
ATOM      7  C   UNL     1      -2.018  19.425  27.401  1.00  0.00     0.032 C 
ATOM      8  C   UNL     1      -1.304  20.650  26.813  1.00  0.00     0.014 C 
BRANCH   7   9
ATOM      9  C   UNL     1      -3.506  19.584  27.247  1.00  0.00     0.044 C 
ATOM     10  O   UNL     1      -4.167  18.775  26.543  1.00  0.00    -0.550 OA
ATOM     11  O   UNL     1      -4.164  20.624  27.894  1.00  0.00    -0.550 OA
ENDBRANCH   7   9
ENDBRANCH   6   7
ENDBRANCH   5   6
ENDBRANCH   4   5
ENDBRANCH   3   4
ENDBRANCH   2   3
ENDBRANCH   1   2
BRANCH   1  12
ATOM     12  C   UNL     1       2.480  19.636  33.632  1.00  0.00     0.000 C 
BRANCH  12  13
ATOM     13  C   UNL     1       4.015  19.651  33.467  1.00  0.00    -0.000 C 
BRANCH  13  14
ATOM     14  C   UNL     1       4.562  18.299  32.978  1.00  0.00    -0.000 C 
BRANCH  14  15
ATOM     15  C   UNL     1       5.331  17.536  34.068  1.00  0.00    -0.000 C 
BRANCH  15  16
ATOM     16  C   UNL     1       6.614  16.850  33.549  1.00  0.00    -0.000 C 
BRANCH  16  17
ATOM     17  C   UNL     1       6.393  16.168  32.187  1.00  0.00    -0.000 C 
BRANCH  17  18
ATOM     18  C   UNL     1       7.686  15.571  31.610  1.00  0.00    -0.003 C 
ATOM     19  C   UNL     1       7.431  14.338  30.744  1.00  0.00     0.004 C 
ENDBRANCH  17  18
ENDBRANCH  16  17
ENDBRANCH  15  16
ENDBRANCH  14  15
ENDBRANCH  13  14
ENDBRANCH  12  13
ENDBRANCH   1  12
TORSDOF 14
ENDMDL
MODEL 3
REMARK VINA RESULT:    -4.557      4.258      8.431
REMARK INTER + INTRA:          -9.271
REMARK INTER:                  -8.368
REMARK INTRA:                  -0.903
REMARK UNBOUND:                -0.984
REMARK SMILES CCCCCCCCCCCCCC[C@H](C)C(=O)[O-]
REMARK SMILES IDX 9 1 10 2 11 3 12 4 13 5 14 6 15 7 16 8 17 9 18 10 19 11 8 12
REMARK SMILES IDX 7 13 6 14 5 15 4 16 3 17 2 18 1 19
REMARK H PARENT
REMARK Flexibility Score: inf
ROOT
ATOM      1  C   UNL     1      -0.041  22.604  34.157  1.00  0.00     0.000 C 
ENDROOT
BRANCH   1   2
ATOM      2  C   UNL     1      -0.852  22.402  32.866  1.00  0.00     0.000 C 
BRANCH   2   3
ATOM      3  C   UNL     1      -0.079  21.625  31.791  1.00  0.00     0.000 C 
BRANCH   3   4
ATOM      4  C   UNL     1      -0.926  20.476  31.231  1.00  0.00     0.000 C 
BRANCH   4   5
ATOM      5  C   UNL     1      -1.116  20.619  29.716  1.00  0.00     0.001 C 
BRANCH   5   6
ATOM      6  C   UNL     1      -1.585  19.294  29.094  1.00  0.00     0.009 C 
BRANCH   6   7
ATOM      7  C   UNL     1      -1.962  19.437  27.603  1.00  0.00     0.032 C 
ATOM      8  C   UNL     1      -1.223  20.600  26.924  1.00  0.00     0.014 C 
BRANCH   7   9
ATOM      9  C   UNL     1      -3.447  19.631  27.465  1.00  0.00     0.044 C 
ATOM     10  O   UNL     1      -4.007  20.654  27.943  1.00  0.00    -0.550 OA
ATOM     11  O   UNL     1      -4.211  18.683  26.795  1.00  0.00    -0.550 OA
ENDBRANCH   7   9
ENDBRANCH   6   7
ENDBRANCH   5   6
ENDBRANCH   4   5
ENDBRANCH   3   4
ENDBRANCH   2   3
ENDBRANCH   1   2
BRANCH   1  12
ATOM     12  C   UNL     1       1.234  21.744  34.262  1.00  0.00     0.000 C 
BRANCH  12  13
ATOM     13  C   UNL     1       0.973  20.297  34.732  1.00  0.00    -0.000 C 
BRANCH  13  14
ATOM     14  C   UNL     1       1.846  19.275  33.983  1.00  0.00    -0.000 C 
BRANCH  14  15
ATOM     15  C   UNL     1       2.917  19.936  33.101  1.00  0.00    -0.000 C 
BRANCH  15  16
ATOM     16  C   UNL     1       4.001  18.952  32.610  1.00  0.00    -0.000 C 
BRANCH  16  17
ATOM     17  C   UNL     1       4.919  18.486  33.754  1.00  0.00    -0.000 C 
BRANCH  17  18
ATOM     18  C   UNL     1       6.269  17.956  33.249  1.00  0.00    -0.003 C 
ATOM     19  C   UNL     1       6.199  16.500  32.791  1.00  0.00     0.004 C 
ENDBRANCH  17  18
ENDBRANCH  16  17
ENDBRANCH  15  16
ENDBRANCH  14  15
ENDBRANCH  13  14
ENDBRANCH  12  13
ENDBRANCH   1  12
TORSDOF 14
ENDMDL
MODEL 4
REMARK VINA RESULT:    -4.469      1.905      3.527
REMARK INTER + INTRA:          -9.111
REMARK INTER:                  -8.240
REMARK INTRA:                  -0.871
REMARK UNBOUND:                -0.984
REMARK SMILES CCCCCCCCCCCCCC[C@H](C)C(=O)[O-]
REMARK SMILES IDX 9 1 10 2 11 3 12 4 13 5 14 6 15 7 16 8 17 9 18 10 19 11 8 12
REMARK SMILES IDX 7 13 6 14 5 15 4 16 3 17 2 18 1 19
REMARK H PARENT
REMARK Flexibility Score: inf
ROOT
ATOM      1  C   UNL     1      -0.535  21.002  30.670  1.00  0.00     0.000 C 
ENDROOT
BRANCH   1   2
ATOM      2  C   UNL     1      -0.177  20.859  32.159  1.00  0.00     0.000 C 
BRANCH   2   3
ATOM      3  C   UNL     1      -0.315  22.178  32.934  1.00  0.00     0.000 C 
BRANCH   3   4
ATOM      4  C   UNL     1       0.577  22.175  34.180  1.00  0.00     0.000 C 
BRANCH   4   5
ATOM      5  C   UNL     1       0.838  20.745  34.668  1.00  0.00     0.001 C 
BRANCH   5   6
ATOM      6  C   UNL     1       2.345  20.449  34.727  1.00  0.00     0.009 C 
BRANCH   6   7
ATOM      7  C   UNL     1       2.735  19.185  33.932  1.00  0.00     0.032 C 
ATOM      8  C   UNL     1       2.193  17.900  34.576  1.00  0.00     0.014 C 
BRANCH   7   9
ATOM      9  C   UNL     1       4.232  19.096  33.808  1.00  0.00     0.044 C 
ATOM     10  O   UNL     1       4.973  19.379  34.787  1.00  0.00    -0.550 OA
ATOM     11  O   UNL     1       4.807  18.687  32.611  1.00  0.00    -0.550 OA
ENDBRANCH   7   9
ENDBRANCH   6   7
ENDBRANCH   5   6
ENDBRANCH   4   5
ENDBRANCH   3   4
ENDBRANCH   2   3
ENDBRANCH   1   2
BRANCH   1  12
ATOM     12  C   UNL     1      -1.608  20.017  30.164  1.00  0.00     0.000 C 
BRANCH  12  13
ATOM     13  C   UNL     1      -1.110  19.068  29.053  1.00  0.00    -0.000 C 
BRANCH  13  14
ATOM     14  C   UNL     1      -2.188  18.058  28.623  1.00  0.00    -0.000 C 
BRANCH  14  15
ATOM     15  C   UNL     1      -2.887  18.452  27.312  1.00  0.00    -0.000 C 
BRANCH  15  16
ATOM     16  C   UNL     1      -3.798  19.692  27.453  1.00  0.00    -0.000 C 
BRANCH  16  17
ATOM     17  C   UNL     1      -3.141  20.960  26.880  1.00  0.00    -0.000 C 
BRANCH  17  18
ATOM     18  C   UNL     1      -1.857  20.655  26.094  1.00  0.00    -0.003 C 
ATOM     19  C   UNL     1      -1.094  21.918  25.695  1.00  0.00     0.004 C 
ENDBRANCH  17  18
ENDBRANCH  16  17
ENDBRANCH  15  16
ENDBRANCH  14  15
ENDBRANCH  13  14
ENDBRANCH  12  13
ENDBRANCH   1  12
TORSDOF 14
ENDMDL
MODEL 5
REMARK VINA RESULT:    -4.209     13.730     15.895
REMARK INTER + INTRA:          -8.637
REMARK INTER:                  -7.903
REMARK INTRA:                  -0.734
REMARK UNBOUND:                -0.984
REMARK SMILES CCCCCCCCCCCCCC[C@H](C)C(=O)[O-]
REMARK SMILES IDX 9 1 10 2 11 3 12 4 13 5 14 6 15 7 16 8 17 9 18 10 19 11 8 12
REMARK SMILES IDX 7 13 6 14 5 15 4 16 3 17 2 18 1 19
REMARK H PARENT
REMARK Flexibility Score: inf
ROOT
ATOM      1  C   UNL     1       8.275  12.066  17.879  1.00  0.00     0.000 C 
ENDROOT
BRANCH   1   2
ATOM      2  C   UNL     1       9.615  12.128  18.630  1.00  0.00     0.000 C 
BRANCH   2   3
ATOM      3  C   UNL     1       9.898  13.513  19.231  1.00  0.00     0.000 C 
BRANCH   3   4
ATOM      4  C   UNL     1       8.601  14.316  19.387  1.00  0.00     0.000 C 
BRANCH   4   5
ATOM      5  C   UNL     1       8.563  15.044  20.737  1.00  0.00     0.001 C 
BRANCH   5   6
ATOM      6  C   UNL     1       9.284  14.228  21.823  1.00  0.00     0.009 C 
BRANCH   6   7
ATOM      7  C   UNL     1       9.584  15.057  23.090  1.00  0.00     0.032 C 
ATOM      8  C   UNL     1      11.034  14.892  23.565  1.00  0.00     0.014 C 
BRANCH   7   9
ATOM      9  C   UNL     1       8.641  14.665  24.196  1.00  0.00     0.044 C 
ATOM     10  O   UNL     1       9.086  14.289  25.313  1.00  0.00    -0.550 OA
ATOM     11  O   UNL     1       7.268  14.728  23.992  1.00  0.00    -0.550 OA
ENDBRANCH   7   9
ENDBRANCH   6   7
ENDBRANCH   5   6
ENDBRANCH   4   5
ENDBRANCH   3   4
ENDBRANCH   2   3
ENDBRANCH   1   2
BRANCH   1  12
ATOM     12  C   UNL     1       8.392  12.069  16.342  1.00  0.00     0.000 C 
BRANCH  12  13
ATOM     13  C   UNL     1       7.091  11.667  15.615  1.00  0.00    -0.000 C 
BRANCH  13  14
ATOM     14  C   UNL     1       6.196  10.762  16.480  1.00  0.00    -0.000 C 
BRANCH  14  15
ATOM     15  C   UNL     1       5.391   9.750  15.649  1.00  0.00    -0.000 C 
BRANCH  15  16
ATOM     16  C   UNL     1       3.913  10.154  15.456  1.00  0.00    -0.000 C 
BRANCH  16  17
ATOM     17  C   UNL     1       2.976   9.391  16.410  1.00  0.00    -0.000 C 
BRANCH  17  18
ATOM     18  C   UNL     1       1.884   8.609  15.666  1.00  0.00    -0.003 C 
ATOM     19  C   UNL     1       0.507   8.755  16.312  1.00  0.00     0.004 C 
ENDBRANCH  17  18
ENDBRANCH  16  17
ENDBRANCH  15  16
ENDBRANCH  14  15
ENDBRANCH  13  14
ENDBRANCH  12  13
ENDBRANCH   1  12
TORSDOF 14
ENDMDL
MODEL 6
REMARK VINA RESULT:    -4.054      1.544      3.080
REMARK INTER + INTRA:          -8.356
REMARK INTER:                  -7.706
REMARK INTRA:                  -0.650
REMARK UNBOUND:                -0.984
REMARK SMILES CCCCCCCCCCCCCC[C@H](C)C(=O)[O-]
REMARK SMILES IDX 9 1 10 2 11 3 12 4 13 5 14 6 15 7 16 8 17 9 18 10 19 11 8 12
REMARK SMILES IDX 7 13 6 14 5 15 4 16 3 17 2 18 1 19
REMARK H PARENT
REMARK Flexibility Score: inf
ROOT
ATOM      1  C   UNL     1      -0.403  20.853  31.612  1.00  0.00     0.000 C 
ENDROOT
BRANCH   1   2
ATOM      2  C   UNL     1      -0.504  22.090  32.521  1.00  0.00     0.000 C 
BRANCH   2   3
ATOM      3  C   UNL     1       0.578  22.118  33.611  1.00  0.00     0.000 C 
BRANCH   3   4
ATOM      4  C   UNL     1       1.400  20.824  33.598  1.00  0.00     0.000 C 
BRANCH   4   5
ATOM      5  C   UNL     1       2.228  20.684  34.882  1.00  0.00     0.001 C 
BRANCH   5   6
ATOM      6  C   UNL     1       3.541  19.932  34.610  1.00  0.00     0.009 C 
BRANCH   6   7
ATOM      7  C   UNL     1       3.315  18.567  33.927  1.00  0.00     0.032 C 
ATOM      8  C   UNL     1       2.637  17.553  34.860  1.00  0.00     0.014 C 
BRANCH   7   9
ATOM      9  C   UNL     1       4.626  18.011  33.442  1.00  0.00     0.044 C 
ATOM     10  O   UNL     1       5.280  18.604  32.543  1.00  0.00    -0.550 OA
ATOM     11  O   UNL     1       5.130  16.840  33.995  1.00  0.00    -0.550 OA
ENDBRANCH   7   9
ENDBRANCH   6   7
ENDBRANCH   5   6
ENDBRANCH   4   5
ENDBRANCH   3   4
ENDBRANCH   2   3
ENDBRANCH   1   2
BRANCH   1  12
ATOM     12  C   UNL     1      -1.162  20.968  30.275  1.00  0.00     0.000 C 
BRANCH  12  13
ATOM     13  C   UNL     1      -1.304  19.629  29.521  1.00  0.00    -0.000 C 
BRANCH  13  14
ATOM     14  C   UNL     1      -0.891  19.745  28.044  1.00  0.00    -0.000 C 
BRANCH  14  15
ATOM     15  C   UNL     1      -1.996  20.345  27.160  1.00  0.00    -0.000 C 
BRANCH  15  16
ATOM     16  C   UNL     1      -3.412  20.185  27.756  1.00  0.00    -0.000 C 
BRANCH  16  17
ATOM     17  C   UNL     1      -4.146  18.961  27.179  1.00  0.00    -0.000 C 
BRANCH  17  18
ATOM     18  C   UNL     1      -3.185  17.837  26.764  1.00  0.00    -0.003 C 
ATOM     19  C   UNL     1      -2.984  16.795  27.864  1.00  0.00     0.004 C 
ENDBRANCH  17  18
ENDBRANCH  16  17
ENDBRANCH  15  16
ENDBRANCH  14  15
ENDBRANCH  13  14
ENDBRANCH  12  13
ENDBRANCH   1  12
TORSDOF 14
ENDMDL
MODEL 7
REMARK VINA RESULT:    -4.009      1.256      1.854
REMARK INTER + INTRA:          -8.274
REMARK INTER:                  -7.799
REMARK INTRA:                  -0.475
REMARK UNBOUND:                -0.984
REMARK SMILES CCCCCCCCCCCCCC[C@H](C)C(=O)[O-]
REMARK SMILES IDX 9 1 10 2 11 3 12 4 13 5 14 6 15 7 16 8 17 9 18 10 19 11 8 12
REMARK SMILES IDX 7 13 6 14 5 15 4 16 3 17 2 18 1 19
REMARK H PARENT
REMARK Flexibility Score: inf
ROOT
ATOM      1  C   UNL     1       1.866  20.221  32.141  1.00  0.00     0.000 C 
ENDROOT
BRANCH   1   2
ATOM      2  C   UNL     1       2.981  20.242  33.200  1.00  0.00     0.000 C 
BRANCH   2   3
ATOM      3  C   UNL     1       2.555  19.598  34.527  1.00  0.00     0.000 C 
BRANCH   3   4
ATOM      4  C   UNL     1       2.298  18.097  34.348  1.00  0.00     0.000 C 
BRANCH   4   5
ATOM      5  C   UNL     1       3.353  17.265  35.089  1.00  0.00     0.001 C 
BRANCH   5   6
ATOM      6  C   UNL     1       4.705  17.997  35.125  1.00  0.00     0.009 C 
BRANCH   6   7
ATOM      7  C   UNL     1       5.426  17.984  33.760  1.00  0.00     0.032 C 
ATOM      8  C   UNL     1       5.546  16.568  33.178  1.00  0.00     0.014 C 
BRANCH   7   9
ATOM      9  C   UNL     1       6.795  18.594  33.896  1.00  0.00     0.044 C 
ATOM     10  O   UNL     1       7.069  19.342  34.872  1.00  0.00    -0.550 OA
ATOM     11  O   UNL     1       7.772  18.324  32.945  1.00  0.00    -0.550 OA
ENDBRANCH   7   9
ENDBRANCH   6   7
ENDBRANCH   5   6
ENDBRANCH   4   5
ENDBRANCH   3   4
ENDBRANCH   2   3
ENDBRANCH   1   2
BRANCH   1  12
ATOM     12  C   UNL     1       0.476  20.643  32.655  1.00  0.00     0.000 C 
BRANCH  12  13
ATOM     13  C   UNL     1      -0.431  21.258  31.567  1.00  0.00    -0.000 C 
BRANCH  13  14
ATOM     14  C   UNL     1      -1.271  20.194  30.839  1.00  0.00    -0.000 C 
BRANCH  14  15
ATOM     15  C   UNL     1      -1.098  20.240  29.312  1.00  0.00    -0.000 C 
BRANCH  15  16
ATOM     16  C   UNL     1      -2.343  19.750  28.540  1.00  0.00    -0.000 C 
BRANCH  16  17
ATOM     17  C   UNL     1      -2.518  20.485  27.200  1.00  0.00    -0.000 C 
BRANCH  17  18
ATOM     18  C   UNL     1      -1.207  20.585  26.405  1.00  0.00    -0.003 C 
ATOM     19  C   UNL     1      -1.230  21.705  25.366  1.00  0.00     0.004 C 
ENDBRANCH  17  18
ENDBRANCH  16  17
ENDBRANCH  15  16
ENDBRANCH  14  15
ENDBRANCH  13  14
ENDBRANCH  12  13
ENDBRANCH   1  12
TORSDOF 14
ENDMDL
MODEL 8
REMARK VINA RESULT:    -3.729     14.809     17.187
REMARK INTER + INTRA:          -7.765
REMARK INTER:                  -7.112
REMARK INTRA:                  -0.653
REMARK UNBOUND:                -0.984
REMARK SMILES CCCCCCCCCCCCCC[C@H](C)C(=O)[O-]
REMARK SMILES IDX 9 1 10 2 11 3 12 4 13 5 14 6 15 7 16 8 17 9 18 10 19 11 8 12
REMARK SMILES IDX 7 13 6 14 5 15 4 16 3 17 2 18 1 19
REMARK H PARENT
REMARK Flexibility Score: inf
ROOT
ATOM      1  C   UNL     1       4.108   9.643  16.166  1.00  0.00     0.000 C 
ENDROOT
BRANCH   1   2
ATOM      2  C   UNL     1       4.358  10.506  14.917  1.00  0.00     0.000 C 
BRANCH   2   3
ATOM      3  C   UNL     1       5.774  11.099  14.875  1.00  0.00     0.000 C 
BRANCH   3   4
ATOM      4  C   UNL     1       6.504  10.865  16.203  1.00  0.00     0.000 C 
BRANCH   4   5
ATOM      5  C   UNL     1       7.859  11.582  16.221  1.00  0.00     0.001 C 
BRANCH   5   6
ATOM      6  C   UNL     1       7.906  12.644  17.331  1.00  0.00     0.009 C 
BRANCH   6   7
ATOM      7  C   UNL     1       9.243  12.642  18.102  1.00  0.00     0.032 C 
ATOM      8  C   UNL     1       9.605  11.249  18.638  1.00  0.00     0.014 C 
BRANCH   7   9
ATOM      9  C   UNL     1       9.181  13.622  19.242  1.00  0.00     0.044 C 
ATOM     10  O   UNL     1      10.001  13.548  20.196  1.00  0.00    -0.550 OA
ATOM     11  O   UNL     1       8.221  14.626  19.242  1.00  0.00    -0.550 OA
ENDBRANCH   7   9
ENDBRANCH   6   7
ENDBRANCH   5   6
ENDBRANCH   4   5
ENDBRANCH   3   4
ENDBRANCH   2   3
ENDBRANCH   1   2
BRANCH   1  12
ATOM     12  C   UNL     1       2.661   9.673  16.696  1.00  0.00     0.000 C 
BRANCH  12  13
ATOM     13  C   UNL     1       1.754   8.578  16.095  1.00  0.00    -0.000 C 
BRANCH  13  14
ATOM     14  C   UNL     1       0.261   8.869  16.323  1.00  0.00    -0.000 C 
BRANCH  14  15
ATOM     15  C   UNL     1       0.006   9.770  17.542  1.00  0.00    -0.000 C 
BRANCH  15  16
ATOM     16  C   UNL     1      -1.310   9.443  18.282  1.00  0.00    -0.000 C 
BRANCH  16  17
ATOM     17  C   UNL     1      -1.890  10.675  18.999  1.00  0.00    -0.000 C 
BRANCH  17  18
ATOM     18  C   UNL     1      -2.495  10.330  20.368  1.00  0.00    -0.003 C 
ATOM     19  C   UNL     1      -1.616   9.380  21.180  1.00  0.00     0.004 C 
ENDBRANCH  17  18
ENDBRANCH  16  17
ENDBRANCH  15  16
ENDBRANCH  14  15
ENDBRANCH  13  14
ENDBRANCH  12  13
ENDBRANCH   1  12
TORSDOF 14
ENDMDL
MODEL 9
REMARK VINA RESULT:    -3.421     13.118     16.654
REMARK INTER + INTRA:          -7.206
REMARK INTER:                  -6.105
REMARK INTRA:                  -1.101
REMARK UNBOUND:                -0.984
REMARK SMILES CCCCCCCCCCCCCC[C@H](C)C(=O)[O-]
REMARK SMILES IDX 9 1 10 2 11 3 12 4 13 5 14 6 15 7 16 8 17 9 18 10 19 11 8 12
REMARK SMILES IDX 7 13 6 14 5 15 4 16 3 17 2 18 1 19
REMARK H PARENT
REMARK Flexibility Score: inf
ROOT
ATOM      1  C   UNL     1       9.499  14.258  21.663  1.00  0.00     0.000 C 
ENDROOT
BRANCH   1   2
ATOM      2  C   UNL     1       8.455  14.617  20.592  1.00  0.00     0.000 C 
BRANCH   2   3
ATOM      3  C   UNL     1       9.008  14.517  19.163  1.00  0.00     0.000 C 
BRANCH   3   4
ATOM      4  C   UNL     1       9.331  13.063  18.802  1.00  0.00     0.000 C 
BRANCH   4   5
ATOM      5  C   UNL     1       8.171  12.416  18.034  1.00  0.00     0.001 C 
BRANCH   5   6
ATOM      6  C   UNL     1       8.589  11.057  17.449  1.00  0.00     0.009 C 
BRANCH   6   7
ATOM      7  C   UNL     1       8.214  10.909  15.959  1.00  0.00     0.032 C 
ATOM      8  C   UNL     1       8.824  12.019  15.091  1.00  0.00     0.014 C 
BRANCH   7   9
ATOM      9  C   UNL     1       6.717  10.910  15.803  1.00  0.00     0.044 C 
ATOM     10  O   UNL     1       6.159  11.697  14.993  1.00  0.00    -0.550 OA
ATOM     11  O   UNL     1       5.941  10.031  16.548  1.00  0.00    -0.550 OA
ENDBRANCH   7   9
ENDBRANCH   6   7
ENDBRANCH   5   6
ENDBRANCH   4   5
ENDBRANCH   3   4
ENDBRANCH   2   3
ENDBRANCH   1   2
BRANCH   1  12
ATOM     12  C   UNL     1       9.203  14.814  23.069  1.00  0.00     0.000 C 
BRANCH  12  13
ATOM     13  C   UNL     1      10.459  15.298  23.826  1.00  0.00    -0.000 C 
BRANCH  13  14
ATOM     14  C   UNL     1      11.753  14.694  23.254  1.00  0.00    -0.000 C 
BRANCH  14  15
ATOM     15  C   UNL     1      12.456  13.746  24.238  1.00  0.00    -0.000 C 
BRANCH  15  16
ATOM     16  C   UNL     1      12.646  14.353  25.646  1.00  0.00    -0.000 C 
BRANCH  16  17
ATOM     17  C   UNL     1      12.017  13.477  26.743  1.00  0.00    -0.000 C 
BRANCH  17  18
ATOM     18  C   UNL     1      10.747  14.101  27.341  1.00  0.00    -0.003 C 
ATOM     19  C   UNL     1       9.489  13.291  27.033  1.00  0.00     0.004 C 
ENDBRANCH  17  18
ENDBRANCH  16  17
ENDBRANCH  15  16
ENDBRANCH  14  15
ENDBRANCH  13  14
ENDBRANCH  12  13
ENDBRANCH   1  12
TORSDOF 14
ENDMDL
