MODEL 1
REMARK VINA RESULT:    -3.430      0.000      0.000
REMARK INTER + INTRA:          -5.233
REMARK INTER:                  -4.633
REMARK INTRA:                  -0.599
REMARK UNBOUND:                -0.599
REMARK SMILES CC(=O)OCC=C(C)CCC=C(C)C
REMARK SMILES IDX 7 1 6 2 8 3 9 4 10 5 11 6 13 7 12 8 14 9 5 10 4 11 2 12 3 13
REMARK SMILES IDX 1 14
REMARK H PARENT
REMARK Flexibility Score: inf
ROOT
ATOM      1  C   UNL     1       0.313   2.710  -1.915  1.00  0.00    -0.074 C 
ATOM      2  C   UNL     1      -0.640   1.768  -2.102  1.00  0.00     0.013 C 
ATOM      3  C   UNL     1       0.325   3.593  -0.691  1.00  0.00     0.039 C 
ENDROOT
BRANCH   1   4
ATOM      4  C   UNL     1       1.427   2.851  -2.930  1.00  0.00     0.034 C 
BRANCH   4   5
ATOM      5  C   UNL     1       1.592   4.304  -3.395  1.00  0.00     0.032 C 
BRANCH   5   6
ATOM      6  C   UNL     1       2.980   4.833  -3.116  1.00  0.00    -0.028 C 
ATOM      7  C   UNL     1       2.160   6.726  -1.696  1.00  0.00     0.039 C 
ATOM      8  C   UNL     1       3.249   5.935  -2.382  1.00  0.00    -0.080 C 
ATOM      9  C   UNL     1       4.685   6.366  -2.235  1.00  0.00     0.039 C 
ENDBRANCH   5   6
ENDBRANCH   4   5
ENDBRANCH   1   4
BRANCH   2  10
ATOM     10  C   UNL     1      -1.779   1.527  -1.145  1.00  0.00     0.260 C 
BRANCH  10  11
ATOM     11  O   UNL     1      -2.577   0.424  -1.571  1.00  0.00    -0.462 OA
BRANCH  11  12
ATOM     12  C   UNL     1      -3.490   0.499  -2.628  1.00  0.00     0.302 C 
ATOM     13  O   UNL     1      -3.452  -0.334  -3.575  1.00  0.00    -0.253 OA
ATOM     14  C   UNL     1      -4.549   1.547  -2.609  1.00  0.00     0.139 C 
ENDBRANCH  11  12
ENDBRANCH  10  11
ENDBRANCH   2  10
TORSDOF 6
ENDMDL
MODEL 2
REMARK VINA RESULT:    -3.402      2.280      3.410
REMARK INTER + INTRA:          -5.194
REMARK INTER:                  -4.251
REMARK INTRA:                  -0.944
REMARK UNBOUND:                -0.599
REMARK SMILES CC(=O)OCC=C(C)CCC=C(C)C
REMARK SMILES IDX 7 1 6 2 8 3 9 4 10 5 11 6 13 7 12 8 14 9 5 10 4 11 2 12 3 13
REMARK SMILES IDX 1 14
REMARK H PARENT
REMARK Flexibility Score: inf
ROOT
ATOM      1  C   UNL     1      -0.903   1.983  -2.642  1.00  0.00    -0.074 C 
ATOM      2  C   UNL     1      -1.793   1.274  -1.913  1.00  0.00     0.013 C 
ATOM      3  C   UNL     1      -1.295   2.662  -3.932  1.00  0.00     0.039 C 
ENDROOT
BRANCH   1   4
ATOM      4  C   UNL     1       0.513   2.148  -2.131  1.00  0.00     0.034 C 
BRANCH   4   5
ATOM      5  C   UNL     1       0.743   3.540  -1.530  1.00  0.00     0.032 C 
BRANCH   5   6
ATOM      6  C   UNL     1       0.118   3.675  -0.160  1.00  0.00    -0.028 C 
ATOM      7  C   UNL     1      -1.727   5.167  -0.960  1.00  0.00     0.039 C 
ATOM      8  C   UNL     1      -0.971   4.424   0.117  1.00  0.00    -0.080 C 
ATOM      9  C   UNL     1      -1.447   4.498   1.544  1.00  0.00     0.039 C 
ENDBRANCH   5   6
ENDBRANCH   4   5
ENDBRANCH   1   4
BRANCH   2  10
ATOM     10  C   UNL     1      -3.230   1.066  -2.316  1.00  0.00     0.260 C 
BRANCH  10  11
ATOM     11  O   UNL     1      -3.375  -0.117  -3.100  1.00  0.00    -0.462 OA
BRANCH  11  12
ATOM     12  C   UNL     1      -3.726  -0.102  -4.454  1.00  0.00     0.302 C 
ATOM     13  O   UNL     1      -3.350  -1.024  -5.228  1.00  0.00    -0.253 OA
ATOM     14  C   UNL     1      -4.594   0.991  -4.974  1.00  0.00     0.139 C 
ENDBRANCH  11  12
ENDBRANCH  10  11
ENDBRANCH   2  10
TORSDOF 6
ENDMDL
MODEL 3
REMARK VINA RESULT:    -3.361      2.328      3.322
REMARK INTER + INTRA:          -5.139
REMARK INTER:                  -4.087
REMARK INTRA:                  -1.052
REMARK UNBOUND:                -0.599
REMARK SMILES CC(=O)OCC=C(C)CCC=C(C)C
REMARK SMILES IDX 7 1 6 2 8 3 9 4 10 5 11 6 13 7 12 8 14 9 5 10 4 11 2 12 3 13
REMARK SMILES IDX 1 14
REMARK H PARENT
REMARK Flexibility Score: inf
ROOT
ATOM      1  C   UNL     1      -1.732   2.420  -1.991  1.00  0.00    -0.074 C 
ATOM      2  C   UNL     1      -2.242   1.183  -1.798  1.00  0.00     0.013 C 
ATOM      3  C   UNL     1      -2.513   3.499  -2.700  1.00  0.00     0.039 C 
ENDROOT
BRANCH   1   4
ATOM      4  C   UNL     1      -0.362   2.754  -1.438  1.00  0.00     0.034 C 
BRANCH   4   5
ATOM      5  C   UNL     1       0.757   2.095  -2.255  1.00  0.00     0.032 C 
BRANCH   5   6
ATOM      6  C   UNL     1       1.227   2.978  -3.387  1.00  0.00    -0.028 C 
ATOM      7  C   UNL     1       0.010   1.669  -5.141  1.00  0.00     0.039 C 
ATOM      8  C   UNL     1       0.925   2.783  -4.690  1.00  0.00    -0.080 C 
ATOM      9  C   UNL     1       1.511   3.724  -5.710  1.00  0.00     0.039 C 
ENDBRANCH   5   6
ENDBRANCH   4   5
ENDBRANCH   1   4
BRANCH   2  10
ATOM     10  C   UNL     1      -3.601   0.752  -2.286  1.00  0.00     0.260 C 
BRANCH  10  11
ATOM     11  O   UNL     1      -3.488  -0.282  -3.262  1.00  0.00    -0.462 OA
BRANCH  11  12
ATOM     12  C   UNL     1      -3.585  -0.051  -4.638  1.00  0.00     0.302 C 
ATOM     13  O   UNL     1      -2.975  -0.788  -5.461  1.00  0.00    -0.253 OA
ATOM     14  C   UNL     1      -4.457   1.049  -5.138  1.00  0.00     0.139 C 
ENDBRANCH  11  12
ENDBRANCH  10  11
ENDBRANCH   2  10
TORSDOF 6
ENDMDL
MODEL 4
REMARK VINA RESULT:    -3.310      3.434      6.443
REMARK INTER + INTRA:          -5.070
REMARK INTER:                  -4.313
REMARK INTRA:                  -0.757
REMARK UNBOUND:                -0.599
REMARK SMILES CC(=O)OCC=C(C)CCC=C(C)C
REMARK SMILES IDX 7 1 6 2 8 3 9 4 10 5 11 6 13 7 12 8 14 9 5 10 4 11 2 12 3 13
REMARK SMILES IDX 1 14
REMARK H PARENT
REMARK Flexibility Score: inf
ROOT
ATOM      1  C   UNL     1      -0.875   3.130  -1.131  1.00  0.00    -0.074 C 
ATOM      2  C   UNL     1      -2.039   3.659  -0.691  1.00  0.00     0.013 C 
ATOM      3  C   UNL     1       0.458   3.748  -0.787  1.00  0.00     0.039 C 
ENDROOT
BRANCH   1   4
ATOM      4  C   UNL     1      -0.900   1.854  -1.947  1.00  0.00     0.034 C 
BRANCH   4   5
ATOM      5  C   UNL     1      -2.284   1.191  -1.923  1.00  0.00     0.032 C 
BRANCH   5   6
ATOM      6  C   UNL     1      -2.884   1.083  -3.305  1.00  0.00    -0.028 C 
ATOM      7  C   UNL     1      -5.216   1.536  -2.515  1.00  0.00     0.039 C 
ATOM      8  C   UNL     1      -4.200   1.205  -3.583  1.00  0.00    -0.080 C 
ATOM      9  C   UNL     1      -4.652   1.021  -5.008  1.00  0.00     0.039 C 
ENDBRANCH   5   6
ENDBRANCH   4   5
ENDBRANCH   1   4
BRANCH   2  10
ATOM     10  C   UNL     1      -2.127   4.910   0.145  1.00  0.00     0.260 C 
BRANCH  10  11
ATOM     11  O   UNL     1      -2.432   4.596   1.503  1.00  0.00    -0.462 OA
BRANCH  11  12
ATOM     12  C   UNL     1      -1.468   4.196   2.433  1.00  0.00     0.302 C 
ATOM     13  O   UNL     1      -0.705   5.042   2.977  1.00  0.00    -0.253 OA
ATOM     14  C   UNL     1      -1.374   2.761   2.823  1.00  0.00     0.139 C 
ENDBRANCH  11  12
ENDBRANCH  10  11
ENDBRANCH   2  10
TORSDOF 6
ENDMDL
MODEL 5
REMARK VINA RESULT:    -3.287      2.576      6.805
REMARK INTER + INTRA:          -5.039
REMARK INTER:                  -3.999
REMARK INTRA:                  -1.040
REMARK UNBOUND:                -0.599
REMARK SMILES CC(=O)OCC=C(C)CCC=C(C)C
REMARK SMILES IDX 7 1 6 2 8 3 9 4 10 5 11 6 13 7 12 8 14 9 5 10 4 11 2 12 3 13
REMARK SMILES IDX 1 14
REMARK H PARENT
REMARK Flexibility Score: inf
ROOT
ATOM      1  C   UNL     1      -2.459   2.878  -2.729  1.00  0.00    -0.074 C 
ATOM      2  C   UNL     1      -1.609   2.069  -2.058  1.00  0.00     0.013 C 
ATOM      3  C   UNL     1      -2.008   3.693  -3.916  1.00  0.00     0.039 C 
ENDROOT
BRANCH   1   4
ATOM      4  C   UNL     1      -3.915   2.933  -2.316  1.00  0.00     0.034 C 
BRANCH   4   5
ATOM      5  C   UNL     1      -4.663   1.648  -2.695  1.00  0.00     0.032 C 
BRANCH   5   6
ATOM      6  C   UNL     1      -5.014   1.610  -4.164  1.00  0.00    -0.028 C 
ATOM      7  C   UNL     1      -3.450  -0.281  -4.665  1.00  0.00     0.039 C 
ATOM      8  C   UNL     1      -4.457   0.771  -5.065  1.00  0.00    -0.080 C 
ATOM      9  C   UNL     1      -4.876   0.888  -6.507  1.00  0.00     0.039 C 
ENDBRANCH   5   6
ENDBRANCH   4   5
ENDBRANCH   1   4
BRANCH   2  10
ATOM     10  C   UNL     1      -0.148   1.921  -2.398  1.00  0.00     0.260 C 
BRANCH  10  11
ATOM     11  O   UNL     1       0.670   2.562  -1.421  1.00  0.00    -0.462 OA
BRANCH  11  12
ATOM     12  C   UNL     1       0.889   3.943  -1.390  1.00  0.00     0.302 C 
ATOM     13  O   UNL     1       0.531   4.631  -0.395  1.00  0.00    -0.253 OA
ATOM     14  C   UNL     1       1.598   4.599  -2.524  1.00  0.00     0.139 C 
ENDBRANCH  11  12
ENDBRANCH  10  11
ENDBRANCH   2  10
TORSDOF 6
ENDMDL
MODEL 6
REMARK VINA RESULT:    -3.284      3.768      7.022
REMARK INTER + INTRA:          -5.035
REMARK INTER:                  -4.313
REMARK INTRA:                  -0.723
REMARK UNBOUND:                -0.599
REMARK SMILES CC(=O)OCC=C(C)CCC=C(C)C
REMARK SMILES IDX 7 1 6 2 8 3 9 4 10 5 11 6 13 7 12 8 14 9 5 10 4 11 2 12 3 13
REMARK SMILES IDX 1 14
REMARK H PARENT
REMARK Flexibility Score: inf
ROOT
ATOM      1  C   UNL     1       1.675   4.240  -2.340  1.00  0.00    -0.074 C 
ATOM      2  C   UNL     1       2.190   3.648  -3.441  1.00  0.00     0.013 C 
ATOM      3  C   UNL     1       2.056   5.645  -1.944  1.00  0.00     0.039 C 
ENDROOT
BRANCH   1   4
ATOM      4  C   UNL     1       0.649   3.500  -1.509  1.00  0.00     0.034 C 
BRANCH   4   5
ATOM      5  C   UNL     1       0.425   2.071  -2.021  1.00  0.00     0.032 C 
BRANCH   5   6
ATOM      6  C   UNL     1      -1.025   1.657  -1.929  1.00  0.00    -0.028 C 
ATOM      7  C   UNL     1      -1.497   2.148  -4.339  1.00  0.00     0.039 C 
ATOM      8  C   UNL     1      -1.907   1.714  -2.951  1.00  0.00    -0.080 C 
ATOM      9  C   UNL     1      -3.335   1.312  -2.689  1.00  0.00     0.039 C 
ENDBRANCH   5   6
ENDBRANCH   4   5
ENDBRANCH   1   4
BRANCH   2  10
ATOM     10  C   UNL     1       3.198   4.301  -4.351  1.00  0.00     0.260 C 
BRANCH  10  11
ATOM     11  O   UNL     1       4.448   3.615  -4.303  1.00  0.00    -0.462 OA
BRANCH  11  12
ATOM     12  C   UNL     1       5.645   4.227  -3.920  1.00  0.00     0.302 C 
ATOM     13  O   UNL     1       6.755   3.782  -4.321  1.00  0.00    -0.253 OA
ATOM     14  C   UNL     1       5.604   5.448  -3.066  1.00  0.00     0.139 C 
ENDBRANCH  11  12
ENDBRANCH  10  11
ENDBRANCH   2  10
TORSDOF 6
ENDMDL
MODEL 7
REMARK VINA RESULT:    -3.279      1.845      2.797
REMARK INTER + INTRA:          -5.029
REMARK INTER:                  -3.960
REMARK INTRA:                  -1.068
REMARK UNBOUND:                -0.599
REMARK SMILES CC(=O)OCC=C(C)CCC=C(C)C
REMARK SMILES IDX 7 1 6 2 8 3 9 4 10 5 11 6 13 7 12 8 14 9 5 10 4 11 2 12 3 13
REMARK SMILES IDX 1 14
REMARK H PARENT
REMARK Flexibility Score: inf
ROOT
ATOM      1  C   UNL     1      -1.229   2.259  -3.545  1.00  0.00    -0.074 C 
ATOM      2  C   UNL     1      -2.006   1.576  -2.673  1.00  0.00     0.013 C 
ATOM      3  C   UNL     1      -1.772   3.408  -4.359  1.00  0.00     0.039 C 
ENDROOT
BRANCH   1   4
ATOM      4  C   UNL     1       0.236   1.899  -3.674  1.00  0.00     0.034 C 
BRANCH   4   5
ATOM      5  C   UNL     1       1.006   2.174  -2.376  1.00  0.00     0.032 C 
BRANCH   5   6
ATOM      6  C   UNL     1       1.397   3.628  -2.247  1.00  0.00    -0.028 C 
ATOM      7  C   UNL     1      -0.182   4.063  -0.353  1.00  0.00     0.039 C 
ATOM      8  C   UNL     1       0.852   4.495  -1.366  1.00  0.00    -0.080 C 
ATOM      9  C   UNL     1       1.313   5.929  -1.392  1.00  0.00     0.039 C 
ENDBRANCH   5   6
ENDBRANCH   4   5
ENDBRANCH   1   4
BRANCH   2  10
ATOM     10  C   UNL     1      -3.467   1.865  -2.449  1.00  0.00     0.260 C 
BRANCH  10  11
ATOM     11  O   UNL     1      -4.285   0.900  -3.109  1.00  0.00    -0.462 OA
BRANCH  11  12
ATOM     12  C   UNL     1      -4.485   0.880  -4.493  1.00  0.00     0.302 C 
ATOM     13  O   UNL     1      -5.078   1.830  -5.073  1.00  0.00    -0.253 OA
ATOM     14  C   UNL     1      -3.947  -0.254  -5.295  1.00  0.00     0.139 C 
ENDBRANCH  11  12
ENDBRANCH  10  11
ENDBRANCH   2  10
TORSDOF 6
ENDMDL
MODEL 8
REMARK VINA RESULT:    -3.266      2.345      2.895
REMARK INTER + INTRA:          -5.012
REMARK INTER:                  -3.950
REMARK INTRA:                  -1.062
REMARK UNBOUND:                -0.599
REMARK SMILES CC(=O)OCC=C(C)CCC=C(C)C
REMARK SMILES IDX 7 1 6 2 8 3 9 4 10 5 11 6 13 7 12 8 14 9 5 10 4 11 2 12 3 13
REMARK SMILES IDX 1 14
REMARK H PARENT
REMARK Flexibility Score: inf
ROOT
ATOM      1  C   UNL     1      -1.517   2.977  -2.974  1.00  0.00    -0.074 C 
ATOM      2  C   UNL     1      -2.108   3.256  -1.791  1.00  0.00     0.013 C 
ATOM      3  C   UNL     1      -1.828   3.766  -4.222  1.00  0.00     0.039 C 
ENDROOT
BRANCH   1   4
ATOM      4  C   UNL     1      -0.475   1.880  -3.044  1.00  0.00     0.034 C 
BRANCH   4   5
ATOM      5  C   UNL     1       0.755   2.208  -2.188  1.00  0.00     0.032 C 
BRANCH   5   6
ATOM      6  C   UNL     1       1.705   3.144  -2.898  1.00  0.00    -0.028 C 
ATOM      7  C   UNL     1       1.201   5.077  -1.387  1.00  0.00     0.039 C 
ATOM      8  C   UNL     1       1.894   4.441  -2.569  1.00  0.00    -0.080 C 
ATOM      9  C   UNL     1       2.841   5.262  -3.405  1.00  0.00     0.039 C 
ENDBRANCH   5   6
ENDBRANCH   4   5
ENDBRANCH   1   4
BRANCH   2  10
ATOM     10  C   UNL     1      -3.139   4.339  -1.604  1.00  0.00     0.260 C 
BRANCH  10  11
ATOM     11  O   UNL     1      -4.448   3.783  -1.487  1.00  0.00    -0.462 OA
BRANCH  11  12
ATOM     12  C   UNL     1      -5.190   3.331  -2.582  1.00  0.00     0.302 C 
ATOM     13  O   UNL     1      -5.732   4.148  -3.377  1.00  0.00    -0.253 OA
ATOM     14  C   UNL     1      -5.301   1.868  -2.839  1.00  0.00     0.139 C 
ENDBRANCH  11  12
ENDBRANCH  10  11
ENDBRANCH   2  10
TORSDOF 6
ENDMDL
MODEL 9
REMARK VINA RESULT:    -3.245      2.629      3.736
REMARK INTER + INTRA:          -4.983
REMARK INTER:                  -3.689
REMARK INTRA:                  -1.295
REMARK UNBOUND:                -0.599
REMARK SMILES CC(=O)OCC=C(C)CCC=C(C)C
REMARK SMILES IDX 7 1 6 2 8 3 9 4 10 5 11 6 13 7 12 8 14 9 5 10 4 11 2 12 3 13
REMARK SMILES IDX 1 14
REMARK H PARENT
REMARK Flexibility Score: inf
ROOT
ATOM      1  C   UNL     1      -1.521   2.196  -3.146  1.00  0.00    -0.074 C 
ATOM      2  C   UNL     1      -2.239   3.118  -3.826  1.00  0.00     0.013 C 
ATOM      3  C   UNL     1      -2.103   1.442  -1.976  1.00  0.00     0.039 C 
ENDROOT
BRANCH   1   4
ATOM      4  C   UNL     1      -0.113   1.869  -3.598  1.00  0.00     0.034 C 
BRANCH   4   5
ATOM      5  C   UNL     1       0.909   2.080  -2.473  1.00  0.00     0.032 C 
BRANCH   5   6
ATOM      6  C   UNL     1       1.344   3.523  -2.367  1.00  0.00    -0.028 C 
ATOM      7  C   UNL     1       0.080   3.926  -0.243  1.00  0.00     0.039 C 
ATOM      8  C   UNL     1       0.957   4.371  -1.389  1.00  0.00    -0.080 C 
ATOM      9  C   UNL     1       1.437   5.798  -1.447  1.00  0.00     0.039 C 
ENDBRANCH   5   6
ENDBRANCH   4   5
ENDBRANCH   1   4
BRANCH   2  10
ATOM     10  C   UNL     1      -3.654   3.502  -3.477  1.00  0.00     0.260 C 
BRANCH  10  11
ATOM     11  O   UNL     1      -3.713   4.843  -2.994  1.00  0.00    -0.462 OA
BRANCH  11  12
ATOM     12  C   UNL     1      -3.172   5.242  -1.767  1.00  0.00     0.302 C 
ATOM     13  O   UNL     1      -3.406   4.587  -0.715  1.00  0.00    -0.253 OA
ATOM     14  C   UNL     1      -2.271   6.428  -1.714  1.00  0.00     0.139 C 
ENDBRANCH  11  12
ENDBRANCH  10  11
ENDBRANCH   2  10
TORSDOF 6
ENDMDL
