MODEL 1
REMARK VINA RESULT:    -4.735      0.000      0.000
REMARK INTER + INTRA:          -6.325
REMARK INTER:                  -6.119
REMARK INTRA:                  -0.205
REMARK UNBOUND:                -0.205
REMARK SMILES C=CC(=O)CCCCC
REMARK SMILES IDX 6 1 7 2 8 3 9 4 5 5 3 6 4 7 2 8 1 9
REMARK H PARENT
REMARK Flexibility Score: inf
ROOT
ATOM      1  C   UNL     1       8.441 -25.553 -24.567  1.00  0.00     0.008 C 
ENDROOT
BRANCH   1   2
ATOM      2  C   UNL     1       9.815 -25.487 -25.252  1.00  0.00     0.000 C 
BRANCH   2   3
ATOM      3  C   UNL     1      10.118 -24.065 -25.737  1.00  0.00    -0.003 C 
ATOM      4  C   UNL     1      11.557 -23.948 -26.233  1.00  0.00     0.004 C 
ENDBRANCH   2   3
ENDBRANCH   1   2
BRANCH   1   5
ATOM      5  C   UNL     1       8.017 -24.200 -23.980  1.00  0.00     0.080 C 
BRANCH   5   6
ATOM      6  C   UNL     1       7.297 -24.358 -22.671  1.00  0.00     0.155 C 
ATOM      7  O   UNL     1       7.970 -24.500 -21.614  1.00  0.00    -0.295 OA
BRANCH   6   8
ATOM      8  C   UNL     1       5.823 -24.315 -22.623  1.00  0.00     0.039 C 
ATOM      9  C   UNL     1       5.082 -24.032 -23.693  1.00  0.00     0.012 C 
ENDBRANCH   6   8
ENDBRANCH   5   6
ENDBRANCH   1   5
TORSDOF 5
ENDMDL
MODEL 2
REMARK VINA RESULT:    -4.072      1.639      4.869
REMARK INTER + INTRA:          -5.468
REMARK INTER:                  -5.328
REMARK INTRA:                  -0.140
REMARK UNBOUND:                -0.205
REMARK SMILES C=CC(=O)CCCCC
REMARK SMILES IDX 6 1 7 2 8 3 9 4 5 5 3 6 4 7 2 8 1 9
REMARK H PARENT
REMARK Flexibility Score: inf
ROOT
ATOM      1  C   UNL     1       8.309 -24.935 -23.416  1.00  0.00     0.008 C 
ENDROOT
BRANCH   1   2
ATOM      2  C   UNL     1       7.439 -23.794 -22.865  1.00  0.00     0.000 C 
BRANCH   2   3
ATOM      3  C   UNL     1       6.030 -24.293 -22.527  1.00  0.00    -0.003 C 
ATOM      4  C   UNL     1       5.069 -24.060 -23.690  1.00  0.00     0.004 C 
ENDBRANCH   2   3
ENDBRANCH   1   2
BRANCH   1   5
ATOM      5  C   UNL     1       8.394 -24.916 -24.948  1.00  0.00     0.080 C 
BRANCH   5   6
ATOM      6  C   UNL     1       9.532 -24.064 -25.434  1.00  0.00     0.155 C 
ATOM      7  O   UNL     1       9.390 -22.811 -25.473  1.00  0.00    -0.295 OA
BRANCH   6   8
ATOM      8  C   UNL     1      10.810 -24.686 -25.831  1.00  0.00     0.039 C 
ATOM      9  C   UNL     1      11.838 -23.976 -26.290  1.00  0.00     0.012 C 
ENDBRANCH   6   8
ENDBRANCH   5   6
ENDBRANCH   1   5
TORSDOF 5
ENDMDL
MODEL 3
REMARK VINA RESULT:    -3.813      8.886      9.423
REMARK INTER + INTRA:          -5.133
REMARK INTER:                  -4.658
REMARK INTRA:                  -0.475
REMARK UNBOUND:                -0.205
REMARK SMILES C=CC(=O)CCCCC
REMARK SMILES IDX 6 1 7 2 8 3 9 4 5 5 3 6 4 7 2 8 1 9
REMARK H PARENT
REMARK Flexibility Score: inf
ROOT
ATOM      1  C   UNL     1      14.388 -19.508 -19.710  1.00  0.00     0.008 C 
ENDROOT
BRANCH   1   2
ATOM      2  C   UNL     1      14.239 -18.910 -18.302  1.00  0.00     0.000 C 
BRANCH   2   3
ATOM      3  C   UNL     1      15.180 -17.715 -18.112  1.00  0.00    -0.003 C 
ATOM      4  C   UNL     1      16.020 -17.471 -19.363  1.00  0.00     0.004 C 
ENDBRANCH   2   3
ENDBRANCH   1   2
BRANCH   1   5
ATOM      5  C   UNL     1      13.034 -19.716 -20.401  1.00  0.00     0.080 C 
BRANCH   5   6
ATOM      6  C   UNL     1      12.270 -18.429 -20.535  1.00  0.00     0.155 C 
ATOM      7  O   UNL     1      12.802 -17.459 -21.140  1.00  0.00    -0.295 OA
BRANCH   6   8
ATOM      8  C   UNL     1      10.903 -18.317 -19.991  1.00  0.00     0.039 C 
ATOM      9  C   UNL     1      10.626 -17.613 -18.895  1.00  0.00     0.012 C 
ENDBRANCH   6   8
ENDBRANCH   5   6
ENDBRANCH   1   5
TORSDOF 5
ENDMDL
MODEL 4
REMARK VINA RESULT:    -3.802      8.658      9.134
REMARK INTER + INTRA:          -5.118
REMARK INTER:                  -4.961
REMARK INTRA:                  -0.157
REMARK UNBOUND:                -0.205
REMARK SMILES C=CC(=O)CCCCC
REMARK SMILES IDX 6 1 7 2 8 3 9 4 5 5 3 6 4 7 2 8 1 9
REMARK H PARENT
REMARK Flexibility Score: inf
ROOT
ATOM      1  C   UNL     1      12.867 -18.268 -19.108  1.00  0.00     0.008 C 
ENDROOT
BRANCH   1   2
ATOM      2  C   UNL     1      14.177 -17.534 -19.435  1.00  0.00     0.000 C 
BRANCH   2   3
ATOM      3  C   UNL     1      15.192 -17.689 -18.296  1.00  0.00    -0.003 C 
ATOM      4  C   UNL     1      14.657 -18.613 -17.205  1.00  0.00     0.004 C 
ENDBRANCH   2   3
ENDBRANCH   1   2
BRANCH   1   5
ATOM      5  C   UNL     1      12.007 -18.509 -20.356  1.00  0.00     0.080 C 
BRANCH   5   6
ATOM      6  C   UNL     1      10.566 -18.153 -20.120  1.00  0.00     0.155 C 
ATOM      7  O   UNL     1      10.220 -17.708 -18.993  1.00  0.00    -0.295 OA
BRANCH   6   8
ATOM      8  C   UNL     1       9.579 -18.294 -21.208  1.00  0.00     0.039 C 
ATOM      9  C   UNL     1       9.724 -17.691 -22.386  1.00  0.00     0.012 C 
ENDBRANCH   6   8
ENDBRANCH   5   6
ENDBRANCH   1   5
TORSDOF 5
ENDMDL
MODEL 5
REMARK VINA RESULT:    -3.778      8.849      9.645
REMARK INTER + INTRA:          -5.088
REMARK INTER:                  -4.588
REMARK INTRA:                  -0.500
REMARK UNBOUND:                -0.205
REMARK SMILES C=CC(=O)CCCCC
REMARK SMILES IDX 6 1 7 2 8 3 9 4 5 5 3 6 4 7 2 8 1 9
REMARK H PARENT
REMARK Flexibility Score: inf
ROOT
ATOM      1  C   UNL     1      12.989 -19.139 -20.697  1.00  0.00     0.008 C 
ENDROOT
BRANCH   1   2
ATOM      2  C   UNL     1      13.485 -20.515 -20.224  1.00  0.00     0.000 C 
BRANCH   2   3
ATOM      3  C   UNL     1      14.592 -21.044 -21.143  1.00  0.00    -0.003 C 
ATOM      4  C   UNL     1      14.555 -20.354 -22.504  1.00  0.00     0.004 C 
ENDBRANCH   2   3
ENDBRANCH   1   2
BRANCH   1   5
ATOM      5  C   UNL     1      13.161 -18.057 -19.622  1.00  0.00     0.080 C 
BRANCH   5   6
ATOM      6  C   UNL     1      14.609 -17.787 -19.326  1.00  0.00     0.155 C 
ATOM      7  O   UNL     1      15.383 -17.482 -20.273  1.00  0.00    -0.295 OA
BRANCH   6   8
ATOM      8  C   UNL     1      15.107 -17.846 -17.938  1.00  0.00     0.039 C 
ATOM      9  C   UNL     1      14.663 -18.741 -17.057  1.00  0.00     0.012 C 
ENDBRANCH   6   8
ENDBRANCH   5   6
ENDBRANCH   1   5
TORSDOF 5
ENDMDL
MODEL 6
REMARK VINA RESULT:    -3.749      9.280     10.314
REMARK INTER + INTRA:          -5.051
REMARK INTER:                  -4.784
REMARK INTRA:                  -0.266
REMARK UNBOUND:                -0.205
REMARK SMILES C=CC(=O)CCCCC
REMARK SMILES IDX 6 1 7 2 8 3 9 4 5 5 3 6 4 7 2 8 1 9
REMARK H PARENT
REMARK Flexibility Score: inf
ROOT
ATOM      1  C   UNL     1      12.576 -18.213 -20.312  1.00  0.00     0.008 C 
ENDROOT
BRANCH   1   2
ATOM      2  C   UNL     1      11.861 -17.481 -19.166  1.00  0.00     0.000 C 
BRANCH   2   3
ATOM      3  C   UNL     1      10.367 -17.824 -19.144  1.00  0.00    -0.003 C 
ATOM      4  C   UNL     1       9.928 -18.455 -20.462  1.00  0.00     0.004 C 
ENDBRANCH   2   3
ENDBRANCH   1   2
BRANCH   1   5
ATOM      5  C   UNL     1      13.833 -18.955 -19.836  1.00  0.00     0.080 C 
BRANCH   5   6
ATOM      6  C   UNL     1      14.885 -18.008 -19.334  1.00  0.00     0.155 C 
ATOM      7  O   UNL     1      15.576 -17.359 -20.166  1.00  0.00    -0.295 OA
BRANCH   6   8
ATOM      8  C   UNL     1      15.084 -17.818 -17.884  1.00  0.00     0.039 C 
ATOM      9  C   UNL     1      14.693 -18.720 -16.986  1.00  0.00     0.012 C 
ENDBRANCH   6   8
ENDBRANCH   5   6
ENDBRANCH   1   5
TORSDOF 5
ENDMDL
MODEL 7
REMARK VINA RESULT:    -3.735      8.622     10.762
REMARK INTER + INTRA:          -5.032
REMARK INTER:                  -4.496
REMARK INTRA:                  -0.537
REMARK UNBOUND:                -0.205
REMARK SMILES C=CC(=O)CCCCC
REMARK SMILES IDX 6 1 7 2 8 3 9 4 5 5 3 6 4 7 2 8 1 9
REMARK H PARENT
REMARK Flexibility Score: inf
ROOT
ATOM      1  C   UNL     1      17.739 -25.312 -21.943  1.00  0.00     0.008 C 
ENDROOT
BRANCH   1   2
ATOM      2  C   UNL     1      16.539 -24.920 -22.819  1.00  0.00     0.000 C 
BRANCH   2   3
ATOM      3  C   UNL     1      16.131 -23.463 -22.570  1.00  0.00    -0.003 C 
ATOM      4  C   UNL     1      15.722 -22.777 -23.871  1.00  0.00     0.004 C 
ENDBRANCH   2   3
ENDBRANCH   1   2
BRANCH   1   5
ATOM      5  C   UNL     1      18.983 -25.649 -22.775  1.00  0.00     0.080 C 
BRANCH   5   6
ATOM      6  C   UNL     1      19.714 -24.412 -23.216  1.00  0.00     0.155 C 
ATOM      7  O   UNL     1      20.156 -23.617 -22.343  1.00  0.00    -0.295 OA
BRANCH   6   8
ATOM      8  C   UNL     1      19.937 -24.152 -24.651  1.00  0.00     0.039 C 
ATOM      9  C   UNL     1      18.934 -24.022 -25.517  1.00  0.00     0.012 C 
ENDBRANCH   6   8
ENDBRANCH   5   6
ENDBRANCH   1   5
TORSDOF 5
ENDMDL
MODEL 8
REMARK VINA RESULT:    -3.681      9.229     11.089
REMARK INTER + INTRA:          -4.962
REMARK INTER:                  -4.399
REMARK INTRA:                  -0.563
REMARK UNBOUND:                -0.205
REMARK SMILES C=CC(=O)CCCCC
REMARK SMILES IDX 6 1 7 2 8 3 9 4 5 5 3 6 4 7 2 8 1 9
REMARK H PARENT
REMARK Flexibility Score: inf
ROOT
ATOM      1  C   UNL     1      19.033 -26.083 -23.628  1.00  0.00     0.008 C 
ENDROOT
BRANCH   1   2
ATOM      2  C   UNL     1      18.419 -25.359 -22.419  1.00  0.00     0.000 C 
BRANCH   2   3
ATOM      3  C   UNL     1      16.893 -25.286 -22.540  1.00  0.00    -0.003 C 
ATOM      4  C   UNL     1      16.422 -23.844 -22.705  1.00  0.00     0.004 C 
ENDBRANCH   2   3
ENDBRANCH   1   2
BRANCH   1   5
ATOM      5  C   UNL     1      20.181 -25.287 -24.263  1.00  0.00     0.080 C 
BRANCH   5   6
ATOM      6  C   UNL     1      19.743 -23.914 -24.687  1.00  0.00     0.155 C 
ATOM      7  O   UNL     1      20.279 -22.906 -24.153  1.00  0.00    -0.295 OA
BRANCH   6   8
ATOM      8  C   UNL     1      18.720 -23.752 -25.738  1.00  0.00     0.039 C 
ATOM      9  C   UNL     1      17.964 -22.660 -25.837  1.00  0.00     0.012 C 
ENDBRANCH   6   8
ENDBRANCH   5   6
ENDBRANCH   1   5
TORSDOF 5
ENDMDL
MODEL 9
REMARK VINA RESULT:    -3.668      9.824     11.194
REMARK INTER + INTRA:          -4.945
REMARK INTER:                  -4.717
REMARK INTRA:                  -0.228
REMARK UNBOUND:                -0.205
REMARK SMILES C=CC(=O)CCCCC
REMARK SMILES IDX 6 1 7 2 8 3 9 4 5 5 3 6 4 7 2 8 1 9
REMARK H PARENT
REMARK Flexibility Score: inf
ROOT
ATOM      1  C   UNL     1      13.855 -18.384 -18.996  1.00  0.00     0.008 C 
ENDROOT
BRANCH   1   2
ATOM      2  C   UNL     1      12.642 -17.492 -19.305  1.00  0.00     0.000 C 
BRANCH   2   3
ATOM      3  C   UNL     1      11.642 -18.220 -20.211  1.00  0.00    -0.003 C 
ATOM      4  C   UNL     1      10.215 -18.060 -19.696  1.00  0.00     0.004 C 
ENDBRANCH   2   3
ENDBRANCH   1   2
BRANCH   1   5
ATOM      5  C   UNL     1      14.954 -17.630 -18.235  1.00  0.00     0.080 C 
BRANCH   5   6
ATOM      6  C   UNL     1      16.188 -17.445 -19.072  1.00  0.00     0.155 C 
ATOM      7  O   UNL     1      17.258 -17.079 -18.515  1.00  0.00    -0.295 OA
BRANCH   6   8
ATOM      8  C   UNL     1      16.151 -17.722 -20.521  1.00  0.00     0.039 C 
ATOM      9  C   UNL     1      16.842 -17.002 -21.403  1.00  0.00     0.012 C 
ENDBRANCH   6   8
ENDBRANCH   5   6
ENDBRANCH   1   5
TORSDOF 5
ENDMDL
