MODEL 1
REMARK VINA RESULT:    -4.898      0.000      0.000
REMARK INTER + INTRA:         -13.868
REMARK INTER:                 -11.197
REMARK INTRA:                  -2.671
REMARK UNBOUND:                -2.671
REMARK SMILES CCCCCCCCCCCCCCCCCCCCCCCC(=O)[O-]
REMARK SMILES IDX 13 1 14 2 15 3 16 4 17 5 18 6 19 7 20 8 21 9 22 10 23 11
REMARK SMILES IDX 24 12 25 13 26 14 12 15 11 16 10 17 9 18 8 19 7 20 6 21 5 22
REMARK SMILES IDX 4 23 3 24 2 25 1 26
REMARK H PARENT
REMARK Flexibility Score: inf
ROOT
ATOM      1  C   UNL     1      -5.139   2.137  -9.685  1.00  0.00     0.000 C 
ENDROOT
BRANCH   1   2
ATOM      2  C   UNL     1      -6.665   2.099  -9.478  1.00  0.00     0.000 C 
BRANCH   2   3
ATOM      3  C   UNL     1      -7.238   0.724  -9.085  1.00  0.00     0.000 C 
BRANCH   3   4
ATOM      4  C   UNL     1      -6.194  -0.379  -8.827  1.00  0.00     0.000 C 
BRANCH   4   5
ATOM      5  C   UNL     1      -6.093  -1.430  -9.954  1.00  0.00     0.000 C 
BRANCH   5   6
ATOM      6  C   UNL     1      -7.191  -1.267 -11.021  1.00  0.00     0.000 C 
BRANCH   6   7
ATOM      7  C   UNL     1      -7.517  -2.595 -11.730  1.00  0.00     0.000 C 
BRANCH   7   8
ATOM      8  C   UNL     1      -8.144  -2.409 -13.125  1.00  0.00     0.000 C 
BRANCH   8   9
ATOM      9  C   UNL     1      -8.100  -3.701 -13.960  1.00  0.00     0.000 C 
BRANCH   9  10
ATOM     10  C   UNL     1      -9.191  -3.744 -15.047  1.00  0.00     0.006 C 
BRANCH  10  11
ATOM     11  C   UNL     1     -10.076  -5.000 -15.002  1.00  0.00     0.053 C 
BRANCH  11  12
ATOM     12  C   UNL     1     -11.530  -4.661 -14.892  1.00  0.00     0.041 C 
ATOM     13  O   UNL     1     -12.213  -5.104 -13.930  1.00  0.00    -0.550 OA
ATOM     14  O   UNL     1     -12.130  -3.845 -15.846  1.00  0.00    -0.550 OA
ENDBRANCH  11  12
ENDBRANCH  10  11
ENDBRANCH   9  10
ENDBRANCH   8   9
ENDBRANCH   7   8
ENDBRANCH   6   7
ENDBRANCH   5   6
ENDBRANCH   4   5
ENDBRANCH   3   4
ENDBRANCH   2   3
ENDBRANCH   1   2
BRANCH   1  15
ATOM     15  C   UNL     1      -4.732   2.131 -11.167  1.00  0.00     0.000 C 
BRANCH  15  16
ATOM     16  C   UNL     1      -3.272   1.681 -11.330  1.00  0.00     0.000 C 
BRANCH  16  17
ATOM     17  C   UNL     1      -3.059   0.209 -10.945  1.00  0.00     0.000 C 
BRANCH  17  18
ATOM     18  C   UNL     1      -1.829  -0.409 -11.633  1.00  0.00    -0.000 C 
BRANCH  18  19
ATOM     19  C   UNL     1      -2.208  -1.420 -12.728  1.00  0.00    -0.000 C 
BRANCH  19  20
ATOM     20  C   UNL     1      -2.958  -2.643 -12.173  1.00  0.00    -0.000 C 
BRANCH  20  21
ATOM     21  C   UNL     1      -4.281  -2.917 -12.911  1.00  0.00    -0.000 C 
BRANCH  21  22
ATOM     22  C   UNL     1      -4.529  -2.044 -14.157  1.00  0.00    -0.000 C 
BRANCH  22  23
ATOM     23  C   UNL     1      -4.396  -2.774 -15.509  1.00  0.00    -0.000 C 
BRANCH  23  24
ATOM     24  C   UNL     1      -3.917  -1.897 -16.680  1.00  0.00    -0.000 C 
BRANCH  24  25
ATOM     25  C   UNL     1      -3.036  -2.660 -17.678  1.00  0.00    -0.003 C 
ATOM     26  C   UNL     1      -2.930  -1.906 -19.001  1.00  0.00     0.004 C 
ENDBRANCH  24  25
ENDBRANCH  23  24
ENDBRANCH  22  23
ENDBRANCH  21  22
ENDBRANCH  20  21
ENDBRANCH  19  20
ENDBRANCH  18  19
ENDBRANCH  17  18
ENDBRANCH  16  17
ENDBRANCH  15  16
ENDBRANCH   1  15
TORSDOF 22
ENDMDL
MODEL 2
REMARK VINA RESULT:    -4.863      1.478      5.074
REMARK INTER + INTRA:         -13.788
REMARK INTER:                 -10.563
REMARK INTRA:                  -3.225
REMARK UNBOUND:                -2.671
REMARK SMILES CCCCCCCCCCCCCCCCCCCCCCCC(=O)[O-]
REMARK SMILES IDX 13 1 14 2 15 3 16 4 17 5 18 6 19 7 20 8 21 9 22 10 23 11
REMARK SMILES IDX 24 12 25 13 26 14 12 15 11 16 10 17 9 18 8 19 7 20 6 21 5 22
REMARK SMILES IDX 4 23 3 24 2 25 1 26
REMARK H PARENT
REMARK Flexibility Score: inf
ROOT
ATOM      1  C   UNL     1      -3.136  -2.368 -12.788  1.00  0.00     0.000 C 
ENDROOT
BRANCH   1   2
ATOM      2  C   UNL     1      -4.284  -1.685 -13.556  1.00  0.00     0.000 C 
BRANCH   2   3
ATOM      3  C   UNL     1      -4.516  -2.207 -14.987  1.00  0.00     0.000 C 
BRANCH   3   4
ATOM      4  C   UNL     1      -4.133  -3.680 -15.224  1.00  0.00     0.000 C 
BRANCH   4   5
ATOM      5  C   UNL     1      -5.325  -4.591 -15.591  1.00  0.00     0.000 C 
BRANCH   5   6
ATOM      6  C   UNL     1      -6.211  -4.931 -14.378  1.00  0.00     0.000 C 
BRANCH   6   7
ATOM      7  C   UNL     1      -7.491  -5.686 -14.783  1.00  0.00     0.000 C 
BRANCH   7   8
ATOM      8  C   UNL     1      -8.297  -4.979 -15.889  1.00  0.00     0.000 C 
BRANCH   8   9
ATOM      9  C   UNL     1      -9.242  -3.904 -15.323  1.00  0.00     0.000 C 
BRANCH   9  10
ATOM     10  C   UNL     1     -10.530  -3.748 -16.154  1.00  0.00     0.006 C 
BRANCH  10  11
ATOM     11  C   UNL     1     -11.514  -4.922 -16.020  1.00  0.00     0.053 C 
BRANCH  11  12
ATOM     12  C   UNL     1     -11.878  -5.191 -14.593  1.00  0.00     0.041 C 
ATOM     13  O   UNL     1     -11.359  -6.161 -13.979  1.00  0.00    -0.550 OA
ATOM     14  O   UNL     1     -12.784  -4.364 -13.936  1.00  0.00    -0.550 OA
ENDBRANCH  11  12
ENDBRANCH  10  11
ENDBRANCH   9  10
ENDBRANCH   8   9
ENDBRANCH   7   8
ENDBRANCH   6   7
ENDBRANCH   5   6
ENDBRANCH   4   5
ENDBRANCH   3   4
ENDBRANCH   2   3
ENDBRANCH   1   2
BRANCH   1  15
ATOM     15  C   UNL     1      -2.770  -1.644 -11.483  1.00  0.00     0.000 C 
BRANCH  15  16
ATOM     16  C   UNL     1      -3.289  -0.198 -11.499  1.00  0.00     0.000 C 
BRANCH  16  17
ATOM     17  C   UNL     1      -3.077   0.521 -10.157  1.00  0.00     0.000 C 
BRANCH  17  18
ATOM     18  C   UNL     1      -3.757   1.901 -10.113  1.00  0.00    -0.000 C 
BRANCH  18  19
ATOM     19  C   UNL     1      -4.738   2.115 -11.278  1.00  0.00    -0.000 C 
BRANCH  19  20
ATOM     20  C   UNL     1      -6.200   2.223 -10.810  1.00  0.00    -0.000 C 
BRANCH  20  21
ATOM     21  C   UNL     1      -6.384   1.834  -9.332  1.00  0.00    -0.000 C 
BRANCH  21  22
ATOM     22  C   UNL     1      -6.747   0.356  -9.085  1.00  0.00    -0.000 C 
BRANCH  22  23
ATOM     23  C   UNL     1      -7.029  -0.474 -10.354  1.00  0.00    -0.000 C 
BRANCH  23  24
ATOM     24  C   UNL     1      -6.380  -1.869 -10.379  1.00  0.00    -0.000 C 
BRANCH  24  25
ATOM     25  C   UNL     1      -7.032  -2.815 -11.396  1.00  0.00    -0.003 C 
ATOM     26  C   UNL     1      -7.852  -2.037 -12.421  1.00  0.00     0.004 C 
ENDBRANCH  24  25
ENDBRANCH  23  24
ENDBRANCH  22  23
ENDBRANCH  21  22
ENDBRANCH  20  21
ENDBRANCH  19  20
ENDBRANCH  18  19
ENDBRANCH  17  18
ENDBRANCH  16  17
ENDBRANCH  15  16
ENDBRANCH   1  15
TORSDOF 22
ENDMDL
MODEL 3
REMARK VINA RESULT:    -4.859      3.400      7.741
REMARK INTER + INTRA:         -13.780
REMARK INTER:                  -9.377
REMARK INTRA:                  -4.403
REMARK UNBOUND:                -2.671
REMARK SMILES CCCCCCCCCCCCCCCCCCCCCCCC(=O)[O-]
REMARK SMILES IDX 13 1 14 2 15 3 16 4 17 5 18 6 19 7 20 8 21 9 22 10 23 11
REMARK SMILES IDX 24 12 25 13 26 14 12 15 11 16 10 17 9 18 8 19 7 20 6 21 5 22
REMARK SMILES IDX 4 23 3 24 2 25 1 26
REMARK H PARENT
REMARK Flexibility Score: inf
ROOT
ATOM      1  C   UNL     1     -10.917  -3.911 -15.570  1.00  0.00     0.000 C 
ENDROOT
BRANCH   1   2
ATOM      2  C   UNL     1      -9.389  -3.859 -15.762  1.00  0.00     0.000 C 
BRANCH   2   3
ATOM      3  C   UNL     1      -8.579  -3.542 -14.491  1.00  0.00     0.000 C 
BRANCH   3   4
ATOM      4  C   UNL     1      -7.048  -3.576 -14.656  1.00  0.00     0.000 C 
BRANCH   4   5
ATOM      5  C   UNL     1      -6.309  -2.431 -13.930  1.00  0.00     0.000 C 
BRANCH   5   6
ATOM      6  C   UNL     1      -4.853  -2.265 -14.405  1.00  0.00     0.000 C 
BRANCH   6   7
ATOM      7  C   UNL     1      -3.876  -2.055 -13.232  1.00  0.00     0.000 C 
BRANCH   7   8
ATOM      8  C   UNL     1      -4.495  -1.289 -12.047  1.00  0.00     0.000 C 
BRANCH   8   9
ATOM      9  C   UNL     1      -4.360  -2.060 -10.722  1.00  0.00     0.000 C 
BRANCH   9  10
ATOM     10  C   UNL     1      -5.533  -1.797  -9.759  1.00  0.00     0.006 C 
BRANCH  10  11
ATOM     11  C   UNL     1      -6.706  -1.027 -10.388  1.00  0.00     0.053 C 
BRANCH  11  12
ATOM     12  C   UNL     1      -6.978   0.264  -9.680  1.00  0.00     0.041 C 
ATOM     13  O   UNL     1      -7.519   0.260  -8.542  1.00  0.00    -0.550 OA
ATOM     14  O   UNL     1      -6.624   1.472 -10.271  1.00  0.00    -0.550 OA
ENDBRANCH  11  12
ENDBRANCH  10  11
ENDBRANCH   9  10
ENDBRANCH   8   9
ENDBRANCH   7   8
ENDBRANCH   6   7
ENDBRANCH   5   6
ENDBRANCH   4   5
ENDBRANCH   3   4
ENDBRANCH   2   3
ENDBRANCH   1   2
BRANCH   1  15
ATOM     15  C   UNL     1     -11.484  -5.338 -15.637  1.00  0.00     0.000 C 
BRANCH  15  16
ATOM     16  C   UNL     1     -11.330  -6.049 -14.284  1.00  0.00     0.000 C 
BRANCH  16  17
ATOM     17  C   UNL     1     -10.421  -7.285 -14.364  1.00  0.00     0.000 C 
BRANCH  17  18
ATOM     18  C   UNL     1      -9.073  -7.074 -13.652  1.00  0.00    -0.000 C 
BRANCH  18  19
ATOM     19  C   UNL     1      -7.922  -7.845 -14.321  1.00  0.00    -0.000 C 
BRANCH  19  20
ATOM     20  C   UNL     1      -7.388  -7.139 -15.579  1.00  0.00    -0.000 C 
BRANCH  20  21
ATOM     21  C   UNL     1      -5.872  -6.878 -15.518  1.00  0.00    -0.000 C 
BRANCH  21  22
ATOM     22  C   UNL     1      -5.225  -7.091 -14.135  1.00  0.00    -0.000 C 
BRANCH  22  23
ATOM     23  C   UNL     1      -4.448  -5.880 -13.579  1.00  0.00    -0.000 C 
BRANCH  23  24
ATOM     24  C   UNL     1      -4.775  -5.509 -12.122  1.00  0.00    -0.000 C 
BRANCH  24  25
ATOM     25  C   UNL     1      -6.147  -6.023 -11.666  1.00  0.00    -0.003 C 
ATOM     26  C   UNL     1      -7.042  -4.872 -11.216  1.00  0.00     0.004 C 
ENDBRANCH  24  25
ENDBRANCH  23  24
ENDBRANCH  22  23
ENDBRANCH  21  22
ENDBRANCH  20  21
ENDBRANCH  19  20
ENDBRANCH  18  19
ENDBRANCH  17  18
ENDBRANCH  16  17
ENDBRANCH  15  16
ENDBRANCH   1  15
TORSDOF 22
ENDMDL
MODEL 4
REMARK VINA RESULT:    -4.849      1.825      5.849
REMARK INTER + INTRA:         -13.758
REMARK INTER:                 -10.691
REMARK INTRA:                  -3.067
REMARK UNBOUND:                -2.671
REMARK SMILES CCCCCCCCCCCCCCCCCCCCCCCC(=O)[O-]
REMARK SMILES IDX 13 1 14 2 15 3 16 4 17 5 18 6 19 7 20 8 21 9 22 10 23 11
REMARK SMILES IDX 24 12 25 13 26 14 12 15 11 16 10 17 9 18 8 19 7 20 6 21 5 22
REMARK SMILES IDX 4 23 3 24 2 25 1 26
REMARK H PARENT
REMARK Flexibility Score: inf
ROOT
ATOM      1  C   UNL     1      -5.553  -2.240 -10.471  1.00  0.00     0.000 C 
ENDROOT
BRANCH   1   2
ATOM      2  C   UNL     1      -5.425  -1.585 -11.860  1.00  0.00     0.000 C 
BRANCH   2   3
ATOM      3  C   UNL     1      -3.982  -1.410 -12.371  1.00  0.00     0.000 C 
BRANCH   3   4
ATOM      4  C   UNL     1      -3.620  -2.233 -13.622  1.00  0.00     0.000 C 
BRANCH   4   5
ATOM      5  C   UNL     1      -4.660  -2.144 -14.760  1.00  0.00     0.000 C 
BRANCH   5   6
ATOM      6  C   UNL     1      -5.283  -3.509 -15.106  1.00  0.00     0.000 C 
BRANCH   6   7
ATOM      7  C   UNL     1      -6.769  -3.591 -14.709  1.00  0.00     0.000 C 
BRANCH   7   8
ATOM      8  C   UNL     1      -7.398  -4.975 -14.961  1.00  0.00     0.000 C 
BRANCH   8   9
ATOM      9  C   UNL     1      -8.350  -4.968 -16.171  1.00  0.00     0.000 C 
BRANCH   9  10
ATOM     10  C   UNL     1      -9.441  -3.886 -16.062  1.00  0.00     0.006 C 
BRANCH  10  11
ATOM     11  C   UNL     1     -10.375  -4.051 -14.852  1.00  0.00     0.053 C 
BRANCH  11  12
ATOM     12  C   UNL     1     -11.505  -4.993 -15.137  1.00  0.00     0.041 C 
ATOM     13  O   UNL     1     -12.647  -4.544 -15.420  1.00  0.00    -0.550 OA
ATOM     14  O   UNL     1     -11.293  -6.367 -15.099  1.00  0.00    -0.550 OA
ENDBRANCH  11  12
ENDBRANCH  10  11
ENDBRANCH   9  10
ENDBRANCH   8   9
ENDBRANCH   7   8
ENDBRANCH   6   7
ENDBRANCH   5   6
ENDBRANCH   4   5
ENDBRANCH   3   4
ENDBRANCH   2   3
ENDBRANCH   1   2
BRANCH   1  15
ATOM     15  C   UNL     1      -5.890  -1.235  -9.360  1.00  0.00     0.000 C 
BRANCH  15  16
ATOM     16  C   UNL     1      -6.986  -0.260  -9.819  1.00  0.00     0.000 C 
BRANCH  16  17
ATOM     17  C   UNL     1      -7.126   0.954  -8.889  1.00  0.00     0.000 C 
BRANCH  17  18
ATOM     18  C   UNL     1      -6.341   2.178  -9.393  1.00  0.00    -0.000 C 
BRANCH  18  19
ATOM     19  C   UNL     1      -6.049   2.114 -10.902  1.00  0.00    -0.000 C 
BRANCH  19  20
ATOM     20  C   UNL     1      -4.543   2.101 -11.214  1.00  0.00    -0.000 C 
BRANCH  20  21
ATOM     21  C   UNL     1      -3.671   2.056  -9.946  1.00  0.00    -0.000 C 
BRANCH  21  22
ATOM     22  C   UNL     1      -2.812   0.785  -9.786  1.00  0.00    -0.000 C 
BRANCH  22  23
ATOM     23  C   UNL     1      -2.835   0.149  -8.381  1.00  0.00    -0.000 C 
BRANCH  23  24
ATOM     24  C   UNL     1      -3.440   1.032  -7.275  1.00  0.00    -0.000 C 
BRANCH  24  25
ATOM     25  C   UNL     1      -2.384   1.838  -6.507  1.00  0.00    -0.003 C 
ATOM     26  C   UNL     1      -2.750   3.319  -6.465  1.00  0.00     0.004 C 
ENDBRANCH  24  25
ENDBRANCH  23  24
ENDBRANCH  22  23
ENDBRANCH  21  22
ENDBRANCH  20  21
ENDBRANCH  19  20
ENDBRANCH  18  19
ENDBRANCH  17  18
ENDBRANCH  16  17
ENDBRANCH  15  16
ENDBRANCH   1  15
TORSDOF 22
ENDMDL
MODEL 5
REMARK VINA RESULT:    -4.835      4.025      8.480
REMARK INTER + INTRA:         -13.723
REMARK INTER:                 -10.855
REMARK INTRA:                  -2.868
REMARK UNBOUND:                -2.671
REMARK SMILES CCCCCCCCCCCCCCCCCCCCCCCC(=O)[O-]
REMARK SMILES IDX 13 1 14 2 15 3 16 4 17 5 18 6 19 7 20 8 21 9 22 10 23 11
REMARK SMILES IDX 24 12 25 13 26 14 12 15 11 16 10 17 9 18 8 19 7 20 6 21 5 22
REMARK SMILES IDX 4 23 3 24 2 25 1 26
REMARK H PARENT
REMARK Flexibility Score: inf
ROOT
ATOM      1  C   UNL     1     -10.854  -5.318 -14.648  1.00  0.00     0.000 C 
ENDROOT
BRANCH   1   2
ATOM      2  C   UNL     1     -10.132  -5.097 -15.991  1.00  0.00     0.000 C 
BRANCH   2   3
ATOM      3  C   UNL     1      -9.181  -3.886 -16.032  1.00  0.00     0.000 C 
BRANCH   3   4
ATOM      4  C   UNL     1      -7.909  -4.014 -15.173  1.00  0.00     0.000 C 
BRANCH   4   5
ATOM      5  C   UNL     1      -6.865  -5.004 -15.734  1.00  0.00     0.000 C 
BRANCH   5   6
ATOM      6  C   UNL     1      -5.440  -4.422 -15.753  1.00  0.00     0.000 C 
BRANCH   6   7
ATOM      7  C   UNL     1      -5.256  -3.295 -14.719  1.00  0.00     0.000 C 
BRANCH   7   8
ATOM      8  C   UNL     1      -4.523  -2.061 -15.280  1.00  0.00     0.000 C 
BRANCH   8   9
ATOM      9  C   UNL     1      -3.529  -2.431 -16.396  1.00  0.00     0.000 C 
BRANCH   9  10
ATOM     10  C   UNL     1      -3.494  -1.390 -17.530  1.00  0.00     0.006 C 
BRANCH  10  11
ATOM     11  C   UNL     1      -3.017  -1.945 -18.882  1.00  0.00     0.053 C 
BRANCH  11  12
ATOM     12  C   UNL     1      -1.551  -1.727 -19.096  1.00  0.00     0.041 C 
ATOM     13  O   UNL     1      -0.928  -2.407 -19.955  1.00  0.00    -0.550 OA
ATOM     14  O   UNL     1      -0.874  -0.764 -18.355  1.00  0.00    -0.550 OA
ENDBRANCH  11  12
ENDBRANCH  10  11
ENDBRANCH   9  10
ENDBRANCH   8   9
ENDBRANCH   7   8
ENDBRANCH   6   7
ENDBRANCH   5   6
ENDBRANCH   4   5
ENDBRANCH   3   4
ENDBRANCH   2   3
ENDBRANCH   1   2
BRANCH   1  15
ATOM     15  C   UNL     1     -10.612  -6.716 -14.058  1.00  0.00     0.000 C 
BRANCH  15  16
ATOM     16  C   UNL     1      -9.680  -7.536 -14.963  1.00  0.00     0.000 C 
BRANCH  16  17
ATOM     17  C   UNL     1      -8.384  -7.956 -14.253  1.00  0.00     0.000 C 
BRANCH  17  18
ATOM     18  C   UNL     1      -8.131  -7.155 -12.963  1.00  0.00    -0.000 C 
BRANCH  18  19
ATOM     19  C   UNL     1      -6.639  -6.864 -12.730  1.00  0.00    -0.000 C 
BRANCH  19  20
ATOM     20  C   UNL     1      -6.398  -5.922 -11.538  1.00  0.00    -0.000 C 
BRANCH  20  21
ATOM     21  C   UNL     1      -7.041  -4.537 -11.732  1.00  0.00    -0.000 C 
BRANCH  21  22
ATOM     22  C   UNL     1      -6.559  -3.448 -10.752  1.00  0.00    -0.000 C 
BRANCH  22  23
ATOM     23  C   UNL     1      -6.215  -2.089 -11.397  1.00  0.00    -0.000 C 
BRANCH  23  24
ATOM     24  C   UNL     1      -7.035  -0.895 -10.877  1.00  0.00    -0.000 C 
BRANCH  24  25
ATOM     25  C   UNL     1      -6.678  -0.506  -9.436  1.00  0.00    -0.003 C 
ATOM     26  C   UNL     1      -6.421   0.994  -9.322  1.00  0.00     0.004 C 
ENDBRANCH  24  25
ENDBRANCH  23  24
ENDBRANCH  22  23
ENDBRANCH  21  22
ENDBRANCH  20  21
ENDBRANCH  19  20
ENDBRANCH  18  19
ENDBRANCH  17  18
ENDBRANCH  16  17
ENDBRANCH  15  16
ENDBRANCH   1  15
TORSDOF 22
ENDMDL
MODEL 6
REMARK VINA RESULT:    -4.829      3.280      6.429
REMARK INTER + INTRA:         -13.711
REMARK INTER:                 -10.035
REMARK INTRA:                  -3.675
REMARK UNBOUND:                -2.671
REMARK SMILES CCCCCCCCCCCCCCCCCCCCCCCC(=O)[O-]
REMARK SMILES IDX 13 1 14 2 15 3 16 4 17 5 18 6 19 7 20 8 21 9 22 10 23 11
REMARK SMILES IDX 24 12 25 13 26 14 12 15 11 16 10 17 9 18 8 19 7 20 6 21 5 22
REMARK SMILES IDX 4 23 3 24 2 25 1 26
REMARK H PARENT
REMARK Flexibility Score: inf
ROOT
ATOM      1  C   UNL     1      -6.417  -1.288  -9.974  1.00  0.00     0.000 C 
ENDROOT
BRANCH   1   2
ATOM      2  C   UNL     1      -5.788   0.058  -9.564  1.00  0.00     0.000 C 
BRANCH   2   3
ATOM      3  C   UNL     1      -5.323   0.947 -10.733  1.00  0.00     0.000 C 
BRANCH   3   4
ATOM      4  C   UNL     1      -3.906   0.656 -11.263  1.00  0.00     0.000 C 
BRANCH   4   5
ATOM      5  C   UNL     1      -3.144  -0.425 -10.467  1.00  0.00     0.000 C 
BRANCH   5   6
ATOM      6  C   UNL     1      -2.969  -1.736 -11.257  1.00  0.00     0.000 C 
BRANCH   6   7
ATOM      7  C   UNL     1      -3.245  -1.552 -12.761  1.00  0.00     0.000 C 
BRANCH   7   8
ATOM      8  C   UNL     1      -4.125  -2.664 -13.364  1.00  0.00     0.000 C 
BRANCH   8   9
ATOM      9  C   UNL     1      -4.880  -2.191 -14.619  1.00  0.00     0.000 C 
BRANCH   9  10
ATOM     10  C   UNL     1      -4.289  -2.766 -15.920  1.00  0.00     0.006 C 
BRANCH  10  11
ATOM     11  C   UNL     1      -3.721  -1.706 -16.878  1.00  0.00     0.053 C 
BRANCH  11  12
ATOM     12  C   UNL     1      -2.228  -1.619 -16.801  1.00  0.00     0.041 C 
ATOM     13  O   UNL     1      -1.636  -0.562 -17.149  1.00  0.00    -0.550 OA
ATOM     14  O   UNL     1      -1.490  -2.701 -16.334  1.00  0.00    -0.550 OA
ENDBRANCH  11  12
ENDBRANCH  10  11
ENDBRANCH   9  10
ENDBRANCH   8   9
ENDBRANCH   7   8
ENDBRANCH   6   7
ENDBRANCH   5   6
ENDBRANCH   4   5
ENDBRANCH   3   4
ENDBRANCH   2   3
ENDBRANCH   1   2
BRANCH   1  15
ATOM     15  C   UNL     1      -7.052  -1.254 -11.372  1.00  0.00     0.000 C 
BRANCH  15  16
ATOM     16  C   UNL     1      -7.459  -2.666 -11.821  1.00  0.00     0.000 C 
BRANCH  16  17
ATOM     17  C   UNL     1      -6.939  -3.760 -10.875  1.00  0.00     0.000 C 
BRANCH  17  18
ATOM     18  C   UNL     1      -6.506  -5.032 -11.626  1.00  0.00    -0.000 C 
BRANCH  18  19
ATOM     19  C   UNL     1      -7.349  -5.293 -12.885  1.00  0.00    -0.000 C 
BRANCH  19  20
ATOM     20  C   UNL     1      -6.492  -5.671 -14.105  1.00  0.00    -0.000 C 
BRANCH  20  21
ATOM     21  C   UNL     1      -7.088  -5.166 -15.432  1.00  0.00    -0.000 C 
BRANCH  21  22
ATOM     22  C   UNL     1      -7.939  -3.885 -15.323  1.00  0.00    -0.000 C 
BRANCH  22  23
ATOM     23  C   UNL     1      -9.406  -4.029 -15.777  1.00  0.00    -0.000 C 
BRANCH  23  24
ATOM     24  C   UNL     1     -10.446  -3.988 -14.643  1.00  0.00    -0.000 C 
BRANCH  24  25
ATOM     25  C   UNL     1     -11.554  -5.036 -14.808  1.00  0.00    -0.003 C 
ATOM     26  C   UNL     1     -12.898  -4.492 -14.331  1.00  0.00     0.004 C 
ENDBRANCH  24  25
ENDBRANCH  23  24
ENDBRANCH  22  23
ENDBRANCH  21  22
ENDBRANCH  20  21
ENDBRANCH  19  20
ENDBRANCH  18  19
ENDBRANCH  17  18
ENDBRANCH  16  17
ENDBRANCH  15  16
ENDBRANCH   1  15
TORSDOF 22
ENDMDL
MODEL 7
REMARK VINA RESULT:    -4.821      4.443      8.732
REMARK INTER + INTRA:         -13.693
REMARK INTER:                 -10.377
REMARK INTRA:                  -3.316
REMARK UNBOUND:                -2.671
REMARK SMILES CCCCCCCCCCCCCCCCCCCCCCCC(=O)[O-]
REMARK SMILES IDX 13 1 14 2 15 3 16 4 17 5 18 6 19 7 20 8 21 9 22 10 23 11
REMARK SMILES IDX 24 12 25 13 26 14 12 15 11 16 10 17 9 18 8 19 7 20 6 21 5 22
REMARK SMILES IDX 4 23 3 24 2 25 1 26
REMARK H PARENT
REMARK Flexibility Score: inf
ROOT
ATOM      1  C   UNL     1     -10.333  -7.342 -14.850  1.00  0.00     0.000 C 
ENDROOT
BRANCH   1   2
ATOM      2  C   UNL     1      -8.917  -7.662 -14.332  1.00  0.00     0.000 C 
BRANCH   2   3
ATOM      3  C   UNL     1      -7.816  -7.690 -15.409  1.00  0.00     0.000 C 
BRANCH   3   4
ATOM      4  C   UNL     1      -7.067  -6.361 -15.625  1.00  0.00     0.000 C 
BRANCH   4   5
ATOM      5  C   UNL     1      -5.576  -6.405 -15.227  1.00  0.00     0.000 C 
BRANCH   5   6
ATOM      6  C   UNL     1      -4.763  -5.243 -15.828  1.00  0.00     0.000 C 
BRANCH   6   7
ATOM      7  C   UNL     1      -5.381  -3.870 -15.505  1.00  0.00     0.000 C 
BRANCH   7   8
ATOM      8  C   UNL     1      -4.334  -2.757 -15.304  1.00  0.00     0.000 C 
BRANCH   8   9
ATOM      9  C   UNL     1      -3.887  -2.131 -16.638  1.00  0.00     0.000 C 
BRANCH   9  10
ATOM     10  C   UNL     1      -2.366  -1.904 -16.707  1.00  0.00     0.006 C 
BRANCH  10  11
ATOM     11  C   UNL     1      -1.865  -1.398 -18.069  1.00  0.00     0.053 C 
BRANCH  11  12
ATOM     12  C   UNL     1      -1.254  -2.493 -18.888  1.00  0.00     0.041 C 
ATOM     13  O   UNL     1      -1.084  -3.638 -18.388  1.00  0.00    -0.550 OA
ATOM     14  O   UNL     1      -0.881  -2.254 -20.206  1.00  0.00    -0.550 OA
ENDBRANCH  11  12
ENDBRANCH  10  11
ENDBRANCH   9  10
ENDBRANCH   8   9
ENDBRANCH   7   8
ENDBRANCH   6   7
ENDBRANCH   5   6
ENDBRANCH   4   5
ENDBRANCH   3   4
ENDBRANCH   2   3
ENDBRANCH   1   2
BRANCH   1  15
ATOM     15  C   UNL     1     -11.119  -6.408 -13.918  1.00  0.00     0.000 C 
BRANCH  15  16
ATOM     16  C   UNL     1     -11.834  -5.310 -14.721  1.00  0.00     0.000 C 
BRANCH  16  17
ATOM     17  C   UNL     1     -11.160  -5.033 -16.074  1.00  0.00     0.000 C 
BRANCH  17  18
ATOM     18  C   UNL     1     -10.465  -3.661 -16.117  1.00  0.00    -0.000 C 
BRANCH  18  19
ATOM     19  C   UNL     1      -9.023  -3.711 -15.586  1.00  0.00    -0.000 C 
BRANCH  19  20
ATOM     20  C   UNL     1      -8.939  -3.452 -14.072  1.00  0.00    -0.000 C 
BRANCH  20  21
ATOM     21  C   UNL     1      -7.942  -2.336 -13.712  1.00  0.00    -0.000 C 
BRANCH  21  22
ATOM     22  C   UNL     1      -7.903  -1.949 -12.220  1.00  0.00    -0.000 C 
BRANCH  22  23
ATOM     23  C   UNL     1      -7.189  -2.957 -11.297  1.00  0.00    -0.000 C 
BRANCH  23  24
ATOM     24  C   UNL     1      -5.809  -3.427 -11.789  1.00  0.00    -0.000 C 
BRANCH  24  25
ATOM     25  C   UNL     1      -5.675  -4.956 -11.824  1.00  0.00    -0.003 C 
ATOM     26  C   UNL     1      -7.045  -5.627 -11.800  1.00  0.00     0.004 C 
ENDBRANCH  24  25
ENDBRANCH  23  24
ENDBRANCH  22  23
ENDBRANCH  21  22
ENDBRANCH  20  21
ENDBRANCH  19  20
ENDBRANCH  18  19
ENDBRANCH  17  18
ENDBRANCH  16  17
ENDBRANCH  15  16
ENDBRANCH   1  15
TORSDOF 22
ENDMDL
MODEL 8
REMARK VINA RESULT:    -4.804      3.205      7.163
REMARK INTER + INTRA:         -13.654
REMARK INTER:                 -10.602
REMARK INTRA:                  -3.051
REMARK UNBOUND:                -2.671
REMARK SMILES CCCCCCCCCCCCCCCCCCCCCCCC(=O)[O-]
REMARK SMILES IDX 13 1 14 2 15 3 16 4 17 5 18 6 19 7 20 8 21 9 22 10 23 11
REMARK SMILES IDX 24 12 25 13 26 14 12 15 11 16 10 17 9 18 8 19 7 20 6 21 5 22
REMARK SMILES IDX 4 23 3 24 2 25 1 26
REMARK H PARENT
REMARK Flexibility Score: inf
ROOT
ATOM      1  C   UNL     1      -3.272  -1.980 -13.098  1.00  0.00     0.000 C 
ENDROOT
BRANCH   1   2
ATOM      2  C   UNL     1      -2.809  -3.337 -12.533  1.00  0.00     0.000 C 
BRANCH   2   3
ATOM      3  C   UNL     1      -3.352  -3.683 -11.134  1.00  0.00     0.000 C 
BRANCH   3   4
ATOM      4  C   UNL     1      -4.265  -4.923 -11.067  1.00  0.00     0.000 C 
BRANCH   4   5
ATOM      5  C   UNL     1      -5.617  -4.675 -10.363  1.00  0.00     0.000 C 
BRANCH   5   6
ATOM      6  C   UNL     1      -5.884  -3.182 -10.093  1.00  0.00     0.000 C 
BRANCH   6   7
ATOM      7  C   UNL     1      -7.082  -2.648 -10.901  1.00  0.00     0.000 C 
BRANCH   7   8
ATOM      8  C   UNL     1      -7.106  -1.112 -11.022  1.00  0.00     0.000 C 
BRANCH   8   9
ATOM      9  C   UNL     1      -6.042  -0.442 -10.134  1.00  0.00     0.000 C 
BRANCH   9  10
ATOM     10  C   UNL     1      -5.140   0.530 -10.917  1.00  0.00     0.006 C 
BRANCH  10  11
ATOM     11  C   UNL     1      -5.173   1.977 -10.399  1.00  0.00     0.053 C 
BRANCH  11  12
ATOM     12  C   UNL     1      -6.565   2.527 -10.350  1.00  0.00     0.041 C 
ATOM     13  O   UNL     1      -7.015   3.198 -11.317  1.00  0.00    -0.550 OA
ATOM     14  O   UNL     1      -7.370   2.289  -9.241  1.00  0.00    -0.550 OA
ENDBRANCH  11  12
ENDBRANCH  10  11
ENDBRANCH   9  10
ENDBRANCH   8   9
ENDBRANCH   7   8
ENDBRANCH   6   7
ENDBRANCH   5   6
ENDBRANCH   4   5
ENDBRANCH   3   4
ENDBRANCH   2   3
ENDBRANCH   1   2
BRANCH   1  15
ATOM     15  C   UNL     1      -4.725  -2.001 -13.598  1.00  0.00     0.000 C 
BRANCH  15  16
ATOM     16  C   UNL     1      -4.794  -2.491 -15.053  1.00  0.00     0.000 C 
BRANCH  16  17
ATOM     17  C   UNL     1      -5.576  -3.806 -15.198  1.00  0.00     0.000 C 
BRANCH  17  18
ATOM     18  C   UNL     1      -6.675  -3.960 -14.132  1.00  0.00    -0.000 C 
BRANCH  18  19
ATOM     19  C   UNL     1      -8.043  -3.449 -14.614  1.00  0.00    -0.000 C 
BRANCH  19  20
ATOM     20  C   UNL     1      -8.602  -4.269 -15.790  1.00  0.00    -0.000 C 
BRANCH  20  21
ATOM     21  C   UNL     1     -10.007  -3.812 -16.222  1.00  0.00    -0.000 C 
BRANCH  21  22
ATOM     22  C   UNL     1     -11.116  -4.871 -16.070  1.00  0.00    -0.000 C 
BRANCH  22  23
ATOM     23  C   UNL     1     -11.664  -5.050 -14.640  1.00  0.00    -0.000 C 
BRANCH  23  24
ATOM     24  C   UNL     1     -11.179  -6.315 -13.909  1.00  0.00    -0.000 C 
BRANCH  24  25
ATOM     25  C   UNL     1     -10.336  -7.236 -14.802  1.00  0.00    -0.003 C 
ATOM     26  C   UNL     1     -10.846  -8.673 -14.741  1.00  0.00     0.004 C 
ENDBRANCH  24  25
ENDBRANCH  23  24
ENDBRANCH  22  23
ENDBRANCH  21  22
ENDBRANCH  20  21
ENDBRANCH  19  20
ENDBRANCH  18  19
ENDBRANCH  17  18
ENDBRANCH  16  17
ENDBRANCH  15  16
ENDBRANCH   1  15
TORSDOF 22
ENDMDL
MODEL 9
REMARK VINA RESULT:    -4.747      3.749      7.673
REMARK INTER + INTRA:         -13.524
REMARK INTER:                 -10.054
REMARK INTRA:                  -3.470
REMARK UNBOUND:                -2.671
REMARK SMILES CCCCCCCCCCCCCCCCCCCCCCCC(=O)[O-]
REMARK SMILES IDX 13 1 14 2 15 3 16 4 17 5 18 6 19 7 20 8 21 9 22 10 23 11
REMARK SMILES IDX 24 12 25 13 26 14 12 15 11 16 10 17 9 18 8 19 7 20 6 21 5 22
REMARK SMILES IDX 4 23 3 24 2 25 1 26
REMARK H PARENT
REMARK Flexibility Score: inf
ROOT
ATOM      1  C   UNL     1      -5.493  -4.391 -14.270  1.00  0.00     0.000 C 
ENDROOT
BRANCH   1   2
ATOM      2  C   UNL     1      -5.114  -4.886 -12.860  1.00  0.00     0.000 C 
BRANCH   2   3
ATOM      3  C   UNL     1      -6.287  -5.418 -12.015  1.00  0.00     0.000 C 
BRANCH   3   4
ATOM      4  C   UNL     1      -6.839  -4.439 -10.961  1.00  0.00     0.000 C 
BRANCH   4   5
ATOM      5  C   UNL     1      -5.851  -4.116  -9.819  1.00  0.00     0.000 C 
BRANCH   5   6
ATOM      6  C   UNL     1      -5.483  -2.622  -9.753  1.00  0.00     0.000 C 
BRANCH   6   7
ATOM      7  C   UNL     1      -6.085  -1.820 -10.922  1.00  0.00     0.000 C 
BRANCH   7   8
ATOM      8  C   UNL     1      -7.155  -0.803 -10.482  1.00  0.00     0.000 C 
BRANCH   8   9
ATOM      9  C   UNL     1      -6.827  -0.166  -9.120  1.00  0.00     0.000 C 
BRANCH   9  10
ATOM     10  C   UNL     1      -6.943   1.370  -9.138  1.00  0.00     0.006 C 
BRANCH  10  11
ATOM     11  C   UNL     1      -6.328   2.034 -10.381  1.00  0.00     0.053 C 
BRANCH  11  12
ATOM     12  C   UNL     1      -4.835   1.921 -10.399  1.00  0.00     0.041 C 
ATOM     13  O   UNL     1      -4.241   1.542 -11.444  1.00  0.00    -0.550 OA
ATOM     14  O   UNL     1      -4.097   2.246  -9.266  1.00  0.00    -0.550 OA
ENDBRANCH  11  12
ENDBRANCH  10  11
ENDBRANCH   9  10
ENDBRANCH   8   9
ENDBRANCH   7   8
ENDBRANCH   6   7
ENDBRANCH   5   6
ENDBRANCH   4   5
ENDBRANCH   3   4
ENDBRANCH   2   3
ENDBRANCH   1   2
BRANCH   1  15
ATOM     15  C   UNL     1      -5.861  -2.900 -14.305  1.00  0.00     0.000 C 
BRANCH  15  16
ATOM     16  C   UNL     1      -7.387  -2.715 -14.328  1.00  0.00     0.000 C 
BRANCH  16  17
ATOM     17  C   UNL     1      -8.110  -3.861 -15.054  1.00  0.00     0.000 C 
BRANCH  17  18
ATOM     18  C   UNL     1      -9.534  -3.475 -15.494  1.00  0.00    -0.000 C 
BRANCH  18  19
ATOM     19  C   UNL     1     -10.139  -4.481 -16.487  1.00  0.00    -0.000 C 
BRANCH  19  20
ATOM     20  C   UNL     1     -11.502  -5.024 -16.026  1.00  0.00    -0.000 C 
BRANCH  20  21
ATOM     21  C   UNL     1     -11.495  -5.480 -14.555  1.00  0.00    -0.000 C 
BRANCH  21  22
ATOM     22  C   UNL     1     -10.808  -6.834 -14.292  1.00  0.00    -0.000 C 
BRANCH  22  23
ATOM     23  C   UNL     1      -9.439  -6.751 -13.586  1.00  0.00    -0.000 C 
BRANCH  23  24
ATOM     24  C   UNL     1      -8.399  -7.784 -14.054  1.00  0.00    -0.000 C 
BRANCH  24  25
ATOM     25  C   UNL     1      -7.598  -7.316 -15.276  1.00  0.00    -0.003 C 
ATOM     26  C   UNL     1      -8.079  -8.015 -16.545  1.00  0.00     0.004 C 
ENDBRANCH  24  25
ENDBRANCH  23  24
ENDBRANCH  22  23
ENDBRANCH  21  22
ENDBRANCH  20  21
ENDBRANCH  19  20
ENDBRANCH  18  19
ENDBRANCH  17  18
ENDBRANCH  16  17
ENDBRANCH  15  16
ENDBRANCH   1  15
TORSDOF 22
ENDMDL
