MODEL 1
REMARK VINA RESULT:    -5.677      0.000      0.000
REMARK INTER + INTRA:          -9.380
REMARK INTER:                  -8.332
REMARK INTRA:                  -1.048
REMARK UNBOUND:                -1.048
REMARK SMILES CC(C)COC(=O)c1ccccc1C(=O)OCC(C)C
REMARK SMILES IDX 8 1 9 2 10 3 11 4 12 5 13 6 6 7 7 8 5 9 4 10 2 11 1 12 3 13
REMARK SMILES IDX 14 14 15 15 16 16 17 17 18 18 19 19 20 20
REMARK H PARENT
REMARK Flexibility Score: inf
ROOT
ATOM      1  C   UNL     1     185.328 190.868 189.726  1.00  0.00     0.074 A 
ATOM      2  C   UNL     1     185.763 191.785 190.700  1.00  0.00     0.016 A 
ATOM      3  C   UNL     1     186.034 193.111 190.362  1.00  0.00     0.001 A 
ATOM      4  C   UNL     1     185.875 193.543 189.047  1.00  0.00     0.001 A 
ATOM      5  C   UNL     1     185.466 192.645 188.060  1.00  0.00     0.016 A 
ATOM      6  C   UNL     1     185.210 191.298 188.374  1.00  0.00     0.074 A 
ENDROOT
BRANCH   1   7
ATOM      7  C   UNL     1     184.949 189.510 190.177  1.00  0.00     0.339 C 
ATOM      8  O   UNL     1     185.819 188.727 190.647  1.00  0.00    -0.246 OA
BRANCH   7   9
ATOM      9  O   UNL     1     183.626 189.080 190.024  1.00  0.00    -0.462 OA
BRANCH   9  10
ATOM     10  C   UNL     1     183.063 188.029 190.804  1.00  0.00     0.236 C 
BRANCH  10  11
ATOM     11  C   UNL     1     182.872 186.776 189.936  1.00  0.00     0.021 C 
ATOM     12  C   UNL     1     181.488 186.154 190.164  1.00  0.00     0.011 C 
ATOM     13  C   UNL     1     183.065 187.116 188.454  1.00  0.00     0.011 C 
ENDBRANCH  10  11
ENDBRANCH   9  10
ENDBRANCH   7   9
ENDBRANCH   1   7
BRANCH   6  14
ATOM     14  C   UNL     1     184.890 190.378 187.260  1.00  0.00     0.339 C 
ATOM     15  O   UNL     1     183.706 190.274 186.837  1.00  0.00    -0.246 OA
BRANCH  14  16
ATOM     16  O   UNL     1     185.901 189.577 186.717  1.00  0.00    -0.462 OA
BRANCH  16  17
ATOM     17  C   UNL     1     186.366 189.727 185.379  1.00  0.00     0.236 C 
BRANCH  17  18
ATOM     18  C   UNL     1     187.313 190.933 185.284  1.00  0.00     0.021 C 
ATOM     19  C   UNL     1     188.390 190.856 186.373  1.00  0.00     0.011 C 
ATOM     20  C   UNL     1     187.962 191.017 183.896  1.00  0.00     0.011 C 
ENDBRANCH  17  18
ENDBRANCH  16  17
ENDBRANCH  14  16
ENDBRANCH   6  14
TORSDOF 8
ENDMDL
MODEL 2
REMARK VINA RESULT:    -5.444      0.252      5.557
REMARK INTER + INTRA:          -9.037
REMARK INTER:                  -8.148
REMARK INTRA:                  -0.890
REMARK UNBOUND:                -1.048
REMARK SMILES CC(C)COC(=O)c1ccccc1C(=O)OCC(C)C
REMARK SMILES IDX 8 1 9 2 10 3 11 4 12 5 13 6 6 7 7 8 5 9 4 10 2 11 1 12 3 13
REMARK SMILES IDX 14 14 15 15 16 16 17 17 18 18 19 19 20 20
REMARK H PARENT
REMARK Flexibility Score: inf
ROOT
ATOM      1  C   UNL     1     185.335 191.288 188.466  1.00  0.00     0.074 A 
ATOM      2  C   UNL     1     185.604 192.635 188.162  1.00  0.00     0.016 A 
ATOM      3  C   UNL     1     185.980 193.532 189.163  1.00  0.00     0.001 A 
ATOM      4  C   UNL     1     186.093 193.098 190.482  1.00  0.00     0.001 A 
ATOM      5  C   UNL     1     185.809 191.772 190.810  1.00  0.00     0.016 A 
ATOM      6  C   UNL     1     185.405 190.857 189.820  1.00  0.00     0.074 A 
ENDROOT
BRANCH   1   7
ATOM      7  C   UNL     1     185.055 190.370 187.339  1.00  0.00     0.339 C 
ATOM      8  O   UNL     1     183.871 190.185 186.946  1.00  0.00    -0.246 OA
BRANCH   7   9
ATOM      9  O   UNL     1     186.109 189.662 186.753  1.00  0.00    -0.462 OA
BRANCH   9  10
ATOM     10  C   UNL     1     186.394 189.720 185.359  1.00  0.00     0.236 C 
BRANCH  10  11
ATOM     11  C   UNL     1     187.846 190.171 185.138  1.00  0.00     0.021 C 
ATOM     12  C   UNL     1     187.935 191.209 184.012  1.00  0.00     0.011 C 
ATOM     13  C   UNL     1     188.434 190.739 186.434  1.00  0.00     0.011 C 
ENDBRANCH  10  11
ENDBRANCH   9  10
ENDBRANCH   7   9
ENDBRANCH   1   7
BRANCH   6  14
ATOM     14  C   UNL     1     185.011 189.499 190.256  1.00  0.00     0.339 C 
ATOM     15  O   UNL     1     185.874 188.699 190.713  1.00  0.00    -0.246 OA
BRANCH  14  16
ATOM     16  O   UNL     1     183.683 189.085 190.102  1.00  0.00    -0.462 OA
BRANCH  16  17
ATOM     17  C   UNL     1     183.111 188.032 190.872  1.00  0.00     0.236 C 
BRANCH  17  18
ATOM     18  C   UNL     1     182.901 186.791 189.990  1.00  0.00     0.021 C 
ATOM     19  C   UNL     1     181.493 186.219 190.197  1.00  0.00     0.011 C 
ATOM     20  C   UNL     1     183.131 187.122 188.510  1.00  0.00     0.011 C 
ENDBRANCH  17  18
ENDBRANCH  16  17
ENDBRANCH  14  16
ENDBRANCH   6  14
TORSDOF 8
ENDMDL
MODEL 3
REMARK VINA RESULT:    -5.414      1.033      5.615
REMARK INTER + INTRA:          -8.994
REMARK INTER:                  -8.003
REMARK INTRA:                  -0.991
REMARK UNBOUND:                -1.048
REMARK SMILES CC(C)COC(=O)c1ccccc1C(=O)OCC(C)C
REMARK SMILES IDX 8 1 9 2 10 3 11 4 12 5 13 6 6 7 7 8 5 9 4 10 2 11 1 12 3 13
REMARK SMILES IDX 14 14 15 15 16 16 17 17 18 18 19 19 20 20
REMARK H PARENT
REMARK Flexibility Score: inf
ROOT
ATOM      1  C   UNL     1     184.240 188.653 188.508  1.00  0.00     0.074 A 
ATOM      2  C   UNL     1     183.418 187.556 188.193  1.00  0.00     0.016 A 
ATOM      3  C   UNL     1     182.892 186.745 189.200  1.00  0.00     0.001 A 
ATOM      4  C   UNL     1     183.177 187.018 190.536  1.00  0.00     0.001 A 
ATOM      5  C   UNL     1     184.008 188.089 190.870  1.00  0.00     0.016 A 
ATOM      6  C   UNL     1     184.568 188.904 189.870  1.00  0.00     0.074 A 
ENDROOT
BRANCH   1   7
ATOM      7  C   UNL     1     184.667 189.536 187.399  1.00  0.00     0.339 C 
ATOM      8  O   UNL     1     183.865 190.376 186.907  1.00  0.00    -0.246 OA
BRANCH   7   9
ATOM      9  O   UNL     1     185.950 189.391 186.861  1.00  0.00    -0.462 OA
BRANCH   9  10
ATOM     10  C   UNL     1     186.259 189.713 185.509  1.00  0.00     0.236 C 
BRANCH  10  11
ATOM     11  C   UNL     1     187.255 190.881 185.461  1.00  0.00     0.021 C 
ATOM     12  C   UNL     1     188.355 190.711 186.518  1.00  0.00     0.011 C 
ATOM     13  C   UNL     1     187.872 191.003 184.064  1.00  0.00     0.011 C 
ENDBRANCH  10  11
ENDBRANCH   9  10
ENDBRANCH   7   9
ENDBRANCH   1   7
BRANCH   6  14
ATOM     14  C   UNL     1     185.529 189.949 190.289  1.00  0.00     0.339 C 
ATOM     15  O   UNL     1     186.743 189.661 190.480  1.00  0.00    -0.246 OA
BRANCH  14  16
ATOM     16  O   UNL     1     185.070 191.248 190.529  1.00  0.00    -0.462 OA
BRANCH  16  17
ATOM     17  C   UNL     1     185.946 192.366 190.645  1.00  0.00     0.236 C 
BRANCH  17  18
ATOM     18  C   UNL     1     185.590 193.423 189.590  1.00  0.00     0.021 C 
ATOM     19  C   UNL     1     186.364 194.721 189.848  1.00  0.00     0.011 C 
ATOM     20  C   UNL     1     185.873 192.907 188.173  1.00  0.00     0.011 C 
ENDBRANCH  17  18
ENDBRANCH  16  17
ENDBRANCH  14  16
ENDBRANCH   6  14
TORSDOF 8
ENDMDL
MODEL 4
REMARK VINA RESULT:    -5.406      1.544      5.181
REMARK INTER + INTRA:          -8.982
REMARK INTER:                  -7.842
REMARK INTRA:                  -1.140
REMARK UNBOUND:                -1.048
REMARK SMILES CC(C)COC(=O)c1ccccc1C(=O)OCC(C)C
REMARK SMILES IDX 8 1 9 2 10 3 11 4 12 5 13 6 6 7 7 8 5 9 4 10 2 11 1 12 3 13
REMARK SMILES IDX 14 14 15 15 16 16 17 17 18 18 19 19 20 20
REMARK H PARENT
REMARK Flexibility Score: inf
ROOT
ATOM      1  C   UNL     1     187.181 191.975 189.108  1.00  0.00     0.074 A 
ATOM      2  C   UNL     1     188.243 192.856 189.384  1.00  0.00     0.016 A 
ATOM      3  C   UNL     1     188.000 194.204 189.649  1.00  0.00     0.001 A 
ATOM      4  C   UNL     1     186.696 194.693 189.645  1.00  0.00     0.001 A 
ATOM      5  C   UNL     1     185.630 193.842 189.352  1.00  0.00     0.016 A 
ATOM      6  C   UNL     1     185.853 192.484 189.058  1.00  0.00     0.074 A 
ENDROOT
BRANCH   1   7
ATOM      7  C   UNL     1     187.501 190.538 188.950  1.00  0.00     0.339 C 
ATOM      8  O   UNL     1     187.800 189.837 189.955  1.00  0.00    -0.246 OA
BRANCH   7   9
ATOM      9  O   UNL     1     187.526 189.976 187.669  1.00  0.00    -0.462 OA
BRANCH   9  10
ATOM     10  C   UNL     1     188.182 190.599 186.569  1.00  0.00     0.236 C 
BRANCH  10  11
ATOM     11  C   UNL     1     187.175 190.862 185.438  1.00  0.00     0.021 C 
ATOM     12  C   UNL     1     187.896 191.154 184.116  1.00  0.00     0.011 C 
ATOM     13  C   UNL     1     186.228 189.669 185.276  1.00  0.00     0.011 C 
ENDBRANCH  10  11
ENDBRANCH   9  10
ENDBRANCH   7   9
ENDBRANCH   1   7
BRANCH   6  14
ATOM     14  C   UNL     1     184.691 191.667 188.646  1.00  0.00     0.339 C 
ATOM     15  O   UNL     1     184.316 191.650 187.441  1.00  0.00    -0.246 OA
BRANCH  14  16
ATOM     16  O   UNL     1     183.972 190.956 189.614  1.00  0.00    -0.462 OA
BRANCH  16  17
ATOM     17  C   UNL     1     184.007 189.535 189.711  1.00  0.00     0.236 C 
BRANCH  17  18
ATOM     18  C   UNL     1     183.634 189.098 191.136  1.00  0.00     0.021 C 
ATOM     19  C   UNL     1     182.902 187.751 191.108  1.00  0.00     0.011 C 
ATOM     20  C   UNL     1     184.879 189.011 192.030  1.00  0.00     0.011 C 
ENDBRANCH  17  18
ENDBRANCH  16  17
ENDBRANCH  14  16
ENDBRANCH   6  14
TORSDOF 8
ENDMDL
MODEL 5
REMARK VINA RESULT:    -5.394      1.070      4.399
REMARK INTER + INTRA:          -8.964
REMARK INTER:                  -7.981
REMARK INTRA:                  -0.983
REMARK UNBOUND:                -1.048
REMARK SMILES CC(C)COC(=O)c1ccccc1C(=O)OCC(C)C
REMARK SMILES IDX 8 1 9 2 10 3 11 4 12 5 13 6 6 7 7 8 5 9 4 10 2 11 1 12 3 13
REMARK SMILES IDX 14 14 15 15 16 16 17 17 18 18 19 19 20 20
REMARK H PARENT
REMARK Flexibility Score: inf
ROOT
ATOM      1  C   UNL     1     184.648 189.054 189.749  1.00  0.00     0.074 A 
ATOM      2  C   UNL     1     184.090 188.309 190.804  1.00  0.00     0.016 A 
ATOM      3  C   UNL     1     183.218 187.250 190.547  1.00  0.00     0.001 A 
ATOM      4  C   UNL     1     182.890 186.919 189.235  1.00  0.00     0.001 A 
ATOM      5  C   UNL     1     183.415 187.658 188.174  1.00  0.00     0.016 A 
ATOM      6  C   UNL     1     184.277 188.744 188.411  1.00  0.00     0.074 A 
ENDROOT
BRANCH   1   7
ATOM      7  C   UNL     1     185.654 190.086 190.090  1.00  0.00     0.339 C 
ATOM      8  O   UNL     1     186.886 189.825 190.018  1.00  0.00    -0.246 OA
BRANCH   7   9
ATOM      9  O   UNL     1     185.226 191.336 190.550  1.00  0.00    -0.462 OA
BRANCH   9  10
ATOM     10  C   UNL     1     186.092 192.463 190.634  1.00  0.00     0.236 C 
BRANCH  10  11
ATOM     11  C   UNL     1     185.675 193.523 189.603  1.00  0.00     0.021 C 
ATOM     12  C   UNL     1     186.514 194.799 189.755  1.00  0.00     0.011 C 
ATOM     13  C   UNL     1     185.804 192.968 188.181  1.00  0.00     0.011 C 
ENDBRANCH  10  11
ENDBRANCH   9  10
ENDBRANCH   7   9
ENDBRANCH   1   7
BRANCH   6  14
ATOM     14  C   UNL     1     184.705 189.553 187.247  1.00  0.00     0.339 C 
ATOM     15  O   UNL     1     183.925 190.407 186.742  1.00  0.00    -0.246 OA
BRANCH  14  16
ATOM     16  O   UNL     1     185.959 189.323 186.673  1.00  0.00    -0.462 OA
BRANCH  16  17
ATOM     17  C   UNL     1     186.279 189.708 185.340  1.00  0.00     0.236 C 
BRANCH  17  18
ATOM     18  C   UNL     1     187.220 190.922 185.356  1.00  0.00     0.021 C 
ATOM     19  C   UNL     1     188.262 190.778 186.472  1.00  0.00     0.011 C 
ATOM     20  C   UNL     1     187.914 191.100 183.999  1.00  0.00     0.011 C 
ENDBRANCH  17  18
ENDBRANCH  16  17
ENDBRANCH  14  16
ENDBRANCH   6  14
TORSDOF 8
ENDMDL
MODEL 6
REMARK VINA RESULT:    -5.351      1.499      2.762
REMARK INTER + INTRA:          -8.902
REMARK INTER:                  -7.712
REMARK INTRA:                  -1.190
REMARK UNBOUND:                -1.048
REMARK SMILES CC(C)COC(=O)c1ccccc1C(=O)OCC(C)C
REMARK SMILES IDX 8 1 9 2 10 3 11 4 12 5 13 6 6 7 7 8 5 9 4 10 2 11 1 12 3 13
REMARK SMILES IDX 14 14 15 15 16 16 17 17 18 18 19 19 20 20
REMARK H PARENT
REMARK Flexibility Score: inf
ROOT
ATOM      1  C   UNL     1     185.773 192.347 189.042  1.00  0.00     0.074 A 
ATOM      2  C   UNL     1     185.542 193.695 189.374  1.00  0.00     0.016 A 
ATOM      3  C   UNL     1     186.606 194.550 189.666  1.00  0.00     0.001 A 
ATOM      4  C   UNL     1     187.914 194.074 189.629  1.00  0.00     0.001 A 
ATOM      5  C   UNL     1     188.165 192.735 189.324  1.00  0.00     0.016 A 
ATOM      6  C   UNL     1     187.106 191.850 189.051  1.00  0.00     0.074 A 
ENDROOT
BRANCH   1   7
ATOM      7  C   UNL     1     184.609 191.529 188.633  1.00  0.00     0.339 C 
ATOM      8  O   UNL     1     184.230 191.516 187.430  1.00  0.00    -0.246 OA
BRANCH   7   9
ATOM      9  O   UNL     1     183.895 190.816 189.602  1.00  0.00    -0.462 OA
BRANCH   9  10
ATOM     10  C   UNL     1     183.910 189.394 189.679  1.00  0.00     0.236 C 
BRANCH  10  11
ATOM     11  C   UNL     1     183.677 188.945 191.129  1.00  0.00     0.021 C 
ATOM     12  C   UNL     1     183.404 187.436 191.201  1.00  0.00     0.011 C 
ATOM     13  C   UNL     1     184.882 189.310 192.003  1.00  0.00     0.011 C 
ENDBRANCH  10  11
ENDBRANCH   9  10
ENDBRANCH   7   9
ENDBRANCH   1   7
BRANCH   6  14
ATOM     14  C   UNL     1     187.436 190.422 188.847  1.00  0.00     0.339 C 
ATOM     15  O   UNL     1     187.705 189.681 189.833  1.00  0.00    -0.246 OA
BRANCH  14  16
ATOM     16  O   UNL     1     187.505 189.910 187.546  1.00  0.00    -0.462 OA
BRANCH  16  17
ATOM     17  C   UNL     1     188.151 190.600 186.480  1.00  0.00     0.236 C 
BRANCH  17  18
ATOM     18  C   UNL     1     187.154 190.858 185.341  1.00  0.00     0.021 C 
ATOM     19  C   UNL     1     187.898 191.180 184.040  1.00  0.00     0.011 C 
ATOM     20  C   UNL     1     186.223 189.654 185.140  1.00  0.00     0.011 C 
ENDBRANCH  17  18
ENDBRANCH  16  17
ENDBRANCH  14  16
ENDBRANCH   6  14
TORSDOF 8
ENDMDL
MODEL 7
REMARK VINA RESULT:    -5.336      1.687      5.010
REMARK INTER + INTRA:          -8.879
REMARK INTER:                  -7.078
REMARK INTRA:                  -1.801
REMARK UNBOUND:                -1.048
REMARK SMILES CC(C)COC(=O)c1ccccc1C(=O)OCC(C)C
REMARK SMILES IDX 8 1 9 2 10 3 11 4 12 5 13 6 6 7 7 8 5 9 4 10 2 11 1 12 3 13
REMARK SMILES IDX 14 14 15 15 16 16 17 17 18 18 19 19 20 20
REMARK H PARENT
REMARK Flexibility Score: inf
ROOT
ATOM      1  C   UNL     1     185.299 191.436 188.460  1.00  0.00     0.074 A 
ATOM      2  C   UNL     1     185.697 192.739 188.106  1.00  0.00     0.016 A 
ATOM      3  C   UNL     1     186.106 193.650 189.080  1.00  0.00     0.001 A 
ATOM      4  C   UNL     1     186.125 193.277 190.422  1.00  0.00     0.001 A 
ATOM      5  C   UNL     1     185.713 191.997 190.798  1.00  0.00     0.016 A 
ATOM      6  C   UNL     1     185.274 191.070 189.835  1.00  0.00     0.074 A 
ENDROOT
BRANCH   1   7
ATOM      7  C   UNL     1     184.990 190.488 187.367  1.00  0.00     0.339 C 
ATOM      8  O   UNL     1     183.812 190.383 186.927  1.00  0.00    -0.246 OA
BRANCH   7   9
ATOM      9  O   UNL     1     186.003 189.665 186.864  1.00  0.00    -0.462 OA
BRANCH   9  10
ATOM     10  C   UNL     1     186.476 189.757 185.523  1.00  0.00     0.236 C 
BRANCH  10  11
ATOM     11  C   UNL     1     187.423 190.957 185.381  1.00  0.00     0.021 C 
ATOM     12  C   UNL     1     188.615 190.835 186.340  1.00  0.00     0.011 C 
ATOM     13  C   UNL     1     187.914 191.084 183.935  1.00  0.00     0.011 C 
ENDBRANCH  10  11
ENDBRANCH   9  10
ENDBRANCH   7   9
ENDBRANCH   1   7
BRANCH   6  14
ATOM     14  C   UNL     1     184.746 189.774 190.315  1.00  0.00     0.339 C 
ATOM     15  O   UNL     1     183.501 189.571 190.365  1.00  0.00    -0.246 OA
BRANCH  14  16
ATOM     16  O   UNL     1     185.635 188.794 190.769  1.00  0.00    -0.462 OA
BRANCH  16  17
ATOM     17  C   UNL     1     186.760 188.362 190.010  1.00  0.00     0.236 C 
BRANCH  17  18
ATOM     18  C   UNL     1     188.060 188.762 190.723  1.00  0.00     0.021 C 
ATOM     19  C   UNL     1     188.739 189.924 189.988  1.00  0.00     0.011 C 
ATOM     20  C   UNL     1     187.792 189.141 192.186  1.00  0.00     0.011 C 
ENDBRANCH  17  18
ENDBRANCH  16  17
ENDBRANCH  14  16
ENDBRANCH   6  14
TORSDOF 8
ENDMDL
MODEL 8
REMARK VINA RESULT:    -5.312      2.197      4.408
REMARK INTER + INTRA:          -8.844
REMARK INTER:                  -7.576
REMARK INTRA:                  -1.268
REMARK UNBOUND:                -1.048
REMARK SMILES CC(C)COC(=O)c1ccccc1C(=O)OCC(C)C
REMARK SMILES IDX 8 1 9 2 10 3 11 4 12 5 13 6 6 7 7 8 5 9 4 10 2 11 1 12 3 13
REMARK SMILES IDX 14 14 15 15 16 16 17 17 18 18 19 19 20 20
REMARK H PARENT
REMARK Flexibility Score: inf
ROOT
ATOM      1  C   UNL     1     183.843 188.261 190.623  1.00  0.00     0.074 A 
ATOM      2  C   UNL     1     182.704 187.644 191.172  1.00  0.00     0.016 A 
ATOM      3  C   UNL     1     181.982 186.700 190.441  1.00  0.00     0.001 A 
ATOM      4  C   UNL     1     182.386 186.357 189.153  1.00  0.00     0.001 A 
ATOM      5  C   UNL     1     183.499 186.973 188.580  1.00  0.00     0.016 A 
ATOM      6  C   UNL     1     184.228 187.945 189.290  1.00  0.00     0.074 A 
ENDROOT
BRANCH   1   7
ATOM      7  C   UNL     1     184.626 189.165 191.497  1.00  0.00     0.339 C 
ATOM      8  O   UNL     1     184.644 190.407 191.276  1.00  0.00    -0.246 OA
BRANCH   7   9
ATOM      9  O   UNL     1     185.394 188.624 192.533  1.00  0.00    -0.462 OA
BRANCH   9  10
ATOM     10  C   UNL     1     186.279 187.524 192.343  1.00  0.00     0.236 C 
BRANCH  10  11
ATOM     11  C   UNL     1     185.698 186.262 192.996  1.00  0.00     0.021 C 
ATOM     12  C   UNL     1     185.399 185.185 191.945  1.00  0.00     0.011 C 
ATOM     13  C   UNL     1     186.658 185.717 194.059  1.00  0.00     0.011 C 
ENDBRANCH  10  11
ENDBRANCH   9  10
ENDBRANCH   7   9
ENDBRANCH   1   7
BRANCH   6  14
ATOM     14  C   UNL     1     185.327 188.637 188.582  1.00  0.00     0.339 C 
ATOM     15  O   UNL     1     186.529 188.420 188.901  1.00  0.00    -0.246 OA
BRANCH  14  16
ATOM     16  O   UNL     1     185.023 189.580 187.594  1.00  0.00    -0.462 OA
BRANCH  16  17
ATOM     17  C   UNL     1     184.437 190.844 187.890  1.00  0.00     0.236 C 
BRANCH  17  18
ATOM     18  C   UNL     1     185.375 191.976 187.444  1.00  0.00     0.021 C 
ATOM     19  C   UNL     1     185.779 192.842 188.644  1.00  0.00     0.011 C 
ATOM     20  C   UNL     1     186.622 191.415 186.747  1.00  0.00     0.011 C 
ENDBRANCH  17  18
ENDBRANCH  16  17
ENDBRANCH  14  16
ENDBRANCH   6  14
TORSDOF 8
ENDMDL
MODEL 9
REMARK VINA RESULT:    -5.311      2.175      6.365
REMARK INTER + INTRA:          -8.842
REMARK INTER:                  -7.556
REMARK INTRA:                  -1.286
REMARK UNBOUND:                -1.048
REMARK SMILES CC(C)COC(=O)c1ccccc1C(=O)OCC(C)C
REMARK SMILES IDX 8 1 9 2 10 3 11 4 12 5 13 6 6 7 7 8 5 9 4 10 2 11 1 12 3 13
REMARK SMILES IDX 14 14 15 15 16 16 17 17 18 18 19 19 20 20
REMARK H PARENT
REMARK Flexibility Score: inf
ROOT
ATOM      1  C   UNL     1     184.170 187.946 189.270  1.00  0.00     0.074 A 
ATOM      2  C   UNL     1     183.470 186.955 188.557  1.00  0.00     0.016 A 
ATOM      3  C   UNL     1     182.373 186.307 189.125  1.00  0.00     0.001 A 
ATOM      4  C   UNL     1     181.955 186.639 190.412  1.00  0.00     0.001 A 
ATOM      5  C   UNL     1     182.648 187.603 191.146  1.00  0.00     0.016 A 
ATOM      6  C   UNL     1     183.772 188.251 190.602  1.00  0.00     0.074 A 
ENDROOT
BRANCH   1   7
ATOM      7  C   UNL     1     185.250 188.672 188.564  1.00  0.00     0.339 C 
ATOM      8  O   UNL     1     186.452 188.525 188.915  1.00  0.00    -0.246 OA
BRANCH   7   9
ATOM      9  O   UNL     1     184.920 189.568 187.542  1.00  0.00    -0.462 OA
BRANCH   9  10
ATOM     10  C   UNL     1     184.309 190.830 187.791  1.00  0.00     0.236 C 
BRANCH  10  11
ATOM     11  C   UNL     1     185.299 191.963 187.485  1.00  0.00     0.021 C 
ATOM     12  C   UNL     1     185.742 192.671 188.772  1.00  0.00     0.011 C 
ATOM     13  C   UNL     1     186.517 191.421 186.730  1.00  0.00     0.011 C 
ENDBRANCH  10  11
ENDBRANCH   9  10
ENDBRANCH   7   9
ENDBRANCH   1   7
BRANCH   6  14
ATOM     14  C   UNL     1     184.524 189.179 191.476  1.00  0.00     0.339 C 
ATOM     15  O   UNL     1     184.513 190.420 191.249  1.00  0.00    -0.246 OA
BRANCH  14  16
ATOM     16  O   UNL     1     185.296 188.664 192.523  1.00  0.00    -0.462 OA
BRANCH  16  17
ATOM     17  C   UNL     1     186.227 187.600 192.343  1.00  0.00     0.236 C 
BRANCH  17  18
ATOM     18  C   UNL     1     185.678 186.311 192.973  1.00  0.00     0.021 C 
ATOM     19  C   UNL     1     185.437 185.248 191.894  1.00  0.00     0.011 C 
ATOM     20  C   UNL     1     186.631 185.773 194.049  1.00  0.00     0.011 C 
ENDBRANCH  17  18
ENDBRANCH  16  17
ENDBRANCH  14  16
ENDBRANCH   6  14
TORSDOF 8
ENDMDL
