MODEL 1
REMARK VINA RESULT:    -3.732      0.000      0.000
REMARK INTER + INTRA:          -8.792
REMARK INTER:                  -6.786
REMARK INTRA:                  -2.006
REMARK UNBOUND:                -2.006
REMARK SMILES CCCCCCCCCCCCCCCC(=O)[O-]
REMARK SMILES IDX 9 1 10 2 11 3 12 4 13 5 14 6 15 7 16 8 17 9 18 10 8 11 7 12
REMARK SMILES IDX 6 13 5 14 4 15 3 16 2 17 1 18
REMARK H PARENT
REMARK Flexibility Score: inf
ROOT
ATOM      1  C   UNL     1      11.824   3.408  51.728  1.00  0.00     0.000 C 
ENDROOT
BRANCH   1   2
ATOM      2  C   UNL     1      11.636   4.447  50.613  1.00  0.00     0.000 C 
BRANCH   2   3
ATOM      3  C   UNL     1      11.625   5.893  51.139  1.00  0.00     0.000 C 
BRANCH   3   4
ATOM      4  C   UNL     1      10.286   6.352  51.753  1.00  0.00     0.000 C 
BRANCH   4   5
ATOM      5  C   UNL     1      10.135   6.090  53.265  1.00  0.00     0.000 C 
BRANCH   5   6
ATOM      6  C   UNL     1       8.911   5.243  53.658  1.00  0.00     0.006 C 
BRANCH   6   7
ATOM      7  C   UNL     1       8.531   5.395  55.135  1.00  0.00     0.053 C 
BRANCH   7   8
ATOM      8  C   UNL     1       7.281   4.628  55.434  1.00  0.00     0.041 C 
ATOM      9  O   UNL     1       7.034   4.253  56.611  1.00  0.00    -0.550 OA
ATOM     10  O   UNL     1       6.363   4.374  54.424  1.00  0.00    -0.550 OA
ENDBRANCH   7   8
ENDBRANCH   6   7
ENDBRANCH   5   6
ENDBRANCH   4   5
ENDBRANCH   3   4
ENDBRANCH   2   3
ENDBRANCH   1   2
BRANCH   1  11
ATOM     11  C   UNL     1      10.620   2.456  51.799  1.00  0.00     0.000 C 
BRANCH  11  12
ATOM     12  C   UNL     1       9.875   2.337  50.460  1.00  0.00    -0.000 C 
BRANCH  12  13
ATOM     13  C   UNL     1       8.383   2.007  50.642  1.00  0.00    -0.000 C 
BRANCH  13  14
ATOM     14  C   UNL     1       7.569   3.214  51.135  1.00  0.00    -0.000 C 
BRANCH  14  15
ATOM     15  C   UNL     1       7.634   4.409  50.166  1.00  0.00    -0.000 C 
BRANCH  15  16
ATOM     16  C   UNL     1       6.790   5.606  50.639  1.00  0.00    -0.000 C 
BRANCH  16  17
ATOM     17  C   UNL     1       5.339   5.261  51.017  1.00  0.00    -0.003 C 
ATOM     18  C   UNL     1       4.405   6.470  50.970  1.00  0.00     0.004 C 
ENDBRANCH  16  17
ENDBRANCH  15  16
ENDBRANCH  14  15
ENDBRANCH  13  14
ENDBRANCH  12  13
ENDBRANCH  11  12
ENDBRANCH   1  11
TORSDOF 14
ENDMDL
MODEL 2
REMARK VINA RESULT:    -3.639      2.230      5.505
REMARK INTER + INTRA:          -8.623
REMARK INTER:                  -6.862
REMARK INTRA:                  -1.761
REMARK UNBOUND:                -2.006
REMARK SMILES CCCCCCCCCCCCCCCC(=O)[O-]
REMARK SMILES IDX 9 1 10 2 11 3 12 4 13 5 14 6 15 7 16 8 17 9 18 10 8 11 7 12
REMARK SMILES IDX 6 13 5 14 4 15 3 16 2 17 1 18
REMARK H PARENT
REMARK Flexibility Score: inf
ROOT
ATOM      1  C   UNL     1       8.491   4.991  54.065  1.00  0.00     0.000 C 
ENDROOT
BRANCH   1   2
ATOM      2  C   UNL     1       7.134   4.320  53.808  1.00  0.00     0.000 C 
BRANCH   2   3
ATOM      3  C   UNL     1       6.789   4.220  52.312  1.00  0.00     0.000 C 
BRANCH   3   4
ATOM      4  C   UNL     1       6.725   2.784  51.753  1.00  0.00     0.000 C 
BRANCH   4   5
ATOM      5  C   UNL     1       6.033   2.645  50.381  1.00  0.00     0.000 C 
BRANCH   5   6
ATOM      6  C   UNL     1       5.192   3.860  49.953  1.00  0.00     0.006 C 
BRANCH   6   7
ATOM      7  C   UNL     1       3.713   3.725  50.334  1.00  0.00     0.053 C 
BRANCH   7   8
ATOM      8  C   UNL     1       3.153   5.054  50.735  1.00  0.00     0.041 C 
ATOM      9  O   UNL     1       1.926   5.294  50.588  1.00  0.00    -0.550 OA
ATOM     10  O   UNL     1       3.976   6.007  51.319  1.00  0.00    -0.550 OA
ENDBRANCH   7   8
ENDBRANCH   6   7
ENDBRANCH   5   6
ENDBRANCH   4   5
ENDBRANCH   3   4
ENDBRANCH   2   3
ENDBRANCH   1   2
BRANCH   1  11
ATOM     11  C   UNL     1       9.171   5.378  52.742  1.00  0.00     0.000 C 
BRANCH  11  12
ATOM     12  C   UNL     1      10.593   5.924  52.941  1.00  0.00    -0.000 C 
BRANCH  12  13
ATOM     13  C   UNL     1      11.197   6.486  51.642  1.00  0.00    -0.000 C 
BRANCH  13  14
ATOM     14  C   UNL     1      10.596   5.838  50.385  1.00  0.00    -0.000 C 
BRANCH  14  15
ATOM     15  C   UNL     1      11.214   4.463  50.073  1.00  0.00    -0.000 C 
BRANCH  15  16
ATOM     16  C   UNL     1      10.157   3.352  49.933  1.00  0.00    -0.000 C 
BRANCH  16  17
ATOM     17  C   UNL     1      10.282   2.212  50.959  1.00  0.00    -0.003 C 
ATOM     18  C   UNL     1      11.414   2.432  51.963  1.00  0.00     0.004 C 
ENDBRANCH  16  17
ENDBRANCH  15  16
ENDBRANCH  14  15
ENDBRANCH  13  14
ENDBRANCH  12  13
ENDBRANCH  11  12
ENDBRANCH   1  11
TORSDOF 14
ENDMDL
MODEL 3
REMARK VINA RESULT:    -3.399      2.324      4.532
REMARK INTER + INTRA:          -8.186
REMARK INTER:                  -6.411
REMARK INTRA:                  -1.776
REMARK UNBOUND:                -2.006
REMARK SMILES CCCCCCCCCCCCCCCC(=O)[O-]
REMARK SMILES IDX 9 1 10 2 11 3 12 4 13 5 14 6 15 7 16 8 17 9 18 10 8 11 7 12
REMARK SMILES IDX 6 13 5 14 4 15 3 16 2 17 1 18
REMARK H PARENT
REMARK Flexibility Score: inf
ROOT
ATOM      1  C   UNL     1      10.364   6.525  51.725  1.00  0.00     0.000 C 
ENDROOT
BRANCH   1   2
ATOM      2  C   UNL     1      10.136   6.703  50.217  1.00  0.00     0.000 C 
BRANCH   2   3
ATOM      3  C   UNL     1       8.694   7.118  49.875  1.00  0.00     0.000 C 
BRANCH   3   4
ATOM      4  C   UNL     1       7.667   5.968  49.879  1.00  0.00     0.000 C 
BRANCH   4   5
ATOM      5  C   UNL     1       6.190   6.409  49.938  1.00  0.00     0.000 C 
BRANCH   5   6
ATOM      6  C   UNL     1       5.256   5.448  50.696  1.00  0.00     0.006 C 
BRANCH   6   7
ATOM      7  C   UNL     1       3.896   6.075  51.023  1.00  0.00     0.053 C 
BRANCH   7   8
ATOM      8  C   UNL     1       2.787   5.150  50.630  1.00  0.00     0.041 C 
ATOM      9  O   UNL     1       1.681   5.615  50.246  1.00  0.00    -0.550 OA
ATOM     10  O   UNL     1       2.991   3.777  50.636  1.00  0.00    -0.550 OA
ENDBRANCH   7   8
ENDBRANCH   6   7
ENDBRANCH   5   6
ENDBRANCH   4   5
ENDBRANCH   3   4
ENDBRANCH   2   3
ENDBRANCH   1   2
BRANCH   1  11
ATOM     11  C   UNL     1      11.742   5.904  52.002  1.00  0.00     0.000 C 
BRANCH  11  12
ATOM     12  C   UNL     1      12.052   4.710  51.085  1.00  0.00    -0.000 C 
BRANCH  12  13
ATOM     13  C   UNL     1      11.441   3.395  51.600  1.00  0.00    -0.000 C 
BRANCH  13  14
ATOM     14  C   UNL     1      10.367   2.835  50.654  1.00  0.00    -0.000 C 
BRANCH  14  15
ATOM     15  C   UNL     1       8.938   3.062  51.179  1.00  0.00    -0.000 C 
BRANCH  15  16
ATOM     16  C   UNL     1       8.904   3.452  52.669  1.00  0.00    -0.000 C 
BRANCH  16  17
ATOM     17  C   UNL     1       7.811   4.467  53.043  1.00  0.00    -0.003 C 
ATOM     18  C   UNL     1       7.722   4.723  54.548  1.00  0.00     0.004 C 
ENDBRANCH  16  17
ENDBRANCH  15  16
ENDBRANCH  14  15
ENDBRANCH  13  14
ENDBRANCH  12  13
ENDBRANCH  11  12
ENDBRANCH   1  11
TORSDOF 14
ENDMDL
MODEL 4
REMARK VINA RESULT:    -3.260      3.603      5.589
REMARK INTER + INTRA:          -7.935
REMARK INTER:                  -7.048
REMARK INTRA:                  -0.887
REMARK UNBOUND:                -2.006
REMARK SMILES CCCCCCCCCCCCCCCC(=O)[O-]
REMARK SMILES IDX 9 1 10 2 11 3 12 4 13 5 14 6 15 7 16 8 17 9 18 10 8 11 7 12
REMARK SMILES IDX 6 13 5 14 4 15 3 16 2 17 1 18
REMARK H PARENT
REMARK Flexibility Score: inf
ROOT
ATOM      1  C   UNL     1       6.367   4.295  52.675  1.00  0.00     0.000 C 
ENDROOT
BRANCH   1   2
ATOM      2  C   UNL     1       7.844   4.325  52.254  1.00  0.00     0.000 C 
BRANCH   2   3
ATOM      3  C   UNL     1       8.116   5.299  51.093  1.00  0.00     0.000 C 
BRANCH   3   4
ATOM      4  C   UNL     1       9.460   6.051  51.176  1.00  0.00     0.000 C 
BRANCH   4   5
ATOM      5  C   UNL     1      10.306   5.744  52.429  1.00  0.00     0.000 C 
BRANCH   5   6
ATOM      6  C   UNL     1      11.636   5.020  52.151  1.00  0.00     0.006 C 
BRANCH   6   7
ATOM      7  C   UNL     1      11.543   4.031  50.984  1.00  0.00     0.053 C 
BRANCH   7   8
ATOM      8  C   UNL     1      11.160   2.672  51.481  1.00  0.00     0.041 C 
ATOM      9  O   UNL     1      10.175   2.069  50.980  1.00  0.00    -0.550 OA
ATOM     10  O   UNL     1      11.924   2.049  52.458  1.00  0.00    -0.550 OA
ENDBRANCH   7   8
ENDBRANCH   6   7
ENDBRANCH   5   6
ENDBRANCH   4   5
ENDBRANCH   3   4
ENDBRANCH   2   3
ENDBRANCH   1   2
BRANCH   1  11
ATOM     11  C   UNL     1       5.446   4.340  51.447  1.00  0.00     0.000 C 
BRANCH  11  12
ATOM     12  C   UNL     1       4.364   5.427  51.552  1.00  0.00    -0.000 C 
BRANCH  12  13
ATOM     13  C   UNL     1       3.310   5.322  50.436  1.00  0.00    -0.000 C 
BRANCH  13  14
ATOM     14  C   UNL     1       2.061   4.544  50.877  1.00  0.00    -0.000 C 
BRANCH  14  15
ATOM     15  C   UNL     1       0.876   4.727  49.912  1.00  0.00    -0.000 C 
BRANCH  15  16
ATOM     16  C   UNL     1      -0.400   5.217  50.619  1.00  0.00    -0.000 C 
BRANCH  16  17
ATOM     17  C   UNL     1      -1.713   4.683  50.021  1.00  0.00    -0.003 C 
ATOM     18  C   UNL     1      -1.866   3.169  50.169  1.00  0.00     0.004 C 
ENDBRANCH  16  17
ENDBRANCH  15  16
ENDBRANCH  14  15
ENDBRANCH  13  14
ENDBRANCH  12  13
ENDBRANCH  11  12
ENDBRANCH   1  11
TORSDOF 14
ENDMDL
MODEL 5
REMARK VINA RESULT:    -3.242      2.817      5.075
REMARK INTER + INTRA:          -7.902
REMARK INTER:                  -6.795
REMARK INTRA:                  -1.106
REMARK UNBOUND:                -2.006
REMARK SMILES CCCCCCCCCCCCCCCC(=O)[O-]
REMARK SMILES IDX 9 1 10 2 11 3 12 4 13 5 14 6 15 7 16 8 17 9 18 10 8 11 7 12
REMARK SMILES IDX 6 13 5 14 4 15 3 16 2 17 1 18
REMARK H PARENT
REMARK Flexibility Score: inf
ROOT
ATOM      1  C   UNL     1       7.019   3.467  52.329  1.00  0.00     0.000 C 
ENDROOT
BRANCH   1   2
ATOM      2  C   UNL     1       6.649   2.408  51.281  1.00  0.00     0.000 C 
BRANCH   2   3
ATOM      3  C   UNL     1       7.867   1.894  50.494  1.00  0.00     0.000 C 
BRANCH   3   4
ATOM      4  C   UNL     1       9.060   2.869  50.432  1.00  0.00     0.000 C 
BRANCH   4   5
ATOM      5  C   UNL     1      10.338   2.387  51.149  1.00  0.00     0.000 C 
BRANCH   5   6
ATOM      6  C   UNL     1      11.211   3.509  51.741  1.00  0.00     0.006 C 
BRANCH   6   7
ATOM      7  C   UNL     1      10.812   4.902  51.240  1.00  0.00     0.053 C 
BRANCH   7   8
ATOM      8  C   UNL     1      10.571   5.822  52.395  1.00  0.00     0.041 C 
ATOM      9  O   UNL     1      11.243   6.881  52.511  1.00  0.00    -0.550 OA
ATOM     10  O   UNL     1       9.568   5.539  53.312  1.00  0.00    -0.550 OA
ENDBRANCH   7   8
ENDBRANCH   6   7
ENDBRANCH   5   6
ENDBRANCH   4   5
ENDBRANCH   3   4
ENDBRANCH   2   3
ENDBRANCH   1   2
BRANCH   1  11
ATOM     11  C   UNL     1       5.974   4.593  52.364  1.00  0.00     0.000 C 
BRANCH  11  12
ATOM     12  C   UNL     1       5.403   4.919  50.975  1.00  0.00    -0.000 C 
BRANCH  12  13
ATOM     13  C   UNL     1       4.421   6.104  51.002  1.00  0.00    -0.000 C 
BRANCH  13  14
ATOM     14  C   UNL     1       3.026   5.725  50.482  1.00  0.00    -0.000 C 
BRANCH  14  15
ATOM     15  C   UNL     1       2.601   4.306  50.903  1.00  0.00    -0.000 C 
BRANCH  15  16
ATOM     16  C   UNL     1       1.217   3.911  50.355  1.00  0.00    -0.000 C 
BRANCH  16  17
ATOM     17  C   UNL     1       0.105   4.944  50.611  1.00  0.00    -0.003 C 
ATOM     18  C   UNL     1      -1.291   4.411  50.291  1.00  0.00     0.004 C 
ENDBRANCH  16  17
ENDBRANCH  15  16
ENDBRANCH  14  15
ENDBRANCH  13  14
ENDBRANCH  12  13
ENDBRANCH  11  12
ENDBRANCH   1  11
TORSDOF 14
ENDMDL
MODEL 6
REMARK VINA RESULT:    -3.184      3.181      5.835
REMARK INTER + INTRA:          -7.796
REMARK INTER:                  -6.742
REMARK INTRA:                  -1.055
REMARK UNBOUND:                -2.006
REMARK SMILES CCCCCCCCCCCCCCCC(=O)[O-]
REMARK SMILES IDX 9 1 10 2 11 3 12 4 13 5 14 6 15 7 16 8 17 9 18 10 8 11 7 12
REMARK SMILES IDX 6 13 5 14 4 15 3 16 2 17 1 18
REMARK H PARENT
REMARK Flexibility Score: inf
ROOT
ATOM      1  C   UNL     1       7.949   6.485  49.888  1.00  0.00     0.000 C 
ENDROOT
BRANCH   1   2
ATOM      2  C   UNL     1       7.453   5.032  49.875  1.00  0.00     0.000 C 
BRANCH   2   3
ATOM      3  C   UNL     1       5.920   4.922  49.951  1.00  0.00     0.000 C 
BRANCH   3   4
ATOM      4  C   UNL     1       5.326   5.079  51.366  1.00  0.00     0.000 C 
BRANCH   4   5
ATOM      5  C   UNL     1       4.028   5.908  51.443  1.00  0.00     0.000 C 
BRANCH   5   6
ATOM      6  C   UNL     1       2.943   5.512  50.425  1.00  0.00     0.006 C 
BRANCH   6   7
ATOM      7  C   UNL     1       2.427   4.083  50.631  1.00  0.00     0.053 C 
BRANCH   7   8
ATOM      8  C   UNL     1       0.931   4.065  50.636  1.00  0.00     0.041 C 
ATOM      9  O   UNL     1       0.284   5.142  50.561  1.00  0.00    -0.550 OA
ATOM     10  O   UNL     1       0.251   2.855  50.669  1.00  0.00    -0.550 OA
ENDBRANCH   7   8
ENDBRANCH   6   7
ENDBRANCH   5   6
ENDBRANCH   4   5
ENDBRANCH   3   4
ENDBRANCH   2   3
ENDBRANCH   1   2
BRANCH   1  11
ATOM     11  C   UNL     1       9.450   6.549  50.208  1.00  0.00     0.000 C 
BRANCH  11  12
ATOM     12  C   UNL     1       9.991   5.237  50.799  1.00  0.00    -0.000 C 
BRANCH  12  13
ATOM     13  C   UNL     1      11.134   5.468  51.803  1.00  0.00    -0.000 C 
BRANCH  13  14
ATOM     14  C   UNL     1      10.629   5.969  53.165  1.00  0.00    -0.000 C 
BRANCH  14  15
ATOM     15  C   UNL     1       9.265   5.368  53.550  1.00  0.00    -0.000 C 
BRANCH  15  16
ATOM     16  C   UNL     1       8.834   5.735  54.982  1.00  0.00    -0.000 C 
BRANCH  16  17
ATOM     17  C   UNL     1       7.786   4.794  55.599  1.00  0.00    -0.003 C 
ATOM     18  C   UNL     1       6.606   4.518  54.667  1.00  0.00     0.004 C 
ENDBRANCH  16  17
ENDBRANCH  15  16
ENDBRANCH  14  15
ENDBRANCH  13  14
ENDBRANCH  12  13
ENDBRANCH  11  12
ENDBRANCH   1  11
TORSDOF 14
ENDMDL
MODEL 7
REMARK VINA RESULT:    -3.061      3.523      6.637
REMARK INTER + INTRA:          -7.573
REMARK INTER:                  -6.665
REMARK INTRA:                  -0.908
REMARK UNBOUND:                -2.006
REMARK SMILES CCCCCCCCCCCCCCCC(=O)[O-]
REMARK SMILES IDX 9 1 10 2 11 3 12 4 13 5 14 6 15 7 16 8 17 9 18 10 8 11 7 12
REMARK SMILES IDX 6 13 5 14 4 15 3 16 2 17 1 18
REMARK H PARENT
REMARK Flexibility Score: inf
ROOT
ATOM      1  C   UNL     1       6.421   4.104  52.768  1.00  0.00     0.000 C 
ENDROOT
BRANCH   1   2
ATOM      2  C   UNL     1       5.663   4.142  51.433  1.00  0.00     0.000 C 
BRANCH   2   3
ATOM      3  C   UNL     1       5.413   5.574  50.927  1.00  0.00     0.000 C 
BRANCH   3   4
ATOM      4  C   UNL     1       3.942   6.035  50.978  1.00  0.00     0.000 C 
BRANCH   4   5
ATOM      5  C   UNL     1       2.955   5.167  50.172  1.00  0.00     0.000 C 
BRANCH   5   6
ATOM      6  C   UNL     1       1.977   4.337  51.024  1.00  0.00     0.006 C 
BRANCH   6   7
ATOM      7  C   UNL     1       0.921   3.612  50.181  1.00  0.00     0.053 C 
BRANCH   7   8
ATOM      8  C   UNL     1      -0.435   4.195  50.430  1.00  0.00     0.041 C 
ATOM      9  O   UNL     1      -0.555   5.406  50.751  1.00  0.00    -0.550 OA
ATOM     10  O   UNL     1      -1.569   3.413  50.256  1.00  0.00    -0.550 OA
ENDBRANCH   7   8
ENDBRANCH   6   7
ENDBRANCH   5   6
ENDBRANCH   4   5
ENDBRANCH   3   4
ENDBRANCH   2   3
ENDBRANCH   1   2
BRANCH   1  11
ATOM     11  C   UNL     1       7.910   3.797  52.545  1.00  0.00     0.000 C 
BRANCH  11  12
ATOM     12  C   UNL     1       8.152   2.857  51.353  1.00  0.00    -0.000 C 
BRANCH  12  13
ATOM     13  C   UNL     1       9.613   2.879  50.870  1.00  0.00    -0.000 C 
BRANCH  13  14
ATOM     14  C   UNL     1      10.617   2.885  52.033  1.00  0.00    -0.000 C 
BRANCH  14  15
ATOM     15  C   UNL     1      11.831   3.792  51.765  1.00  0.00    -0.000 C 
BRANCH  15  16
ATOM     16  C   UNL     1      11.500   5.289  51.907  1.00  0.00    -0.000 C 
BRANCH  16  17
ATOM     17  C   UNL     1      11.547   6.087  50.592  1.00  0.00    -0.003 C 
ATOM     18  C   UNL     1      12.930   6.664  50.292  1.00  0.00     0.004 C 
ENDBRANCH  16  17
ENDBRANCH  15  16
ENDBRANCH  14  15
ENDBRANCH  13  14
ENDBRANCH  12  13
ENDBRANCH  11  12
ENDBRANCH   1  11
TORSDOF 14
ENDMDL
MODEL 8
REMARK VINA RESULT:    -2.914      4.087      6.316
REMARK INTER + INTRA:          -7.305
REMARK INTER:                  -6.312
REMARK INTRA:                  -0.993
REMARK UNBOUND:                -2.006
REMARK SMILES CCCCCCCCCCCCCCCC(=O)[O-]
REMARK SMILES IDX 9 1 10 2 11 3 12 4 13 5 14 6 15 7 16 8 17 9 18 10 8 11 7 12
REMARK SMILES IDX 6 13 5 14 4 15 3 16 2 17 1 18
REMARK H PARENT
REMARK Flexibility Score: inf
ROOT
ATOM      1  C   UNL     1       5.539   5.230  51.363  1.00  0.00     0.000 C 
ENDROOT
BRANCH   1   2
ATOM      2  C   UNL     1       5.290   3.746  51.665  1.00  0.00     0.000 C 
BRANCH   2   3
ATOM      3  C   UNL     1       6.555   3.011  52.143  1.00  0.00     0.000 C 
BRANCH   3   4
ATOM      4  C   UNL     1       7.383   2.347  51.025  1.00  0.00     0.000 C 
BRANCH   4   5
ATOM      5  C   UNL     1       8.856   2.798  50.944  1.00  0.00     0.000 C 
BRANCH   5   6
ATOM      6  C   UNL     1       9.067   4.322  50.917  1.00  0.00     0.006 C 
BRANCH   6   7
ATOM      7  C   UNL     1       9.787   4.845  52.166  1.00  0.00     0.053 C 
BRANCH   7   8
ATOM      8  C   UNL     1      11.208   5.186  51.844  1.00  0.00     0.041 C 
ATOM      9  O   UNL     1      11.522   6.364  51.529  1.00  0.00    -0.550 OA
ATOM     10  O   UNL     1      12.195   4.215  51.944  1.00  0.00    -0.550 OA
ENDBRANCH   7   8
ENDBRANCH   6   7
ENDBRANCH   5   6
ENDBRANCH   4   5
ENDBRANCH   3   4
ENDBRANCH   2   3
ENDBRANCH   1   2
BRANCH   1  11
ATOM     11  C   UNL     1       4.218   5.963  51.087  1.00  0.00     0.000 C 
BRANCH  11  12
ATOM     12  C   UNL     1       3.359   5.262  50.023  1.00  0.00    -0.000 C 
BRANCH  12  13
ATOM     13  C   UNL     1       1.895   5.089  50.466  1.00  0.00    -0.000 C 
BRANCH  13  14
ATOM     14  C   UNL     1       1.629   3.713  51.095  1.00  0.00    -0.000 C 
BRANCH  14  15
ATOM     15  C   UNL     1       1.164   2.669  50.064  1.00  0.00    -0.000 C 
BRANCH  15  16
ATOM     16  C   UNL     1      -0.122   1.938  50.493  1.00  0.00    -0.000 C 
BRANCH  16  17
ATOM     17  C   UNL     1      -1.424   2.706  50.210  1.00  0.00    -0.003 C 
ATOM     18  C   UNL     1      -2.565   2.316  51.148  1.00  0.00     0.004 C 
ENDBRANCH  16  17
ENDBRANCH  15  16
ENDBRANCH  14  15
ENDBRANCH  13  14
ENDBRANCH  12  13
ENDBRANCH  11  12
ENDBRANCH   1  11
TORSDOF 14
ENDMDL
