MODEL 1
REMARK VINA RESULT:    -0.597      0.000      0.000
REMARK INTER + INTRA:          -0.842
REMARK INTER:                  -0.771
REMARK INTRA:                  -0.070
REMARK UNBOUND:                -0.070
REMARK SMILES CCCCCCC(=O)[O-]
REMARK SMILES IDX 5 1 6 2 7 3 8 4 9 5 4 6 3 7 2 8 1 9
REMARK H PARENT
REMARK Flexibility Score: inf
ROOT
ATOM      1  C   UNL     1     -19.125  16.598  15.956  1.00  0.00     0.006 C 
ENDROOT
BRANCH   1   2
ATOM      2  C   UNL     1     -19.042  17.435  17.236  1.00  0.00     0.053 C 
BRANCH   2   3
ATOM      3  C   UNL     1     -18.999  16.550  18.439  1.00  0.00     0.041 C 
ATOM      4  O   UNL     1     -18.967  17.051  19.594  1.00  0.00    -0.550 OA
ATOM      5  O   UNL     1     -19.046  15.169  18.290  1.00  0.00    -0.550 OA
ENDBRANCH   2   3
ENDBRANCH   1   2
BRANCH   1   6
ATOM      6  C   UNL     1     -19.119  17.492  14.710  1.00  0.00     0.000 C 
BRANCH   6   7
ATOM      7  C   UNL     1     -18.322  16.841  13.570  1.00  0.00    -0.000 C 
BRANCH   7   8
ATOM      8  C   UNL     1     -18.610  17.486  12.206  1.00  0.00    -0.003 C 
ATOM      9  C   UNL     1     -17.859  16.807  11.060  1.00  0.00     0.004 C 
ENDBRANCH   7   8
ENDBRANCH   6   7
ENDBRANCH   1   6
TORSDOF 5
ENDMDL
MODEL 2
REMARK VINA RESULT:     0.361      3.345      4.843
REMARK INTER + INTRA:           0.396
REMARK INTER:                   0.548
REMARK INTRA:                  -0.153
REMARK UNBOUND:                -0.070
REMARK SMILES CCCCCCC(=O)[O-]
REMARK SMILES IDX 5 1 6 2 7 3 8 4 9 5 4 6 3 7 2 8 1 9
REMARK H PARENT
REMARK Flexibility Score: inf
ROOT
ATOM      1  C   UNL     1     -19.108  18.492  19.729  1.00  0.00     0.006 C 
ENDROOT
BRANCH   1   2
ATOM      2  C   UNL     1     -18.345  18.864  21.004  1.00  0.00     0.053 C 
BRANCH   2   3
ATOM      3  C   UNL     1     -18.605  20.289  21.374  1.00  0.00     0.041 C 
ATOM      4  O   UNL     1     -18.590  20.643  22.582  1.00  0.00    -0.550 OA
ATOM      5  O   UNL     1     -18.816  21.238  20.382  1.00  0.00    -0.550 OA
ENDBRANCH   2   3
ENDBRANCH   1   2
BRANCH   1   6
ATOM      6  C   UNL     1     -19.122  16.973  19.519  1.00  0.00     0.000 C 
BRANCH   6   7
ATOM      7  C   UNL     1     -18.768  16.616  18.068  1.00  0.00    -0.000 C 
BRANCH   7   8
ATOM      8  C   UNL     1     -19.125  17.737  17.080  1.00  0.00    -0.003 C 
ATOM      9  C   UNL     1     -19.092  17.275  15.623  1.00  0.00     0.004 C 
ENDBRANCH   7   8
ENDBRANCH   6   7
ENDBRANCH   1   6
TORSDOF 5
ENDMDL
MODEL 3
REMARK VINA RESULT:     1.098      2.024      3.271
REMARK INTER + INTRA:           1.348
REMARK INTER:                   1.474
REMARK INTRA:                  -0.125
REMARK UNBOUND:                -0.070
REMARK SMILES CCCCCCC(=O)[O-]
REMARK SMILES IDX 5 1 6 2 7 3 8 4 9 5 4 6 3 7 2 8 1 9
REMARK H PARENT
REMARK Flexibility Score: inf
ROOT
ATOM      1  C   UNL     1     -18.136  16.878  12.814  1.00  0.00     0.006 C 
ENDROOT
BRANCH   1   2
ATOM      2  C   UNL     1     -19.115  16.352  13.869  1.00  0.00     0.053 C 
BRANCH   2   3
ATOM      3  C   UNL     1     -19.082  17.213  15.090  1.00  0.00     0.041 C 
ATOM      4  O   UNL     1     -19.123  18.467  14.984  1.00  0.00    -0.550 OA
ATOM      5  O   UNL     1     -19.058  16.631  16.352  1.00  0.00    -0.550 OA
ENDBRANCH   2   3
ENDBRANCH   1   2
BRANCH   1   6
ATOM      6  C   UNL     1     -18.885  17.502  11.631  1.00  0.00     0.000 C 
BRANCH   6   7
ATOM      7  C   UNL     1     -18.028  17.463  10.357  1.00  0.00    -0.000 C 
BRANCH   7   8
ATOM      8  C   UNL     1     -16.868  16.460  10.456  1.00  0.00    -0.003 C 
ATOM      9  C   UNL     1     -17.260  15.055  10.001  1.00  0.00     0.004 C 
ENDBRANCH   7   8
ENDBRANCH   6   7
ENDBRANCH   1   6
TORSDOF 5
ENDMDL
MODEL 4
REMARK VINA RESULT:     1.098      4.400      5.634
REMARK INTER + INTRA:           1.349
REMARK INTER:                   1.486
REMARK INTRA:                  -0.137
REMARK UNBOUND:                -0.070
REMARK SMILES CCCCCCC(=O)[O-]
REMARK SMILES IDX 5 1 6 2 7 3 8 4 9 5 4 6 3 7 2 8 1 9
REMARK H PARENT
REMARK Flexibility Score: inf
ROOT
ATOM      1  C   UNL     1     -18.426  18.248  20.846  1.00  0.00     0.006 C 
ENDROOT
BRANCH   1   2
ATOM      2  C   UNL     1     -19.119  19.612  20.783  1.00  0.00     0.053 C 
BRANCH   2   3
ATOM      3  C   UNL     1     -18.497  20.562  21.755  1.00  0.00     0.041 C 
ATOM      4  O   UNL     1     -18.537  21.802  21.544  1.00  0.00    -0.550 OA
ATOM      5  O   UNL     1     -17.915  20.082  22.922  1.00  0.00    -0.550 OA
ENDBRANCH   2   3
ENDBRANCH   1   2
BRANCH   1   6
ATOM      6  C   UNL     1     -19.122  17.233  19.932  1.00  0.00     0.000 C 
BRANCH   6   7
ATOM      7  C   UNL     1     -18.760  17.481  18.460  1.00  0.00    -0.000 C 
BRANCH   7   8
ATOM      8  C   UNL     1     -19.063  16.269  17.566  1.00  0.00    -0.003 C 
ATOM      9  C   UNL     1     -19.125  14.957  18.348  1.00  0.00     0.004 C 
ENDBRANCH   7   8
ENDBRANCH   6   7
ENDBRANCH   1   6
TORSDOF 5
ENDMDL
MODEL 5
REMARK VINA RESULT:     2.402      2.886      5.830
REMARK INTER + INTRA:           3.034
REMARK INTER:                   3.137
REMARK INTRA:                  -0.102
REMARK UNBOUND:                -0.070
REMARK SMILES CCCCCCC(=O)[O-]
REMARK SMILES IDX 5 1 6 2 7 3 8 4 9 5 4 6 3 7 2 8 1 9
REMARK H PARENT
REMARK Flexibility Score: inf
ROOT
ATOM      1  C   UNL     1     -18.265  16.732  17.502  1.00  0.00     0.006 C 
ENDROOT
BRANCH   1   2
ATOM      2  C   UNL     1     -19.116  16.142  16.374  1.00  0.00     0.053 C 
BRANCH   2   3
ATOM      3  C   UNL     1     -19.062  17.017  15.163  1.00  0.00     0.041 C 
ATOM      4  O   UNL     1     -18.971  18.267  15.288  1.00  0.00    -0.550 OA
ATOM      5  O   UNL     1     -19.063  16.451  13.894  1.00  0.00    -0.550 OA
ENDBRANCH   2   3
ENDBRANCH   1   2
BRANCH   1   6
ATOM      6  C   UNL     1     -19.125  17.057  18.729  1.00  0.00     0.000 C 
BRANCH   6   7
ATOM      7  C   UNL     1     -18.272  17.665  19.852  1.00  0.00    -0.000 C 
BRANCH   7   8
ATOM      8  C   UNL     1     -19.024  18.743  20.648  1.00  0.00    -0.003 C 
ATOM      9  C   UNL     1     -18.120  19.499  21.621  1.00  0.00     0.004 C 
ENDBRANCH   7   8
ENDBRANCH   6   7
ENDBRANCH   1   6
TORSDOF 5
ENDMDL
