MODEL 1
REMARK VINA RESULT:    -5.047      0.000      0.000
REMARK INTER + INTRA:         -10.859
REMARK INTER:                  -9.178
REMARK INTRA:                  -1.681
REMARK UNBOUND:                -1.681
REMARK SMILES CCCCCCCCCCCCCC[C@@H](C)C(=O)[O-]
REMARK SMILES IDX 9 1 10 2 11 3 12 4 13 5 14 6 15 7 16 8 17 9 18 10 19 11 8 12
REMARK SMILES IDX 7 13 6 14 5 15 4 16 3 17 2 18 1 19
REMARK H PARENT
REMARK Flexibility Score: inf
ROOT
ATOM      1  C   UNL     1     161.942 168.052 160.225  1.00  0.00     0.000 C 
ENDROOT
BRANCH   1   2
ATOM      2  C   UNL     1     160.540 167.424 160.334  1.00  0.00     0.000 C 
BRANCH   2   3
ATOM      3  C   UNL     1     160.276 166.655 161.639  1.00  0.00     0.000 C 
BRANCH   3   4
ATOM      4  C   UNL     1     159.824 165.207 161.396  1.00  0.00     0.000 C 
BRANCH   4   5
ATOM      5  C   UNL     1     160.304 164.704 160.026  1.00  0.00     0.001 C 
BRANCH   5   6
ATOM      6  C   UNL     1     161.434 163.660 160.150  1.00  0.00     0.009 C 
BRANCH   6   7
ATOM      7  C   UNL     1     161.220 162.407 159.272  1.00  0.00     0.032 C 
ATOM      8  C   UNL     1     160.181 162.635 158.168  1.00  0.00     0.014 C 
BRANCH   7   9
ATOM      9  C   UNL     1     162.522 161.975 158.656  1.00  0.00     0.044 C 
ATOM     10  O   UNL     1     163.239 162.799 158.030  1.00  0.00    -0.550 OA
ATOM     11  O   UNL     1     162.926 160.648 158.747  1.00  0.00    -0.550 OA
ENDBRANCH   7   9
ENDBRANCH   6   7
ENDBRANCH   5   6
ENDBRANCH   4   5
ENDBRANCH   3   4
ENDBRANCH   2   3
ENDBRANCH   1   2
BRANCH   1  12
ATOM     12  C   UNL     1     163.007 167.098 159.645  1.00  0.00     0.000 C 
BRANCH  12  13
ATOM     13  C   UNL     1     163.118 167.205 158.116  1.00  0.00    -0.000 C 
BRANCH  13  14
ATOM     14  C   UNL     1     162.549 165.953 157.435  1.00  0.00    -0.000 C 
BRANCH  14  15
ATOM     15  C   UNL     1     161.264 166.283 156.662  1.00  0.00    -0.000 C 
BRANCH  15  16
ATOM     16  C   UNL     1     161.543 166.790 155.237  1.00  0.00    -0.000 C 
BRANCH  16  17
ATOM     17  C   UNL     1     160.323 166.659 154.313  1.00  0.00    -0.000 C 
BRANCH  17  18
ATOM     18  C   UNL     1     160.687 167.028 152.870  1.00  0.00    -0.003 C 
ATOM     19  C   UNL     1     162.195 167.197 152.707  1.00  0.00     0.004 C 
ENDBRANCH  17  18
ENDBRANCH  16  17
ENDBRANCH  15  16
ENDBRANCH  14  15
ENDBRANCH  13  14
ENDBRANCH  12  13
ENDBRANCH   1  12
TORSDOF 14
ENDMDL
MODEL 2
REMARK VINA RESULT:    -4.976      2.458      4.039
REMARK INTER + INTRA:         -10.730
REMARK INTER:                  -8.571
REMARK INTRA:                  -2.159
REMARK UNBOUND:                -1.681
REMARK SMILES CCCCCCCCCCCCCC[C@@H](C)C(=O)[O-]
REMARK SMILES IDX 9 1 10 2 11 3 12 4 13 5 14 6 15 7 16 8 17 9 18 10 19 11 8 12
REMARK SMILES IDX 7 13 6 14 5 15 4 16 3 17 2 18 1 19
REMARK H PARENT
REMARK Flexibility Score: inf
ROOT
ATOM      1  C   UNL     1     163.274 162.850 158.230  1.00  0.00     0.000 C 
ENDROOT
BRANCH   1   2
ATOM      2  C   UNL     1     161.998 162.788 159.090  1.00  0.00     0.000 C 
BRANCH   2   3
ATOM      3  C   UNL     1     160.682 162.806 158.294  1.00  0.00     0.000 C 
BRANCH   3   4
ATOM      4  C   UNL     1     159.764 163.973 158.689  1.00  0.00     0.000 C 
BRANCH   4   5
ATOM      5  C   UNL     1     159.323 163.855 160.157  1.00  0.00     0.001 C 
BRANCH   5   6
ATOM      6  C   UNL     1     158.831 165.202 160.729  1.00  0.00     0.009 C 
BRANCH   6   7
ATOM      7  C   UNL     1     159.886 165.930 161.592  1.00  0.00     0.032 C 
ATOM      8  C   UNL     1     161.081 165.035 161.937  1.00  0.00     0.014 C 
BRANCH   7   9
ATOM      9  C   UNL     1     160.369 167.168 160.889  1.00  0.00     0.044 C 
ATOM     10  O   UNL     1     161.293 167.866 161.384  1.00  0.00    -0.550 OA
ATOM     11  O   UNL     1     159.771 167.568 159.700  1.00  0.00    -0.550 OA
ENDBRANCH   7   9
ENDBRANCH   6   7
ENDBRANCH   5   6
ENDBRANCH   4   5
ENDBRANCH   3   4
ENDBRANCH   2   3
ENDBRANCH   1   2
BRANCH   1  12
ATOM     12  C   UNL     1     163.719 164.286 157.881  1.00  0.00     0.000 C 
BRANCH  12  13
ATOM     13  C   UNL     1     163.257 165.312 158.927  1.00  0.00    -0.000 C 
BRANCH  13  14
ATOM     14  C   UNL     1     163.249 166.730 158.341  1.00  0.00    -0.000 C 
BRANCH  14  15
ATOM     15  C   UNL     1     162.787 166.717 156.876  1.00  0.00    -0.000 C 
BRANCH  15  16
ATOM     16  C   UNL     1     161.255 166.692 156.739  1.00  0.00    -0.000 C 
BRANCH  16  17
ATOM     17  C   UNL     1     160.785 165.909 155.503  1.00  0.00    -0.000 C 
BRANCH  17  18
ATOM     18  C   UNL     1     160.259 166.859 154.421  1.00  0.00    -0.003 C 
ATOM     19  C   UNL     1     160.973 166.632 153.092  1.00  0.00     0.004 C 
ENDBRANCH  17  18
ENDBRANCH  16  17
ENDBRANCH  15  16
ENDBRANCH  14  15
ENDBRANCH  13  14
ENDBRANCH  12  13
ENDBRANCH   1  12
TORSDOF 14
ENDMDL
MODEL 3
REMARK VINA RESULT:    -4.840      2.688      5.042
REMARK INTER + INTRA:         -10.483
REMARK INTER:                  -8.705
REMARK INTRA:                  -1.778
REMARK UNBOUND:                -1.681
REMARK SMILES CCCCCCCCCCCCCC[C@@H](C)C(=O)[O-]
REMARK SMILES IDX 9 1 10 2 11 3 12 4 13 5 14 6 15 7 16 8 17 9 18 10 19 11 8 12
REMARK SMILES IDX 7 13 6 14 5 15 4 16 3 17 2 18 1 19
REMARK H PARENT
REMARK Flexibility Score: inf
ROOT
ATOM      1  C   UNL     1     160.742 164.242 161.344  1.00  0.00     0.000 C 
ENDROOT
BRANCH   1   2
ATOM      2  C   UNL     1     160.395 165.122 162.559  1.00  0.00     0.000 C 
BRANCH   2   3
ATOM      3  C   UNL     1     159.848 166.517 162.213  1.00  0.00     0.000 C 
BRANCH   3   4
ATOM      4  C   UNL     1     160.838 167.356 161.390  1.00  0.00     0.000 C 
BRANCH   4   5
ATOM      5  C   UNL     1     160.268 167.672 159.999  1.00  0.00     0.001 C 
BRANCH   5   6
ATOM      6  C   UNL     1     160.910 166.806 158.894  1.00  0.00     0.009 C 
BRANCH   6   7
ATOM      7  C   UNL     1     162.385 167.165 158.605  1.00  0.00     0.032 C 
ATOM      8  C   UNL     1     163.366 166.302 159.406  1.00  0.00     0.014 C 
BRANCH   7   9
ATOM      9  C   UNL     1     162.676 167.027 157.136  1.00  0.00     0.044 C 
ATOM     10  O   UNL     1     161.824 166.518 156.360  1.00  0.00    -0.550 OA
ATOM     11  O   UNL     1     163.906 167.431 156.631  1.00  0.00    -0.550 OA
ENDBRANCH   7   9
ENDBRANCH   6   7
ENDBRANCH   5   6
ENDBRANCH   4   5
ENDBRANCH   3   4
ENDBRANCH   2   3
ENDBRANCH   1   2
BRANCH   1  12
ATOM     12  C   UNL     1     159.572 164.064 160.352  1.00  0.00     0.000 C 
BRANCH  12  13
ATOM     13  C   UNL     1     159.753 162.833 159.451  1.00  0.00    -0.000 C 
BRANCH  13  14
ATOM     14  C   UNL     1     160.252 163.238 158.058  1.00  0.00    -0.000 C 
BRANCH  14  15
ATOM     15  C   UNL     1     161.783 163.357 158.036  1.00  0.00    -0.000 C 
BRANCH  15  16
ATOM     16  C   UNL     1     162.477 162.220 158.803  1.00  0.00    -0.000 C 
BRANCH  16  17
ATOM     17  C   UNL     1     163.872 161.896 158.246  1.00  0.00    -0.000 C 
BRANCH  17  18
ATOM     18  C   UNL     1     164.631 163.180 157.891  1.00  0.00    -0.003 C 
ATOM     19  C   UNL     1     166.114 163.057 158.231  1.00  0.00     0.004 C 
ENDBRANCH  17  18
ENDBRANCH  16  17
ENDBRANCH  15  16
ENDBRANCH  14  15
ENDBRANCH  13  14
ENDBRANCH  12  13
ENDBRANCH   1  12
TORSDOF 14
ENDMDL
MODEL 4
REMARK VINA RESULT:    -4.750      2.616      5.022
REMARK INTER + INTRA:         -10.319
REMARK INTER:                  -8.439
REMARK INTRA:                  -1.880
REMARK UNBOUND:                -1.681
REMARK SMILES CCCCCCCCCCCCCC[C@@H](C)C(=O)[O-]
REMARK SMILES IDX 9 1 10 2 11 3 12 4 13 5 14 6 15 7 16 8 17 9 18 10 19 11 8 12
REMARK SMILES IDX 7 13 6 14 5 15 4 16 3 17 2 18 1 19
REMARK H PARENT
REMARK Flexibility Score: inf
ROOT
ATOM      1  C   UNL     1     159.896 165.832 162.614  1.00  0.00     0.000 C 
ENDROOT
BRANCH   1   2
ATOM      2  C   UNL     1     160.404 167.234 162.229  1.00  0.00     0.000 C 
BRANCH   2   3
ATOM      3  C   UNL     1     160.666 167.437 160.727  1.00  0.00     0.000 C 
BRANCH   3   4
ATOM      4  C   UNL     1     161.907 168.300 160.452  1.00  0.00     0.000 C 
BRANCH   4   5
ATOM      5  C   UNL     1     163.149 167.423 160.231  1.00  0.00     0.001 C 
BRANCH   5   6
ATOM      6  C   UNL     1     162.811 166.104 159.502  1.00  0.00     0.009 C 
BRANCH   6   7
ATOM      7  C   UNL     1     163.479 165.974 158.115  1.00  0.00     0.032 C 
ATOM      8  C   UNL     1     163.843 164.525 157.773  1.00  0.00     0.014 C 
BRANCH   7   9
ATOM      9  C   UNL     1     162.577 166.532 157.049  1.00  0.00     0.044 C 
ATOM     10  O   UNL     1     163.057 166.975 155.972  1.00  0.00    -0.550 OA
ATOM     11  O   UNL     1     161.205 166.593 157.262  1.00  0.00    -0.550 OA
ENDBRANCH   7   9
ENDBRANCH   6   7
ENDBRANCH   5   6
ENDBRANCH   4   5
ENDBRANCH   3   4
ENDBRANCH   2   3
ENDBRANCH   1   2
BRANCH   1  12
ATOM     12  C   UNL     1     160.988 164.742 162.568  1.00  0.00     0.000 C 
BRANCH  12  13
ATOM     13  C   UNL     1     161.034 164.017 161.214  1.00  0.00    -0.000 C 
BRANCH  13  14
ATOM     14  C   UNL     1     159.655 164.021 160.542  1.00  0.00    -0.000 C 
BRANCH  14  15
ATOM     15  C   UNL     1     159.779 163.766 159.032  1.00  0.00    -0.000 C 
BRANCH  15  16
ATOM     16  C   UNL     1     159.954 162.276 158.695  1.00  0.00    -0.000 C 
BRANCH  16  17
ATOM     17  C   UNL     1     161.326 161.968 158.075  1.00  0.00    -0.000 C 
BRANCH  17  18
ATOM     18  C   UNL     1     162.299 161.438 159.134  1.00  0.00    -0.003 C 
ATOM     19  C   UNL     1     163.560 160.869 158.491  1.00  0.00     0.004 C 
ENDBRANCH  17  18
ENDBRANCH  16  17
ENDBRANCH  15  16
ENDBRANCH  14  15
ENDBRANCH  13  14
ENDBRANCH  12  13
ENDBRANCH   1  12
TORSDOF 14
ENDMDL
MODEL 5
REMARK VINA RESULT:    -4.741      1.971      3.652
REMARK INTER + INTRA:         -10.301
REMARK INTER:                  -8.928
REMARK INTRA:                  -1.374
REMARK UNBOUND:                -1.681
REMARK SMILES CCCCCCCCCCCCCC[C@@H](C)C(=O)[O-]
REMARK SMILES IDX 9 1 10 2 11 3 12 4 13 5 14 6 15 7 16 8 17 9 18 10 19 11 8 12
REMARK SMILES IDX 7 13 6 14 5 15 4 16 3 17 2 18 1 19
REMARK H PARENT
REMARK Flexibility Score: inf
ROOT
ATOM      1  C   UNL     1     162.377 165.485 157.797  1.00  0.00     0.000 C 
ENDROOT
BRANCH   1   2
ATOM      2  C   UNL     1     163.256 166.628 158.339  1.00  0.00     0.000 C 
BRANCH   2   3
ATOM      3  C   UNL     1     163.109 166.898 159.846  1.00  0.00     0.000 C 
BRANCH   3   4
ATOM      4  C   UNL     1     162.082 167.999 160.155  1.00  0.00     0.000 C 
BRANCH   4   5
ATOM      5  C   UNL     1     160.978 167.475 161.087  1.00  0.00     0.001 C 
BRANCH   5   6
ATOM      6  C   UNL     1     159.943 166.609 160.338  1.00  0.00     0.009 C 
BRANCH   6   7
ATOM      7  C   UNL     1     159.478 165.370 161.136  1.00  0.00     0.032 C 
ATOM      8  C   UNL     1     158.611 164.424 160.298  1.00  0.00     0.014 C 
BRANCH   7   9
ATOM      9  C   UNL     1     160.666 164.622 161.674  1.00  0.00     0.044 C 
ATOM     10  O   UNL     1     160.938 164.651 162.904  1.00  0.00    -0.550 OA
ATOM     11  O   UNL     1     161.495 163.919 160.807  1.00  0.00    -0.550 OA
ENDBRANCH   7   9
ENDBRANCH   6   7
ENDBRANCH   5   6
ENDBRANCH   4   5
ENDBRANCH   3   4
ENDBRANCH   2   3
ENDBRANCH   1   2
BRANCH   1  12
ATOM     12  C   UNL     1     161.179 165.970 156.952  1.00  0.00     0.000 C 
BRANCH  12  13
ATOM     13  C   UNL     1     161.621 166.645 155.645  1.00  0.00    -0.000 C 
BRANCH  13  14
ATOM     14  C   UNL     1     160.452 166.748 154.657  1.00  0.00    -0.000 C 
BRANCH  14  15
ATOM     15  C   UNL     1     160.928 166.515 153.215  1.00  0.00    -0.000 C 
BRANCH  15  16
ATOM     16  C   UNL     1     162.130 167.396 152.838  1.00  0.00    -0.000 C 
BRANCH  16  17
ATOM     17  C   UNL     1     163.232 166.612 152.110  1.00  0.00    -0.000 C 
BRANCH  17  18
ATOM     18  C   UNL     1     164.622 167.123 152.510  1.00  0.00    -0.003 C 
ATOM     19  C   UNL     1     164.558 168.563 153.009  1.00  0.00     0.004 C 
ENDBRANCH  17  18
ENDBRANCH  16  17
ENDBRANCH  15  16
ENDBRANCH  14  15
ENDBRANCH  13  14
ENDBRANCH  12  13
ENDBRANCH   1  12
TORSDOF 14
ENDMDL
MODEL 6
REMARK VINA RESULT:    -4.690      2.580      5.224
REMARK INTER + INTRA:         -10.209
REMARK INTER:                  -8.078
REMARK INTRA:                  -2.131
REMARK UNBOUND:                -1.681
REMARK SMILES CCCCCCCCCCCCCC[C@@H](C)C(=O)[O-]
REMARK SMILES IDX 9 1 10 2 11 3 12 4 13 5 14 6 15 7 16 8 17 9 18 10 19 11 8 12
REMARK SMILES IDX 7 13 6 14 5 15 4 16 3 17 2 18 1 19
REMARK H PARENT
REMARK Flexibility Score: inf
ROOT
ATOM      1  C   UNL     1     161.581 167.755 160.046  1.00  0.00     0.000 C 
ENDROOT
BRANCH   1   2
ATOM      2  C   UNL     1     163.094 167.494 160.165  1.00  0.00     0.000 C 
BRANCH   2   3
ATOM      3  C   UNL     1     163.541 166.080 159.757  1.00  0.00     0.000 C 
BRANCH   3   4
ATOM      4  C   UNL     1     162.363 165.177 159.358  1.00  0.00     0.000 C 
BRANCH   4   5
ATOM      5  C   UNL     1     162.397 164.862 157.854  1.00  0.00     0.001 C 
BRANCH   5   6
ATOM      6  C   UNL     1     161.202 165.484 157.101  1.00  0.00     0.009 C 
BRANCH   6   7
ATOM      7  C   UNL     1     161.568 166.751 156.295  1.00  0.00     0.032 C 
ATOM      8  C   UNL     1     163.072 167.047 156.320  1.00  0.00     0.014 C 
BRANCH   7   9
ATOM      9  C   UNL     1     161.105 166.614 154.871  1.00  0.00     0.044 C 
ATOM     10  O   UNL     1     161.877 166.896 153.916  1.00  0.00    -0.550 OA
ATOM     11  O   UNL     1     159.804 166.205 154.601  1.00  0.00    -0.550 OA
ENDBRANCH   7   9
ENDBRANCH   6   7
ENDBRANCH   5   6
ENDBRANCH   4   5
ENDBRANCH   3   4
ENDBRANCH   2   3
ENDBRANCH   1   2
BRANCH   1  12
ATOM     12  C   UNL     1     160.831 167.686 161.394  1.00  0.00     0.000 C 
BRANCH  12  13
ATOM     13  C   UNL     1     160.021 166.390 161.546  1.00  0.00    -0.000 C 
BRANCH  13  14
ATOM     14  C   UNL     1     158.907 166.311 160.495  1.00  0.00    -0.000 C 
BRANCH  14  15
ATOM     15  C   UNL     1     158.137 164.986 160.607  1.00  0.00    -0.000 C 
BRANCH  15  16
ATOM     16  C   UNL     1     158.902 163.802 159.994  1.00  0.00    -0.000 C 
BRANCH  16  17
ATOM     17  C   UNL     1     158.112 163.102 158.878  1.00  0.00    -0.000 C 
BRANCH  17  18
ATOM     18  C   UNL     1     159.038 162.249 158.003  1.00  0.00    -0.003 C 
ATOM     19  C   UNL     1     160.390 162.031 158.678  1.00  0.00     0.004 C 
ENDBRANCH  17  18
ENDBRANCH  16  17
ENDBRANCH  15  16
ENDBRANCH  14  15
ENDBRANCH  13  14
ENDBRANCH  12  13
ENDBRANCH   1  12
TORSDOF 14
ENDMDL
MODEL 7
REMARK VINA RESULT:    -4.689      2.807      5.927
REMARK INTER + INTRA:         -10.207
REMARK INTER:                  -8.321
REMARK INTRA:                  -1.887
REMARK UNBOUND:                -1.681
REMARK SMILES CCCCCCCCCCCCCC[C@@H](C)C(=O)[O-]
REMARK SMILES IDX 9 1 10 2 11 3 12 4 13 5 14 6 15 7 16 8 17 9 18 10 19 11 8 12
REMARK SMILES IDX 7 13 6 14 5 15 4 16 3 17 2 18 1 19
REMARK H PARENT
REMARK Flexibility Score: inf
ROOT
ATOM      1  C   UNL     1     162.732 167.277 159.536  1.00  0.00     0.000 C 
ENDROOT
BRANCH   1   2
ATOM      2  C   UNL     1     162.859 165.823 159.045  1.00  0.00     0.000 C 
BRANCH   2   3
ATOM      3  C   UNL     1     162.386 165.584 157.601  1.00  0.00     0.000 C 
BRANCH   3   4
ATOM      4  C   UNL     1     161.240 166.519 157.188  1.00  0.00     0.000 C 
BRANCH   4   5
ATOM      5  C   UNL     1     160.759 166.204 155.763  1.00  0.00     0.001 C 
BRANCH   5   6
ATOM      6  C   UNL     1     161.714 166.765 154.688  1.00  0.00     0.009 C 
BRANCH   6   7
ATOM      7  C   UNL     1     161.213 166.548 153.242  1.00  0.00     0.032 C 
ATOM      8  C   UNL     1     160.211 167.621 152.801  1.00  0.00     0.014 C 
BRANCH   7   9
ATOM      9  C   UNL     1     162.376 166.522 152.288  1.00  0.00     0.044 C 
ATOM     10  O   UNL     1     162.440 165.651 151.381  1.00  0.00    -0.550 OA
ATOM     11  O   UNL     1     163.407 167.443 152.426  1.00  0.00    -0.550 OA
ENDBRANCH   7   9
ENDBRANCH   6   7
ENDBRANCH   5   6
ENDBRANCH   4   5
ENDBRANCH   3   4
ENDBRANCH   2   3
ENDBRANCH   1   2
BRANCH   1  12
ATOM     12  C   UNL     1     161.643 167.477 160.611  1.00  0.00     0.000 C 
BRANCH  12  13
ATOM     13  C   UNL     1     160.833 166.197 160.867  1.00  0.00    -0.000 C 
BRANCH  13  14
ATOM     14  C   UNL     1     159.338 166.433 160.616  1.00  0.00    -0.000 C 
BRANCH  14  15
ATOM     15  C   UNL     1     158.589 165.100 160.464  1.00  0.00    -0.000 C 
BRANCH  15  16
ATOM     16  C   UNL     1     159.525 163.929 160.125  1.00  0.00    -0.000 C 
BRANCH  16  17
ATOM     17  C   UNL     1     159.158 163.243 158.801  1.00  0.00    -0.000 C 
BRANCH  17  18
ATOM     18  C   UNL     1     160.384 162.562 158.179  1.00  0.00    -0.003 C 
ATOM     19  C   UNL     1     161.468 162.314 159.224  1.00  0.00     0.004 C 
ENDBRANCH  17  18
ENDBRANCH  16  17
ENDBRANCH  15  16
ENDBRANCH  14  15
ENDBRANCH  13  14
ENDBRANCH  12  13
ENDBRANCH   1  12
TORSDOF 14
ENDMDL
MODEL 8
REMARK VINA RESULT:    -4.644      3.206      5.918
REMARK INTER + INTRA:         -10.126
REMARK INTER:                  -8.145
REMARK INTRA:                  -1.980
REMARK UNBOUND:                -1.681
REMARK SMILES CCCCCCCCCCCCCC[C@@H](C)C(=O)[O-]
REMARK SMILES IDX 9 1 10 2 11 3 12 4 13 5 14 6 15 7 16 8 17 9 18 10 19 11 8 12
REMARK SMILES IDX 7 13 6 14 5 15 4 16 3 17 2 18 1 19
REMARK H PARENT
REMARK Flexibility Score: inf
ROOT
ATOM      1  C   UNL     1     163.148 166.577 158.380  1.00  0.00     0.000 C 
ENDROOT
BRANCH   1   2
ATOM      2  C   UNL     1     163.423 165.098 158.050  1.00  0.00     0.000 C 
BRANCH   2   3
ATOM      3  C   UNL     1     162.697 164.089 158.955  1.00  0.00     0.000 C 
BRANCH   3   4
ATOM      4  C   UNL     1     162.786 162.648 158.430  1.00  0.00     0.000 C 
BRANCH   4   5
ATOM      5  C   UNL     1     161.402 161.979 158.419  1.00  0.00     0.001 C 
BRANCH   5   6
ATOM      6  C   UNL     1     160.377 162.746 159.280  1.00  0.00     0.009 C 
BRANCH   6   7
ATOM      7  C   UNL     1     159.301 163.485 158.452  1.00  0.00     0.032 C 
ATOM      8  C   UNL     1     159.332 163.096 156.970  1.00  0.00     0.014 C 
BRANCH   7   9
ATOM      9  C   UNL     1     157.934 163.215 159.016  1.00  0.00     0.044 C 
ATOM     10  O   UNL     1     157.202 162.319 158.519  1.00  0.00    -0.550 OA
ATOM     11  O   UNL     1     157.455 163.980 160.074  1.00  0.00    -0.550 OA
ENDBRANCH   7   9
ENDBRANCH   6   7
ENDBRANCH   5   6
ENDBRANCH   4   5
ENDBRANCH   3   4
ENDBRANCH   2   3
ENDBRANCH   1   2
BRANCH   1  12
ATOM     12  C   UNL     1     162.434 166.791 159.732  1.00  0.00     0.000 C 
BRANCH  12  13
ATOM     13  C   UNL     1     161.010 167.342 159.560  1.00  0.00    -0.000 C 
BRANCH  13  14
ATOM     14  C   UNL     1     159.992 166.483 160.321  1.00  0.00    -0.000 C 
BRANCH  14  15
ATOM     15  C   UNL     1     160.229 166.564 161.837  1.00  0.00    -0.000 C 
BRANCH  15  16
ATOM     16  C   UNL     1     160.239 165.182 162.509  1.00  0.00    -0.000 C 
BRANCH  16  17
ATOM     17  C   UNL     1     161.640 164.552 162.545  1.00  0.00    -0.000 C 
BRANCH  17  18
ATOM     18  C   UNL     1     161.737 163.497 163.654  1.00  0.00    -0.003 C 
ATOM     19  C   UNL     1     160.888 163.884 164.861  1.00  0.00     0.004 C 
ENDBRANCH  17  18
ENDBRANCH  16  17
ENDBRANCH  15  16
ENDBRANCH  14  15
ENDBRANCH  13  14
ENDBRANCH  12  13
ENDBRANCH   1  12
TORSDOF 14
ENDMDL
MODEL 9
REMARK VINA RESULT:    -4.554      1.820      2.555
REMARK INTER + INTRA:          -9.962
REMARK INTER:                  -8.020
REMARK INTRA:                  -1.942
REMARK UNBOUND:                -1.681
REMARK SMILES CCCCCCCCCCCCCC[C@@H](C)C(=O)[O-]
REMARK SMILES IDX 9 1 10 2 11 3 12 4 13 5 14 6 15 7 16 8 17 9 18 10 19 11 8 12
REMARK SMILES IDX 7 13 6 14 5 15 4 16 3 17 2 18 1 19
REMARK H PARENT
REMARK Flexibility Score: inf
ROOT
ATOM      1  C   UNL     1     162.914 167.605 158.845  1.00  0.00     0.000 C 
ENDROOT
BRANCH   1   2
ATOM      2  C   UNL     1     162.657 167.524 160.361  1.00  0.00     0.000 C 
BRANCH   2   3
ATOM      3  C   UNL     1     161.283 168.045 160.813  1.00  0.00     0.000 C 
BRANCH   3   4
ATOM      4  C   UNL     1     160.116 167.265 160.187  1.00  0.00     0.000 C 
BRANCH   4   5
ATOM      5  C   UNL     1     159.785 166.012 161.012  1.00  0.00     0.001 C 
BRANCH   5   6
ATOM      6  C   UNL     1     158.934 164.998 160.219  1.00  0.00     0.009 C 
BRANCH   6   7
ATOM      7  C   UNL     1     159.719 164.269 159.104  1.00  0.00     0.032 C 
ATOM      8  C   UNL     1     160.995 163.599 159.627  1.00  0.00     0.014 C 
BRANCH   7   9
ATOM      9  C   UNL     1     158.846 163.241 158.440  1.00  0.00     0.044 C 
ATOM     10  O   UNL     1     157.771 162.868 158.981  1.00  0.00    -0.550 OA
ATOM     11  O   UNL     1     159.239 162.670 157.235  1.00  0.00    -0.550 OA
ENDBRANCH   7   9
ENDBRANCH   6   7
ENDBRANCH   5   6
ENDBRANCH   4   5
ENDBRANCH   3   4
ENDBRANCH   2   3
ENDBRANCH   1   2
BRANCH   1  12
ATOM     12  C   UNL     1     163.137 166.230 158.178  1.00  0.00     0.000 C 
BRANCH  12  13
ATOM     13  C   UNL     1     162.682 166.212 156.711  1.00  0.00    -0.000 C 
BRANCH  13  14
ATOM     14  C   UNL     1     161.205 166.605 156.589  1.00  0.00    -0.000 C 
BRANCH  14  15
ATOM     15  C   UNL     1     160.550 165.916 155.382  1.00  0.00    -0.000 C 
BRANCH  15  16
ATOM     16  C   UNL     1     160.279 166.887 154.221  1.00  0.00    -0.000 C 
BRANCH  16  17
ATOM     17  C   UNL     1     161.122 166.568 152.976  1.00  0.00    -0.000 C 
BRANCH  17  18
ATOM     18  C   UNL     1     162.064 167.731 152.641  1.00  0.00    -0.003 C 
ATOM     19  C   UNL     1     163.493 167.428 153.083  1.00  0.00     0.004 C 
ENDBRANCH  17  18
ENDBRANCH  16  17
ENDBRANCH  15  16
ENDBRANCH  14  15
ENDBRANCH  13  14
ENDBRANCH  12  13
ENDBRANCH   1  12
TORSDOF 14
ENDMDL
