MODEL 1
REMARK VINA RESULT:    -3.006      0.000      0.000
REMARK INTER + INTRA:          -4.544
REMARK INTER:                  -4.060
REMARK INTRA:                  -0.484
REMARK UNBOUND:                -0.484
REMARK SMILES O=C[C@@H](O)[C@@H](O)[C@@H](O)CO
REMARK SMILES IDX 7 1 9 2 10 3 5 5 3 6 2 7 1 8 4 9 6 11 8 13
REMARK H PARENT 10 4 4 10 6 12 8 14
REMARK Flexibility Score: inf
ROOT
ATOM      1  C   UNL     1      19.021  40.892  10.231  1.00  0.00     0.171 C 
ENDROOT
BRANCH   1   2
ATOM      2  C   UNL     1      17.645  40.215  10.155  1.00  0.00     0.190 C 
BRANCH   2   3
ATOM      3  O   UNL     1      16.777  40.997   9.380  1.00  0.00    -0.394 OA
ATOM      4  H   UNL     1      17.355  41.577   8.819  1.00  0.00     0.210 HD
ENDBRANCH   2   3
ENDBRANCH   1   2
BRANCH   1   5
ATOM      5  C   UNL     1      19.135  41.928  11.386  1.00  0.00     0.181 C 
BRANCH   5   6
ATOM      6  C   UNL     1      20.386  41.777  12.289  1.00  0.00     0.209 C 
BRANCH   6   7
ATOM      7  C   UNL     1      20.637  43.007  13.123  1.00  0.00     0.258 C 
ATOM      8  O   UNL     1      20.971  44.054  12.593  1.00  0.00    -0.300 OA
ENDBRANCH   6   7
BRANCH   6   9
ATOM      9  O   UNL     1      20.262  40.647  13.114  1.00  0.00    -0.383 OA
ATOM     10  H   UNL     1      20.312  39.851  12.523  1.00  0.00     0.211 HD
ENDBRANCH   6   9
ENDBRANCH   5   6
BRANCH   5  11
ATOM     11  O   UNL     1      19.082  43.228  10.855  1.00  0.00    -0.387 OA
ATOM     12  H   UNL     1      18.150  43.377  10.545  1.00  0.00     0.211 HD
ENDBRANCH   5  11
ENDBRANCH   1   5
BRANCH   1  13
ATOM     13  O   UNL     1      20.000  39.900  10.407  1.00  0.00    -0.388 OA
ATOM     14  H   UNL     1      19.529  39.026  10.416  1.00  0.00     0.211 HD
ENDBRANCH   1  13
TORSDOF 8
ENDMDL
MODEL 2
REMARK VINA RESULT:    -2.291      1.156      3.906
REMARK INTER + INTRA:          -3.578
REMARK INTER:                  -2.876
REMARK INTRA:                  -0.702
REMARK UNBOUND:                -0.484
REMARK SMILES O=C[C@@H](O)[C@@H](O)[C@@H](O)CO
REMARK SMILES IDX 7 1 9 2 10 3 5 5 3 6 2 7 1 8 4 9 6 11 8 13
REMARK H PARENT 10 4 4 10 6 12 8 14
REMARK Flexibility Score: inf
ROOT
ATOM      1  C   UNL     1      20.194  43.217  12.688  1.00  0.00     0.171 C 
ENDROOT
BRANCH   1   2
ATOM      2  C   UNL     1      20.268  44.729  12.433  1.00  0.00     0.190 C 
BRANCH   2   3
ATOM      3  O   UNL     1      21.009  44.975  11.269  1.00  0.00    -0.394 OA
ATOM      4  H   UNL     1      20.353  45.000  10.525  1.00  0.00     0.210 HD
ENDBRANCH   2   3
ENDBRANCH   1   2
BRANCH   1   5
ATOM      5  C   UNL     1      19.774  42.400  11.433  1.00  0.00     0.181 C 
BRANCH   5   6
ATOM      6  C   UNL     1      19.260  40.966  11.717  1.00  0.00     0.209 C 
BRANCH   6   7
ATOM      7  C   UNL     1      18.800  40.267  10.464  1.00  0.00     0.258 C 
ATOM      8  O   UNL     1      17.666  40.431  10.047  1.00  0.00    -0.300 OA
ENDBRANCH   6   7
BRANCH   6   9
ATOM      9  O   UNL     1      20.252  40.208  12.362  1.00  0.00    -0.383 OA
ATOM     10  H   UNL     1      21.087  40.744  12.338  1.00  0.00     0.211 HD
ENDBRANCH   6   9
ENDBRANCH   5   6
BRANCH   5  11
ATOM     11  O   UNL     1      18.808  43.120  10.707  1.00  0.00    -0.387 OA
ATOM     12  H   UNL     1      19.075  43.079   9.751  1.00  0.00     0.211 HD
ENDBRANCH   5  11
ENDBRANCH   1   5
BRANCH   1  13
ATOM     13  O   UNL     1      21.453  42.772  13.125  1.00  0.00    -0.388 OA
ATOM     14  H   UNL     1      21.327  42.396  14.035  1.00  0.00     0.211 HD
ENDBRANCH   1  13
TORSDOF 8
ENDMDL
MODEL 3
REMARK VINA RESULT:    -1.947      1.104      4.100
REMARK INTER + INTRA:          -3.114
REMARK INTER:                  -2.849
REMARK INTRA:                  -0.265
REMARK UNBOUND:                -0.484
REMARK SMILES O=C[C@@H](O)[C@@H](O)[C@@H](O)CO
REMARK SMILES IDX 7 1 9 2 10 3 5 5 3 6 2 7 1 8 4 9 6 11 8 13
REMARK H PARENT 10 4 4 10 6 12 8 14
REMARK Flexibility Score: inf
ROOT
ATOM      1  C   UNL     1      20.711  42.389  12.924  1.00  0.00     0.171 C 
ENDROOT
BRANCH   1   2
ATOM      2  C   UNL     1      20.026  43.748  13.125  1.00  0.00     0.190 C 
BRANCH   2   3
ATOM      3  O   UNL     1      20.343  44.599  12.057  1.00  0.00    -0.394 OA
ATOM      4  H   UNL     1      21.289  44.869  12.192  1.00  0.00     0.210 HD
ENDBRANCH   2   3
ENDBRANCH   1   2
BRANCH   1   5
ATOM      5  C   UNL     1      19.743  41.278  12.427  1.00  0.00     0.181 C 
BRANCH   5   6
ATOM      6  C   UNL     1      19.469  41.272  10.901  1.00  0.00     0.209 C 
BRANCH   6   7
ATOM      7  C   UNL     1      18.407  40.275  10.517  1.00  0.00     0.258 C 
ATOM      8  O   UNL     1      17.448  40.622   9.848  1.00  0.00    -0.300 OA
ENDBRANCH   6   7
BRANCH   6   9
ATOM      9  O   UNL     1      19.110  42.558  10.463  1.00  0.00    -0.383 OA
ATOM     10  H   UNL     1      19.063  43.136  11.269  1.00  0.00     0.211 HD
ENDBRANCH   6   9
ENDBRANCH   5   6
BRANCH   5  11
ATOM     11  O   UNL     1      20.227  40.020  12.830  1.00  0.00    -0.387 OA
ATOM     12  H   UNL     1      21.211  40.109  12.936  1.00  0.00     0.211 HD
ENDBRANCH   5  11
ENDBRANCH   1   5
BRANCH   1  13
ATOM     13  O   UNL     1      21.750  42.543  11.991  1.00  0.00    -0.388 OA
ATOM     14  H   UNL     1      21.338  42.874  11.151  1.00  0.00     0.211 HD
ENDBRANCH   1  13
TORSDOF 8
ENDMDL
MODEL 4
REMARK VINA RESULT:    -1.920      0.691      1.764
REMARK INTER + INTRA:          -3.077
REMARK INTER:                  -2.988
REMARK INTRA:                  -0.089
REMARK UNBOUND:                -0.484
REMARK SMILES O=C[C@@H](O)[C@@H](O)[C@@H](O)CO
REMARK SMILES IDX 7 1 9 2 10 3 5 5 3 6 2 7 1 8 4 9 6 11 8 13
REMARK H PARENT 10 4 4 10 6 12 8 14
REMARK Flexibility Score: inf
ROOT
ATOM      1  C   UNL     1      19.542  40.673  10.479  1.00  0.00     0.171 C 
ENDROOT
BRANCH   1   2
ATOM      2  C   UNL     1      18.068  40.303  10.704  1.00  0.00     0.190 C 
BRANCH   2   3
ATOM      3  O   UNL     1      17.288  40.821   9.661  1.00  0.00    -0.394 OA
ATOM      4  H   UNL     1      16.971  41.710   9.970  1.00  0.00     0.210 HD
ENDBRANCH   2   3
ENDBRANCH   1   2
BRANCH   1   5
ATOM      5  C   UNL     1      20.233  41.247  11.748  1.00  0.00     0.181 C 
BRANCH   5   6
ATOM      6  C   UNL     1      19.696  42.619  12.231  1.00  0.00     0.209 C 
BRANCH   6   7
ATOM      7  C   UNL     1      20.677  43.332  13.125  1.00  0.00     0.258 C 
ATOM      8  O   UNL     1      20.739  44.550  13.124  1.00  0.00    -0.300 OA
ENDBRANCH   6   7
BRANCH   6   9
ATOM      9  O   UNL     1      19.359  43.428  11.134  1.00  0.00    -0.383 OA
ATOM     10  H   UNL     1      18.497  43.090  10.778  1.00  0.00     0.211 HD
ENDBRANCH   6   9
ENDBRANCH   5   6
BRANCH   5  11
ATOM     11  O   UNL     1      20.153  40.308  12.791  1.00  0.00    -0.387 OA
ATOM     12  H   UNL     1      19.229  40.352  13.151  1.00  0.00     0.211 HD
ENDBRANCH   5  11
ENDBRANCH   1   5
BRANCH   1  13
ATOM     13  O   UNL     1      20.234  39.524  10.060  1.00  0.00    -0.388 OA
ATOM     14  H   UNL     1      19.566  38.793   9.988  1.00  0.00     0.211 HD
ENDBRANCH   1  13
TORSDOF 8
ENDMDL
MODEL 5
REMARK VINA RESULT:    -1.648      0.962      2.381
REMARK INTER + INTRA:          -2.710
REMARK INTER:                  -2.601
REMARK INTRA:                  -0.109
REMARK UNBOUND:                -0.484
REMARK SMILES O=C[C@@H](O)[C@@H](O)[C@@H](O)CO
REMARK SMILES IDX 7 1 9 2 10 3 5 5 3 6 2 7 1 8 4 9 6 11 8 13
REMARK H PARENT 10 4 4 10 6 12 8 14
REMARK Flexibility Score: inf
ROOT
ATOM      1  C   UNL     1      17.667  41.364  10.119  1.00  0.00     0.171 C 
ENDROOT
BRANCH   1   2
ATOM      2  C   UNL     1      17.253  39.902   9.897  1.00  0.00     0.190 C 
BRANCH   2   3
ATOM      3  O   UNL     1      15.933  39.852   9.429  1.00  0.00    -0.394 OA
ATOM      4  H   UNL     1      15.467  39.178   9.991  1.00  0.00     0.210 HD
ENDBRANCH   2   3
ENDBRANCH   1   2
BRANCH   1   5
ATOM      5  C   UNL     1      19.179  41.534  10.441  1.00  0.00     0.181 C 
BRANCH   5   6
ATOM      6  C   UNL     1      19.499  42.454  11.647  1.00  0.00     0.209 C 
BRANCH   6   7
ATOM      7  C   UNL     1      20.498  41.833  12.588  1.00  0.00     0.258 C 
ATOM      8  O   UNL     1      20.258  40.764  13.124  1.00  0.00    -0.300 OA
ENDBRANCH   6   7
BRANCH   6   9
ATOM      9  O   UNL     1      19.963  43.703  11.201  1.00  0.00    -0.383 OA
ATOM     10  H   UNL     1      20.953  43.685  11.264  1.00  0.00     0.211 HD
ENDBRANCH   6   9
ENDBRANCH   5   6
BRANCH   5  11
ATOM     11  O   UNL     1      19.761  40.269  10.637  1.00  0.00    -0.387 OA
ATOM     12  H   UNL     1      20.692  40.323  10.294  1.00  0.00     0.211 HD
ENDBRANCH   5  11
ENDBRANCH   1   5
BRANCH   1  13
ATOM     13  O   UNL     1      17.359  42.099   8.962  1.00  0.00    -0.388 OA
ATOM     14  H   UNL     1      16.613  42.709   9.196  1.00  0.00     0.211 HD
ENDBRANCH   1  13
TORSDOF 8
ENDMDL
MODEL 6
REMARK VINA RESULT:    -0.692      0.812      3.835
REMARK INTER + INTRA:          -1.418
REMARK INTER:                  -1.752
REMARK INTRA:                   0.334
REMARK UNBOUND:                -0.484
REMARK SMILES O=C[C@@H](O)[C@@H](O)[C@@H](O)CO
REMARK SMILES IDX 7 1 9 2 10 3 5 5 3 6 2 7 1 8 4 9 6 11 8 13
REMARK H PARENT 10 4 4 10 6 12 8 14
REMARK Flexibility Score: inf
ROOT
ATOM      1  C   UNL     1      20.716  42.095  11.906  1.00  0.00     0.171 C 
ENDROOT
BRANCH   1   2
ATOM      2  C   UNL     1      20.275  41.271  13.124  1.00  0.00     0.190 C 
BRANCH   2   3
ATOM      3  O   UNL     1      20.250  39.911  12.789  1.00  0.00    -0.394 OA
ATOM      4  H   UNL     1      21.197  39.616  12.760  1.00  0.00     0.210 HD
ENDBRANCH   2   3
ENDBRANCH   1   2
BRANCH   1   5
ATOM      5  C   UNL     1      19.653  42.134  10.771  1.00  0.00     0.181 C 
BRANCH   5   6
ATOM      6  C   UNL     1      18.783  40.859  10.635  1.00  0.00     0.209 C 
BRANCH   6   7
ATOM      7  C   UNL     1      17.601  41.071   9.724  1.00  0.00     0.258 C 
ATOM      8  O   UNL     1      16.591  40.400   9.859  1.00  0.00    -0.300 OA
ENDBRANCH   6   7
BRANCH   6   9
ATOM      9  O   UNL     1      19.561  39.781  10.180  1.00  0.00    -0.383 OA
ATOM     10  H   UNL     1      19.968  39.360  10.981  1.00  0.00     0.211 HD
ENDBRANCH   6   9
ENDBRANCH   5   6
BRANCH   5  11
ATOM     11  O   UNL     1      18.829  43.261  10.940  1.00  0.00    -0.387 OA
ATOM     12  H   UNL     1      17.952  42.931  11.269  1.00  0.00     0.211 HD
ENDBRANCH   5  11
ENDBRANCH   1   5
BRANCH   1  13
ATOM     13  O   UNL     1      20.987  43.409  12.326  1.00  0.00    -0.388 OA
ATOM     14  H   UNL     1      21.899  43.405  12.717  1.00  0.00     0.211 HD
ENDBRANCH   1  13
TORSDOF 8
ENDMDL
MODEL 7
REMARK VINA RESULT:    -0.238      1.326      2.207
REMARK INTER + INTRA:          -0.805
REMARK INTER:                  -0.946
REMARK INTRA:                   0.141
REMARK UNBOUND:                -0.484
REMARK SMILES O=C[C@@H](O)[C@@H](O)[C@@H](O)CO
REMARK SMILES IDX 7 1 9 2 10 3 5 5 3 6 2 7 1 8 4 9 6 11 8 13
REMARK H PARENT 10 4 4 10 6 12 8 14
REMARK Flexibility Score: inf
ROOT
ATOM      1  C   UNL     1      20.310  41.152  11.820  1.00  0.00     0.171 C 
ENDROOT
BRANCH   1   2
ATOM      2  C   UNL     1      19.750  40.573  10.513  1.00  0.00     0.190 C 
BRANCH   2   3
ATOM      3  O   UNL     1      18.352  40.683  10.509  1.00  0.00    -0.394 OA
ATOM      4  H   UNL     1      18.007  39.797  10.223  1.00  0.00     0.210 HD
ENDBRANCH   2   3
ENDBRANCH   1   2
BRANCH   1   5
ATOM      5  C   UNL     1      19.627  42.483  12.247  1.00  0.00     0.181 C 
BRANCH   5   6
ATOM      6  C   UNL     1      20.595  43.614  12.680  1.00  0.00     0.209 C 
BRANCH   6   7
ATOM      7  C   UNL     1      21.564  43.984  11.587  1.00  0.00     0.258 C 
ATOM      8  O   UNL     1      21.601  45.125  11.157  1.00  0.00    -0.300 OA
ENDBRANCH   6   7
BRANCH   6   9
ATOM      9  O   UNL     1      19.873  44.746  13.094  1.00  0.00    -0.383 OA
ATOM     10  H   UNL     1      20.520  45.360  13.527  1.00  0.00     0.211 HD
ENDBRANCH   6   9
ENDBRANCH   5   6
BRANCH   5  11
ATOM     11  O   UNL     1      18.796  42.937  11.208  1.00  0.00    -0.387 OA
ATOM     12  H   UNL     1      19.316  42.859  10.365  1.00  0.00     0.211 HD
ENDBRANCH   5  11
ENDBRANCH   1   5
BRANCH   1  13
ATOM     13  O   UNL     1      20.141  40.202  12.841  1.00  0.00    -0.388 OA
ATOM     14  H   UNL     1      19.341  39.663  12.606  1.00  0.00     0.211 HD
ENDBRANCH   1  13
TORSDOF 8
ENDMDL
