MODEL 1
REMARK VINA RESULT:    -2.993      0.000      0.000
REMARK INTER + INTRA:          -3.382
REMARK INTER:                  -3.343
REMARK INTRA:                  -0.040
REMARK UNBOUND:                -0.040
REMARK SMILES CCCC(=O)[O-]
REMARK SMILES IDX 3 1 4 2 5 3 6 4 2 5 1 6
REMARK H PARENT
REMARK Flexibility Score: inf
ROOT
ATOM      1  C   UNL     1      16.866  26.703  11.674  1.00  0.00     0.052 C 
ENDROOT
BRANCH   1   2
ATOM      2  C   UNL     1      16.627  26.345  13.107  1.00  0.00     0.041 C 
ATOM      3  O   UNL     1      17.527  26.536  13.966  1.00  0.00    -0.550 OA
ATOM      4  O   UNL     1      15.428  25.754  13.485  1.00  0.00    -0.550 OA
ENDBRANCH   1   2
BRANCH   1   5
ATOM      5  C   UNL     1      15.575  26.562  10.864  1.00  0.00     0.003 C 
ATOM      6  C   UNL     1      14.927  27.922  10.619  1.00  0.00     0.004 C 
ENDBRANCH   1   5
TORSDOF 2
ENDMDL
MODEL 2
REMARK VINA RESULT:    -2.645      2.385      3.361
REMARK INTER + INTRA:          -2.994
REMARK INTER:                  -2.988
REMARK INTRA:                  -0.005
REMARK UNBOUND:                -0.040
REMARK SMILES CCCC(=O)[O-]
REMARK SMILES IDX 3 1 4 2 5 3 6 4 2 5 1 6
REMARK H PARENT
REMARK Flexibility Score: inf
ROOT
ATOM      1  C   UNL     1      15.581  27.080  12.370  1.00  0.00     0.052 C 
ENDROOT
BRANCH   1   2
ATOM      2  C   UNL     1      15.227  27.127  10.917  1.00  0.00     0.041 C 
ATOM      3  O   UNL     1      14.946  28.225  10.369  1.00  0.00    -0.550 OA
ATOM      4  O   UNL     1      15.158  25.952  10.180  1.00  0.00    -0.550 OA
ENDBRANCH   1   2
BRANCH   1   5
ATOM      5  C   UNL     1      17.078  26.811  12.548  1.00  0.00     0.003 C 
ATOM      6  C   UNL     1      17.439  26.665  14.024  1.00  0.00     0.004 C 
ENDBRANCH   1   5
TORSDOF 2
ENDMDL
MODEL 3
REMARK VINA RESULT:    -2.623     22.447     23.029
REMARK INTER + INTRA:          -2.969
REMARK INTER:                  -2.962
REMARK INTRA:                  -0.008
REMARK UNBOUND:                -0.040
REMARK SMILES CCCC(=O)[O-]
REMARK SMILES IDX 3 1 4 2 5 3 6 4 2 5 1 6
REMARK H PARENT
REMARK Flexibility Score: inf
ROOT
ATOM      1  C   UNL     1      33.712  37.030   0.232  1.00  0.00     0.052 C 
ENDROOT
BRANCH   1   2
ATOM      2  C   UNL     1      33.047  36.231   1.308  1.00  0.00     0.041 C 
ATOM      3  O   UNL     1      33.133  34.975   1.310  1.00  0.00    -0.550 OA
ATOM      4  O   UNL     1      32.290  36.871   2.282  1.00  0.00    -0.550 OA
ENDBRANCH   1   2
BRANCH   1   5
ATOM      5  C   UNL     1      33.318  36.501  -1.149  1.00  0.00     0.003 C 
ATOM      6  C   UNL     1      33.108  37.645  -2.138  1.00  0.00     0.004 C 
ENDBRANCH   1   5
TORSDOF 2
ENDMDL
MODEL 4
REMARK VINA RESULT:    -2.455     21.325     21.993
REMARK INTER + INTRA:          -2.782
REMARK INTER:                  -2.739
REMARK INTRA:                  -0.043
REMARK UNBOUND:                -0.040
REMARK SMILES CCCC(=O)[O-]
REMARK SMILES IDX 3 1 4 2 5 3 6 4 2 5 1 6
REMARK H PARENT
REMARK Flexibility Score: inf
ROOT
ATOM      1  C   UNL     1      33.275  36.166   0.863  1.00  0.00     0.052 C 
ENDROOT
BRANCH   1   2
ATOM      2  C   UNL     1      32.452  35.030   1.384  1.00  0.00     0.041 C 
ATOM      3  O   UNL     1      31.257  35.221   1.732  1.00  0.00    -0.550 OA
ATOM      4  O   UNL     1      33.020  33.771   1.533  1.00  0.00    -0.550 OA
ENDBRANCH   1   2
BRANCH   1   5
ATOM      5  C   UNL     1      34.174  36.728   1.967  1.00  0.00     0.003 C 
ATOM      6  C   UNL     1      33.471  37.844   2.734  1.00  0.00     0.004 C 
ENDBRANCH   1   5
TORSDOF 2
ENDMDL
MODEL 5
REMARK VINA RESULT:    -2.401     22.005     22.681
REMARK INTER + INTRA:          -2.721
REMARK INTER:                  -2.716
REMARK INTRA:                  -0.005
REMARK UNBOUND:                -0.040
REMARK SMILES CCCC(=O)[O-]
REMARK SMILES IDX 3 1 4 2 5 3 6 4 2 5 1 6
REMARK H PARENT
REMARK Flexibility Score: inf
ROOT
ATOM      1  C   UNL     1      32.953  37.091   2.143  1.00  0.00     0.052 C 
ENDROOT
BRANCH   1   2
ATOM      2  C   UNL     1      33.004  36.041   1.078  1.00  0.00     0.041 C 
ATOM      3  O   UNL     1      32.357  34.969   1.214  1.00  0.00    -0.550 OA
ATOM      4  O   UNL     1      33.804  36.225  -0.043  1.00  0.00    -0.550 OA
ENDBRANCH   1   2
BRANCH   1   5
ATOM      5  C   UNL     1      34.265  37.117   2.931  1.00  0.00     0.003 C 
ATOM      6  C   UNL     1      34.161  38.041   4.141  1.00  0.00     0.004 C 
ENDBRANCH   1   5
TORSDOF 2
ENDMDL
MODEL 6
REMARK VINA RESULT:    -2.104     22.001     22.660
REMARK INTER + INTRA:          -2.390
REMARK INTER:                  -2.348
REMARK INTRA:                  -0.042
REMARK UNBOUND:                -0.040
REMARK SMILES CCCC(=O)[O-]
REMARK SMILES IDX 3 1 4 2 5 3 6 4 2 5 1 6
REMARK H PARENT
REMARK Flexibility Score: inf
ROOT
ATOM      1  C   UNL     1      33.324  37.589   1.393  1.00  0.00     0.052 C 
ENDROOT
BRANCH   1   2
ATOM      2  C   UNL     1      33.945  37.388   2.740  1.00  0.00     0.041 C 
ATOM      3  O   UNL     1      35.043  36.781   2.848  1.00  0.00    -0.550 OA
ATOM      4  O   UNL     1      33.286  37.827   3.881  1.00  0.00    -0.550 OA
ENDBRANCH   1   2
BRANCH   1   5
ATOM      5  C   UNL     1      33.346  36.284   0.593  1.00  0.00     0.003 C 
ATOM      6  C   UNL     1      32.435  35.235   1.225  1.00  0.00     0.004 C 
ENDBRANCH   1   5
TORSDOF 2
ENDMDL
MODEL 7
REMARK VINA RESULT:    -2.047     21.985     22.685
REMARK INTER + INTRA:          -2.325
REMARK INTER:                  -2.317
REMARK INTRA:                  -0.008
REMARK UNBOUND:                -0.040
REMARK SMILES CCCC(=O)[O-]
REMARK SMILES IDX 3 1 4 2 5 3 6 4 2 5 1 6
REMARK H PARENT
REMARK Flexibility Score: inf
ROOT
ATOM      1  C   UNL     1      34.009  38.273   4.480  1.00  0.00     0.052 C 
ENDROOT
BRANCH   1   2
ATOM      2  C   UNL     1      33.967  38.308   5.976  1.00  0.00     0.041 C 
ATOM      3  O   UNL     1      32.894  38.587   6.573  1.00  0.00    -0.550 OA
ATOM      4  O   UNL     1      35.125  38.082   6.709  1.00  0.00    -0.550 OA
ENDBRANCH   1   2
BRANCH   1   5
ATOM      5  C   UNL     1      35.123  37.341   3.998  1.00  0.00     0.003 C 
ATOM      6  C   UNL     1      34.915  36.944   2.539  1.00  0.00     0.004 C 
ENDBRANCH   1   5
TORSDOF 2
ENDMDL
MODEL 8
REMARK VINA RESULT:    -1.902     23.940     24.506
REMARK INTER + INTRA:          -2.163
REMARK INTER:                  -2.128
REMARK INTRA:                  -0.035
REMARK UNBOUND:                -0.040
REMARK SMILES CCCC(=O)[O-]
REMARK SMILES IDX 3 1 4 2 5 3 6 4 2 5 1 6
REMARK H PARENT
REMARK Flexibility Score: inf
ROOT
ATOM      1  C   UNL     1      33.312  38.390  -0.373  1.00  0.00     0.052 C 
ENDROOT
BRANCH   1   2
ATOM      2  C   UNL     1      33.956  37.233   0.322  1.00  0.00     0.041 C 
ATOM      3  O   UNL     1      35.125  36.879   0.014  1.00  0.00    -0.550 OA
ATOM      4  O   UNL     1      33.249  36.513   1.277  1.00  0.00    -0.550 OA
ENDBRANCH   1   2
BRANCH   1   5
ATOM      5  C   UNL     1      34.073  38.737  -1.654  1.00  0.00     0.003 C 
ATOM      6  C   UNL     1      33.261  38.371  -2.894  1.00  0.00     0.004 C 
ENDBRANCH   1   5
TORSDOF 2
ENDMDL
