MODEL 1
REMARK VINA RESULT:    -2.422      0.000      0.000
REMARK INTER + INTRA:          -7.404
REMARK INTER:                  -5.538
REMARK INTRA:                  -1.866
REMARK UNBOUND:                -1.866
REMARK SMILES CCCCCCCCCCCCCCCCCCCCCCCC(=O)[O-]
REMARK SMILES IDX 13 1 14 2 15 3 16 4 17 5 18 6 19 7 20 8 21 9 22 10 23 11
REMARK SMILES IDX 24 12 25 13 26 14 12 15 11 16 10 17 9 18 8 19 7 20 6 21 5 22
REMARK SMILES IDX 4 23 3 24 2 25 1 26
REMARK H PARENT
REMARK Flexibility Score: inf
ROOT
ATOM      1  C   UNL     1      15.429  11.706 -13.985  1.00  0.00     0.000 C 
ENDROOT
BRANCH   1   2
ATOM      2  C   UNL     1      14.085  11.106 -14.443  1.00  0.00     0.000 C 
BRANCH   2   3
ATOM      3  C   UNL     1      14.164  10.236 -15.710  1.00  0.00     0.000 C 
BRANCH   3   4
ATOM      4  C   UNL     1      14.001   8.732 -15.414  1.00  0.00     0.000 C 
BRANCH   4   5
ATOM      5  C   UNL     1      15.262   7.919 -15.752  1.00  0.00     0.000 C 
BRANCH   5   6
ATOM      6  C   UNL     1      16.506   8.764 -16.087  1.00  0.00     0.000 C 
BRANCH   6   7
ATOM      7  C   UNL     1      17.803   8.251 -15.426  1.00  0.00     0.000 C 
BRANCH   7   8
ATOM      8  C   UNL     1      18.965   9.246 -15.574  1.00  0.00     0.000 C 
BRANCH   8   9
ATOM      9  C   UNL     1      20.317   8.557 -15.820  1.00  0.00     0.000 C 
BRANCH   9  10
ATOM     10  C   UNL     1      21.464   9.543 -16.125  1.00  0.00     0.006 C 
BRANCH  10  11
ATOM     11  C   UNL     1      21.075  10.995 -15.812  1.00  0.00     0.053 C 
BRANCH  11  12
ATOM     12  C   UNL     1      21.810  11.485 -14.603  1.00  0.00     0.041 C 
ATOM     13  O   UNL     1      23.068  11.482 -14.584  1.00  0.00    -0.550 OA
ATOM     14  O   UNL     1      21.104  11.894 -13.479  1.00  0.00    -0.550 OA
ENDBRANCH  11  12
ENDBRANCH  10  11
ENDBRANCH   9  10
ENDBRANCH   8   9
ENDBRANCH   7   8
ENDBRANCH   6   7
ENDBRANCH   5   6
ENDBRANCH   4   5
ENDBRANCH   3   4
ENDBRANCH   2   3
ENDBRANCH   1   2
BRANCH   1  15
ATOM     15  C   UNL     1      16.409  12.063 -15.121  1.00  0.00     0.000 C 
BRANCH  15  16
ATOM     16  C   UNL     1      16.559  13.568 -15.407  1.00  0.00     0.000 C 
BRANCH  16  17
ATOM     17  C   UNL     1      17.873  13.910 -16.124  1.00  0.00     0.000 C 
BRANCH  17  18
ATOM     18  C   UNL     1      19.059  13.859 -15.155  1.00  0.00    -0.000 C 
BRANCH  18  19
ATOM     19  C   UNL     1      20.334  14.404 -15.816  1.00  0.00    -0.000 C 
BRANCH  19  20
ATOM     20  C   UNL     1      21.249  15.140 -14.825  1.00  0.00    -0.000 C 
BRANCH  20  21
ATOM     21  C   UNL     1      22.728  15.101 -15.239  1.00  0.00    -0.000 C 
BRANCH  21  22
ATOM     22  C   UNL     1      23.125  16.385 -15.984  1.00  0.00    -0.000 C 
BRANCH  22  23
ATOM     23  C   UNL     1      22.964  17.644 -15.106  1.00  0.00    -0.000 C 
BRANCH  23  24
ATOM     24  C   UNL     1      22.926  18.956 -15.909  1.00  0.00    -0.000 C 
BRANCH  24  25
ATOM     25  C   UNL     1      21.950  19.985 -15.323  1.00  0.00    -0.003 C 
ATOM     26  C   UNL     1      22.554  21.388 -15.338  1.00  0.00     0.004 C 
ENDBRANCH  24  25
ENDBRANCH  23  24
ENDBRANCH  22  23
ENDBRANCH  21  22
ENDBRANCH  20  21
ENDBRANCH  19  20
ENDBRANCH  18  19
ENDBRANCH  17  18
ENDBRANCH  16  17
ENDBRANCH  15  16
ENDBRANCH   1  15
TORSDOF 22
ENDMDL
MODEL 2
REMARK VINA RESULT:    -2.117      2.308      7.232
REMARK INTER + INTRA:          -6.706
REMARK INTER:                  -5.776
REMARK INTRA:                  -0.930
REMARK UNBOUND:                -1.866
REMARK SMILES CCCCCCCCCCCCCCCCCCCCCCCC(=O)[O-]
REMARK SMILES IDX 13 1 14 2 15 3 16 4 17 5 18 6 19 7 20 8 21 9 22 10 23 11
REMARK SMILES IDX 24 12 25 13 26 14 12 15 11 16 10 17 9 18 8 19 7 20 6 21 5 22
REMARK SMILES IDX 4 23 3 24 2 25 1 26
REMARK H PARENT
REMARK Flexibility Score: inf
ROOT
ATOM      1  C   UNL     1      19.507   8.942 -16.107  1.00  0.00     0.000 C 
ENDROOT
BRANCH   1   2
ATOM      2  C   UNL     1      20.789   8.372 -15.468  1.00  0.00     0.000 C 
BRANCH   2   3
ATOM      3  C   UNL     1      22.102   8.897 -16.074  1.00  0.00     0.000 C 
BRANCH   3   4
ATOM      4  C   UNL     1      22.164  10.436 -16.125  1.00  0.00     0.000 C 
BRANCH   4   5
ATOM      5  C   UNL     1      21.578  11.097 -14.866  1.00  0.00     0.000 C 
BRANCH   5   6
ATOM      6  C   UNL     1      22.537  12.055 -14.133  1.00  0.00     0.000 C 
BRANCH   6   7
ATOM      7  C   UNL     1      22.041  13.517 -14.088  1.00  0.00     0.000 C 
BRANCH   7   8
ATOM      8  C   UNL     1      22.993  14.477 -14.817  1.00  0.00     0.000 C 
BRANCH   8   9
ATOM      9  C   UNL     1      22.254  15.506 -15.688  1.00  0.00     0.000 C 
BRANCH   9  10
ATOM     10  C   UNL     1      23.033  16.825 -15.878  1.00  0.00     0.006 C 
BRANCH  10  11
ATOM     11  C   UNL     1      22.097  18.028 -16.058  1.00  0.00     0.053 C 
BRANCH  11  12
ATOM     12  C   UNL     1      22.087  18.875 -14.824  1.00  0.00     0.041 C 
ATOM     13  O   UNL     1      22.227  20.123 -14.913  1.00  0.00    -0.550 OA
ATOM     14  O   UNL     1      21.978  18.281 -13.574  1.00  0.00    -0.550 OA
ENDBRANCH  11  12
ENDBRANCH  10  11
ENDBRANCH   9  10
ENDBRANCH   8   9
ENDBRANCH   7   8
ENDBRANCH   6   7
ENDBRANCH   5   6
ENDBRANCH   4   5
ENDBRANCH   3   4
ENDBRANCH   2   3
ENDBRANCH   1   2
BRANCH   1  15
ATOM     15  C   UNL     1      18.209   8.187 -15.760  1.00  0.00     0.000 C 
BRANCH  15  16
ATOM     16  C   UNL     1      16.906   8.922 -16.122  1.00  0.00     0.000 C 
BRANCH  16  17
ATOM     17  C   UNL     1      15.747   8.584 -15.173  1.00  0.00     0.000 C 
BRANCH  17  18
ATOM     18  C   UNL     1      14.418   9.121 -15.715  1.00  0.00    -0.000 C 
BRANCH  18  19
ATOM     19  C   UNL     1      14.022  10.426 -15.007  1.00  0.00    -0.000 C 
BRANCH  19  20
ATOM     20  C   UNL     1      14.920  11.610 -15.398  1.00  0.00    -0.000 C 
BRANCH  20  21
ATOM     21  C   UNL     1      15.068  12.642 -14.270  1.00  0.00    -0.000 C 
BRANCH  21  22
ATOM     22  C   UNL     1      16.214  12.259 -13.320  1.00  0.00    -0.000 C 
BRANCH  22  23
ATOM     23  C   UNL     1      17.567  12.138 -14.054  1.00  0.00    -0.000 C 
BRANCH  23  24
ATOM     24  C   UNL     1      17.495  12.504 -15.546  1.00  0.00    -0.000 C 
BRANCH  24  25
ATOM     25  C   UNL     1      18.854  12.920 -16.124  1.00  0.00    -0.003 C 
ATOM     26  C   UNL     1      19.310  14.260 -15.550  1.00  0.00     0.004 C 
ENDBRANCH  24  25
ENDBRANCH  23  24
ENDBRANCH  22  23
ENDBRANCH  21  22
ENDBRANCH  20  21
ENDBRANCH  19  20
ENDBRANCH  18  19
ENDBRANCH  17  18
ENDBRANCH  16  17
ENDBRANCH  15  16
ENDBRANCH   1  15
TORSDOF 22
ENDMDL
MODEL 3
REMARK VINA RESULT:    -2.106      2.597      7.830
REMARK INTER + INTRA:          -6.681
REMARK INTER:                  -6.193
REMARK INTRA:                  -0.488
REMARK UNBOUND:                -1.866
REMARK SMILES CCCCCCCCCCCCCCCCCCCCCCCC(=O)[O-]
REMARK SMILES IDX 13 1 14 2 15 3 16 4 17 5 18 6 19 7 20 8 21 9 22 10 23 11
REMARK SMILES IDX 24 12 25 13 26 14 12 15 11 16 10 17 9 18 8 19 7 20 6 21 5 22
REMARK SMILES IDX 4 23 3 24 2 25 1 26
REMARK H PARENT
REMARK Flexibility Score: inf
ROOT
ATOM      1  C   UNL     1      17.508  12.971 -15.460  1.00  0.00     0.000 C 
ENDROOT
BRANCH   1   2
ATOM      2  C   UNL     1      18.716  13.865 -15.801  1.00  0.00     0.000 C 
BRANCH   2   3
ATOM      3  C   UNL     1      20.025  13.104 -16.079  1.00  0.00     0.000 C 
BRANCH   3   4
ATOM      4  C   UNL     1      20.514  12.291 -14.866  1.00  0.00     0.000 C 
BRANCH   4   5
ATOM      5  C   UNL     1      20.778  13.166 -13.629  1.00  0.00     0.000 C 
BRANCH   5   6
ATOM      6  C   UNL     1      22.181  13.009 -13.013  1.00  0.00     0.000 C 
BRANCH   6   7
ATOM      7  C   UNL     1      23.117  14.206 -13.285  1.00  0.00     0.000 C 
BRANCH   7   8
ATOM      8  C   UNL     1      23.100  14.636 -14.760  1.00  0.00     0.000 C 
BRANCH   8   9
ATOM      9  C   UNL     1      22.311  15.934 -14.997  1.00  0.00     0.000 C 
BRANCH   9  10
ATOM     10  C   UNL     1      23.010  16.911 -15.967  1.00  0.00     0.006 C 
BRANCH  10  11
ATOM     11  C   UNL     1      23.124  18.324 -15.380  1.00  0.00     0.053 C 
BRANCH  11  12
ATOM     12  C   UNL     1      21.803  19.026 -15.443  1.00  0.00     0.041 C 
ATOM     13  O   UNL     1      20.790  18.428 -15.893  1.00  0.00    -0.550 OA
ATOM     14  O   UNL     1      21.702  20.355 -15.055  1.00  0.00    -0.550 OA
ENDBRANCH  11  12
ENDBRANCH  10  11
ENDBRANCH   9  10
ENDBRANCH   8   9
ENDBRANCH   7   8
ENDBRANCH   6   7
ENDBRANCH   5   6
ENDBRANCH   4   5
ENDBRANCH   3   4
ENDBRANCH   2   3
ENDBRANCH   1   2
BRANCH   1  15
ATOM     15  C   UNL     1      16.134  13.546 -15.859  1.00  0.00     0.000 C 
BRANCH  15  16
ATOM     16  C   UNL     1      15.018  12.504 -16.052  1.00  0.00     0.000 C 
BRANCH  16  17
ATOM     17  C   UNL     1      15.440  11.092 -15.620  1.00  0.00     0.000 C 
BRANCH  17  18
ATOM     18  C   UNL     1      14.426  10.491 -14.639  1.00  0.00    -0.000 C 
BRANCH  18  19
ATOM     19  C   UNL     1      13.798   9.212 -15.213  1.00  0.00    -0.000 C 
BRANCH  19  20
ATOM     20  C   UNL     1      14.764   8.428 -16.115  1.00  0.00    -0.000 C 
BRANCH  20  21
ATOM     21  C   UNL     1      16.062   8.033 -15.394  1.00  0.00    -0.000 C 
BRANCH  21  22
ATOM     22  C   UNL     1      17.291   8.598 -16.124  1.00  0.00    -0.000 C 
BRANCH  22  23
ATOM     23  C   UNL     1      18.361   9.128 -15.146  1.00  0.00    -0.000 C 
BRANCH  23  24
ATOM     24  C   UNL     1      17.922   9.094 -13.672  1.00  0.00    -0.000 C 
BRANCH  24  25
ATOM     25  C   UNL     1      18.608  10.169 -12.820  1.00  0.00    -0.003 C 
ATOM     26  C   UNL     1      18.039  11.555 -13.119  1.00  0.00     0.004 C 
ENDBRANCH  24  25
ENDBRANCH  23  24
ENDBRANCH  22  23
ENDBRANCH  21  22
ENDBRANCH  20  21
ENDBRANCH  19  20
ENDBRANCH  18  19
ENDBRANCH  17  18
ENDBRANCH  16  17
ENDBRANCH  15  16
ENDBRANCH   1  15
TORSDOF 22
ENDMDL
MODEL 4
REMARK VINA RESULT:    -1.884      2.609      6.339
REMARK INTER + INTRA:          -6.173
REMARK INTER:                  -4.121
REMARK INTRA:                  -2.052
REMARK UNBOUND:                -1.866
REMARK SMILES CCCCCCCCCCCCCCCCCCCCCCCC(=O)[O-]
REMARK SMILES IDX 13 1 14 2 15 3 16 4 17 5 18 6 19 7 20 8 21 9 22 10 23 11
REMARK SMILES IDX 24 12 25 13 26 14 12 15 11 16 10 17 9 18 8 19 7 20 6 21 5 22
REMARK SMILES IDX 4 23 3 24 2 25 1 26
REMARK H PARENT
REMARK Flexibility Score: inf
ROOT
ATOM      1  C   UNL     1      14.033  10.850 -14.656  1.00  0.00     0.000 C 
ENDROOT
BRANCH   1   2
ATOM      2  C   UNL     1      14.658  11.759 -15.732  1.00  0.00     0.000 C 
BRANCH   2   3
ATOM      3  C   UNL     1      15.151  13.124 -15.220  1.00  0.00     0.000 C 
BRANCH   3   4
ATOM      4  C   UNL     1      16.229  13.750 -16.125  1.00  0.00     0.000 C 
BRANCH   4   5
ATOM      5  C   UNL     1      17.658  13.370 -15.700  1.00  0.00     0.000 C 
BRANCH   5   6
ATOM      6  C   UNL     1      18.731  14.425 -16.027  1.00  0.00     0.000 C 
BRANCH   6   7
ATOM      7  C   UNL     1      20.021  14.281 -15.191  1.00  0.00     0.000 C 
BRANCH   7   8
ATOM      8  C   UNL     1      21.288  14.494 -16.034  1.00  0.00     0.000 C 
BRANCH   8   9
ATOM      9  C   UNL     1      22.244  15.533 -15.427  1.00  0.00     0.000 C 
BRANCH   9  10
ATOM     10  C   UNL     1      21.653  16.959 -15.378  1.00  0.00     0.006 C 
BRANCH  10  11
ATOM     11  C   UNL     1      22.741  18.038 -15.469  1.00  0.00     0.053 C 
BRANCH  11  12
ATOM     12  C   UNL     1      22.206  19.362 -15.021  1.00  0.00     0.041 C 
ATOM     13  O   UNL     1      22.790  20.426 -15.354  1.00  0.00    -0.550 OA
ATOM     14  O   UNL     1      21.094  19.417 -14.191  1.00  0.00    -0.550 OA
ENDBRANCH  11  12
ENDBRANCH  10  11
ENDBRANCH   9  10
ENDBRANCH   8   9
ENDBRANCH   7   8
ENDBRANCH   6   7
ENDBRANCH   5   6
ENDBRANCH   4   5
ENDBRANCH   3   4
ENDBRANCH   2   3
ENDBRANCH   1   2
BRANCH   1  15
ATOM     15  C   UNL     1      13.756   9.401 -15.102  1.00  0.00     0.000 C 
BRANCH  15  16
ATOM     16  C   UNL     1      14.900   8.405 -14.842  1.00  0.00     0.000 C 
BRANCH  16  17
ATOM     17  C   UNL     1      15.764   8.150 -16.085  1.00  0.00     0.000 C 
BRANCH  17  18
ATOM     18  C   UNL     1      17.256   8.215 -15.741  1.00  0.00    -0.000 C 
BRANCH  18  19
ATOM     19  C   UNL     1      17.488   9.013 -14.449  1.00  0.00    -0.000 C 
BRANCH  19  20
ATOM     20  C   UNL     1      18.975   9.287 -14.179  1.00  0.00    -0.000 C 
BRANCH  20  21
ATOM     21  C   UNL     1      19.451  10.622 -14.772  1.00  0.00    -0.000 C 
BRANCH  21  22
ATOM     22  C   UNL     1      20.644  11.181 -13.981  1.00  0.00    -0.000 C 
BRANCH  22  23
ATOM     23  C   UNL     1      21.953  11.154 -14.799  1.00  0.00    -0.000 C 
BRANCH  23  24
ATOM     24  C   UNL     1      22.981  12.208 -14.354  1.00  0.00    -0.000 C 
BRANCH  24  25
ATOM     25  C   UNL     1      23.113  12.306 -12.829  1.00  0.00    -0.003 C 
ATOM     26  C   UNL     1      22.531  13.619 -12.309  1.00  0.00     0.004 C 
ENDBRANCH  24  25
ENDBRANCH  23  24
ENDBRANCH  22  23
ENDBRANCH  21  22
ENDBRANCH  20  21
ENDBRANCH  19  20
ENDBRANCH  18  19
ENDBRANCH  17  18
ENDBRANCH  16  17
ENDBRANCH  15  16
ENDBRANCH   1  15
TORSDOF 22
ENDMDL
MODEL 5
REMARK VINA RESULT:    -1.589      1.698      4.160
REMARK INTER + INTRA:          -5.498
REMARK INTER:                  -4.968
REMARK INTRA:                  -0.530
REMARK UNBOUND:                -1.866
REMARK SMILES CCCCCCCCCCCCCCCCCCCCCCCC(=O)[O-]
REMARK SMILES IDX 13 1 14 2 15 3 16 4 17 5 18 6 19 7 20 8 21 9 22 10 23 11
REMARK SMILES IDX 24 12 25 13 26 14 12 15 11 16 10 17 9 18 8 19 7 20 6 21 5 22
REMARK SMILES IDX 4 23 3 24 2 25 1 26
REMARK H PARENT
REMARK Flexibility Score: inf
ROOT
ATOM      1  C   UNL     1      16.787   9.301 -14.785  1.00  0.00     0.000 C 
ENDROOT
BRANCH   1   2
ATOM      2  C   UNL     1      15.945   8.035 -14.534  1.00  0.00     0.000 C 
BRANCH   2   3
ATOM      3  C   UNL     1      14.456   8.165 -14.902  1.00  0.00     0.000 C 
BRANCH   3   4
ATOM      4  C   UNL     1      14.188   9.286 -15.924  1.00  0.00     0.000 C 
BRANCH   4   5
ATOM      5  C   UNL     1      13.737  10.600 -15.262  1.00  0.00     0.000 C 
BRANCH   5   6
ATOM      6  C   UNL     1      14.459  10.941 -13.945  1.00  0.00     0.000 C 
BRANCH   6   7
ATOM      7  C   UNL     1      14.639  12.456 -13.709  1.00  0.00     0.000 C 
BRANCH   7   8
ATOM      8  C   UNL     1      15.494  13.117 -14.801  1.00  0.00     0.000 C 
BRANCH   8   9
ATOM      9  C   UNL     1      16.789  12.343 -15.099  1.00  0.00     0.000 C 
BRANCH   9  10
ATOM     10  C   UNL     1      18.035  13.248 -15.209  1.00  0.00     0.006 C 
BRANCH  10  11
ATOM     11  C   UNL     1      19.340  12.450 -15.081  1.00  0.00     0.053 C 
BRANCH  11  12
ATOM     12  C   UNL     1      19.731  12.313 -13.642  1.00  0.00     0.041 C 
ATOM     13  O   UNL     1      20.540  13.128 -13.127  1.00  0.00    -0.550 OA
ATOM     14  O   UNL     1      19.245  11.253 -12.887  1.00  0.00    -0.550 OA
ENDBRANCH  11  12
ENDBRANCH  10  11
ENDBRANCH   9  10
ENDBRANCH   8   9
ENDBRANCH   7   8
ENDBRANCH   6   7
ENDBRANCH   5   6
ENDBRANCH   4   5
ENDBRANCH   3   4
ENDBRANCH   2   3
ENDBRANCH   1   2
BRANCH   1  15
ATOM     15  C   UNL     1      17.599   9.299 -16.096  1.00  0.00     0.000 C 
BRANCH  15  16
ATOM     16  C   UNL     1      18.824   8.367 -16.107  1.00  0.00     0.000 C 
BRANCH  16  17
ATOM     17  C   UNL     1      20.062   9.001 -15.458  1.00  0.00     0.000 C 
BRANCH  17  18
ATOM     18  C   UNL     1      21.341   8.272 -15.885  1.00  0.00    -0.000 C 
BRANCH  18  19
ATOM     19  C   UNL     1      22.588   9.097 -15.532  1.00  0.00    -0.000 C 
BRANCH  19  20
ATOM     20  C   UNL     1      22.543  10.520 -16.110  1.00  0.00    -0.000 C 
BRANCH  20  21
ATOM     21  C   UNL     1      22.711  11.604 -15.035  1.00  0.00    -0.000 C 
BRANCH  21  22
ATOM     22  C   UNL     1      23.125  12.944 -15.665  1.00  0.00    -0.000 C 
BRANCH  22  23
ATOM     23  C   UNL     1      21.907  13.790 -16.093  1.00  0.00    -0.000 C 
BRANCH  23  24
ATOM     24  C   UNL     1      22.113  15.304 -15.913  1.00  0.00    -0.000 C 
BRANCH  24  25
ATOM     25  C   UNL     1      22.608  15.676 -14.509  1.00  0.00    -0.003 C 
ATOM     26  C   UNL     1      23.052  17.135 -14.450  1.00  0.00     0.004 C 
ENDBRANCH  24  25
ENDBRANCH  23  24
ENDBRANCH  22  23
ENDBRANCH  21  22
ENDBRANCH  20  21
ENDBRANCH  19  20
ENDBRANCH  18  19
ENDBRANCH  17  18
ENDBRANCH  16  17
ENDBRANCH  15  16
ENDBRANCH   1  15
TORSDOF 22
ENDMDL
MODEL 6
REMARK VINA RESULT:    -1.163      2.169      5.057
REMARK INTER + INTRA:          -4.525
REMARK INTER:                  -2.583
REMARK INTRA:                  -1.942
REMARK UNBOUND:                -1.866
REMARK SMILES CCCCCCCCCCCCCCCCCCCCCCCC(=O)[O-]
REMARK SMILES IDX 13 1 14 2 15 3 16 4 17 5 18 6 19 7 20 8 21 9 22 10 23 11
REMARK SMILES IDX 24 12 25 13 26 14 12 15 11 16 10 17 9 18 8 19 7 20 6 21 5 22
REMARK SMILES IDX 4 23 3 24 2 25 1 26
REMARK H PARENT
REMARK Flexibility Score: inf
ROOT
ATOM      1  C   UNL     1      15.632   8.324 -15.763  1.00  0.00     0.000 C 
ENDROOT
BRANCH   1   2
ATOM      2  C   UNL     1      15.055   9.752 -15.793  1.00  0.00     0.000 C 
BRANCH   2   3
ATOM      3  C   UNL     1      13.927  10.015 -14.779  1.00  0.00     0.000 C 
BRANCH   3   4
ATOM      4  C   UNL     1      14.207  11.228 -13.872  1.00  0.00     0.000 C 
BRANCH   4   5
ATOM      5  C   UNL     1      15.549  11.910 -14.187  1.00  0.00     0.000 C 
BRANCH   5   6
ATOM      6  C   UNL     1      15.437  13.208 -15.009  1.00  0.00     0.000 C 
BRANCH   6   7
ATOM      7  C   UNL     1      16.801  13.803 -15.420  1.00  0.00     0.000 C 
BRANCH   7   8
ATOM      8  C   UNL     1      17.713  12.762 -16.087  1.00  0.00     0.000 C 
BRANCH   8   9
ATOM      9  C   UNL     1      19.137  12.753 -15.506  1.00  0.00     0.000 C 
BRANCH   9  10
ATOM     10  C   UNL     1      19.605  14.136 -15.004  1.00  0.00     0.006 C 
BRANCH  10  11
ATOM     11  C   UNL     1      20.235  14.974 -16.125  1.00  0.00     0.053 C 
BRANCH  11  12
ATOM     12  C   UNL     1      21.420  15.731 -15.611  1.00  0.00     0.041 C 
ATOM     13  O   UNL     1      22.501  15.131 -15.377  1.00  0.00    -0.550 OA
ATOM     14  O   UNL     1      21.313  17.089 -15.340  1.00  0.00    -0.550 OA
ENDBRANCH  11  12
ENDBRANCH  10  11
ENDBRANCH   9  10
ENDBRANCH   8   9
ENDBRANCH   7   8
ENDBRANCH   6   7
ENDBRANCH   5   6
ENDBRANCH   4   5
ENDBRANCH   3   4
ENDBRANCH   2   3
ENDBRANCH   1   2
BRANCH   1  15
ATOM     15  C   UNL     1      17.127   8.213 -16.123  1.00  0.00     0.000 C 
BRANCH  15  16
ATOM     16  C   UNL     1      17.909   9.539 -16.090  1.00  0.00     0.000 C 
BRANCH  16  17
ATOM     17  C   UNL     1      18.912   9.612 -14.930  1.00  0.00     0.000 C 
BRANCH  17  18
ATOM     18  C   UNL     1      19.884   8.428 -14.968  1.00  0.00    -0.000 C 
BRANCH  18  19
ATOM     19  C   UNL     1      20.885   8.576 -16.125  1.00  0.00    -0.000 C 
BRANCH  19  20
ATOM     20  C   UNL     1      22.347   8.493 -15.660  1.00  0.00    -0.000 C 
BRANCH  20  21
ATOM     21  C   UNL     1      23.117   9.803 -15.884  1.00  0.00    -0.000 C 
BRANCH  21  22
ATOM     22  C   UNL     1      22.319  11.007 -15.361  1.00  0.00    -0.000 C 
BRANCH  22  23
ATOM     23  C   UNL     1      22.911  11.579 -14.054  1.00  0.00    -0.000 C 
BRANCH  23  24
ATOM     24  C   UNL     1      21.919  12.439 -13.252  1.00  0.00    -0.000 C 
BRANCH  24  25
ATOM     25  C   UNL     1      22.592  13.225 -12.119  1.00  0.00    -0.003 C 
ATOM     26  C   UNL     1      23.101  14.577 -12.613  1.00  0.00     0.004 C 
ENDBRANCH  24  25
ENDBRANCH  23  24
ENDBRANCH  22  23
ENDBRANCH  21  22
ENDBRANCH  20  21
ENDBRANCH  19  20
ENDBRANCH  18  19
ENDBRANCH  17  18
ENDBRANCH  16  17
ENDBRANCH  15  16
ENDBRANCH   1  15
TORSDOF 22
ENDMDL
MODEL 7
REMARK VINA RESULT:    -0.981      3.006      7.033
REMARK INTER + INTRA:          -4.108
REMARK INTER:                  -3.348
REMARK INTRA:                  -0.760
REMARK UNBOUND:                -1.866
REMARK SMILES CCCCCCCCCCCCCCCCCCCCCCCC(=O)[O-]
REMARK SMILES IDX 13 1 14 2 15 3 16 4 17 5 18 6 19 7 20 8 21 9 22 10 23 11
REMARK SMILES IDX 24 12 25 13 26 14 12 15 11 16 10 17 9 18 8 19 7 20 6 21 5 22
REMARK SMILES IDX 4 23 3 24 2 25 1 26
REMARK H PARENT
REMARK Flexibility Score: inf
ROOT
ATOM      1  C   UNL     1      21.060  14.706 -13.987  1.00  0.00     0.000 C 
ENDROOT
BRANCH   1   2
ATOM      2  C   UNL     1      21.123  14.502 -15.513  1.00  0.00     0.000 C 
BRANCH   2   3
ATOM      3  C   UNL     1      19.950  13.703 -16.108  1.00  0.00     0.000 C 
BRANCH   3   4
ATOM      4  C   UNL     1      18.585  14.379 -15.872  1.00  0.00     0.000 C 
BRANCH   4   5
ATOM      5  C   UNL     1      17.449  13.366 -15.654  1.00  0.00     0.000 C 
BRANCH   5   6
ATOM      6  C   UNL     1      16.052  13.862 -16.072  1.00  0.00     0.000 C 
BRANCH   6   7
ATOM      7  C   UNL     1      14.940  12.803 -15.909  1.00  0.00     0.000 C 
BRANCH   7   8
ATOM      8  C   UNL     1      14.951  12.160 -14.513  1.00  0.00     0.000 C 
BRANCH   8   9
ATOM      9  C   UNL     1      14.137  10.857 -14.448  1.00  0.00     0.000 C 
BRANCH   9  10
ATOM     10  C   UNL     1      13.707  10.330 -15.834  1.00  0.00     0.006 C 
BRANCH  10  11
ATOM     11  C   UNL     1      14.173   8.887 -16.072  1.00  0.00     0.053 C 
BRANCH  11  12
ATOM     12  C   UNL     1      15.446   8.618 -15.331  1.00  0.00     0.041 C 
ATOM     13  O   UNL     1      16.556   8.825 -15.887  1.00  0.00    -0.550 OA
ATOM     14  O   UNL     1      15.405   8.087 -14.049  1.00  0.00    -0.550 OA
ENDBRANCH  11  12
ENDBRANCH  10  11
ENDBRANCH   9  10
ENDBRANCH   8   9
ENDBRANCH   7   8
ENDBRANCH   6   7
ENDBRANCH   5   6
ENDBRANCH   4   5
ENDBRANCH   3   4
ENDBRANCH   2   3
ENDBRANCH   1   2
BRANCH   1  15
ATOM     15  C   UNL     1      22.064  13.866 -13.171  1.00  0.00     0.000 C 
BRANCH  15  16
ATOM     16  C   UNL     1      22.218  12.404 -13.627  1.00  0.00     0.000 C 
BRANCH  16  17
ATOM     17  C   UNL     1      23.117  12.257 -14.863  1.00  0.00     0.000 C 
BRANCH  17  18
ATOM     18  C   UNL     1      22.438  11.401 -15.938  1.00  0.00    -0.000 C 
BRANCH  18  19
ATOM     19  C   UNL     1      23.122  10.031 -16.064  1.00  0.00    -0.000 C 
BRANCH  19  20
ATOM     20  C   UNL     1      22.118   8.869 -16.111  1.00  0.00    -0.000 C 
BRANCH  20  21
ATOM     21  C   UNL     1      21.060   8.951 -14.999  1.00  0.00    -0.000 C 
BRANCH  21  22
ATOM     22  C   UNL     1      19.663   9.201 -15.587  1.00  0.00    -0.000 C 
BRANCH  22  23
ATOM     23  C   UNL     1      19.074  10.557 -15.142  1.00  0.00    -0.000 C 
BRANCH  23  24
ATOM     24  C   UNL     1      19.355  10.898 -13.669  1.00  0.00    -0.000 C 
BRANCH  24  25
ATOM     25  C   UNL     1      18.448  12.013 -13.131  1.00  0.00    -0.003 C 
ATOM     26  C   UNL     1      17.096  11.456 -12.688  1.00  0.00     0.004 C 
ENDBRANCH  24  25
ENDBRANCH  23  24
ENDBRANCH  22  23
ENDBRANCH  21  22
ENDBRANCH  20  21
ENDBRANCH  19  20
ENDBRANCH  18  19
ENDBRANCH  17  18
ENDBRANCH  16  17
ENDBRANCH  15  16
ENDBRANCH   1  15
TORSDOF 22
ENDMDL
MODEL 8
REMARK VINA RESULT:    -0.846      2.747      8.028
REMARK INTER + INTRA:          -3.800
REMARK INTER:                  -3.861
REMARK INTRA:                   0.061
REMARK UNBOUND:                -1.866
REMARK SMILES CCCCCCCCCCCCCCCCCCCCCCCC(=O)[O-]
REMARK SMILES IDX 13 1 14 2 15 3 16 4 17 5 18 6 19 7 20 8 21 9 22 10 23 11
REMARK SMILES IDX 24 12 25 13 26 14 12 15 11 16 10 17 9 18 8 19 7 20 6 21 5 22
REMARK SMILES IDX 4 23 3 24 2 25 1 26
REMARK H PARENT
REMARK Flexibility Score: inf
ROOT
ATOM      1  C   UNL     1      18.594  11.988 -13.219  1.00  0.00     0.000 C 
ENDROOT
BRANCH   1   2
ATOM      2  C   UNL     1      19.449  12.606 -14.343  1.00  0.00     0.000 C 
BRANCH   2   3
ATOM      3  C   UNL     1      20.690  13.377 -13.861  1.00  0.00     0.000 C 
BRANCH   3   4
ATOM      4  C   UNL     1      21.750  12.464 -13.215  1.00  0.00     0.000 C 
BRANCH   4   5
ATOM      5  C   UNL     1      23.030  12.347 -14.060  1.00  0.00     0.000 C 
BRANCH   5   6
ATOM      6  C   UNL     1      22.830  12.573 -15.571  1.00  0.00     0.000 C 
BRANCH   6   7
ATOM      7  C   UNL     1      23.099  14.024 -16.023  1.00  0.00     0.000 C 
BRANCH   7   8
ATOM      8  C   UNL     1      22.535  15.056 -15.035  1.00  0.00     0.000 C 
BRANCH   8   9
ATOM      9  C   UNL     1      22.589  16.495 -15.573  1.00  0.00     0.000 C 
BRANCH   9  10
ATOM     10  C   UNL     1      23.117  17.518 -14.545  1.00  0.00     0.006 C 
BRANCH  10  11
ATOM     11  C   UNL     1      22.102  18.634 -14.268  1.00  0.00     0.053 C 
BRANCH  11  12
ATOM     12  C   UNL     1      21.753  19.352 -15.535  1.00  0.00     0.041 C 
ATOM     13  O   UNL     1      22.608  20.076 -16.108  1.00  0.00    -0.550 OA
ATOM     14  O   UNL     1      20.467  19.265 -16.052  1.00  0.00    -0.550 OA
ENDBRANCH  11  12
ENDBRANCH  10  11
ENDBRANCH   9  10
ENDBRANCH   8   9
ENDBRANCH   7   8
ENDBRANCH   6   7
ENDBRANCH   5   6
ENDBRANCH   4   5
ENDBRANCH   3   4
ENDBRANCH   2   3
ENDBRANCH   1   2
BRANCH   1  15
ATOM     15  C   UNL     1      19.052  10.597 -12.736  1.00  0.00     0.000 C 
BRANCH  15  16
ATOM     16  C   UNL     1      18.349   9.405 -13.409  1.00  0.00     0.000 C 
BRANCH  16  17
ATOM     17  C   UNL     1      19.056   8.942 -14.691  1.00  0.00     0.000 C 
BRANCH  17  18
ATOM     18  C   UNL     1      18.039   8.588 -15.782  1.00  0.00    -0.000 C 
BRANCH  18  19
ATOM     19  C   UNL     1      16.670   8.254 -15.171  1.00  0.00    -0.000 C 
BRANCH  19  20
ATOM     20  C   UNL     1      15.548   9.164 -15.694  1.00  0.00    -0.000 C 
BRANCH  20  21
ATOM     21  C   UNL     1      16.057  10.548 -16.124  1.00  0.00    -0.000 C 
BRANCH  21  22
ATOM     22  C   UNL     1      14.916  11.578 -16.125  1.00  0.00    -0.000 C 
BRANCH  22  23
ATOM     23  C   UNL     1      15.280  12.856 -15.339  1.00  0.00    -0.000 C 
BRANCH  23  24
ATOM     24  C   UNL     1      15.763  12.582 -13.904  1.00  0.00    -0.000 C 
BRANCH  24  25
ATOM     25  C   UNL     1      14.703  11.887 -13.040  1.00  0.00    -0.003 C 
ATOM     26  C   UNL     1      13.361  11.816 -13.766  1.00  0.00     0.004 C 
ENDBRANCH  24  25
ENDBRANCH  23  24
ENDBRANCH  22  23
ENDBRANCH  21  22
ENDBRANCH  20  21
ENDBRANCH  19  20
ENDBRANCH  18  19
ENDBRANCH  17  18
ENDBRANCH  16  17
ENDBRANCH  15  16
ENDBRANCH   1  15
TORSDOF 22
ENDMDL
