MODEL 1
REMARK VINA RESULT:    -3.154      0.000      0.000
REMARK INTER + INTRA:         -14.035
REMARK INTER:                  -8.317
REMARK INTRA:                  -5.718
REMARK UNBOUND:                -5.718
REMARK SMILES CCCCCCCCCCCCCCCCCCCCCCCCCCCCCC(=O)[O-]
REMARK SMILES IDX 16 1 17 2 18 3 19 4 20 5 21 6 22 7 23 8 24 9 25 10 26 11
REMARK SMILES IDX 27 12 28 13 29 14 30 15 31 16 32 17 15 18 14 19 13 20 12 21
REMARK SMILES IDX 11 22 10 23 9 24 8 25 7 26 6 27 5 28 4 29 3 30 2 31 1 32
REMARK H PARENT
REMARK Flexibility Score: inf
ROOT
ATOM      1  C   UNL     1      27.672  33.574  54.124  1.00  0.00     0.000 C 
ENDROOT
BRANCH   1   2
ATOM      2  C   UNL     1      26.429  34.413  53.779  1.00  0.00     0.000 C 
BRANCH   2   3
ATOM      3  C   UNL     1      25.275  33.649  53.105  1.00  0.00     0.000 C 
BRANCH   3   4
ATOM      4  C   UNL     1      25.641  33.099  51.715  1.00  0.00     0.000 C 
BRANCH   4   5
ATOM      5  C   UNL     1      25.801  31.567  51.700  1.00  0.00     0.000 C 
BRANCH   5   6
ATOM      6  C   UNL     1      24.969  30.803  52.749  1.00  0.00     0.000 C 
BRANCH   6   7
ATOM      7  C   UNL     1      25.834  29.954  53.695  1.00  0.00     0.000 C 
BRANCH   7   8
ATOM      8  C   UNL     1      25.866  30.504  55.132  1.00  0.00     0.000 C 
BRANCH   8   9
ATOM      9  C   UNL     1      24.919  29.810  56.133  1.00  0.00     0.000 C 
BRANCH   9  10
ATOM     10  C   UNL     1      24.823  28.279  55.995  1.00  0.00     0.000 C 
BRANCH  10  11
ATOM     11  C   UNL     1      23.372  27.765  55.845  1.00  0.00     0.000 C 
BRANCH  11  12
ATOM     12  C   UNL     1      22.527  28.629  54.890  1.00  0.00     0.000 C 
BRANCH  12  13
ATOM     13  C   UNL     1      21.155  29.038  55.476  1.00  0.00     0.006 C 
BRANCH  13  14
ATOM     14  C   UNL     1      21.219  30.252  56.421  1.00  0.00     0.053 C 
BRANCH  14  15
ATOM     15  C   UNL     1      21.199  29.853  57.865  1.00  0.00     0.041 C 
ATOM     16  O   UNL     1      21.519  30.682  58.757  1.00  0.00    -0.550 OA
ATOM     17  O   UNL     1      20.833  28.562  58.227  1.00  0.00    -0.550 OA
ENDBRANCH  14  15
ENDBRANCH  13  14
ENDBRANCH  12  13
ENDBRANCH  11  12
ENDBRANCH  10  11
ENDBRANCH   9  10
ENDBRANCH   8   9
ENDBRANCH   7   8
ENDBRANCH   6   7
ENDBRANCH   5   6
ENDBRANCH   4   5
ENDBRANCH   3   4
ENDBRANCH   2   3
ENDBRANCH   1   2
BRANCH   1  18
ATOM     18  C   UNL     1      28.973  34.392  54.132  1.00  0.00     0.000 C 
BRANCH  18  19
ATOM     19  C   UNL     1      30.034  33.838  53.164  1.00  0.00     0.000 C 
BRANCH  19  20
ATOM     20  C   UNL     1      29.438  33.183  51.897  1.00  0.00     0.000 C 
BRANCH  20  21
ATOM     21  C   UNL     1      29.925  31.733  51.713  1.00  0.00     0.000 C 
BRANCH  21  22
ATOM     22  C   UNL     1      29.290  30.756  52.716  1.00  0.00     0.000 C 
BRANCH  22  23
ATOM     23  C   UNL     1      30.253  29.634  53.143  1.00  0.00     0.000 C 
BRANCH  23  24
ATOM     24  C   UNL     1      31.727  30.072  53.088  1.00  0.00    -0.000 C 
BRANCH  24  25
ATOM     25  C   UNL     1      32.342  30.239  54.486  1.00  0.00    -0.000 C 
BRANCH  25  26
ATOM     26  C   UNL     1      32.182  31.681  54.986  1.00  0.00    -0.000 C 
BRANCH  26  27
ATOM     27  C   UNL     1      31.856  31.704  56.487  1.00  0.00    -0.000 C 
BRANCH  27  28
ATOM     28  C   UNL     1      30.443  32.238  56.779  1.00  0.00    -0.000 C 
BRANCH  28  29
ATOM     29  C   UNL     1      29.300  31.250  56.470  1.00  0.00    -0.000 C 
BRANCH  29  30
ATOM     30  C   UNL     1      29.387  29.930  57.267  1.00  0.00    -0.000 C 
BRANCH  30  31
ATOM     31  C   UNL     1      28.100  29.645  58.053  1.00  0.00    -0.003 C 
ATOM     32  C   UNL     1      27.752  30.803  58.985  1.00  0.00     0.004 C 
ENDBRANCH  30  31
ENDBRANCH  29  30
ENDBRANCH  28  29
ENDBRANCH  27  28
ENDBRANCH  26  27
ENDBRANCH  25  26
ENDBRANCH  24  25
ENDBRANCH  23  24
ENDBRANCH  22  23
ENDBRANCH  21  22
ENDBRANCH  20  21
ENDBRANCH  19  20
ENDBRANCH  18  19
ENDBRANCH   1  18
TORSDOF 28
ENDMDL
MODEL 2
REMARK VINA RESULT:    -3.104      2.672      5.678
REMARK INTER + INTRA:         -13.903
REMARK INTER:                  -9.861
REMARK INTRA:                  -4.042
REMARK UNBOUND:                -5.718
REMARK SMILES CCCCCCCCCCCCCCCCCCCCCCCCCCCCCC(=O)[O-]
REMARK SMILES IDX 16 1 17 2 18 3 19 4 20 5 21 6 22 7 23 8 24 9 25 10 26 11
REMARK SMILES IDX 27 12 28 13 29 14 30 15 31 16 32 17 15 18 14 19 13 20 12 21
REMARK SMILES IDX 11 22 10 23 9 24 8 25 7 26 6 27 5 28 4 29 3 30 2 31 1 32
REMARK H PARENT
REMARK Flexibility Score: inf
ROOT
ATOM      1  C   UNL     1      26.429  29.515  55.997  1.00  0.00     0.000 C 
ENDROOT
BRANCH   1   2
ATOM      2  C   UNL     1      24.968  29.303  55.562  1.00  0.00     0.000 C 
BRANCH   2   3
ATOM      3  C   UNL     1      24.071  30.554  55.607  1.00  0.00     0.000 C 
BRANCH   3   4
ATOM      4  C   UNL     1      22.656  30.269  56.141  1.00  0.00     0.000 C 
BRANCH   4   5
ATOM      5  C   UNL     1      22.632  29.997  57.657  1.00  0.00     0.000 C 
BRANCH   5   6
ATOM      6  C   UNL     1      21.535  30.737  58.446  1.00  0.00     0.000 C 
BRANCH   6   7
ATOM      7  C   UNL     1      20.873  29.858  59.520  1.00  0.00     0.000 C 
BRANCH   7   8
ATOM      8  C   UNL     1      20.846  28.367  59.140  1.00  0.00     0.000 C 
BRANCH   8   9
ATOM      9  C   UNL     1      19.579  27.891  58.398  1.00  0.00     0.000 C 
BRANCH   9  10
ATOM     10  C   UNL     1      19.695  27.840  56.864  1.00  0.00     0.000 C 
BRANCH  10  11
ATOM     11  C   UNL     1      18.617  28.678  56.138  1.00  0.00     0.000 C 
BRANCH  11  12
ATOM     12  C   UNL     1      19.195  29.553  55.011  1.00  0.00     0.000 C 
BRANCH  12  13
ATOM     13  C   UNL     1      18.125  30.082  54.026  1.00  0.00     0.006 C 
BRANCH  13  14
ATOM     14  C   UNL     1      16.705  29.560  54.312  1.00  0.00     0.053 C 
BRANCH  14  15
ATOM     15  C   UNL     1      16.257  28.545  53.305  1.00  0.00     0.041 C 
ATOM     16  O   UNL     1      15.069  28.126  53.312  1.00  0.00    -0.550 OA
ATOM     17  O   UNL     1      17.152  28.055  52.363  1.00  0.00    -0.550 OA
ENDBRANCH  14  15
ENDBRANCH  13  14
ENDBRANCH  12  13
ENDBRANCH  11  12
ENDBRANCH  10  11
ENDBRANCH   9  10
ENDBRANCH   8   9
ENDBRANCH   7   8
ENDBRANCH   6   7
ENDBRANCH   5   6
ENDBRANCH   4   5
ENDBRANCH   3   4
ENDBRANCH   2   3
ENDBRANCH   1   2
BRANCH   1  18
ATOM     18  C   UNL     1      26.574  29.861  57.487  1.00  0.00     0.000 C 
BRANCH  18  19
ATOM     19  C   UNL     1      27.888  30.596  57.806  1.00  0.00     0.000 C 
BRANCH  19  20
ATOM     20  C   UNL     1      28.554  31.243  56.570  1.00  0.00     0.000 C 
BRANCH  20  21
ATOM     21  C   UNL     1      30.056  31.503  56.793  1.00  0.00     0.000 C 
BRANCH  21  22
ATOM     22  C   UNL     1      30.855  31.562  55.481  1.00  0.00     0.000 C 
BRANCH  22  23
ATOM     23  C   UNL     1      30.344  30.561  54.430  1.00  0.00     0.000 C 
BRANCH  23  24
ATOM     24  C   UNL     1      29.984  31.239  53.097  1.00  0.00    -0.000 C 
BRANCH  24  25
ATOM     25  C   UNL     1      30.499  32.685  53.017  1.00  0.00    -0.000 C 
BRANCH  25  26
ATOM     26  C   UNL     1      29.361  33.652  52.665  1.00  0.00    -0.000 C 
BRANCH  26  27
ATOM     27  C   UNL     1      28.646  34.136  53.936  1.00  0.00    -0.000 C 
BRANCH  27  28
ATOM     28  C   UNL     1      27.117  33.989  53.849  1.00  0.00    -0.000 C 
BRANCH  28  29
ATOM     29  C   UNL     1      26.608  32.534  53.788  1.00  0.00    -0.000 C 
BRANCH  29  30
ATOM     30  C   UNL     1      25.597  32.277  52.649  1.00  0.00    -0.000 C 
BRANCH  30  31
ATOM     31  C   UNL     1      25.662  33.361  51.564  1.00  0.00    -0.003 C 
ATOM     32  C   UNL     1      26.503  32.904  50.374  1.00  0.00     0.004 C 
ENDBRANCH  30  31
ENDBRANCH  29  30
ENDBRANCH  28  29
ENDBRANCH  27  28
ENDBRANCH  26  27
ENDBRANCH  25  26
ENDBRANCH  24  25
ENDBRANCH  23  24
ENDBRANCH  22  23
ENDBRANCH  21  22
ENDBRANCH  20  21
ENDBRANCH  19  20
ENDBRANCH  18  19
ENDBRANCH   1  18
TORSDOF 28
ENDMDL
MODEL 3
REMARK VINA RESULT:    -3.070      2.338      4.431
REMARK INTER + INTRA:         -13.812
REMARK INTER:                  -8.942
REMARK INTRA:                  -4.871
REMARK UNBOUND:                -5.718
REMARK SMILES CCCCCCCCCCCCCCCCCCCCCCCCCCCCCC(=O)[O-]
REMARK SMILES IDX 16 1 17 2 18 3 19 4 20 5 21 6 22 7 23 8 24 9 25 10 26 11
REMARK SMILES IDX 27 12 28 13 29 14 30 15 31 16 32 17 15 18 14 19 13 20 12 21
REMARK SMILES IDX 11 22 10 23 9 24 8 25 7 26 6 27 5 28 4 29 3 30 2 31 1 32
REMARK H PARENT
REMARK Flexibility Score: inf
ROOT
ATOM      1  C   UNL     1      24.547  30.532  53.307  1.00  0.00     0.000 C 
ENDROOT
BRANCH   1   2
ATOM      2  C   UNL     1      24.170  29.782  54.598  1.00  0.00     0.000 C 
BRANCH   2   3
ATOM      3  C   UNL     1      24.330  30.583  55.904  1.00  0.00     0.000 C 
BRANCH   3   4
ATOM      4  C   UNL     1      24.927  29.755  57.055  1.00  0.00     0.000 C 
BRANCH   4   5
ATOM      5  C   UNL     1      24.762  28.237  56.849  1.00  0.00     0.000 C 
BRANCH   5   6
ATOM      6  C   UNL     1      23.936  27.508  57.927  1.00  0.00     0.000 C 
BRANCH   6   7
ATOM      7  C   UNL     1      22.434  27.464  57.601  1.00  0.00     0.000 C 
BRANCH   7   8
ATOM      8  C   UNL     1      21.560  28.039  58.730  1.00  0.00     0.000 C 
BRANCH   8   9
ATOM      9  C   UNL     1      20.799  29.338  58.387  1.00  0.00     0.000 C 
BRANCH   9  10
ATOM     10  C   UNL     1      21.381  30.153  57.218  1.00  0.00     0.000 C 
BRANCH  10  11
ATOM     11  C   UNL     1      20.387  30.342  56.048  1.00  0.00     0.000 C 
BRANCH  11  12
ATOM     12  C   UNL     1      20.332  29.126  55.105  1.00  0.00     0.000 C 
BRANCH  12  13
ATOM     13  C   UNL     1      18.934  28.469  55.024  1.00  0.00     0.006 C 
BRANCH  13  14
ATOM     14  C   UNL     1      17.775  29.480  54.936  1.00  0.00     0.053 C 
BRANCH  14  15
ATOM     15  C   UNL     1      16.702  29.038  53.989  1.00  0.00     0.041 C 
ATOM     16  O   UNL     1      15.502  28.990  54.367  1.00  0.00    -0.550 OA
ATOM     17  O   UNL     1      17.027  28.671  52.689  1.00  0.00    -0.550 OA
ENDBRANCH  14  15
ENDBRANCH  13  14
ENDBRANCH  12  13
ENDBRANCH  11  12
ENDBRANCH  10  11
ENDBRANCH   9  10
ENDBRANCH   8   9
ENDBRANCH   7   8
ENDBRANCH   6   7
ENDBRANCH   5   6
ENDBRANCH   4   5
ENDBRANCH   3   4
ENDBRANCH   2   3
ENDBRANCH   1   2
BRANCH   1  18
ATOM     18  C   UNL     1      25.163  31.916  53.568  1.00  0.00     0.000 C 
BRANCH  18  19
ATOM     19  C   UNL     1      25.688  32.587  52.286  1.00  0.00     0.000 C 
BRANCH  19  20
ATOM     20  C   UNL     1      27.097  33.203  52.439  1.00  0.00     0.000 C 
BRANCH  20  21
ATOM     21  C   UNL     1      27.251  33.972  53.765  1.00  0.00     0.000 C 
BRANCH  21  22
ATOM     22  C   UNL     1      28.717  34.266  54.121  1.00  0.00     0.000 C 
BRANCH  22  23
ATOM     23  C   UNL     1      29.688  33.899  52.985  1.00  0.00     0.000 C 
BRANCH  23  24
ATOM     24  C   UNL     1      30.903  33.100  53.486  1.00  0.00    -0.000 C 
BRANCH  24  25
ATOM     25  C   UNL     1      30.931  31.667  52.933  1.00  0.00    -0.000 C 
BRANCH  25  26
ATOM     26  C   UNL     1      31.794  30.756  53.815  1.00  0.00    -0.000 C 
BRANCH  26  27
ATOM     27  C   UNL     1      31.837  31.277  55.259  1.00  0.00    -0.000 C 
BRANCH  27  28
ATOM     28  C   UNL     1      30.787  30.610  56.163  1.00  0.00    -0.000 C 
BRANCH  28  29
ATOM     29  C   UNL     1      29.708  31.565  56.716  1.00  0.00    -0.000 C 
BRANCH  29  30
ATOM     30  C   UNL     1      28.271  31.189  56.293  1.00  0.00    -0.000 C 
BRANCH  30  31
ATOM     31  C   UNL     1      28.222  30.597  54.877  1.00  0.00    -0.003 C 
ATOM     32  C   UNL     1      27.819  29.125  54.906  1.00  0.00     0.004 C 
ENDBRANCH  30  31
ENDBRANCH  29  30
ENDBRANCH  28  29
ENDBRANCH  27  28
ENDBRANCH  26  27
ENDBRANCH  25  26
ENDBRANCH  24  25
ENDBRANCH  23  24
ENDBRANCH  22  23
ENDBRANCH  21  22
ENDBRANCH  20  21
ENDBRANCH  19  20
ENDBRANCH  18  19
ENDBRANCH   1  18
TORSDOF 28
ENDMDL
MODEL 4
REMARK VINA RESULT:    -3.056      1.649      5.442
REMARK INTER + INTRA:         -13.776
REMARK INTER:                  -8.183
REMARK INTRA:                  -5.593
REMARK UNBOUND:                -5.718
REMARK SMILES CCCCCCCCCCCCCCCCCCCCCCCCCCCCCC(=O)[O-]
REMARK SMILES IDX 16 1 17 2 18 3 19 4 20 5 21 6 22 7 23 8 24 9 25 10 26 11
REMARK SMILES IDX 27 12 28 13 29 14 30 15 31 16 32 17 15 18 14 19 13 20 12 21
REMARK SMILES IDX 11 22 10 23 9 24 8 25 7 26 6 27 5 28 4 29 3 30 2 31 1 32
REMARK H PARENT
REMARK Flexibility Score: inf
ROOT
ATOM      1  C   UNL     1      29.273  34.132  54.440  1.00  0.00     0.000 C 
ENDROOT
BRANCH   1   2
ATOM      2  C   UNL     1      30.697  34.141  55.028  1.00  0.00     0.000 C 
BRANCH   2   3
ATOM      3  C   UNL     1      30.866  33.413  56.375  1.00  0.00     0.000 C 
BRANCH   3   4
ATOM      4  C   UNL     1      31.441  31.993  56.229  1.00  0.00     0.000 C 
BRANCH   4   5
ATOM      5  C   UNL     1      30.465  30.900  56.705  1.00  0.00     0.000 C 
BRANCH   5   6
ATOM      6  C   UNL     1      29.253  31.400  57.514  1.00  0.00     0.000 C 
BRANCH   6   7
ATOM      7  C   UNL     1      28.640  30.309  58.409  1.00  0.00     0.000 C 
BRANCH   7   8
ATOM      8  C   UNL     1      27.124  30.146  58.198  1.00  0.00     0.000 C 
BRANCH   8   9
ATOM      9  C   UNL     1      26.604  28.693  58.200  1.00  0.00     0.000 C 
BRANCH   9  10
ATOM     10  C   UNL     1      26.722  27.950  56.856  1.00  0.00     0.000 C 
BRANCH  10  11
ATOM     11  C   UNL     1      25.354  27.556  56.251  1.00  0.00     0.000 C 
BRANCH  11  12
ATOM     12  C   UNL     1      24.173  27.863  57.190  1.00  0.00     0.000 C 
BRANCH  12  13
ATOM     13  C   UNL     1      23.172  28.891  56.610  1.00  0.00     0.006 C 
BRANCH  13  14
ATOM     14  C   UNL     1      23.023  30.163  57.464  1.00  0.00     0.053 C 
BRANCH  14  15
ATOM     15  C   UNL     1      21.823  30.114  58.359  1.00  0.00     0.041 C 
ATOM     16  O   UNL     1      21.435  31.152  58.957  1.00  0.00    -0.550 OA
ATOM     17  O   UNL     1      21.135  28.920  58.538  1.00  0.00    -0.550 OA
ENDBRANCH  14  15
ENDBRANCH  13  14
ENDBRANCH  12  13
ENDBRANCH  11  12
ENDBRANCH  10  11
ENDBRANCH   9  10
ENDBRANCH   8   9
ENDBRANCH   7   8
ENDBRANCH   6   7
ENDBRANCH   5   6
ENDBRANCH   4   5
ENDBRANCH   3   4
ENDBRANCH   2   3
ENDBRANCH   1   2
BRANCH   1  18
ATOM     18  C   UNL     1      29.221  33.628  52.989  1.00  0.00     0.000 C 
BRANCH  18  19
ATOM     19  C   UNL     1      30.419  32.732  52.624  1.00  0.00     0.000 C 
BRANCH  19  20
ATOM     20  C   UNL     1      30.171  31.228  52.879  1.00  0.00     0.000 C 
BRANCH  20  21
ATOM     21  C   UNL     1      28.696  30.841  52.661  1.00  0.00     0.000 C 
BRANCH  21  22
ATOM     22  C   UNL     1      28.063  30.173  53.892  1.00  0.00     0.000 C 
BRANCH  22  23
ATOM     23  C   UNL     1      27.175  31.137  54.698  1.00  0.00     0.000 C 
BRANCH  23  24
ATOM     24  C   UNL     1      25.688  30.748  54.647  1.00  0.00    -0.000 C 
BRANCH  24  25
ATOM     25  C   UNL     1      24.815  31.847  54.021  1.00  0.00    -0.000 C 
BRANCH  25  26
ATOM     26  C   UNL     1      25.663  33.067  53.636  1.00  0.00    -0.000 C 
BRANCH  26  27
ATOM     27  C   UNL     1      25.514  33.383  52.140  1.00  0.00    -0.000 C 
BRANCH  27  28
ATOM     28  C   UNL     1      25.443  32.117  51.269  1.00  0.00    -0.000 C 
BRANCH  28  29
ATOM     29  C   UNL     1      26.018  32.275  49.846  1.00  0.00    -0.000 C 
BRANCH  29  30
ATOM     30  C   UNL     1      27.463  32.820  49.818  1.00  0.00    -0.000 C 
BRANCH  30  31
ATOM     31  C   UNL     1      27.920  33.171  48.395  1.00  0.00    -0.003 C 
ATOM     32  C   UNL     1      26.726  33.408  47.473  1.00  0.00     0.004 C 
ENDBRANCH  30  31
ENDBRANCH  29  30
ENDBRANCH  28  29
ENDBRANCH  27  28
ENDBRANCH  26  27
ENDBRANCH  25  26
ENDBRANCH  24  25
ENDBRANCH  23  24
ENDBRANCH  22  23
ENDBRANCH  21  22
ENDBRANCH  20  21
ENDBRANCH  19  20
ENDBRANCH  18  19
ENDBRANCH   1  18
TORSDOF 28
ENDMDL
MODEL 5
REMARK VINA RESULT:    -3.056      1.573      5.755
REMARK INTER + INTRA:         -13.775
REMARK INTER:                  -7.681
REMARK INTRA:                  -6.094
REMARK UNBOUND:                -5.718
REMARK SMILES CCCCCCCCCCCCCCCCCCCCCCCCCCCCCC(=O)[O-]
REMARK SMILES IDX 16 1 17 2 18 3 19 4 20 5 21 6 22 7 23 8 24 9 25 10 26 11
REMARK SMILES IDX 27 12 28 13 29 14 30 15 31 16 32 17 15 18 14 19 13 20 12 21
REMARK SMILES IDX 11 22 10 23 9 24 8 25 7 26 6 27 5 28 4 29 3 30 2 31 1 32
REMARK H PARENT
REMARK Flexibility Score: inf
ROOT
ATOM      1  C   UNL     1      32.220  30.918  54.442  1.00  0.00     0.000 C 
ENDROOT
BRANCH   1   2
ATOM      2  C   UNL     1      31.997  29.634  55.262  1.00  0.00     0.000 C 
BRANCH   2   3
ATOM      3  C   UNL     1      31.245  29.816  56.593  1.00  0.00     0.000 C 
BRANCH   3   4
ATOM      4  C   UNL     1      31.129  31.287  57.029  1.00  0.00     0.000 C 
BRANCH   4   5
ATOM      5  C   UNL     1      29.703  31.848  56.871  1.00  0.00     0.000 C 
BRANCH   5   6
ATOM      6  C   UNL     1      28.568  30.812  56.980  1.00  0.00     0.000 C 
BRANCH   6   7
ATOM      7  C   UNL     1      27.612  30.843  55.775  1.00  0.00     0.000 C 
BRANCH   7   8
ATOM      8  C   UNL     1      28.168  30.095  54.551  1.00  0.00     0.000 C 
BRANCH   8   9
ATOM      9  C   UNL     1      27.126  29.696  53.484  1.00  0.00     0.000 C 
BRANCH   9  10
ATOM     10  C   UNL     1      26.358  28.392  53.770  1.00  0.00     0.000 C 
BRANCH  10  11
ATOM     11  C   UNL     1      25.095  28.601  54.638  1.00  0.00     0.000 C 
BRANCH  11  12
ATOM     12  C   UNL     1      24.327  29.885  54.279  1.00  0.00     0.000 C 
BRANCH  12  13
ATOM     13  C   UNL     1      23.870  30.700  55.513  1.00  0.00     0.006 C 
BRANCH  13  14
ATOM     14  C   UNL     1      24.097  29.977  56.853  1.00  0.00     0.053 C 
BRANCH  14  15
ATOM     15  C   UNL     1      22.817  29.503  57.470  1.00  0.00     0.041 C 
ATOM     16  O   UNL     1      22.679  28.294  57.796  1.00  0.00    -0.550 OA
ATOM     17  O   UNL     1      21.771  30.393  57.679  1.00  0.00    -0.550 OA
ENDBRANCH  14  15
ENDBRANCH  13  14
ENDBRANCH  12  13
ENDBRANCH  11  12
ENDBRANCH  10  11
ENDBRANCH   9  10
ENDBRANCH   8   9
ENDBRANCH   7   8
ENDBRANCH   6   7
ENDBRANCH   5   6
ENDBRANCH   4   5
ENDBRANCH   3   4
ENDBRANCH   2   3
ENDBRANCH   1   2
BRANCH   1  18
ATOM     18  C   UNL     1      31.535  30.885  53.066  1.00  0.00     0.000 C 
BRANCH  18  19
ATOM     19  C   UNL     1      30.516  32.023  52.877  1.00  0.00     0.000 C 
BRANCH  19  20
ATOM     20  C   UNL     1      30.847  33.295  53.690  1.00  0.00     0.000 C 
BRANCH  20  21
ATOM     21  C   UNL     1      29.594  34.150  53.961  1.00  0.00     0.000 C 
BRANCH  21  22
ATOM     22  C   UNL     1      28.340  33.616  53.251  1.00  0.00     0.000 C 
BRANCH  22  23
ATOM     23  C   UNL     1      27.035  34.127  53.886  1.00  0.00     0.000 C 
BRANCH  23  24
ATOM     24  C   UNL     1      25.819  33.264  53.510  1.00  0.00    -0.000 C 
BRANCH  24  25
ATOM     25  C   UNL     1      25.507  33.313  52.006  1.00  0.00    -0.000 C 
BRANCH  25  26
ATOM     26  C   UNL     1      25.324  31.900  51.438  1.00  0.00    -0.000 C 
BRANCH  26  27
ATOM     27  C   UNL     1      25.593  31.882  49.925  1.00  0.00    -0.000 C 
BRANCH  27  28
ATOM     28  C   UNL     1      26.858  31.088  49.556  1.00  0.00    -0.000 C 
BRANCH  28  29
ATOM     29  C   UNL     1      28.152  31.577  50.239  1.00  0.00    -0.000 C 
BRANCH  29  30
ATOM     30  C   UNL     1      28.768  32.830  49.579  1.00  0.00    -0.000 C 
BRANCH  30  31
ATOM     31  C   UNL     1      30.273  32.668  49.324  1.00  0.00    -0.003 C 
ATOM     32  C   UNL     1      30.638  31.207  49.075  1.00  0.00     0.004 C 
ENDBRANCH  30  31
ENDBRANCH  29  30
ENDBRANCH  28  29
ENDBRANCH  27  28
ENDBRANCH  26  27
ENDBRANCH  25  26
ENDBRANCH  24  25
ENDBRANCH  23  24
ENDBRANCH  22  23
ENDBRANCH  21  22
ENDBRANCH  20  21
ENDBRANCH  19  20
ENDBRANCH  18  19
ENDBRANCH   1  18
TORSDOF 28
ENDMDL
MODEL 6
REMARK VINA RESULT:    -2.968      3.358      7.111
REMARK INTER + INTRA:         -13.543
REMARK INTER:                  -7.385
REMARK INTRA:                  -6.158
REMARK UNBOUND:                -5.718
REMARK SMILES CCCCCCCCCCCCCCCCCCCCCCCCCCCCCC(=O)[O-]
REMARK SMILES IDX 16 1 17 2 18 3 19 4 20 5 21 6 22 7 23 8 24 9 25 10 26 11
REMARK SMILES IDX 27 12 28 13 29 14 30 15 31 16 32 17 15 18 14 19 13 20 12 21
REMARK SMILES IDX 11 22 10 23 9 24 8 25 7 26 6 27 5 28 4 29 3 30 2 31 1 32
REMARK H PARENT
REMARK Flexibility Score: inf
ROOT
ATOM      1  C   UNL     1      30.821  32.452  56.113  1.00  0.00     0.000 C 
ENDROOT
BRANCH   1   2
ATOM      2  C   UNL     1      31.561  31.426  56.991  1.00  0.00     0.000 C 
BRANCH   2   3
ATOM      3  C   UNL     1      31.174  29.953  56.764  1.00  0.00     0.000 C 
BRANCH   3   4
ATOM      4  C   UNL     1      30.272  29.384  57.873  1.00  0.00     0.000 C 
BRANCH   4   5
ATOM      5  C   UNL     1      28.803  29.233  57.431  1.00  0.00     0.000 C 
BRANCH   5   6
ATOM      6  C   UNL     1      28.005  30.546  57.323  1.00  0.00     0.000 C 
BRANCH   6   7
ATOM      7  C   UNL     1      27.654  30.916  55.872  1.00  0.00     0.000 C 
BRANCH   7   8
ATOM      8  C   UNL     1      27.891  29.758  54.886  1.00  0.00     0.000 C 
BRANCH   8   9
ATOM      9  C   UNL     1      28.769  30.094  53.662  1.00  0.00     0.000 C 
BRANCH   9  10
ATOM     10  C   UNL     1      29.967  29.153  53.434  1.00  0.00     0.000 C 
BRANCH  10  11
ATOM     11  C   UNL     1      30.652  29.354  52.062  1.00  0.00     0.000 C 
BRANCH  11  12
ATOM     12  C   UNL     1      30.458  30.773  51.497  1.00  0.00     0.000 C 
BRANCH  12  13
ATOM     13  C   UNL     1      29.891  30.795  50.058  1.00  0.00     0.006 C 
BRANCH  13  14
ATOM     14  C   UNL     1      28.452  31.333  49.964  1.00  0.00     0.053 C 
BRANCH  14  15
ATOM     15  C   UNL     1      28.392  32.705  49.365  1.00  0.00     0.041 C 
ATOM     16  O   UNL     1      27.322  33.366  49.399  1.00  0.00    -0.550 OA
ATOM     17  O   UNL     1      29.518  33.251  48.761  1.00  0.00    -0.550 OA
ENDBRANCH  14  15
ENDBRANCH  13  14
ENDBRANCH  12  13
ENDBRANCH  11  12
ENDBRANCH  10  11
ENDBRANCH   9  10
ENDBRANCH   8   9
ENDBRANCH   7   8
ENDBRANCH   6   7
ENDBRANCH   5   6
ENDBRANCH   4   5
ENDBRANCH   3   4
ENDBRANCH   2   3
ENDBRANCH   1   2
BRANCH   1  18
ATOM     18  C   UNL     1      31.333  32.491  54.665  1.00  0.00     0.000 C 
BRANCH  18  19
ATOM     19  C   UNL     1      30.611  33.545  53.804  1.00  0.00     0.000 C 
BRANCH  19  20
ATOM     20  C   UNL     1      29.227  33.956  54.356  1.00  0.00     0.000 C 
BRANCH  20  21
ATOM     21  C   UNL     1      28.104  33.722  53.328  1.00  0.00     0.000 C 
BRANCH  21  22
ATOM     22  C   UNL     1      26.745  34.273  53.790  1.00  0.00     0.000 C 
BRANCH  22  23
ATOM     23  C   UNL     1      25.558  33.597  53.081  1.00  0.00     0.000 C 
BRANCH  23  24
ATOM     24  C   UNL     1      25.942  32.249  52.447  1.00  0.00    -0.000 C 
BRANCH  24  25
ATOM     25  C   UNL     1      25.013  31.107  52.887  1.00  0.00    -0.000 C 
BRANCH  25  26
ATOM     26  C   UNL     1      24.524  31.322  54.324  1.00  0.00    -0.000 C 
BRANCH  26  27
ATOM     27  C   UNL     1      23.713  30.111  54.811  1.00  0.00    -0.000 C 
BRANCH  27  28
ATOM     28  C   UNL     1      22.908  30.410  56.088  1.00  0.00    -0.000 C 
BRANCH  28  29
ATOM     29  C   UNL     1      23.264  29.525  57.300  1.00  0.00    -0.000 C 
BRANCH  29  30
ATOM     30  C   UNL     1      24.748  29.102  57.346  1.00  0.00    -0.000 C 
BRANCH  30  31
ATOM     31  C   UNL     1      24.914  27.576  57.319  1.00  0.00    -0.003 C 
ATOM     32  C   UNL     1      25.586  27.114  56.028  1.00  0.00     0.004 C 
ENDBRANCH  30  31
ENDBRANCH  29  30
ENDBRANCH  28  29
ENDBRANCH  27  28
ENDBRANCH  26  27
ENDBRANCH  25  26
ENDBRANCH  24  25
ENDBRANCH  23  24
ENDBRANCH  22  23
ENDBRANCH  21  22
ENDBRANCH  20  21
ENDBRANCH  19  20
ENDBRANCH  18  19
ENDBRANCH   1  18
TORSDOF 28
ENDMDL
MODEL 7
REMARK VINA RESULT:    -2.958      2.296      4.528
REMARK INTER + INTRA:         -13.517
REMARK INTER:                  -8.779
REMARK INTRA:                  -4.737
REMARK UNBOUND:                -5.718
REMARK SMILES CCCCCCCCCCCCCCCCCCCCCCCCCCCCCC(=O)[O-]
REMARK SMILES IDX 16 1 17 2 18 3 19 4 20 5 21 6 22 7 23 8 24 9 25 10 26 11
REMARK SMILES IDX 27 12 28 13 29 14 30 15 31 16 32 17 15 18 14 19 13 20 12 21
REMARK SMILES IDX 11 22 10 23 9 24 8 25 7 26 6 27 5 28 4 29 3 30 2 31 1 32
REMARK H PARENT
REMARK Flexibility Score: inf
ROOT
ATOM      1  C   UNL     1      24.560  30.621  53.575  1.00  0.00     0.000 C 
ENDROOT
BRANCH   1   2
ATOM      2  C   UNL     1      23.775  29.840  54.644  1.00  0.00     0.000 C 
BRANCH   2   3
ATOM      3  C   UNL     1      23.631  30.539  56.009  1.00  0.00     0.000 C 
BRANCH   3   4
ATOM      4  C   UNL     1      24.534  29.935  57.099  1.00  0.00     0.000 C 
BRANCH   4   5
ATOM      5  C   UNL     1      24.973  28.493  56.782  1.00  0.00     0.000 C 
BRANCH   5   6
ATOM      6  C   UNL     1      24.417  27.409  57.725  1.00  0.00     0.000 C 
BRANCH   6   7
ATOM      7  C   UNL     1      22.912  27.161  57.529  1.00  0.00     0.000 C 
BRANCH   7   8
ATOM      8  C   UNL     1      22.080  27.520  58.773  1.00  0.00     0.000 C 
BRANCH   8   9
ATOM      9  C   UNL     1      21.396  28.903  58.741  1.00  0.00     0.000 C 
BRANCH   9  10
ATOM     10  C   UNL     1      19.857  28.875  58.699  1.00  0.00     0.000 C 
BRANCH  10  11
ATOM     11  C   UNL     1      19.285  27.626  57.990  1.00  0.00     0.000 C 
BRANCH  11  12
ATOM     12  C   UNL     1      18.174  27.966  56.980  1.00  0.00     0.000 C 
BRANCH  12  13
ATOM     13  C   UNL     1      18.677  28.078  55.521  1.00  0.00     0.006 C 
BRANCH  13  14
ATOM     14  C   UNL     1      18.834  29.527  55.026  1.00  0.00     0.053 C 
BRANCH  14  15
ATOM     15  C   UNL     1      17.710  29.950  54.131  1.00  0.00     0.041 C 
ATOM     16  O   UNL     1      17.942  30.310  52.947  1.00  0.00    -0.550 OA
ATOM     17  O   UNL     1      16.404  29.954  54.606  1.00  0.00    -0.550 OA
ENDBRANCH  14  15
ENDBRANCH  13  14
ENDBRANCH  12  13
ENDBRANCH  11  12
ENDBRANCH  10  11
ENDBRANCH   9  10
ENDBRANCH   8   9
ENDBRANCH   7   8
ENDBRANCH   6   7
ENDBRANCH   5   6
ENDBRANCH   4   5
ENDBRANCH   3   4
ENDBRANCH   2   3
ENDBRANCH   1   2
BRANCH   1  18
ATOM     18  C   UNL     1      25.128  31.952  54.092  1.00  0.00     0.000 C 
BRANCH  18  19
ATOM     19  C   UNL     1      25.721  32.825  52.971  1.00  0.00     0.000 C 
BRANCH  19  20
ATOM     20  C   UNL     1      26.576  34.004  53.487  1.00  0.00     0.000 C 
BRANCH  20  21
ATOM     21  C   UNL     1      27.915  33.529  54.083  1.00  0.00     0.000 C 
BRANCH  21  22
ATOM     22  C   UNL     1      29.136  34.077  53.326  1.00  0.00     0.000 C 
BRANCH  22  23
ATOM     23  C   UNL     1      30.285  33.057  53.235  1.00  0.00     0.000 C 
BRANCH  23  24
ATOM     24  C   UNL     1      29.865  31.759  52.526  1.00  0.00    -0.000 C 
BRANCH  24  25
ATOM     25  C   UNL     1      30.699  30.549  52.974  1.00  0.00    -0.000 C 
BRANCH  25  26
ATOM     26  C   UNL     1      29.794  29.369  53.351  1.00  0.00    -0.000 C 
BRANCH  26  27
ATOM     27  C   UNL     1      28.389  29.860  53.732  1.00  0.00    -0.000 C 
BRANCH  27  28
ATOM     28  C   UNL     1      28.038  29.573  55.203  1.00  0.00    -0.000 C 
BRANCH  28  29
ATOM     29  C   UNL     1      28.014  30.815  56.118  1.00  0.00    -0.000 C 
BRANCH  29  30
ATOM     30  C   UNL     1      29.204  30.886  57.100  1.00  0.00    -0.000 C 
BRANCH  30  31
ATOM     31  C   UNL     1      30.122  32.081  56.810  1.00  0.00    -0.003 C 
ATOM     32  C   UNL     1      31.540  31.623  56.477  1.00  0.00     0.004 C 
ENDBRANCH  30  31
ENDBRANCH  29  30
ENDBRANCH  28  29
ENDBRANCH  27  28
ENDBRANCH  26  27
ENDBRANCH  25  26
ENDBRANCH  24  25
ENDBRANCH  23  24
ENDBRANCH  22  23
ENDBRANCH  21  22
ENDBRANCH  20  21
ENDBRANCH  19  20
ENDBRANCH  18  19
ENDBRANCH   1  18
TORSDOF 28
ENDMDL
MODEL 8
REMARK VINA RESULT:    -2.943      3.127      6.689
REMARK INTER + INTRA:         -13.479
REMARK INTER:                  -7.333
REMARK INTRA:                  -6.146
REMARK UNBOUND:                -5.718
REMARK SMILES CCCCCCCCCCCCCCCCCCCCCCCCCCCCCC(=O)[O-]
REMARK SMILES IDX 16 1 17 2 18 3 19 4 20 5 21 6 22 7 23 8 24 9 25 10 26 11
REMARK SMILES IDX 27 12 28 13 29 14 30 15 31 16 32 17 15 18 14 19 13 20 12 21
REMARK SMILES IDX 11 22 10 23 9 24 8 25 7 26 6 27 5 28 4 29 3 30 2 31 1 32
REMARK H PARENT
REMARK Flexibility Score: inf
ROOT
ATOM      1  C   UNL     1      26.973  34.596  54.045  1.00  0.00     0.000 C 
ENDROOT
BRANCH   1   2
ATOM      2  C   UNL     1      28.185  33.646  54.051  1.00  0.00     0.000 C 
BRANCH   2   3
ATOM      3  C   UNL     1      29.331  34.023  53.093  1.00  0.00     0.000 C 
BRANCH   3   4
ATOM      4  C   UNL     1      30.331  32.877  52.862  1.00  0.00     0.000 C 
BRANCH   4   5
ATOM      5  C   UNL     1      29.645  31.507  52.699  1.00  0.00     0.000 C 
BRANCH   5   6
ATOM      6  C   UNL     1      30.591  30.320  52.432  1.00  0.00     0.000 C 
BRANCH   6   7
ATOM      7  C   UNL     1      30.826  29.450  53.678  1.00  0.00     0.000 C 
BRANCH   7   8
ATOM      8  C   UNL     1      32.261  29.562  54.223  1.00  0.00     0.000 C 
BRANCH   8   9
ATOM      9  C   UNL     1      32.694  30.972  54.677  1.00  0.00     0.000 C 
BRANCH   9  10
ATOM     10  C   UNL     1      32.911  31.137  56.193  1.00  0.00     0.000 C 
BRANCH  10  11
ATOM     11  C   UNL     1      31.615  30.974  57.020  1.00  0.00     0.000 C 
BRANCH  11  12
ATOM     12  C   UNL     1      30.463  31.859  56.510  1.00  0.00     0.000 C 
BRANCH  12  13
ATOM     13  C   UNL     1      29.073  31.433  57.039  1.00  0.00     0.006 C 
BRANCH  13  14
ATOM     14  C   UNL     1      28.249  30.612  56.030  1.00  0.00     0.053 C 
BRANCH  14  15
ATOM     15  C   UNL     1      28.082  29.185  56.456  1.00  0.00     0.041 C 
ATOM     16  O   UNL     1      28.729  28.736  57.439  1.00  0.00    -0.550 OA
ATOM     17  O   UNL     1      27.217  28.347  55.763  1.00  0.00    -0.550 OA
ENDBRANCH  14  15
ENDBRANCH  13  14
ENDBRANCH  12  13
ENDBRANCH  11  12
ENDBRANCH  10  11
ENDBRANCH   9  10
ENDBRANCH   8   9
ENDBRANCH   7   8
ENDBRANCH   6   7
ENDBRANCH   5   6
ENDBRANCH   4   5
ENDBRANCH   3   4
ENDBRANCH   2   3
ENDBRANCH   1   2
BRANCH   1  18
ATOM     18  C   UNL     1      25.675  33.919  53.579  1.00  0.00     0.000 C 
BRANCH  18  19
ATOM     19  C   UNL     1      25.719  32.386  53.712  1.00  0.00     0.000 C 
BRANCH  19  20
ATOM     20  C   UNL     1      25.741  31.644  52.357  1.00  0.00     0.000 C 
BRANCH  20  21
ATOM     21  C   UNL     1      25.657  32.616  51.165  1.00  0.00     0.000 C 
BRANCH  21  22
ATOM     22  C   UNL     1      27.026  32.899  50.525  1.00  0.00     0.000 C 
BRANCH  22  23
ATOM     23  C   UNL     1      26.924  33.233  49.027  1.00  0.00     0.000 C 
BRANCH  23  24
ATOM     24  C   UNL     1      28.259  33.039  48.288  1.00  0.00    -0.000 C 
BRANCH  24  25
ATOM     25  C   UNL     1      29.441  32.850  49.251  1.00  0.00    -0.000 C 
BRANCH  25  26
ATOM     26  C   UNL     1      30.756  32.686  48.479  1.00  0.00    -0.000 C 
BRANCH  26  27
ATOM     27  C   UNL     1      30.865  31.276  47.879  1.00  0.00    -0.000 C 
BRANCH  27  28
ATOM     28  C   UNL     1      31.269  30.218  48.919  1.00  0.00    -0.000 C 
BRANCH  28  29
ATOM     29  C   UNL     1      30.420  28.930  48.896  1.00  0.00    -0.000 C 
BRANCH  29  30
ATOM     30  C   UNL     1      28.941  29.167  48.518  1.00  0.00    -0.000 C 
BRANCH  30  31
ATOM     31  C   UNL     1      28.059  29.392  49.754  1.00  0.00    -0.003 C 
ATOM     32  C   UNL     1      26.579  29.431  49.378  1.00  0.00     0.004 C 
ENDBRANCH  30  31
ENDBRANCH  29  30
ENDBRANCH  28  29
ENDBRANCH  27  28
ENDBRANCH  26  27
ENDBRANCH  25  26
ENDBRANCH  24  25
ENDBRANCH  23  24
ENDBRANCH  22  23
ENDBRANCH  21  22
ENDBRANCH  20  21
ENDBRANCH  19  20
ENDBRANCH  18  19
ENDBRANCH   1  18
TORSDOF 28
ENDMDL
MODEL 9
REMARK VINA RESULT:    -2.925      1.637      4.548
REMARK INTER + INTRA:         -13.432
REMARK INTER:                  -7.117
REMARK INTRA:                  -6.315
REMARK UNBOUND:                -5.718
REMARK SMILES CCCCCCCCCCCCCCCCCCCCCCCCCCCCCC(=O)[O-]
REMARK SMILES IDX 16 1 17 2 18 3 19 4 20 5 21 6 22 7 23 8 24 9 25 10 26 11
REMARK SMILES IDX 27 12 28 13 29 14 30 15 31 16 32 17 15 18 14 19 13 20 12 21
REMARK SMILES IDX 11 22 10 23 9 24 8 25 7 26 6 27 5 28 4 29 3 30 2 31 1 32
REMARK H PARENT
REMARK Flexibility Score: inf
ROOT
ATOM      1  C   UNL     1      28.208  34.016  53.741  1.00  0.00     0.000 C 
ENDROOT
BRANCH   1   2
ATOM      2  C   UNL     1      29.544  33.744  53.027  1.00  0.00     0.000 C 
BRANCH   2   3
ATOM      3  C   UNL     1      30.736  33.417  53.947  1.00  0.00     0.000 C 
BRANCH   3   4
ATOM      4  C   UNL     1      30.574  33.974  55.372  1.00  0.00     0.000 C 
BRANCH   4   5
ATOM      5  C   UNL     1      30.768  32.901  56.460  1.00  0.00     0.000 C 
BRANCH   5   6
ATOM      6  C   UNL     1      31.422  31.588  55.987  1.00  0.00     0.000 C 
BRANCH   6   7
ATOM      7  C   UNL     1      30.505  30.366  56.162  1.00  0.00     0.000 C 
BRANCH   7   8
ATOM      8  C   UNL     1      29.063  30.749  56.542  1.00  0.00     0.000 C 
BRANCH   8   9
ATOM      9  C   UNL     1      28.021  29.617  56.427  1.00  0.00     0.000 C 
BRANCH   9  10
ATOM     10  C   UNL     1      26.550  30.064  56.524  1.00  0.00     0.000 C 
BRANCH  10  11
ATOM     11  C   UNL     1      25.615  29.316  55.546  1.00  0.00     0.000 C 
BRANCH  11  12
ATOM     12  C   UNL     1      24.394  30.154  55.125  1.00  0.00     0.000 C 
BRANCH  12  13
ATOM     13  C   UNL     1      23.488  30.567  56.309  1.00  0.00     0.006 C 
BRANCH  13  14
ATOM     14  C   UNL     1      22.030  30.091  56.173  1.00  0.00     0.053 C 
BRANCH  14  15
ATOM     15  C   UNL     1      21.714  28.952  57.093  1.00  0.00     0.041 C 
ATOM     16  O   UNL     1      22.623  28.425  57.787  1.00  0.00    -0.550 OA
ATOM     17  O   UNL     1      20.415  28.465  57.180  1.00  0.00    -0.550 OA
ENDBRANCH  14  15
ENDBRANCH  13  14
ENDBRANCH  12  13
ENDBRANCH  11  12
ENDBRANCH  10  11
ENDBRANCH   9  10
ENDBRANCH   8   9
ENDBRANCH   7   8
ENDBRANCH   6   7
ENDBRANCH   5   6
ENDBRANCH   4   5
ENDBRANCH   3   4
ENDBRANCH   2   3
ENDBRANCH   1   2
BRANCH   1  18
ATOM     18  C   UNL     1      27.456  32.733  54.129  1.00  0.00     0.000 C 
BRANCH  18  19
ATOM     19  C   UNL     1      26.497  32.246  53.028  1.00  0.00     0.000 C 
BRANCH  19  20
ATOM     20  C   UNL     1      25.572  33.354  52.473  1.00  0.00     0.000 C 
BRANCH  20  21
ATOM     21  C   UNL     1      25.536  33.358  50.933  1.00  0.00     0.000 C 
BRANCH  21  22
ATOM     22  C   UNL     1      26.502  32.338  50.308  1.00  0.00     0.000 C 
BRANCH  22  23
ATOM     23  C   UNL     1      27.495  32.985  49.327  1.00  0.00     0.000 C 
BRANCH  23  24
ATOM     24  C   UNL     1      28.949  32.561  49.596  1.00  0.00    -0.000 C 
BRANCH  24  25
ATOM     25  C   UNL     1      29.041  31.303  50.472  1.00  0.00    -0.000 C 
BRANCH  25  26
ATOM     26  C   UNL     1      30.503  30.897  50.697  1.00  0.00    -0.000 C 
BRANCH  26  27
ATOM     27  C   UNL     1      30.671  30.191  52.051  1.00  0.00    -0.000 C 
BRANCH  27  28
ATOM     28  C   UNL     1      29.326  29.880  52.730  1.00  0.00    -0.000 C 
BRANCH  28  29
ATOM     29  C   UNL     1      29.146  28.412  53.170  1.00  0.00    -0.000 C 
BRANCH  29  30
ATOM     30  C   UNL     1      27.774  27.813  52.790  1.00  0.00    -0.000 C 
BRANCH  30  31
ATOM     31  C   UNL     1      26.868  28.841  52.098  1.00  0.00    -0.003 C 
ATOM     32  C   UNL     1      26.588  28.447  50.650  1.00  0.00     0.004 C 
ENDBRANCH  30  31
ENDBRANCH  29  30
ENDBRANCH  28  29
ENDBRANCH  27  28
ENDBRANCH  26  27
ENDBRANCH  25  26
ENDBRANCH  24  25
ENDBRANCH  23  24
ENDBRANCH  22  23
ENDBRANCH  21  22
ENDBRANCH  20  21
ENDBRANCH  19  20
ENDBRANCH  18  19
ENDBRANCH   1  18
TORSDOF 28
ENDMDL
