MODEL 1
REMARK VINA RESULT:    -3.652      0.000      0.000
REMARK INTER + INTRA:          -4.257
REMARK INTER:                  -4.186
REMARK INTRA:                  -0.071
REMARK UNBOUND:                -0.071
REMARK SMILES CC(C)[C@H]([NH3+])C(=O)[O-]
REMARK SMILES IDX 4 1 5 2 6 6 7 7 8 8 2 9 1 10 3 11
REMARK H PARENT 5 3 5 4 5 5
REMARK Flexibility Score: inf
ROOT
ATOM      1  C   UNL     1      47.603  13.956  95.078  1.00  0.00     0.230 C 
ENDROOT
BRANCH   1   2
ATOM      2  N   UNL     1      47.599  13.925  96.548  1.00  0.00    -0.350 N 
ATOM      3  H   UNL     1      47.635  14.900  96.926  1.00  0.00     0.345 HD
ATOM      4  H   UNL     1      46.714  13.480  96.885  1.00  0.00     0.345 HD
ATOM      5  H   UNL     1      48.409  13.381  96.921  1.00  0.00     0.345 HD
ENDBRANCH   1   2
BRANCH   1   6
ATOM      6  C   UNL     1      47.600  15.381  94.576  1.00  0.00     0.099 C 
ATOM      7  O   UNL     1      46.717  16.186  94.970  1.00  0.00    -0.544 OA
ATOM      8  O   UNL     1      48.585  15.826  93.701  1.00  0.00    -0.544 OA
ENDBRANCH   1   6
BRANCH   1   9
ATOM      9  C   UNL     1      46.440  13.107  94.480  1.00  0.00     0.047 C 
ATOM     10  C   UNL     1      46.590  11.621  94.843  1.00  0.00     0.014 C 
ATOM     11  C   UNL     1      46.282  13.263  92.957  1.00  0.00     0.014 C 
ENDBRANCH   1   9
TORSDOF 3
ENDMDL
MODEL 2
REMARK VINA RESULT:    -3.650      9.314      9.684
REMARK INTER + INTRA:          -4.255
REMARK INTER:                  -4.206
REMARK INTRA:                  -0.048
REMARK UNBOUND:                -0.071
REMARK SMILES CC(C)[C@H]([NH3+])C(=O)[O-]
REMARK SMILES IDX 4 1 5 2 6 6 7 7 8 8 2 9 1 10 3 11
REMARK H PARENT 5 3 5 4 5 5
REMARK Flexibility Score: inf
ROOT
ATOM      1  C   UNL     1      54.612   7.463  95.217  1.00  0.00     0.230 C 
ENDROOT
BRANCH   1   2
ATOM      2  N   UNL     1      54.186   6.205  95.849  1.00  0.00    -0.350 N 
ATOM      3  H   UNL     1      53.263   6.338  96.325  1.00  0.00     0.345 HD
ATOM      4  H   UNL     1      54.067   5.469  95.115  1.00  0.00     0.345 HD
ATOM      5  H   UNL     1      54.887   5.870  96.547  1.00  0.00     0.345 HD
ENDBRANCH   1   2
BRANCH   1   6
ATOM      6  C   UNL     1      54.878   8.519  96.263  1.00  0.00     0.099 C 
ATOM      7  O   UNL     1      55.965   9.154  96.255  1.00  0.00    -0.544 OA
ATOM      8  O   UNL     1      53.921   8.822  97.225  1.00  0.00    -0.544 OA
ENDBRANCH   1   6
BRANCH   1   9
ATOM      9  C   UNL     1      53.599   7.935  94.130  1.00  0.00     0.047 C 
ATOM     10  C   UNL     1      52.761   6.761  93.600  1.00  0.00     0.014 C 
ATOM     11  C   UNL     1      54.257   8.683  92.958  1.00  0.00     0.014 C 
ENDBRANCH   1   9
TORSDOF 3
ENDMDL
MODEL 3
REMARK VINA RESULT:    -3.634      2.405      2.959
REMARK INTER + INTRA:          -4.236
REMARK INTER:                  -4.195
REMARK INTRA:                  -0.041
REMARK UNBOUND:                -0.071
REMARK SMILES CC(C)[C@H]([NH3+])C(=O)[O-]
REMARK SMILES IDX 4 1 5 2 6 6 7 7 8 8 2 9 1 10 3 11
REMARK H PARENT 5 3 5 4 5 5
REMARK Flexibility Score: inf
ROOT
ATOM      1  C   UNL     1      49.316  15.486  95.782  1.00  0.00     0.230 C 
ENDROOT
BRANCH   1   2
ATOM      2  N   UNL     1      49.515  14.555  96.903  1.00  0.00    -0.350 N 
ATOM      3  H   UNL     1      50.269  13.868  96.669  1.00  0.00     0.345 HD
ATOM      4  H   UNL     1      49.816  15.090  97.750  1.00  0.00     0.345 HD
ATOM      5  H   UNL     1      48.637  14.037  97.131  1.00  0.00     0.345 HD
ENDBRANCH   1   2
BRANCH   1   6
ATOM      6  C   UNL     1      49.671  16.896  96.192  1.00  0.00     0.099 C 
ATOM      7  O   UNL     1      49.342  17.866  95.460  1.00  0.00    -0.544 OA
ATOM      8  O   UNL     1      50.335  17.140  97.388  1.00  0.00    -0.544 OA
ENDBRANCH   1   6
BRANCH   1   9
ATOM      9  C   UNL     1      47.879  15.376  95.188  1.00  0.00     0.047 C 
ATOM     10  C   UNL     1      47.094  14.224  95.834  1.00  0.00     0.014 C 
ATOM     11  C   UNL     1      47.854  15.235  93.656  1.00  0.00     0.014 C 
ENDBRANCH   1   9
TORSDOF 3
ENDMDL
MODEL 4
REMARK VINA RESULT:    -3.594      2.255      3.756
REMARK INTER + INTRA:          -4.190
REMARK INTER:                  -4.139
REMARK INTRA:                  -0.051
REMARK UNBOUND:                -0.071
REMARK SMILES CC(C)[C@H]([NH3+])C(=O)[O-]
REMARK SMILES IDX 4 1 5 2 6 6 7 7 8 8 2 9 1 10 3 11
REMARK H PARENT 5 3 5 4 5 5
REMARK Flexibility Score: inf
ROOT
ATOM      1  C   UNL     1      48.535  15.284  95.954  1.00  0.00     0.230 C 
ENDROOT
BRANCH   1   2
ATOM      2  N   UNL     1      49.541  14.563  96.746  1.00  0.00    -0.350 N 
ATOM      3  H   UNL     1      49.100  13.744  97.226  1.00  0.00     0.345 HD
ATOM      4  H   UNL     1      50.290  14.200  96.112  1.00  0.00     0.345 HD
ATOM      5  H   UNL     1      49.982  15.183  97.461  1.00  0.00     0.345 HD
ENDBRANCH   1   2
BRANCH   1   6
ATOM      6  C   UNL     1      47.519  14.323  95.383  1.00  0.00     0.099 C 
ATOM      7  O   UNL     1      47.413  14.186  94.136  1.00  0.00    -0.544 OA
ATOM      8  O   UNL     1      46.713  13.562  96.222  1.00  0.00    -0.544 OA
ENDBRANCH   1   6
BRANCH   1   9
ATOM      9  C   UNL     1      49.193  16.182  94.863  1.00  0.00     0.047 C 
ATOM     10  C   UNL     1      50.597  15.676  94.497  1.00  0.00     0.014 C 
ATOM     11  C   UNL     1      49.253  17.671  95.243  1.00  0.00     0.014 C 
ENDBRANCH   1   9
TORSDOF 3
ENDMDL
MODEL 5
REMARK VINA RESULT:    -3.537     20.924     21.540
REMARK INTER + INTRA:          -4.125
REMARK INTER:                  -4.049
REMARK INTRA:                  -0.077
REMARK UNBOUND:                -0.071
REMARK SMILES CC(C)[C@H]([NH3+])C(=O)[O-]
REMARK SMILES IDX 4 1 5 2 6 6 7 7 8 8 2 9 1 10 3 11
REMARK H PARENT 5 3 5 4 5 5
REMARK Flexibility Score: inf
ROOT
ATOM      1  C   UNL     1      61.928   2.855 106.219  1.00  0.00     0.230 C 
ENDROOT
BRANCH   1   2
ATOM      2  N   UNL     1      62.474   1.518 105.940  1.00  0.00    -0.350 N 
ATOM      3  H   UNL     1      62.729   1.042 106.836  1.00  0.00     0.345 HD
ATOM      4  H   UNL     1      61.747   0.938 105.461  1.00  0.00     0.345 HD
ATOM      5  H   UNL     1      63.317   1.570 105.326  1.00  0.00     0.345 HD
ENDBRANCH   1   2
BRANCH   1   6
ATOM      6  C   UNL     1      60.476   2.932 105.809  1.00  0.00     0.099 C 
ATOM      7  O   UNL     1      59.580   3.060 106.683  1.00  0.00    -0.544 OA
ATOM      8  O   UNL     1      60.116   2.893 104.466  1.00  0.00    -0.544 OA
ENDBRANCH   1   6
BRANCH   1   9
ATOM      9  C   UNL     1      62.795   3.978 105.576  1.00  0.00     0.047 C 
ATOM     10  C   UNL     1      64.279   3.818 105.942  1.00  0.00     0.014 C 
ATOM     11  C   UNL     1      62.318   5.400 105.921  1.00  0.00     0.014 C 
ENDBRANCH   1   9
TORSDOF 3
ENDMDL
MODEL 6
REMARK VINA RESULT:    -3.514     12.335     12.778
REMARK INTER + INTRA:          -4.098
REMARK INTER:                  -4.063
REMARK INTRA:                  -0.036
REMARK UNBOUND:                -0.071
REMARK SMILES CC(C)[C@H]([NH3+])C(=O)[O-]
REMARK SMILES IDX 4 1 5 2 6 6 7 7 8 8 2 9 1 10 3 11
REMARK H PARENT 5 3 5 4 5 5
REMARK Flexibility Score: inf
ROOT
ATOM      1  C   UNL     1      59.186  11.791  89.589  1.00  0.00     0.230 C 
ENDROOT
BRANCH   1   2
ATOM      2  N   UNL     1      60.553  11.263  89.478  1.00  0.00    -0.350 N 
ATOM      3  H   UNL     1      61.180  11.747  90.161  1.00  0.00     0.345 HD
ATOM      4  H   UNL     1      60.553  10.242  89.707  1.00  0.00     0.345 HD
ATOM      5  H   UNL     1      60.935  11.388  88.514  1.00  0.00     0.345 HD
ENDBRANCH   1   2
BRANCH   1   6
ATOM      6  C   UNL     1      58.913  12.269  90.996  1.00  0.00     0.099 C 
ATOM      7  O   UNL     1      59.655  11.898  91.942  1.00  0.00    -0.544 OA
ATOM      8  O   UNL     1      57.863  13.143  91.256  1.00  0.00    -0.544 OA
ENDBRANCH   1   6
BRANCH   1   9
ATOM      9  C   UNL     1      58.127  10.762  89.088  1.00  0.00     0.047 C 
ATOM     10  C   UNL     1      56.952  11.464  88.390  1.00  0.00     0.014 C 
ATOM     11  C   UNL     1      57.602   9.830  90.194  1.00  0.00     0.014 C 
ENDBRANCH   1   9
TORSDOF 3
ENDMDL
MODEL 7
REMARK VINA RESULT:    -3.511     11.115     11.582
REMARK INTER + INTRA:          -4.096
REMARK INTER:                  -4.034
REMARK INTRA:                  -0.061
REMARK UNBOUND:                -0.071
REMARK SMILES CC(C)[C@H]([NH3+])C(=O)[O-]
REMARK SMILES IDX 4 1 5 2 6 6 7 7 8 8 2 9 1 10 3 11
REMARK H PARENT 5 3 5 4 5 5
REMARK Flexibility Score: inf
ROOT
ATOM      1  C   UNL     1      57.462  10.827  90.793  1.00  0.00     0.230 C 
ENDROOT
BRANCH   1   2
ATOM      2  N   UNL     1      56.471   9.789  90.471  1.00  0.00    -0.350 N 
ATOM      3  H   UNL     1      55.558  10.012  90.930  1.00  0.00     0.345 HD
ATOM      4  H   UNL     1      56.316   9.764  89.437  1.00  0.00     0.345 HD
ATOM      5  H   UNL     1      56.791   8.845  90.783  1.00  0.00     0.345 HD
ENDBRANCH   1   2
BRANCH   1   6
ATOM      6  C   UNL     1      56.934  11.753  91.863  1.00  0.00     0.099 C 
ATOM      7  O   UNL     1      57.116  12.995  91.768  1.00  0.00    -0.544 OA
ATOM      8  O   UNL     1      56.219  11.251  92.945  1.00  0.00    -0.544 OA
ENDBRANCH   1   6
BRANCH   1   9
ATOM      9  C   UNL     1      57.933  11.589  89.518  1.00  0.00     0.047 C 
ATOM     10  C   UNL     1      56.959  11.379  88.349  1.00  0.00     0.014 C 
ATOM     11  C   UNL     1      59.365  11.233  89.080  1.00  0.00     0.014 C 
ENDBRANCH   1   9
TORSDOF 3
ENDMDL
MODEL 8
REMARK VINA RESULT:    -3.480     11.471     11.891
REMARK INTER + INTRA:          -4.059
REMARK INTER:                  -4.067
REMARK INTRA:                   0.007
REMARK UNBOUND:                -0.071
REMARK SMILES CC(C)[C@H]([NH3+])C(=O)[O-]
REMARK SMILES IDX 4 1 5 2 6 6 7 7 8 8 2 9 1 10 3 11
REMARK H PARENT 5 3 5 4 5 5
REMARK Flexibility Score: inf
ROOT
ATOM      1  C   UNL     1      56.766  11.780  89.447  1.00  0.00     0.230 C 
ENDROOT
BRANCH   1   2
ATOM      2  N   UNL     1      55.997  11.991  88.212  1.00  0.00    -0.350 N 
ATOM      3  H   UNL     1      56.466  12.714  87.618  1.00  0.00     0.345 HD
ATOM      4  H   UNL     1      55.962  11.099  87.666  1.00  0.00     0.345 HD
ATOM      5  H   UNL     1      55.019  12.296  88.417  1.00  0.00     0.345 HD
ENDBRANCH   1   2
BRANCH   1   6
ATOM      6  C   UNL     1      57.240  13.099  90.011  1.00  0.00     0.099 C 
ATOM      7  O   UNL     1      57.323  14.109  89.264  1.00  0.00    -0.544 OA
ATOM      8  O   UNL     1      57.561  13.220  91.358  1.00  0.00    -0.544 OA
ENDBRANCH   1   6
BRANCH   1   9
ATOM      9  C   UNL     1      57.928  10.763  89.237  1.00  0.00     0.047 C 
ATOM     10  C   UNL     1      57.953   9.705  90.350  1.00  0.00     0.014 C 
ATOM     11  C   UNL     1      59.311  11.425  89.109  1.00  0.00     0.014 C 
ENDBRANCH   1   9
TORSDOF 3
ENDMDL
MODEL 9
REMARK VINA RESULT:    -3.465     10.774     11.170
REMARK INTER + INTRA:          -4.043
REMARK INTER:                  -4.011
REMARK INTRA:                  -0.032
REMARK UNBOUND:                -0.071
REMARK SMILES CC(C)[C@H]([NH3+])C(=O)[O-]
REMARK SMILES IDX 4 1 5 2 6 6 7 7 8 8 2 9 1 10 3 11
REMARK H PARENT 5 3 5 4 5 5
REMARK Flexibility Score: inf
ROOT
ATOM      1  C   UNL     1      56.964  10.786  90.694  1.00  0.00     0.230 C 
ENDROOT
BRANCH   1   2
ATOM      2  N   UNL     1      56.021   9.682  90.926  1.00  0.00    -0.350 N 
ATOM      3  H   UNL     1      56.075   9.368  91.922  1.00  0.00     0.345 HD
ATOM      4  H   UNL     1      55.045  10.014  90.744  1.00  0.00     0.345 HD
ATOM      5  H   UNL     1      56.220   8.871  90.299  1.00  0.00     0.345 HD
ENDBRANCH   1   2
BRANCH   1   6
ATOM      6  C   UNL     1      56.326  12.112  91.035  1.00  0.00     0.099 C 
ATOM      7  O   UNL     1      55.075  12.198  91.146  1.00  0.00    -0.544 OA
ATOM      8  O   UNL     1      57.109  13.239  91.257  1.00  0.00    -0.544 OA
ENDBRANCH   1   6
BRANCH   1   9
ATOM      9  C   UNL     1      57.548  10.753  89.249  1.00  0.00     0.047 C 
ATOM     10  C   UNL     1      58.992  11.275  89.218  1.00  0.00     0.014 C 
ATOM     11  C   UNL     1      56.691  11.513  88.221  1.00  0.00     0.014 C 
ENDBRANCH   1   9
TORSDOF 3
ENDMDL
