MODEL 1
REMARK VINA RESULT:    -3.702      0.000      0.000
REMARK INTER + INTRA:          -3.702
REMARK INTER:                  -3.702
REMARK INTRA:                   0.000
REMARK UNBOUND:                 0.000
REMARK SMILES C=C1CCC[C@]2(C)CC(=O)C(=C(C)C)C[C@@H]12
REMARK SMILES IDX 13 1 12 2 11 3 15 4 16 5 2 6 1 7 3 8 4 9 5 10 6 11 8 12 9 13
REMARK SMILES IDX 10 14 7 15 14 16
REMARK H PARENT
REMARK Flexibility Score: inf
ROOT
ATOM      1  C   UNL     1      -5.210 -17.106  -4.732  1.00  0.00     0.039 C 
ATOM      2  C   UNL     1      -3.983 -16.864  -5.581  1.00  0.00    -0.070 C 
ATOM      3  C   UNL     1      -3.776 -15.665  -6.202  1.00  0.00    -0.006 C 
ATOM      4  C   UNL     1      -4.786 -14.532  -6.082  1.00  0.00     0.047 C 
ATOM      5  C   UNL     1      -4.815 -13.619  -7.334  1.00  0.00     0.025 C 
ATOM      6  C   UNL     1      -5.782 -12.438  -7.254  1.00  0.00    -0.073 C 
ATOM      7  C   UNL     1      -6.560 -12.170  -6.187  1.00  0.00     0.008 C 
ATOM      8  C   UNL     1      -5.875 -11.566  -8.485  1.00  0.00     0.031 C 
ATOM      9  C   UNL     1      -4.482 -11.090  -8.907  1.00  0.00     0.005 C 
ATOM     10  C   UNL     1      -3.497 -12.264  -9.038  1.00  0.00     0.008 C 
ATOM     11  C   UNL     1      -3.393 -13.123  -7.742  1.00  0.00    -0.018 C 
ATOM     12  C   UNL     1      -2.508 -14.356  -8.051  1.00  0.00     0.088 C 
ATOM     13  C   UNL     1      -2.509 -15.350  -6.925  1.00  0.00     0.159 C 
ATOM     14  O   UNL     1      -1.419 -15.894  -6.601  1.00  0.00    -0.295 OA
ATOM     15  C   UNL     1      -2.728 -12.284  -6.615  1.00  0.00     0.012 C 
ATOM     16  C   UNL     1      -3.022 -18.020  -5.740  1.00  0.00     0.039 C 
ENDROOT
TORSDOF 0
ENDMDL
MODEL 2
REMARK VINA RESULT:    -3.405      2.054      5.283
REMARK INTER + INTRA:          -3.405
REMARK INTER:                  -3.405
REMARK INTRA:                   0.000
REMARK UNBOUND:                 0.000
REMARK SMILES C=C1CCC[C@]2(C)CC(=O)C(=C(C)C)C[C@@H]12
REMARK SMILES IDX 13 1 12 2 11 3 15 4 16 5 2 6 1 7 3 8 4 9 5 10 6 11 8 12 9 13
REMARK SMILES IDX 10 14 7 15 14 16
REMARK H PARENT
REMARK Flexibility Score: inf
ROOT
ATOM      1  C   UNL     1      -2.441 -10.607  -7.172  1.00  0.00     0.039 C 
ATOM      2  C   UNL     1      -3.496 -11.361  -7.950  1.00  0.00    -0.070 C 
ATOM      3  C   UNL     1      -3.839 -12.642  -7.622  1.00  0.00    -0.006 C 
ATOM      4  C   UNL     1      -3.156 -13.370  -6.473  1.00  0.00     0.047 C 
ATOM      5  C   UNL     1      -3.082 -14.903  -6.693  1.00  0.00     0.025 C 
ATOM      6  C   UNL     1      -2.442 -15.693  -5.552  1.00  0.00    -0.073 C 
ATOM      7  C   UNL     1      -1.973 -15.136  -4.418  1.00  0.00     0.008 C 
ATOM      8  C   UNL     1      -2.304 -17.182  -5.766  1.00  0.00     0.031 C 
ATOM      9  C   UNL     1      -3.655 -17.793  -6.148  1.00  0.00     0.005 C 
ATOM     10  C   UNL     1      -4.305 -17.044  -7.324  1.00  0.00     0.008 C 
ATOM     11  C   UNL     1      -4.470 -15.517  -7.061  1.00  0.00    -0.018 C 
ATOM     12  C   UNL     1      -4.974 -14.855  -8.366  1.00  0.00     0.088 C 
ATOM     13  C   UNL     1      -4.974 -13.355  -8.277  1.00  0.00     0.159 C 
ATOM     14  O   UNL     1      -5.956 -12.724  -8.753  1.00  0.00    -0.295 OA
ATOM     15  C   UNL     1      -5.517 -15.294  -5.934  1.00  0.00     0.012 C 
ATOM     16  C   UNL     1      -4.122 -10.645  -9.125  1.00  0.00     0.039 C 
ENDROOT
TORSDOF 0
ENDMDL
MODEL 3
REMARK VINA RESULT:    -1.392      1.802      4.967
REMARK INTER + INTRA:          -1.392
REMARK INTER:                  -1.392
REMARK INTRA:                   0.000
REMARK UNBOUND:                 0.000
REMARK SMILES C=C1CCC[C@]2(C)CC(=O)C(=C(C)C)C[C@@H]12
REMARK SMILES IDX 13 1 12 2 11 3 15 4 16 5 2 6 1 7 3 8 4 9 5 10 6 11 8 12 9 13
REMARK SMILES IDX 10 14 7 15 14 16
REMARK H PARENT
REMARK Flexibility Score: inf
ROOT
ATOM      1  C   UNL     1      -7.120 -13.166  -9.124  1.00  0.00     0.039 C 
ATOM      2  C   UNL     1      -5.995 -12.482  -8.382  1.00  0.00    -0.070 C 
ATOM      3  C   UNL     1      -4.934 -13.192  -7.893  1.00  0.00    -0.006 C 
ATOM      4  C   UNL     1      -4.855 -14.703  -8.058  1.00  0.00     0.047 C 
ATOM      5  C   UNL     1      -4.091 -15.394  -6.900  1.00  0.00     0.025 C 
ATOM      6  C   UNL     1      -3.944 -16.909  -7.033  1.00  0.00    -0.073 C 
ATOM      7  C   UNL     1      -4.420 -17.627  -8.069  1.00  0.00     0.008 C 
ATOM      8  C   UNL     1      -3.254 -17.616  -5.889  1.00  0.00     0.031 C 
ATOM      9  C   UNL     1      -1.896 -16.969  -5.604  1.00  0.00     0.005 C 
ATOM     10  C   UNL     1      -2.019 -15.446  -5.422  1.00  0.00     0.008 C 
ATOM     11  C   UNL     1      -2.699 -14.739  -6.633  1.00  0.00    -0.018 C 
ATOM     12  C   UNL     1      -2.914 -13.251  -6.263  1.00  0.00     0.088 C 
ATOM     13  C   UNL     1      -3.744 -12.528  -7.286  1.00  0.00     0.159 C 
ATOM     14  O   UNL     1      -3.401 -11.363  -7.625  1.00  0.00    -0.295 OA
ATOM     15  C   UNL     1      -1.769 -14.830  -7.876  1.00  0.00     0.012 C 
ATOM     16  C   UNL     1      -6.118 -10.990  -8.173  1.00  0.00     0.039 C 
ENDROOT
TORSDOF 0
ENDMDL
