MODEL 1
REMARK VINA RESULT:    -5.546      0.000      0.000
REMARK INTER + INTRA:         -11.604
REMARK INTER:                  -9.761
REMARK INTRA:                  -1.844
REMARK UNBOUND:                -1.844
REMARK SMILES CCCCCCC=CCCCCCCCC(=O)[O-]
REMARK SMILES IDX 10 1 11 2 12 3 13 4 14 5 15 6 16 7 17 8 18 9 9 10 8 11 7 12
REMARK SMILES IDX 6 13 5 14 4 15 3 16 2 17 1 18
REMARK H PARENT
REMARK Flexibility Score: inf
ROOT
ATOM      1  C   UNL     1     -28.847  -2.272  20.743  1.00  0.00     0.004 C 
ENDROOT
BRANCH   1   2
ATOM      2  C   UNL     1     -28.053  -1.257  19.908  1.00  0.00     0.000 C 
BRANCH   2   3
ATOM      3  C   UNL     1     -28.193  -1.495  18.396  1.00  0.00     0.000 C 
BRANCH   3   4
ATOM      4  C   UNL     1     -28.884  -2.828  18.068  1.00  0.00     0.000 C 
BRANCH   4   5
ATOM      5  C   UNL     1     -28.720  -3.179  16.582  1.00  0.00     0.006 C 
BRANCH   5   6
ATOM      6  C   UNL     1     -27.913  -2.119  15.820  1.00  0.00     0.053 C 
BRANCH   6   7
ATOM      7  C   UNL     1     -27.083  -2.729  14.733  1.00  0.00     0.041 C 
ATOM      8  O   UNL     1     -27.415  -3.830  14.222  1.00  0.00    -0.550 OA
ATOM      9  O   UNL     1     -25.958  -2.062  14.262  1.00  0.00    -0.550 OA
ENDBRANCH   6   7
ENDBRANCH   5   6
ENDBRANCH   4   5
ENDBRANCH   3   4
ENDBRANCH   2   3
ENDBRANCH   1   2
BRANCH   1  10
ATOM     10  C   UNL     1     -30.118  -1.633  21.318  1.00  0.00     0.027 C 
BRANCH  10  11
ATOM     11  C   UNL     1     -30.354  -2.076  22.738  1.00  0.00    -0.031 C 
ATOM     12  C   UNL     1     -30.706  -1.259  23.749  1.00  0.00    -0.031 C 
BRANCH  12  13
ATOM     13  C   UNL     1     -30.873   0.239  23.641  1.00  0.00     0.027 C 
BRANCH  13  14
ATOM     14  C   UNL     1     -29.580   0.974  24.013  1.00  0.00     0.004 C 
BRANCH  14  15
ATOM     15  C   UNL     1     -28.741   1.335  22.774  1.00  0.00     0.000 C 
BRANCH  15  16
ATOM     16  C   UNL     1     -27.310   0.763  22.852  1.00  0.00    -0.000 C 
BRANCH  16  17
ATOM     17  C   UNL     1     -27.031  -0.028  24.142  1.00  0.00    -0.003 C 
ATOM     18  C   UNL     1     -26.665  -1.487  23.881  1.00  0.00     0.004 C 
ENDBRANCH  16  17
ENDBRANCH  15  16
ENDBRANCH  14  15
ENDBRANCH  13  14
ENDBRANCH  12  13
ENDBRANCH  10  11
ENDBRANCH   1  10
TORSDOF 13
ENDMDL
MODEL 2
REMARK VINA RESULT:    -5.405      1.313      2.546
REMARK INTER + INTRA:         -11.357
REMARK INTER:                  -9.246
REMARK INTRA:                  -2.111
REMARK UNBOUND:                -1.844
REMARK SMILES CCCCCCC=CCCCCCCCC(=O)[O-]
REMARK SMILES IDX 10 1 11 2 12 3 13 4 14 5 15 6 16 7 17 8 18 9 9 10 8 11 7 12
REMARK SMILES IDX 6 13 5 14 4 15 3 16 2 17 1 18
REMARK H PARENT
REMARK Flexibility Score: inf
ROOT
ATOM      1  C   UNL     1     -30.330  -2.096  22.564  1.00  0.00     0.004 C 
ENDROOT
BRANCH   1   2
ATOM      2  C   UNL     1     -28.964  -2.244  21.879  1.00  0.00     0.000 C 
BRANCH   2   3
ATOM      3  C   UNL     1     -29.069  -2.264  20.346  1.00  0.00     0.000 C 
BRANCH   3   4
ATOM      4  C   UNL     1     -28.144  -1.234  19.676  1.00  0.00     0.000 C 
BRANCH   4   5
ATOM      5  C   UNL     1     -27.994  -1.527  18.176  1.00  0.00     0.006 C 
BRANCH   5   6
ATOM      6  C   UNL     1     -28.806  -2.754  17.740  1.00  0.00     0.053 C 
BRANCH   6   7
ATOM      7  C   UNL     1     -28.603  -3.066  16.289  1.00  0.00     0.041 C 
ATOM      8  O   UNL     1     -28.182  -2.178  15.502  1.00  0.00    -0.550 OA
ATOM      9  O   UNL     1     -28.849  -4.348  15.813  1.00  0.00    -0.550 OA
ENDBRANCH   6   7
ENDBRANCH   5   6
ENDBRANCH   4   5
ENDBRANCH   3   4
ENDBRANCH   2   3
ENDBRANCH   1   2
BRANCH   1  10
ATOM     10  C   UNL     1     -30.947  -0.725  22.264  1.00  0.00     0.027 C 
BRANCH  10  11
ATOM     11  C   UNL     1     -30.782   0.213  23.431  1.00  0.00    -0.031 C 
ATOM     12  C   UNL     1     -29.854   1.186  23.511  1.00  0.00    -0.031 C 
BRANCH  12  13
ATOM     13  C   UNL     1     -28.795   1.466  22.470  1.00  0.00     0.027 C 
BRANCH  13  14
ATOM     14  C   UNL     1     -27.475   0.765  22.812  1.00  0.00     0.004 C 
BRANCH  14  15
ATOM     15  C   UNL     1     -27.296   0.573  24.328  1.00  0.00     0.000 C 
BRANCH  15  16
ATOM     16  C   UNL     1     -27.115  -0.911  24.711  1.00  0.00    -0.000 C 
BRANCH  16  17
ATOM     17  C   UNL     1     -28.263  -1.470  25.570  1.00  0.00    -0.003 C 
ATOM     18  C   UNL     1     -28.765  -0.477  26.616  1.00  0.00     0.004 C 
ENDBRANCH  16  17
ENDBRANCH  15  16
ENDBRANCH  14  15
ENDBRANCH  13  14
ENDBRANCH  12  13
ENDBRANCH  10  11
ENDBRANCH   1  10
TORSDOF 13
ENDMDL
MODEL 3
REMARK VINA RESULT:    -5.401      0.947      1.481
REMARK INTER + INTRA:         -11.349
REMARK INTER:                  -9.524
REMARK INTRA:                  -1.825
REMARK UNBOUND:                -1.844
REMARK SMILES CCCCCCC=CCCCCCCCC(=O)[O-]
REMARK SMILES IDX 10 1 11 2 12 3 13 4 14 5 15 6 16 7 17 8 18 9 9 10 8 11 7 12
REMARK SMILES IDX 6 13 5 14 4 15 3 16 2 17 1 18
REMARK H PARENT
REMARK Flexibility Score: inf
ROOT
ATOM      1  C   UNL     1     -28.863  -2.136  21.170  1.00  0.00     0.004 C 
ENDROOT
BRANCH   1   2
ATOM      2  C   UNL     1     -28.623  -1.008  20.157  1.00  0.00     0.000 C 
BRANCH   2   3
ATOM      3  C   UNL     1     -28.203  -1.532  18.774  1.00  0.00     0.000 C 
BRANCH   3   4
ATOM      4  C   UNL     1     -28.949  -2.816  18.377  1.00  0.00     0.000 C 
BRANCH   4   5
ATOM      5  C   UNL     1     -28.790  -3.101  16.876  1.00  0.00     0.006 C 
BRANCH   5   6
ATOM      6  C   UNL     1     -27.889  -2.070  16.183  1.00  0.00     0.053 C 
BRANCH   6   7
ATOM      7  C   UNL     1     -27.342  -2.593  14.890  1.00  0.00     0.041 C 
ATOM      8  O   UNL     1     -27.796  -3.656  14.392  1.00  0.00    -0.550 OA
ATOM      9  O   UNL     1     -26.351  -1.885  14.218  1.00  0.00    -0.550 OA
ENDBRANCH   6   7
ENDBRANCH   5   6
ENDBRANCH   4   5
ENDBRANCH   3   4
ENDBRANCH   2   3
ENDBRANCH   1   2
BRANCH   1  10
ATOM     10  C   UNL     1     -30.117  -1.860  22.009  1.00  0.00     0.027 C 
BRANCH  10  11
ATOM     11  C   UNL     1     -30.414  -0.385  22.075  1.00  0.00    -0.031 C 
ATOM     12  C   UNL     1     -30.741   0.284  23.196  1.00  0.00    -0.031 C 
BRANCH  12  13
ATOM     13  C   UNL     1     -30.915  -0.338  24.562  1.00  0.00     0.027 C 
BRANCH  13  14
ATOM     14  C   UNL     1     -29.753   0.026  25.494  1.00  0.00     0.004 C 
BRANCH  14  15
ATOM     15  C   UNL     1     -28.643  -1.039  25.482  1.00  0.00     0.000 C 
BRANCH  15  16
ATOM     16  C   UNL     1     -27.256  -0.435  25.177  1.00  0.00    -0.000 C 
BRANCH  16  17
ATOM     17  C   UNL     1     -26.906  -0.421  23.678  1.00  0.00    -0.003 C 
ATOM     18  C   UNL     1     -27.055   0.959  23.042  1.00  0.00     0.004 C 
ENDBRANCH  16  17
ENDBRANCH  15  16
ENDBRANCH  14  15
ENDBRANCH  13  14
ENDBRANCH  12  13
ENDBRANCH  10  11
ENDBRANCH   1  10
TORSDOF 13
ENDMDL
MODEL 4
REMARK VINA RESULT:    -5.360      1.707      3.389
REMARK INTER + INTRA:         -11.277
REMARK INTER:                  -9.463
REMARK INTRA:                  -1.813
REMARK UNBOUND:                -1.844
REMARK SMILES CCCCCCC=CCCCCCCCC(=O)[O-]
REMARK SMILES IDX 10 1 11 2 12 3 13 4 14 5 15 6 16 7 17 8 18 9 9 10 8 11 7 12
REMARK SMILES IDX 6 13 5 14 4 15 3 16 2 17 1 18
REMARK H PARENT
REMARK Flexibility Score: inf
ROOT
ATOM      1  C   UNL     1     -30.882  -0.365  22.796  1.00  0.00     0.004 C 
ENDROOT
BRANCH   1   2
ATOM      2  C   UNL     1     -30.374  -0.863  21.436  1.00  0.00     0.000 C 
BRANCH   2   3
ATOM      3  C   UNL     1     -29.579  -2.175  21.543  1.00  0.00     0.000 C 
BRANCH   3   4
ATOM      4  C   UNL     1     -28.470  -2.282  20.485  1.00  0.00     0.000 C 
BRANCH   4   5
ATOM      5  C   UNL     1     -29.068  -2.446  19.080  1.00  0.00     0.006 C 
BRANCH   5   6
ATOM      6  C   UNL     1     -28.243  -1.719  18.009  1.00  0.00     0.053 C 
BRANCH   6   7
ATOM      7  C   UNL     1     -28.328  -2.407  16.681  1.00  0.00     0.041 C 
ATOM      8  O   UNL     1     -28.806  -3.569  16.598  1.00  0.00    -0.550 OA
ATOM      9  O   UNL     1     -27.909  -1.751  15.530  1.00  0.00    -0.550 OA
ENDBRANCH   6   7
ENDBRANCH   5   6
ENDBRANCH   4   5
ENDBRANCH   3   4
ENDBRANCH   2   3
ENDBRANCH   1   2
BRANCH   1  10
ATOM     10  C   UNL     1     -30.102   0.875  23.250  1.00  0.00     0.027 C 
BRANCH  10  11
ATOM     11  C   UNL     1     -28.889   1.101  22.387  1.00  0.00    -0.031 C 
ATOM     12  C   UNL     1     -27.621   0.836  22.758  1.00  0.00    -0.031 C 
BRANCH  12  13
ATOM     13  C   UNL     1     -27.201   0.319  24.114  1.00  0.00     0.027 C 
BRANCH  13  14
ATOM     14  C   UNL     1     -27.303  -1.209  24.186  1.00  0.00     0.004 C 
BRANCH  14  15
ATOM     15  C   UNL     1     -28.347  -1.673  25.217  1.00  0.00     0.000 C 
BRANCH  15  16
ATOM     16  C   UNL     1     -28.529  -0.655  26.362  1.00  0.00    -0.000 C 
BRANCH  16  17
ATOM     17  C   UNL     1     -29.991  -0.222  26.574  1.00  0.00    -0.003 C 
ATOM     18  C   UNL     1     -30.126   1.009  27.467  1.00  0.00     0.004 C 
ENDBRANCH  16  17
ENDBRANCH  15  16
ENDBRANCH  14  15
ENDBRANCH  13  14
ENDBRANCH  12  13
ENDBRANCH  10  11
ENDBRANCH   1  10
TORSDOF 13
ENDMDL
MODEL 5
REMARK VINA RESULT:    -5.357      1.565      3.243
REMARK INTER + INTRA:         -11.271
REMARK INTER:                  -9.708
REMARK INTRA:                  -1.563
REMARK UNBOUND:                -1.844
REMARK SMILES CCCCCCC=CCCCCCCCC(=O)[O-]
REMARK SMILES IDX 10 1 11 2 12 3 13 4 14 5 15 6 16 7 17 8 18 9 9 10 8 11 7 12
REMARK SMILES IDX 6 13 5 14 4 15 3 16 2 17 1 18
REMARK H PARENT
REMARK Flexibility Score: inf
ROOT
ATOM      1  C   UNL     1     -28.265  -1.216  19.694  1.00  0.00     0.004 C 
ENDROOT
BRANCH   1   2
ATOM      2  C   UNL     1     -29.085  -2.502  19.524  1.00  0.00     0.000 C 
BRANCH   2   3
ATOM      3  C   UNL     1     -29.015  -3.066  18.096  1.00  0.00     0.000 C 
BRANCH   3   4
ATOM      4  C   UNL     1     -28.228  -2.157  17.139  1.00  0.00     0.000 C 
BRANCH   4   5
ATOM      5  C   UNL     1     -28.117  -2.793  15.745  1.00  0.00     0.006 C 
BRANCH   5   6
ATOM      6  C   UNL     1     -29.482  -2.917  15.053  1.00  0.00     0.053 C 
BRANCH   6   7
ATOM      7  C   UNL     1     -29.744  -4.318  14.593  1.00  0.00     0.041 C 
ATOM      8  O   UNL     1     -30.913  -4.784  14.614  1.00  0.00    -0.550 OA
ATOM      9  O   UNL     1     -28.701  -5.097  14.108  1.00  0.00    -0.550 OA
ENDBRANCH   6   7
ENDBRANCH   5   6
ENDBRANCH   4   5
ENDBRANCH   3   4
ENDBRANCH   2   3
ENDBRANCH   1   2
BRANCH   1  10
ATOM     10  C   UNL     1     -27.419  -1.271  20.972  1.00  0.00     0.027 C 
BRANCH  10  11
ATOM     11  C   UNL     1     -27.532   0.011  21.754  1.00  0.00    -0.031 C 
ATOM     12  C   UNL     1     -27.335   0.123  23.082  1.00  0.00    -0.031 C 
BRANCH  12  13
ATOM     13  C   UNL     1     -27.018  -1.023  24.014  1.00  0.00     0.027 C 
BRANCH  13  14
ATOM     14  C   UNL     1     -28.272  -1.509  24.750  1.00  0.00     0.004 C 
BRANCH  14  15
ATOM     15  C   UNL     1     -29.011  -2.612  23.973  1.00  0.00     0.000 C 
BRANCH  15  16
ATOM     16  C   UNL     1     -30.445  -2.194  23.588  1.00  0.00    -0.000 C 
BRANCH  16  17
ATOM     17  C   UNL     1     -30.803  -0.759  24.011  1.00  0.00    -0.003 C 
ATOM     18  C   UNL     1     -31.151   0.143  22.829  1.00  0.00     0.004 C 
ENDBRANCH  16  17
ENDBRANCH  15  16
ENDBRANCH  14  15
ENDBRANCH  13  14
ENDBRANCH  12  13
ENDBRANCH  10  11
ENDBRANCH   1  10
TORSDOF 13
ENDMDL
MODEL 6
REMARK VINA RESULT:    -5.272      1.271      2.332
REMARK INTER + INTRA:         -11.123
REMARK INTER:                  -9.668
REMARK INTRA:                  -1.455
REMARK UNBOUND:                -1.844
REMARK SMILES CCCCCCC=CCCCCCCCC(=O)[O-]
REMARK SMILES IDX 10 1 11 2 12 3 13 4 14 5 15 6 16 7 17 8 18 9 9 10 8 11 7 12
REMARK SMILES IDX 6 13 5 14 4 15 3 16 2 17 1 18
REMARK H PARENT
REMARK Flexibility Score: inf
ROOT
ATOM      1  C   UNL     1     -30.086  -1.407  20.633  1.00  0.00     0.004 C 
ENDROOT
BRANCH   1   2
ATOM      2  C   UNL     1     -28.799  -2.158  20.266  1.00  0.00     0.000 C 
BRANCH   2   3
ATOM      3  C   UNL     1     -28.272  -1.786  18.870  1.00  0.00     0.000 C 
BRANCH   3   4
ATOM      4  C   UNL     1     -28.755  -2.754  17.778  1.00  0.00     0.000 C 
BRANCH   4   5
ATOM      5  C   UNL     1     -28.214  -2.341  16.402  1.00  0.00     0.006 C 
BRANCH   5   6
ATOM      6  C   UNL     1     -27.830  -3.553  15.542  1.00  0.00     0.053 C 
BRANCH   6   7
ATOM      7  C   UNL     1     -26.672  -3.249  14.640  1.00  0.00     0.041 C 
ATOM      8  O   UNL     1     -25.987  -4.184  14.150  1.00  0.00    -0.550 OA
ATOM      9  O   UNL     1     -26.373  -1.931  14.315  1.00  0.00    -0.550 OA
ENDBRANCH   6   7
ENDBRANCH   5   6
ENDBRANCH   4   5
ENDBRANCH   3   4
ENDBRANCH   2   3
ENDBRANCH   1   2
BRANCH   1  10
ATOM     10  C   UNL     1     -30.171  -1.173  22.146  1.00  0.00     0.027 C 
BRANCH  10  11
ATOM     11  C   UNL     1     -30.080   0.294  22.475  1.00  0.00    -0.031 C 
ATOM     12  C   UNL     1     -28.930   0.973  22.652  1.00  0.00    -0.031 C 
BRANCH  12  13
ATOM     13  C   UNL     1     -27.546   0.368  22.598  1.00  0.00     0.027 C 
BRANCH  13  14
ATOM     14  C   UNL     1     -26.956   0.198  24.003  1.00  0.00     0.004 C 
BRANCH  14  15
ATOM     15  C   UNL     1     -27.000  -1.266  24.477  1.00  0.00     0.000 C 
BRANCH  15  16
ATOM     16  C   UNL     1     -28.327  -1.611  25.185  1.00  0.00    -0.000 C 
BRANCH  16  17
ATOM     17  C   UNL     1     -28.713  -0.614  26.291  1.00  0.00    -0.003 C 
ATOM     18  C   UNL     1     -30.172  -0.172  26.215  1.00  0.00     0.004 C 
ENDBRANCH  16  17
ENDBRANCH  15  16
ENDBRANCH  14  15
ENDBRANCH  13  14
ENDBRANCH  12  13
ENDBRANCH  10  11
ENDBRANCH   1  10
TORSDOF 13
ENDMDL
MODEL 7
REMARK VINA RESULT:    -5.248      1.131      2.673
REMARK INTER + INTRA:         -11.081
REMARK INTER:                  -9.458
REMARK INTRA:                  -1.622
REMARK UNBOUND:                -1.844
REMARK SMILES CCCCCCC=CCCCCCCCC(=O)[O-]
REMARK SMILES IDX 10 1 11 2 12 3 13 4 14 5 15 6 16 7 17 8 18 9 9 10 8 11 7 12
REMARK SMILES IDX 6 13 5 14 4 15 3 16 2 17 1 18
REMARK H PARENT
REMARK Flexibility Score: inf
ROOT
ATOM      1  C   UNL     1     -28.591  -2.144  21.409  1.00  0.00     0.004 C 
ENDROOT
BRANCH   1   2
ATOM      2  C   UNL     1     -28.410  -0.990  20.414  1.00  0.00     0.000 C 
BRANCH   2   3
ATOM      3  C   UNL     1     -28.143  -1.479  18.981  1.00  0.00     0.000 C 
BRANCH   3   4
ATOM      4  C   UNL     1     -29.117  -2.583  18.541  1.00  0.00     0.000 C 
BRANCH   4   5
ATOM      5  C   UNL     1     -28.739  -3.128  17.156  1.00  0.00     0.006 C 
BRANCH   5   6
ATOM      6  C   UNL     1     -28.050  -2.070  16.284  1.00  0.00     0.053 C 
BRANCH   6   7
ATOM      7  C   UNL     1     -27.477  -2.668  15.036  1.00  0.00     0.041 C 
ATOM      8  O   UNL     1     -26.293  -3.095  15.022  1.00  0.00    -0.550 OA
ATOM      9  O   UNL     1     -28.264  -2.782  13.896  1.00  0.00    -0.550 OA
ENDBRANCH   6   7
ENDBRANCH   5   6
ENDBRANCH   4   5
ENDBRANCH   3   4
ENDBRANCH   2   3
ENDBRANCH   1   2
BRANCH   1  10
ATOM     10  C   UNL     1     -27.865  -1.848  22.728  1.00  0.00     0.027 C 
BRANCH  10  11
ATOM     11  C   UNL     1     -27.261  -0.468  22.718  1.00  0.00    -0.031 C 
ATOM     12  C   UNL     1     -27.127   0.321  23.801  1.00  0.00    -0.031 C 
BRANCH  12  13
ATOM     13  C   UNL     1     -27.603  -0.023  25.193  1.00  0.00     0.027 C 
BRANCH  13  14
ATOM     14  C   UNL     1     -28.901   0.716  25.538  1.00  0.00     0.004 C 
BRANCH  14  15
ATOM     15  C   UNL     1     -30.149  -0.138  25.252  1.00  0.00     0.000 C 
BRANCH  15  16
ATOM     16  C   UNL     1     -30.793   0.209  23.893  1.00  0.00    -0.000 C 
BRANCH  16  17
ATOM     17  C   UNL     1     -31.487  -0.987  23.218  1.00  0.00    -0.003 C 
ATOM     18  C   UNL     1     -31.253  -2.306  23.950  1.00  0.00     0.004 C 
ENDBRANCH  16  17
ENDBRANCH  15  16
ENDBRANCH  14  15
ENDBRANCH  13  14
ENDBRANCH  12  13
ENDBRANCH  10  11
ENDBRANCH   1  10
TORSDOF 13
ENDMDL
MODEL 8
REMARK VINA RESULT:    -5.222      7.740     11.097
REMARK INTER + INTRA:         -11.034
REMARK INTER:                  -9.454
REMARK INTRA:                  -1.580
REMARK UNBOUND:                -1.844
REMARK SMILES CCCCCCC=CCCCCCCCC(=O)[O-]
REMARK SMILES IDX 10 1 11 2 12 3 13 4 14 5 15 6 16 7 17 8 18 9 9 10 8 11 7 12
REMARK SMILES IDX 6 13 5 14 4 15 3 16 2 17 1 18
REMARK H PARENT
REMARK Flexibility Score: inf
ROOT
ATOM      1  C   UNL     1     -29.710   0.085  26.672  1.00  0.00     0.004 C 
ENDROOT
BRANCH   1   2
ATOM      2  C   UNL     1     -30.136   1.116  27.727  1.00  0.00     0.000 C 
BRANCH   2   3
ATOM      3  C   UNL     1     -29.350   0.980  29.041  1.00  0.00     0.000 C 
BRANCH   3   4
ATOM      4  C   UNL     1     -30.128   1.514  30.254  1.00  0.00     0.000 C 
BRANCH   4   5
ATOM      5  C   UNL     1     -29.258   1.485  31.519  1.00  0.00     0.006 C 
BRANCH   5   6
ATOM      6  C   UNL     1     -29.071   2.881  32.128  1.00  0.00     0.053 C 
BRANCH   6   7
ATOM      7  C   UNL     1     -27.737   3.022  32.795  1.00  0.00     0.041 C 
ATOM      8  O   UNL     1     -27.414   4.107  33.344  1.00  0.00    -0.550 OA
ATOM      9  O   UNL     1     -26.864   1.941  32.837  1.00  0.00    -0.550 OA
ENDBRANCH   6   7
ENDBRANCH   5   6
ENDBRANCH   4   5
ENDBRANCH   3   4
ENDBRANCH   2   3
ENDBRANCH   1   2
BRANCH   1  10
ATOM     10  C   UNL     1     -28.251   0.303  26.252  1.00  0.00     0.027 C 
BRANCH  10  11
ATOM     11  C   UNL     1     -27.734  -0.865  25.454  1.00  0.00    -0.031 C 
ATOM     12  C   UNL     1     -27.312  -0.798  24.177  1.00  0.00    -0.031 C 
BRANCH  12  13
ATOM     13  C   UNL     1     -27.332   0.445  23.318  1.00  0.00     0.027 C 
BRANCH  13  14
ATOM     14  C   UNL     1     -28.531   0.445  22.363  1.00  0.00     0.004 C 
BRANCH  14  15
ATOM     15  C   UNL     1     -29.707   1.275  22.908  1.00  0.00     0.000 C 
BRANCH  15  16
ATOM     16  C   UNL     1     -30.902   0.392  23.322  1.00  0.00    -0.000 C 
BRANCH  16  17
ATOM     17  C   UNL     1     -30.862  -1.022  22.717  1.00  0.00    -0.003 C 
ATOM     18  C   UNL     1     -30.927  -2.125  23.770  1.00  0.00     0.004 C 
ENDBRANCH  16  17
ENDBRANCH  15  16
ENDBRANCH  14  15
ENDBRANCH  13  14
ENDBRANCH  12  13
ENDBRANCH  10  11
ENDBRANCH   1  10
TORSDOF 13
ENDMDL
MODEL 9
REMARK VINA RESULT:    -5.219      1.117      2.415
REMARK INTER + INTRA:         -11.029
REMARK INTER:                  -9.232
REMARK INTRA:                  -1.796
REMARK UNBOUND:                -1.844
REMARK SMILES CCCCCCC=CCCCCCCCC(=O)[O-]
REMARK SMILES IDX 10 1 11 2 12 3 13 4 14 5 15 6 16 7 17 8 18 9 9 10 8 11 7 12
REMARK SMILES IDX 6 13 5 14 4 15 3 16 2 17 1 18
REMARK H PARENT
REMARK Flexibility Score: inf
ROOT
ATOM      1  C   UNL     1     -30.027  -1.912  21.819  1.00  0.00     0.004 C 
ENDROOT
BRANCH   1   2
ATOM      2  C   UNL     1     -30.029  -1.458  20.353  1.00  0.00     0.000 C 
BRANCH   2   3
ATOM      3  C   UNL     1     -28.729  -1.821  19.618  1.00  0.00     0.000 C 
BRANCH   3   4
ATOM      4  C   UNL     1     -28.972  -2.715  18.392  1.00  0.00     0.000 C 
BRANCH   4   5
ATOM      5  C   UNL     1     -28.244  -2.162  17.158  1.00  0.00     0.006 C 
BRANCH   5   6
ATOM      6  C   UNL     1     -28.905  -2.608  15.846  1.00  0.00     0.053 C 
BRANCH   6   7
ATOM      7  C   UNL     1     -28.323  -3.892  15.340  1.00  0.00     0.041 C 
ATOM      8  O   UNL     1     -29.037  -4.926  15.265  1.00  0.00    -0.550 OA
ATOM      9  O   UNL     1     -26.999  -3.938  14.920  1.00  0.00    -0.550 OA
ENDBRANCH   6   7
ENDBRANCH   5   6
ENDBRANCH   4   5
ENDBRANCH   3   4
ENDBRANCH   2   3
ENDBRANCH   1   2
BRANCH   1  10
ATOM     10  C   UNL     1     -28.690  -2.568  22.187  1.00  0.00     0.027 C 
BRANCH  10  11
ATOM     11  C   UNL     1     -28.501  -2.614  23.681  1.00  0.00    -0.031 C 
ATOM     12  C   UNL     1     -27.545  -1.948  24.356  1.00  0.00    -0.031 C 
BRANCH  12  13
ATOM     13  C   UNL     1     -26.476  -1.085  23.727  1.00  0.00     0.027 C 
BRANCH  13  14
ATOM     14  C   UNL     1     -26.838   0.403  23.809  1.00  0.00     0.004 C 
BRANCH  14  15
ATOM     15  C   UNL     1     -27.656   0.868  22.591  1.00  0.00     0.000 C 
BRANCH  15  16
ATOM     16  C   UNL     1     -29.069   1.347  22.986  1.00  0.00    -0.000 C 
BRANCH  16  17
ATOM     17  C   UNL     1     -29.466   0.974  24.425  1.00  0.00    -0.003 C 
ATOM     18  C   UNL     1     -30.777   0.195  24.499  1.00  0.00     0.004 C 
ENDBRANCH  16  17
ENDBRANCH  15  16
ENDBRANCH  14  15
ENDBRANCH  13  14
ENDBRANCH  12  13
ENDBRANCH  10  11
ENDBRANCH   1  10
TORSDOF 13
ENDMDL
