MODEL 1
REMARK VINA RESULT:    -6.481      0.000      0.000
REMARK INTER + INTRA:         -11.434
REMARK INTER:                 -10.080
REMARK INTRA:                  -1.355
REMARK UNBOUND:                -1.355
REMARK SMILES COc1cc(CNC(=O)CCCCC=CC(C)C)ccc1O
REMARK SMILES IDX 11 1 12 2 13 3 14 4 15 5 16 6 17 7 18 8 10 9 8 10 9 11 7 12
REMARK SMILES IDX 6 14 5 15 4 16 19 17 3 18 20 19 21 20 2 21 1 22 22 23
REMARK H PARENT 7 13 22 24
REMARK Flexibility Score: inf
ROOT
ATOM      1  C   UNL     1       3.880  11.228  24.202  1.00  0.00     0.010 C 
ENDROOT
BRANCH   1   2
ATOM      2  C   UNL     1       3.012  12.486  24.035  1.00  0.00     0.005 C 
BRANCH   2   3
ATOM      3  C   UNL     1       1.726  12.389  24.865  1.00  0.00     0.027 C 
BRANCH   3   4
ATOM      4  C   UNL     1       0.660  11.638  24.108  1.00  0.00    -0.031 C 
ATOM      5  C   UNL     1      -0.388  11.014  24.674  1.00  0.00    -0.028 C 
BRANCH   5   6
ATOM      6  C   UNL     1      -0.741  11.084  26.145  1.00  0.00     0.005 C 
ATOM      7  C   UNL     1      -1.608  12.318  26.410  1.00  0.00     0.012 C 
ATOM      8  C   UNL     1      -1.475   9.809  26.568  1.00  0.00     0.012 C 
ENDBRANCH   5   6
ENDBRANCH   3   4
ENDBRANCH   2   3
ENDBRANCH   1   2
BRANCH   1   9
ATOM      9  C   UNL     1       4.354  10.662  22.855  1.00  0.00     0.100 C 
BRANCH   9  10
ATOM     10  C   UNL     1       3.678   9.362  22.526  1.00  0.00     0.220 C 
ATOM     11  O   UNL     1       4.312   8.280  22.665  1.00  0.00    -0.275 OA
ATOM     12  N   UNL     1       2.336   9.354  22.015  1.00  0.00    -0.352 N 
ATOM     13  H   UNL     1       1.797  10.250  22.007  1.00  0.00     0.163 HD
BRANCH  12  14
ATOM     14  C   UNL     1       1.819   8.247  21.214  1.00  0.00     0.151 C 
BRANCH  14  15
ATOM     15  C   UNL     1       0.863   7.435  22.044  1.00  0.00    -0.025 A 
ATOM     16  C   UNL     1       1.285   6.218  22.602  1.00  0.00     0.056 A 
ATOM     17  C   UNL     1      -0.406   7.936  22.362  1.00  0.00     0.009 A 
ATOM     18  C   UNL     1       0.443   5.499  23.475  1.00  0.00     0.160 A 
ATOM     19  C   UNL     1      -1.248   7.225  23.220  1.00  0.00     0.050 A 
ATOM     20  C   UNL     1      -0.831   6.014  23.779  1.00  0.00     0.157 A 
BRANCH  18  21
ATOM     21  O   UNL     1       0.842   4.287  24.061  1.00  0.00    -0.493 OA
ATOM     22  C   UNL     1       2.190   3.833  24.139  1.00  0.00     0.278 C 
ENDBRANCH  18  21
BRANCH  20  23
ATOM     23  O   UNL     1      -1.692   5.338  24.643  1.00  0.00    -0.504 OA
ATOM     24  H   UNL     1      -1.898   4.352  24.538  1.00  0.00     0.293 HD
ENDBRANCH  20  23
ENDBRANCH  14  15
ENDBRANCH  12  14
ENDBRANCH   9  10
ENDBRANCH   1   9
TORSDOF 10
ENDMDL
MODEL 2
REMARK VINA RESULT:    -6.024      4.195      7.823
REMARK INTER + INTRA:         -10.724
REMARK INTER:                  -9.769
REMARK INTRA:                  -0.955
REMARK UNBOUND:                -1.355
REMARK SMILES COc1cc(CNC(=O)CCCCC=CC(C)C)ccc1O
REMARK SMILES IDX 11 1 12 2 13 3 14 4 15 5 16 6 17 7 18 8 10 9 8 10 9 11 7 12
REMARK SMILES IDX 6 14 5 15 4 16 19 17 3 18 20 19 21 20 2 21 1 22 22 23
REMARK H PARENT 7 13 22 24
REMARK Flexibility Score: inf
ROOT
ATOM      1  C   UNL     1       5.097   4.949  25.542  1.00  0.00     0.010 C 
ENDROOT
BRANCH   1   2
ATOM      2  C   UNL     1       6.598   5.196  25.326  1.00  0.00     0.005 C 
BRANCH   2   3
ATOM      3  C   UNL     1       7.430   4.613  26.475  1.00  0.00     0.027 C 
BRANCH   3   4
ATOM      4  C   UNL     1       8.479   3.669  25.946  1.00  0.00    -0.031 C 
ATOM      5  C   UNL     1       8.512   2.345  26.183  1.00  0.00    -0.028 C 
BRANCH   5   6
ATOM      6  C   UNL     1       7.425   1.572  26.900  1.00  0.00     0.005 C 
ATOM      7  C   UNL     1       7.097   0.297  26.119  1.00  0.00     0.012 C 
ATOM      8  C   UNL     1       7.879   1.231  28.322  1.00  0.00     0.012 C 
ENDBRANCH   5   6
ENDBRANCH   3   4
ENDBRANCH   2   3
ENDBRANCH   1   2
BRANCH   1   9
ATOM      9  C   UNL     1       4.761   3.455  25.664  1.00  0.00     0.100 C 
BRANCH   9  10
ATOM     10  C   UNL     1       3.536   3.091  24.875  1.00  0.00     0.220 C 
ATOM     11  O   UNL     1       3.405   1.915  24.438  1.00  0.00    -0.275 OA
ATOM     12  N   UNL     1       2.544   4.087  24.581  1.00  0.00    -0.352 N 
ATOM     13  H   UNL     1       2.621   5.023  25.040  1.00  0.00     0.163 HD
BRANCH  12  14
ATOM     14  C   UNL     1       1.640   3.966  23.440  1.00  0.00     0.151 C 
BRANCH  14  15
ATOM     15  C   UNL     1       1.004   5.301  23.165  1.00  0.00    -0.025 A 
ATOM     16  C   UNL     1       1.579   6.166  22.220  1.00  0.00     0.056 A 
ATOM     17  C   UNL     1      -0.220   5.642  23.757  1.00  0.00     0.009 A 
ATOM     18  C   UNL     1       0.937   7.369  21.865  1.00  0.00     0.160 A 
ATOM     19  C   UNL     1      -0.856   6.837  23.416  1.00  0.00     0.050 A 
ATOM     20  C   UNL     1      -0.288   7.700  22.474  1.00  0.00     0.157 A 
BRANCH  18  21
ATOM     21  O   UNL     1       1.479   8.248  20.913  1.00  0.00    -0.493 OA
ATOM     22  C   UNL     1       2.647   9.038  21.115  1.00  0.00     0.278 C 
ENDBRANCH  18  21
BRANCH  20  23
ATOM     23  O   UNL     1      -0.960   8.877  22.147  1.00  0.00    -0.504 OA
ATOM     24  H   UNL     1      -1.182   9.124  21.189  1.00  0.00     0.293 HD
ENDBRANCH  20  23
ENDBRANCH  14  15
ENDBRANCH  12  14
ENDBRANCH   9  10
ENDBRANCH   1   9
TORSDOF 10
ENDMDL
MODEL 3
REMARK VINA RESULT:    -5.948      4.170      7.725
REMARK INTER + INTRA:         -10.606
REMARK INTER:                  -9.649
REMARK INTRA:                  -0.957
REMARK UNBOUND:                -1.355
REMARK SMILES COc1cc(CNC(=O)CCCCC=CC(C)C)ccc1O
REMARK SMILES IDX 11 1 12 2 13 3 14 4 15 5 16 6 17 7 18 8 10 9 8 10 9 11 7 12
REMARK SMILES IDX 6 14 5 15 4 16 19 17 3 18 20 19 21 20 2 21 1 22 22 23
REMARK H PARENT 7 13 22 24
REMARK Flexibility Score: inf
ROOT
ATOM      1  C   UNL     1       4.941   5.069  25.598  1.00  0.00     0.010 C 
ENDROOT
BRANCH   1   2
ATOM      2  C   UNL     1       6.401   5.447  25.302  1.00  0.00     0.005 C 
BRANCH   2   3
ATOM      3  C   UNL     1       7.339   4.963  26.415  1.00  0.00     0.027 C 
BRANCH   3   4
ATOM      4  C   UNL     1       8.396   4.046  25.857  1.00  0.00    -0.031 C 
ATOM      5  C   UNL     1       8.509   2.737  26.144  1.00  0.00    -0.028 C 
BRANCH   5   6
ATOM      6  C   UNL     1       7.509   1.947  26.963  1.00  0.00     0.005 C 
ATOM      7  C   UNL     1       7.151   0.651  26.231  1.00  0.00     0.012 C 
ATOM      8  C   UNL     1       8.091   1.642  28.346  1.00  0.00     0.012 C 
ENDBRANCH   5   6
ENDBRANCH   3   4
ENDBRANCH   2   3
ENDBRANCH   1   2
BRANCH   1   9
ATOM      9  C   UNL     1       4.729   3.548  25.648  1.00  0.00     0.100 C 
BRANCH   9  10
ATOM     10  C   UNL     1       3.471   3.136  24.939  1.00  0.00     0.220 C 
ATOM     11  O   UNL     1       3.283   1.919  24.663  1.00  0.00    -0.275 OA
ATOM     12  N   UNL     1       2.510   4.125  24.538  1.00  0.00    -0.352 N 
ATOM     13  H   UNL     1       2.636   5.109  24.868  1.00  0.00     0.163 HD
BRANCH  12  14
ATOM     14  C   UNL     1       1.572   3.895  23.441  1.00  0.00     0.151 C 
BRANCH  14  15
ATOM     15  C   UNL     1       1.074   5.217  22.925  1.00  0.00    -0.025 A 
ATOM     16  C   UNL     1      -0.019   5.842  23.547  1.00  0.00     0.056 A 
ATOM     17  C   UNL     1       1.761   5.886  21.904  1.00  0.00     0.009 A 
ATOM     18  C   UNL     1      -0.428   7.131  23.152  1.00  0.00     0.160 A 
ATOM     19  C   UNL     1       1.355   7.161  21.502  1.00  0.00     0.050 A 
ATOM     20  C   UNL     1       0.269   7.787  22.121  1.00  0.00     0.157 A 
BRANCH  18  21
ATOM     21  O   UNL     1      -1.507   7.788  23.765  1.00  0.00    -0.493 OA
ATOM     22  C   UNL     1      -1.402   8.598  24.933  1.00  0.00     0.278 C 
ENDBRANCH  18  21
BRANCH  20  23
ATOM     23  O   UNL     1      -0.099   9.065  21.704  1.00  0.00    -0.504 OA
ATOM     24  H   UNL     1       0.208   9.901  22.189  1.00  0.00     0.293 HD
ENDBRANCH  20  23
ENDBRANCH  14  15
ENDBRANCH  12  14
ENDBRANCH   9  10
ENDBRANCH   1   9
TORSDOF 10
ENDMDL
MODEL 4
REMARK VINA RESULT:    -5.913      3.388      5.617
REMARK INTER + INTRA:         -10.551
REMARK INTER:                  -9.691
REMARK INTRA:                  -0.860
REMARK UNBOUND:                -1.355
REMARK SMILES COc1cc(CNC(=O)CCCCC=CC(C)C)ccc1O
REMARK SMILES IDX 11 1 12 2 13 3 14 4 15 5 16 6 17 7 18 8 10 9 8 10 9 11 7 12
REMARK SMILES IDX 6 14 5 15 4 16 19 17 3 18 20 19 21 20 2 21 1 22 22 23
REMARK H PARENT 7 13 22 24
REMARK Flexibility Score: inf
ROOT
ATOM      1  C   UNL     1       2.655   7.140  22.111  1.00  0.00     0.010 C 
ENDROOT
BRANCH   1   2
ATOM      2  C   UNL     1       1.359   7.017  21.296  1.00  0.00     0.005 C 
BRANCH   2   3
ATOM      3  C   UNL     1       0.661   8.375  21.148  1.00  0.00     0.027 C 
BRANCH   3   4
ATOM      4  C   UNL     1      -0.836   8.209  21.181  1.00  0.00    -0.031 C 
ATOM      5  C   UNL     1      -1.531   7.699  22.213  1.00  0.00    -0.028 C 
BRANCH   5   6
ATOM      6  C   UNL     1      -0.936   7.339  23.558  1.00  0.00     0.005 C 
ATOM      7  C   UNL     1      -1.429   8.323  24.622  1.00  0.00     0.012 C 
ATOM      8  C   UNL     1      -1.318   5.904  23.932  1.00  0.00     0.012 C 
ENDBRANCH   5   6
ENDBRANCH   3   4
ENDBRANCH   2   3
ENDBRANCH   1   2
BRANCH   1   9
ATOM      9  C   UNL     1       3.331   8.508  21.933  1.00  0.00     0.100 C 
BRANCH   9  10
ATOM     10  C   UNL     1       4.600   8.613  22.730  1.00  0.00     0.220 C 
ATOM     11  O   UNL     1       5.350   9.615  22.574  1.00  0.00    -0.275 OA
ATOM     12  N   UNL     1       4.978   7.558  23.629  1.00  0.00    -0.352 N 
ATOM     13  H   UNL     1       4.293   6.792  23.819  1.00  0.00     0.163 HD
BRANCH  12  14
ATOM     14  C   UNL     1       6.367   7.335  24.021  1.00  0.00     0.151 C 
BRANCH  14  15
ATOM     15  C   UNL     1       6.456   6.085  24.852  1.00  0.00    -0.025 A 
ATOM     16  C   UNL     1       5.302   5.320  25.088  1.00  0.00     0.056 A 
ATOM     17  C   UNL     1       7.699   5.613  25.296  1.00  0.00     0.009 A 
ATOM     18  C   UNL     1       5.385   4.088  25.766  1.00  0.00     0.160 A 
ATOM     19  C   UNL     1       7.786   4.397  25.976  1.00  0.00     0.050 A 
ATOM     20  C   UNL     1       6.640   3.632  26.211  1.00  0.00     0.157 A 
BRANCH  18  21
ATOM     21  O   UNL     1       4.252   3.293  26.004  1.00  0.00    -0.493 OA
ATOM     22  C   UNL     1       3.219   3.054  25.052  1.00  0.00     0.278 C 
ENDBRANCH  18  21
BRANCH  20  23
ATOM     23  O   UNL     1       6.767   2.415  26.880  1.00  0.00    -0.504 OA
ATOM     24  H   UNL     1       6.765   1.527  26.393  1.00  0.00     0.293 HD
ENDBRANCH  20  23
ENDBRANCH  14  15
ENDBRANCH  12  14
ENDBRANCH   9  10
ENDBRANCH   1   9
TORSDOF 10
ENDMDL
MODEL 5
REMARK VINA RESULT:    -5.871      2.958      5.112
REMARK INTER + INTRA:         -10.487
REMARK INTER:                  -9.341
REMARK INTRA:                  -1.146
REMARK UNBOUND:                -1.355
REMARK SMILES COc1cc(CNC(=O)CCCCC=CC(C)C)ccc1O
REMARK SMILES IDX 11 1 12 2 13 3 14 4 15 5 16 6 17 7 18 8 10 9 8 10 9 11 7 12
REMARK SMILES IDX 6 14 5 15 4 16 19 17 3 18 20 19 21 20 2 21 1 22 22 23
REMARK H PARENT 7 13 22 24
REMARK Flexibility Score: inf
ROOT
ATOM      1  C   UNL     1       6.326   8.756  23.261  1.00  0.00     0.010 C 
ENDROOT
BRANCH   1   2
ATOM      2  C   UNL     1       6.707   8.865  24.746  1.00  0.00     0.005 C 
BRANCH   2   3
ATOM      3  C   UNL     1       7.821   7.877  25.110  1.00  0.00     0.027 C 
BRANCH   3   4
ATOM      4  C   UNL     1       7.633   7.355  26.511  1.00  0.00    -0.031 C 
ATOM      5  C   UNL     1       7.073   6.173  26.823  1.00  0.00    -0.028 C 
BRANCH   5   6
ATOM      6  C   UNL     1       6.670   5.118  25.813  1.00  0.00     0.005 C 
ATOM      7  C   UNL     1       7.053   3.731  26.335  1.00  0.00     0.012 C 
ATOM      8  C   UNL     1       5.165   5.198  25.547  1.00  0.00     0.012 C 
ENDBRANCH   5   6
ENDBRANCH   3   4
ENDBRANCH   2   3
ENDBRANCH   1   2
BRANCH   1   9
ATOM      9  C   UNL     1       5.114   7.840  23.033  1.00  0.00     0.100 C 
BRANCH   9  10
ATOM     10  C   UNL     1       3.949   8.589  22.453  1.00  0.00     0.220 C 
ATOM     11  O   UNL     1       3.751   9.788  22.790  1.00  0.00    -0.275 OA
ATOM     12  N   UNL     1       3.042   7.930  21.555  1.00  0.00    -0.352 N 
ATOM     13  H   UNL     1       3.284   6.974  21.209  1.00  0.00     0.163 HD
BRANCH  12  14
ATOM     14  C   UNL     1       1.667   8.387  21.370  1.00  0.00     0.151 C 
BRANCH  14  15
ATOM     15  C   UNL     1       0.735   7.482  22.127  1.00  0.00    -0.025 A 
ATOM     16  C   UNL     1       1.194   6.239  22.592  1.00  0.00     0.056 A 
ATOM     17  C   UNL     1      -0.553   7.915  22.471  1.00  0.00     0.009 A 
ATOM     18  C   UNL     1       0.372   5.428  23.400  1.00  0.00     0.160 A 
ATOM     19  C   UNL     1      -1.375   7.112  23.264  1.00  0.00     0.050 A 
ATOM     20  C   UNL     1      -0.920   5.875  23.732  1.00  0.00     0.157 A 
BRANCH  18  21
ATOM     21  O   UNL     1       0.808   4.188  23.893  1.00  0.00    -0.493 OA
ATOM     22  C   UNL     1       2.165   3.865  24.183  1.00  0.00     0.278 C 
ENDBRANCH  18  21
BRANCH  20  23
ATOM     23  O   UNL     1      -1.763   5.107  24.534  1.00  0.00    -0.504 OA
ATOM     24  H   UNL     1      -2.771   5.212  24.516  1.00  0.00     0.293 HD
ENDBRANCH  20  23
ENDBRANCH  14  15
ENDBRANCH  12  14
ENDBRANCH   9  10
ENDBRANCH   1   9
TORSDOF 10
ENDMDL
MODEL 6
REMARK VINA RESULT:    -5.835      4.768      8.946
REMARK INTER + INTRA:         -10.430
REMARK INTER:                  -9.702
REMARK INTRA:                  -0.728
REMARK UNBOUND:                -1.355
REMARK SMILES COc1cc(CNC(=O)CCCCC=CC(C)C)ccc1O
REMARK SMILES IDX 11 1 12 2 13 3 14 4 15 5 16 6 17 7 18 8 10 9 8 10 9 11 7 12
REMARK SMILES IDX 6 14 5 15 4 16 19 17 3 18 20 19 21 20 2 21 1 22 22 23
REMARK H PARENT 7 13 22 24
REMARK Flexibility Score: inf
ROOT
ATOM      1  C   UNL     1       5.885   2.719  26.367  1.00  0.00     0.010 C 
ENDROOT
BRANCH   1   2
ATOM      2  C   UNL     1       7.370   3.085  26.525  1.00  0.00     0.005 C 
BRANCH   2   3
ATOM      3  C   UNL     1       8.250   1.831  26.584  1.00  0.00     0.027 C 
BRANCH   3   4
ATOM      4  C   UNL     1       7.940   1.021  27.817  1.00  0.00    -0.031 C 
ATOM      5  C   UNL     1       7.581  -0.275  27.815  1.00  0.00    -0.028 C 
BRANCH   5   6
ATOM      6  C   UNL     1       7.567  -1.162  26.588  1.00  0.00     0.005 C 
ATOM      7  C   UNL     1       8.019  -2.575  26.967  1.00  0.00     0.012 C 
ATOM      8  C   UNL     1       6.162  -1.191  25.979  1.00  0.00     0.012 C 
ENDBRANCH   5   6
ENDBRANCH   3   4
ENDBRANCH   2   3
ENDBRANCH   1   2
BRANCH   1   9
ATOM      9  C   UNL     1       5.092   3.800  25.617  1.00  0.00     0.100 C 
BRANCH   9  10
ATOM     10  C   UNL     1       3.832   3.251  25.013  1.00  0.00     0.220 C 
ATOM     11  O   UNL     1       3.746   2.015  24.772  1.00  0.00    -0.275 OA
ATOM     12  N   UNL     1       2.751   4.132  24.671  1.00  0.00    -0.352 N 
ATOM     13  H   UNL     1       2.803   5.131  24.974  1.00  0.00     0.163 HD
BRANCH  12  14
ATOM     14  C   UNL     1       1.762   3.785  23.653  1.00  0.00     0.151 C 
BRANCH  14  15
ATOM     15  C   UNL     1       1.171   5.045  23.082  1.00  0.00    -0.025 A 
ATOM     16  C   UNL     1       0.064   5.642  23.707  1.00  0.00     0.056 A 
ATOM     17  C   UNL     1       1.784   5.693  22.001  1.00  0.00     0.009 A 
ATOM     18  C   UNL     1      -0.432   6.881  23.256  1.00  0.00     0.160 A 
ATOM     19  C   UNL     1       1.292   6.917  21.545  1.00  0.00     0.050 A 
ATOM     20  C   UNL     1       0.191   7.515  22.166  1.00  0.00     0.157 A 
BRANCH  18  21
ATOM     21  O   UNL     1      -1.527   7.510  23.870  1.00  0.00    -0.493 OA
ATOM     22  C   UNL     1      -1.423   8.521  24.869  1.00  0.00     0.278 C 
ENDBRANCH  18  21
BRANCH  20  23
ATOM     23  O   UNL     1      -0.264   8.745  21.692  1.00  0.00    -0.504 OA
ATOM     24  H   UNL     1      -0.847   8.824  20.867  1.00  0.00     0.293 HD
ENDBRANCH  20  23
ENDBRANCH  14  15
ENDBRANCH  12  14
ENDBRANCH   9  10
ENDBRANCH   1   9
TORSDOF 10
ENDMDL
MODEL 7
REMARK VINA RESULT:    -5.747      3.834      6.881
REMARK INTER + INTRA:         -10.294
REMARK INTER:                  -9.330
REMARK INTRA:                  -0.964
REMARK UNBOUND:                -1.355
REMARK SMILES COc1cc(CNC(=O)CCCCC=CC(C)C)ccc1O
REMARK SMILES IDX 11 1 12 2 13 3 14 4 15 5 16 6 17 7 18 8 10 9 8 10 9 11 7 12
REMARK SMILES IDX 6 14 5 15 4 16 19 17 3 18 20 19 21 20 2 21 1 22 22 23
REMARK H PARENT 7 13 22 24
REMARK Flexibility Score: inf
ROOT
ATOM      1  C   UNL     1      -0.445   5.905  24.190  1.00  0.00     0.010 C 
ENDROOT
BRANCH   1   2
ATOM      2  C   UNL     1      -1.667   6.466  23.444  1.00  0.00     0.005 C 
BRANCH   2   3
ATOM      3  C   UNL     1      -1.466   7.942  23.078  1.00  0.00     0.027 C 
BRANCH   3   4
ATOM      4  C   UNL     1      -1.342   8.107  21.585  1.00  0.00    -0.031 C 
ATOM      5  C   UNL     1      -0.272   8.623  20.955  1.00  0.00    -0.028 C 
BRANCH   5   6
ATOM      6  C   UNL     1       1.031   8.991  21.633  1.00  0.00     0.005 C 
ATOM      7  C   UNL     1       2.153   8.084  21.121  1.00  0.00     0.012 C 
ATOM      8  C   UNL     1       1.363  10.462  21.365  1.00  0.00     0.012 C 
ENDBRANCH   5   6
ENDBRANCH   3   4
ENDBRANCH   2   3
ENDBRANCH   1   2
BRANCH   1   9
ATOM      9  C   UNL     1       0.716   5.571  23.241  1.00  0.00     0.100 C 
BRANCH   9  10
ATOM     10  C   UNL     1       1.424   4.311  23.648  1.00  0.00     0.220 C 
ATOM     11  O   UNL     1       0.854   3.197  23.484  1.00  0.00    -0.275 OA
ATOM     12  N   UNL     1       2.722   4.376  24.260  1.00  0.00    -0.352 N 
ATOM     13  H   UNL     1       3.217   5.296  24.290  1.00  0.00     0.163 HD
BRANCH  12  14
ATOM     14  C   UNL     1       3.226   3.309  25.121  1.00  0.00     0.151 C 
BRANCH  14  15
ATOM     15  C   UNL     1       4.622   3.647  25.568  1.00  0.00    -0.025 A 
ATOM     16  C   UNL     1       5.495   2.622  25.965  1.00  0.00     0.056 A 
ATOM     17  C   UNL     1       5.098   4.963  25.482  1.00  0.00     0.009 A 
ATOM     18  C   UNL     1       6.840   2.905  26.277  1.00  0.00     0.160 A 
ATOM     19  C   UNL     1       6.427   5.251  25.797  1.00  0.00     0.050 A 
ATOM     20  C   UNL     1       7.300   4.232  26.191  1.00  0.00     0.157 A 
BRANCH  18  21
ATOM     21  O   UNL     1       7.741   1.900  26.662  1.00  0.00    -0.493 OA
ATOM     22  C   UNL     1       7.930   1.455  28.003  1.00  0.00     0.278 C 
ENDBRANCH  18  21
BRANCH  20  23
ATOM     23  O   UNL     1       8.624   4.555  26.484  1.00  0.00    -0.504 OA
ATOM     24  H   UNL     1       8.960   5.512  26.484  1.00  0.00     0.293 HD
ENDBRANCH  20  23
ENDBRANCH  14  15
ENDBRANCH  12  14
ENDBRANCH   9  10
ENDBRANCH   1   9
TORSDOF 10
ENDMDL
MODEL 8
REMARK VINA RESULT:    -5.557      3.679      6.318
REMARK INTER + INTRA:          -9.997
REMARK INTER:                  -9.074
REMARK INTRA:                  -0.923
REMARK UNBOUND:                -1.355
REMARK SMILES COc1cc(CNC(=O)CCCCC=CC(C)C)ccc1O
REMARK SMILES IDX 11 1 12 2 13 3 14 4 15 5 16 6 17 7 18 8 10 9 8 10 9 11 7 12
REMARK SMILES IDX 6 14 5 15 4 16 19 17 3 18 20 19 21 20 2 21 1 22 22 23
REMARK H PARENT 7 13 22 24
REMARK Flexibility Score: inf
ROOT
ATOM      1  C   UNL     1       5.046   5.231  25.556  1.00  0.00     0.010 C 
ENDROOT
BRANCH   1   2
ATOM      2  C   UNL     1       6.395   5.692  24.981  1.00  0.00     0.005 C 
BRANCH   2   3
ATOM      3  C   UNL     1       7.436   5.887  26.089  1.00  0.00     0.027 C 
BRANCH   3   4
ATOM      4  C   UNL     1       6.895   6.780  27.176  1.00  0.00    -0.031 C 
ATOM      5  C   UNL     1       6.984   8.123  27.182  1.00  0.00    -0.028 C 
BRANCH   5   6
ATOM      6  C   UNL     1       7.517   8.956  26.036  1.00  0.00     0.005 C 
ATOM      7  C   UNL     1       6.662  10.215  25.871  1.00  0.00     0.012 C 
ATOM      8  C   UNL     1       8.979   9.327  26.295  1.00  0.00     0.012 C 
ENDBRANCH   5   6
ENDBRANCH   3   4
ENDBRANCH   2   3
ENDBRANCH   1   2
BRANCH   1   9
ATOM      9  C   UNL     1       4.924   3.701  25.608  1.00  0.00     0.100 C 
BRANCH   9  10
ATOM     10  C   UNL     1       3.721   3.211  24.854  1.00  0.00     0.220 C 
ATOM     11  O   UNL     1       3.759   2.083  24.290  1.00  0.00    -0.275 OA
ATOM     12  N   UNL     1       2.554   4.039  24.738  1.00  0.00    -0.352 N 
ATOM     13  H   UNL     1       2.507   4.920  25.298  1.00  0.00     0.163 HD
BRANCH  12  14
ATOM     14  C   UNL     1       1.598   3.881  23.644  1.00  0.00     0.151 C 
BRANCH  14  15
ATOM     15  C   UNL     1       1.012   5.222  23.297  1.00  0.00    -0.025 A 
ATOM     16  C   UNL     1       1.653   6.041  22.354  1.00  0.00     0.056 A 
ATOM     17  C   UNL     1      -0.229   5.613  23.819  1.00  0.00     0.009 A 
ATOM     18  C   UNL     1       1.061   7.248  21.931  1.00  0.00     0.160 A 
ATOM     19  C   UNL     1      -0.816   6.812  23.411  1.00  0.00     0.050 A 
ATOM     20  C   UNL     1      -0.181   7.629  22.470  1.00  0.00     0.157 A 
BRANCH  18  21
ATOM     21  O   UNL     1       1.670   8.080  20.979  1.00  0.00    -0.493 OA
ATOM     22  C   UNL     1       2.525   9.177  21.293  1.00  0.00     0.278 C 
ENDBRANCH  18  21
BRANCH  20  23
ATOM     23  O   UNL     1      -0.805   8.811  22.074  1.00  0.00    -0.504 OA
ATOM     24  H   UNL     1      -1.545   8.827  21.382  1.00  0.00     0.293 HD
ENDBRANCH  20  23
ENDBRANCH  14  15
ENDBRANCH  12  14
ENDBRANCH   9  10
ENDBRANCH   1   9
TORSDOF 10
ENDMDL
MODEL 9
REMARK VINA RESULT:    -5.538      2.123      3.787
REMARK INTER + INTRA:          -9.968
REMARK INTER:                  -9.154
REMARK INTRA:                  -0.814
REMARK UNBOUND:                -1.355
REMARK SMILES COc1cc(CNC(=O)CCCCC=CC(C)C)ccc1O
REMARK SMILES IDX 11 1 12 2 13 3 14 4 15 5 16 6 17 7 18 8 10 9 8 10 9 11 7 12
REMARK SMILES IDX 6 14 5 15 4 16 19 17 3 18 20 19 21 20 2 21 1 22 22 23
REMARK H PARENT 7 13 22 24
REMARK Flexibility Score: inf
ROOT
ATOM      1  C   UNL     1       3.132  11.620  23.942  1.00  0.00     0.010 C 
ENDROOT
BRANCH   1   2
ATOM      2  C   UNL     1       3.760  12.924  24.460  1.00  0.00     0.005 C 
BRANCH   2   3
ATOM      3  C   UNL     1       5.095  12.657  25.167  1.00  0.00     0.027 C 
BRANCH   3   4
ATOM      4  C   UNL     1       4.879  12.421  26.639  1.00  0.00    -0.031 C 
ATOM      5  C   UNL     1       5.715  11.734  27.439  1.00  0.00    -0.028 C 
BRANCH   5   6
ATOM      6  C   UNL     1       7.071  11.209  27.018  1.00  0.00     0.005 C 
ATOM      7  C   UNL     1       8.106  11.523  28.101  1.00  0.00     0.012 C 
ATOM      8  C   UNL     1       6.993   9.701  26.768  1.00  0.00     0.012 C 
ENDBRANCH   5   6
ENDBRANCH   3   4
ENDBRANCH   2   3
ENDBRANCH   1   2
BRANCH   1   9
ATOM      9  C   UNL     1       4.093  10.822  23.048  1.00  0.00     0.100 C 
BRANCH   9  10
ATOM     10  C   UNL     1       3.502   9.508  22.626  1.00  0.00     0.220 C 
ATOM     11  O   UNL     1       4.232   8.479  22.599  1.00  0.00    -0.275 OA
ATOM     12  N   UNL     1       2.128   9.432  22.214  1.00  0.00    -0.352 N 
ATOM     13  H   UNL     1       1.518  10.271  22.344  1.00  0.00     0.163 HD
BRANCH  12  14
ATOM     14  C   UNL     1       1.641   8.372  21.335  1.00  0.00     0.151 C 
BRANCH  14  15
ATOM     15  C   UNL     1       0.716   7.471  22.105  1.00  0.00    -0.025 A 
ATOM     16  C   UNL     1       1.208   6.282  22.668  1.00  0.00     0.056 A 
ATOM     17  C   UNL     1      -0.605   7.862  22.365  1.00  0.00     0.009 A 
ATOM     18  C   UNL     1       0.386   5.483  23.487  1.00  0.00     0.160 A 
ATOM     19  C   UNL     1      -1.426   7.070  23.169  1.00  0.00     0.050 A 
ATOM     20  C   UNL     1      -0.939   5.887  23.733  1.00  0.00     0.157 A 
BRANCH  18  21
ATOM     21  O   UNL     1       0.853   4.297  24.077  1.00  0.00    -0.493 OA
ATOM     22  C   UNL     1       2.219   3.892  24.103  1.00  0.00     0.278 C 
ENDBRANCH  18  21
BRANCH  20  23
ATOM     23  O   UNL     1      -1.784   5.129  24.544  1.00  0.00    -0.504 OA
ATOM     24  H   UNL     1      -1.624   4.143  24.718  1.00  0.00     0.293 HD
ENDBRANCH  20  23
ENDBRANCH  14  15
ENDBRANCH  12  14
ENDBRANCH   9  10
ENDBRANCH   1   9
TORSDOF 10
ENDMDL
