MODEL 1
REMARK VINA RESULT:    -4.579      0.000      0.000
REMARK INTER + INTRA:          -4.976
REMARK INTER:                  -4.847
REMARK INTRA:                  -0.129
REMARK UNBOUND:                -0.129
REMARK SMILES C=C(C)[C@@H]1CC=C(C)CC1
REMARK SMILES IDX 8 1 7 2 6 3 5 4 4 5 10 6 9 7 2 8 1 9 3 10
REMARK H PARENT
REMARK Flexibility Score: inf
ROOT
ATOM      1  C   UNL     1       8.754  -2.085  16.394  1.00  0.00     0.039 C 
ATOM      2  C   UNL     1       7.270  -2.252  16.578  1.00  0.00    -0.077 C 
ATOM      3  C   UNL     1       6.453  -2.053  15.522  1.00  0.00    -0.027 C 
ATOM      4  C   UNL     1       4.959  -2.248  15.591  1.00  0.00     0.035 C 
ATOM      5  C   UNL     1       4.424  -2.142  17.031  1.00  0.00     0.018 C 
ATOM      6  C   UNL     1       5.280  -3.006  17.971  1.00  0.00     0.013 C 
ATOM      7  C   UNL     1       6.730  -2.509  17.972  1.00  0.00     0.031 C 
ENDROOT
BRANCH   5   8
ATOM      8  C   UNL     1       2.950  -2.508  17.111  1.00  0.00    -0.077 C 
ATOM      9  C   UNL     1       2.004  -1.745  16.534  1.00  0.00     0.008 C 
ATOM     10  C   UNL     1       2.559  -3.765  17.844  1.00  0.00     0.039 C 
ENDBRANCH   5   8
TORSDOF 1
ENDMDL
MODEL 2
REMARK VINA RESULT:    -4.508      0.622      2.003
REMARK INTER + INTRA:          -4.900
REMARK INTER:                  -4.774
REMARK INTRA:                  -0.127
REMARK UNBOUND:                -0.129
REMARK SMILES C=C(C)[C@@H]1CC=C(C)CC1
REMARK SMILES IDX 8 1 7 2 6 3 5 4 4 5 10 6 9 7 2 8 1 9 3 10
REMARK H PARENT
REMARK Flexibility Score: inf
ROOT
ATOM      1  C   UNL     1       8.749  -2.290  16.617  1.00  0.00     0.039 C 
ATOM      2  C   UNL     1       7.246  -2.246  16.598  1.00  0.00    -0.077 C 
ATOM      3  C   UNL     1       6.574  -2.322  17.766  1.00  0.00    -0.027 C 
ATOM      4  C   UNL     1       5.070  -2.233  17.857  1.00  0.00     0.035 C 
ATOM      5  C   UNL     1       4.385  -2.602  16.529  1.00  0.00     0.018 C 
ATOM      6  C   UNL     1       5.054  -1.851  15.368  1.00  0.00     0.013 C 
ATOM      7  C   UNL     1       6.530  -2.250  15.261  1.00  0.00     0.031 C 
ENDROOT
BRANCH   5   8
ATOM      8  C   UNL     1       2.887  -2.346  16.581  1.00  0.00    -0.077 C 
ATOM      9  C   UNL     1       2.044  -3.216  17.166  1.00  0.00     0.008 C 
ATOM     10  C   UNL     1       2.352  -1.076  15.972  1.00  0.00     0.039 C 
ENDBRANCH   5   8
TORSDOF 1
ENDMDL
MODEL 3
REMARK VINA RESULT:    -4.368      1.501      4.767
REMARK INTER + INTRA:          -4.752
REMARK INTER:                  -4.619
REMARK INTRA:                  -0.133
REMARK UNBOUND:                -0.129
REMARK SMILES C=C(C)[C@@H]1CC=C(C)CC1
REMARK SMILES IDX 8 1 7 2 6 3 5 4 4 5 10 6 9 7 2 8 1 9 3 10
REMARK H PARENT
REMARK Flexibility Score: inf
ROOT
ATOM      1  C   UNL     1      -0.274  -0.658  15.257  1.00  0.00     0.039 C 
ATOM      2  C   UNL     1       1.160  -1.030  15.513  1.00  0.00    -0.077 C 
ATOM      3  C   UNL     1       2.095  -0.710  14.593  1.00  0.00    -0.027 C 
ATOM      4  C   UNL     1       3.565  -0.992  14.781  1.00  0.00     0.035 C 
ATOM      5  C   UNL     1       3.815  -2.122  15.796  1.00  0.00     0.018 C 
ATOM      6  C   UNL     1       2.988  -1.876  17.068  1.00  0.00     0.013 C 
ATOM      7  C   UNL     1       1.492  -1.869  16.733  1.00  0.00     0.031 C 
ENDROOT
BRANCH   5   8
ATOM      8  C   UNL     1       5.296  -2.282  16.105  1.00  0.00    -0.077 C 
ATOM      9  C   UNL     1       6.231  -2.154  15.147  1.00  0.00     0.008 C 
ATOM     10  C   UNL     1       5.708  -2.573  17.525  1.00  0.00     0.039 C 
ENDBRANCH   5   8
TORSDOF 1
ENDMDL
MODEL 4
REMARK VINA RESULT:    -4.346      1.716      4.906
REMARK INTER + INTRA:          -4.729
REMARK INTER:                  -4.597
REMARK INTRA:                  -0.133
REMARK UNBOUND:                -0.129
REMARK SMILES C=C(C)[C@@H]1CC=C(C)CC1
REMARK SMILES IDX 8 1 7 2 6 3 5 4 4 5 10 6 9 7 2 8 1 9 3 10
REMARK H PARENT
REMARK Flexibility Score: inf
ROOT
ATOM      1  C   UNL     1      -0.161  -0.492  15.551  1.00  0.00     0.039 C 
ATOM      2  C   UNL     1       1.032  -1.161  16.175  1.00  0.00    -0.077 C 
ATOM      3  C   UNL     1       0.859  -1.900  17.291  1.00  0.00    -0.027 C 
ATOM      4  C   UNL     1       1.982  -2.654  17.961  1.00  0.00     0.035 C 
ATOM      5  C   UNL     1       3.363  -2.073  17.608  1.00  0.00     0.018 C 
ATOM      6  C   UNL     1       3.474  -1.872  16.088  1.00  0.00     0.013 C 
ATOM      7  C   UNL     1       2.410  -0.877  15.608  1.00  0.00     0.031 C 
ENDROOT
BRANCH   5   8
ATOM      8  C   UNL     1       4.491  -2.939  18.148  1.00  0.00    -0.077 C 
ATOM      9  C   UNL     1       4.243  -4.084  18.809  1.00  0.00     0.008 C 
ATOM     10  C   UNL     1       5.913  -2.498  17.914  1.00  0.00     0.039 C 
ENDBRANCH   5   8
TORSDOF 1
ENDMDL
MODEL 5
REMARK VINA RESULT:    -4.330      1.206      1.930
REMARK INTER + INTRA:          -4.712
REMARK INTER:                  -4.579
REMARK INTRA:                  -0.133
REMARK UNBOUND:                -0.129
REMARK SMILES C=C(C)[C@@H]1CC=C(C)CC1
REMARK SMILES IDX 8 1 7 2 6 3 5 4 4 5 10 6 9 7 2 8 1 9 3 10
REMARK H PARENT
REMARK Flexibility Score: inf
ROOT
ATOM      1  C   UNL     1       6.985  -2.358  15.544  1.00  0.00     0.039 C 
ATOM      2  C   UNL     1       5.518  -2.232  15.848  1.00  0.00    -0.077 C 
ATOM      3  C   UNL     1       4.675  -1.851  14.865  1.00  0.00    -0.027 C 
ATOM      4  C   UNL     1       3.182  -1.748  15.055  1.00  0.00     0.035 C 
ATOM      5  C   UNL     1       2.796  -1.570  16.535  1.00  0.00     0.018 C 
ATOM      6  C   UNL     1       3.534  -2.607  17.396  1.00  0.00     0.013 C 
ATOM      7  C   UNL     1       5.050  -2.408  17.280  1.00  0.00     0.031 C 
ENDROOT
BRANCH   5   8
ATOM      8  C   UNL     1       1.290  -1.637  16.734  1.00  0.00    -0.077 C 
ATOM      9  C   UNL     1       0.438  -1.103  15.840  1.00  0.00     0.008 C 
ATOM     10  C   UNL     1       0.756  -2.337  17.957  1.00  0.00     0.039 C 
ENDBRANCH   5   8
TORSDOF 1
ENDMDL
MODEL 6
REMARK VINA RESULT:    -4.305      9.414     11.029
REMARK INTER + INTRA:          -4.686
REMARK INTER:                  -4.554
REMARK INTRA:                  -0.132
REMARK UNBOUND:                -0.129
REMARK SMILES C=C(C)[C@@H]1CC=C(C)CC1
REMARK SMILES IDX 8 1 7 2 6 3 5 4 4 5 10 6 9 7 2 8 1 9 3 10
REMARK H PARENT
REMARK Flexibility Score: inf
ROOT
ATOM      1  C   UNL     1      14.305  -1.503  26.875  1.00  0.00     0.039 C 
ATOM      2  C   UNL     1      13.069  -0.882  26.287  1.00  0.00    -0.077 C 
ATOM      3  C   UNL     1      12.884  -0.929  24.951  1.00  0.00    -0.027 C 
ATOM      4  C   UNL     1      11.652  -0.384  24.272  1.00  0.00     0.035 C 
ATOM      5  C   UNL     1      10.938   0.678  25.128  1.00  0.00     0.018 C 
ATOM      6  C   UNL     1      10.765   0.162  26.564  1.00  0.00     0.013 C 
ATOM      7  C   UNL     1      12.135  -0.107  27.198  1.00  0.00     0.031 C 
ENDROOT
BRANCH   5   8
ATOM      8  C   UNL     1       9.612   1.096  24.512  1.00  0.00    -0.077 C 
ATOM      9  C   UNL     1       8.566   1.461  25.276  1.00  0.00     0.008 C 
ATOM     10  C   UNL     1       9.488   1.112  23.011  1.00  0.00     0.039 C 
ENDBRANCH   5   8
TORSDOF 1
ENDMDL
MODEL 7
REMARK VINA RESULT:    -4.291      1.669      3.178
REMARK INTER + INTRA:          -4.671
REMARK INTER:                  -4.538
REMARK INTRA:                  -0.133
REMARK UNBOUND:                -0.129
REMARK SMILES C=C(C)[C@@H]1CC=C(C)CC1
REMARK SMILES IDX 8 1 7 2 6 3 5 4 4 5 10 6 9 7 2 8 1 9 3 10
REMARK H PARENT
REMARK Flexibility Score: inf
ROOT
ATOM      1  C   UNL     1       5.756  -2.974  18.232  1.00  0.00     0.039 C 
ATOM      2  C   UNL     1       4.636  -2.480  17.359  1.00  0.00    -0.077 C 
ATOM      3  C   UNL     1       4.882  -2.231  16.055  1.00  0.00    -0.027 C 
ATOM      4  C   UNL     1       3.814  -1.785  15.087  1.00  0.00     0.035 C 
ATOM      5  C   UNL     1       2.619  -1.128  15.803  1.00  0.00     0.018 C 
ATOM      6  C   UNL     1       2.165  -2.007  16.978  1.00  0.00     0.013 C 
ATOM      7  C   UNL     1       3.300  -2.152  17.999  1.00  0.00     0.031 C 
ENDROOT
BRANCH   5   8
ATOM      8  C   UNL     1       1.479  -0.838  14.839  1.00  0.00    -0.077 C 
ATOM      9  C   UNL     1       0.203  -0.764  15.260  1.00  0.00     0.008 C 
ATOM     10  C   UNL     1       1.804  -0.615  13.385  1.00  0.00     0.039 C 
ENDBRANCH   5   8
TORSDOF 1
ENDMDL
MODEL 8
REMARK VINA RESULT:    -4.269      2.367      3.564
REMARK INTER + INTRA:          -4.648
REMARK INTER:                  -4.516
REMARK INTRA:                  -0.132
REMARK UNBOUND:                -0.129
REMARK SMILES C=C(C)[C@@H]1CC=C(C)CC1
REMARK SMILES IDX 8 1 7 2 6 3 5 4 4 5 10 6 9 7 2 8 1 9 3 10
REMARK H PARENT
REMARK Flexibility Score: inf
ROOT
ATOM      1  C   UNL     1       4.645  -5.201  19.744  1.00  0.00     0.039 C 
ATOM      2  C   UNL     1       3.989  -4.188  18.847  1.00  0.00    -0.077 C 
ATOM      3  C   UNL     1       2.786  -4.474  18.307  1.00  0.00    -0.027 C 
ATOM      4  C   UNL     1       2.023  -3.504  17.439  1.00  0.00     0.035 C 
ATOM      5  C   UNL     1       2.944  -2.451  16.796  1.00  0.00     0.018 C 
ATOM      6  C   UNL     1       3.870  -1.845  17.862  1.00  0.00     0.013 C 
ATOM      7  C   UNL     1       4.759  -2.936  18.471  1.00  0.00     0.031 C 
ENDROOT
BRANCH   5   8
ATOM      8  C   UNL     1       2.149  -1.381  16.064  1.00  0.00    -0.077 C 
ATOM      9  C   UNL     1       2.739  -0.529  15.206  1.00  0.00     0.008 C 
ATOM     10  C   UNL     1       0.663  -1.298  16.304  1.00  0.00     0.039 C 
ENDBRANCH   5   8
TORSDOF 1
ENDMDL
MODEL 9
REMARK VINA RESULT:    -4.216      7.182      9.295
REMARK INTER + INTRA:          -4.592
REMARK INTER:                  -4.461
REMARK INTRA:                  -0.131
REMARK UNBOUND:                -0.129
REMARK SMILES C=C(C)[C@@H]1CC=C(C)CC1
REMARK SMILES IDX 8 1 7 2 6 3 5 4 4 5 10 6 9 7 2 8 1 9 3 10
REMARK H PARENT
REMARK Flexibility Score: inf
ROOT
ATOM      1  C   UNL     1      -2.035  -7.519   8.932  1.00  0.00     0.039 C 
ATOM      2  C   UNL     1      -1.334  -6.535   9.828  1.00  0.00    -0.077 C 
ATOM      3  C   UNL     1      -1.197  -6.826  11.139  1.00  0.00    -0.027 C 
ATOM      4  C   UNL     1      -0.465  -5.931  12.108  1.00  0.00     0.035 C 
ATOM      5  C   UNL     1      -0.392  -4.475  11.613  1.00  0.00     0.018 C 
ATOM      6  C   UNL     1       0.076  -4.442  10.150  1.00  0.00     0.013 C 
ATOM      7  C   UNL     1      -0.922  -5.191   9.259  1.00  0.00     0.031 C 
ENDROOT
BRANCH   5   8
ATOM      8  C   UNL     1       0.491  -3.621  12.510  1.00  0.00    -0.077 C 
ATOM      9  C   UNL     1       0.241  -3.490  13.825  1.00  0.00     0.008 C 
ATOM     10  C   UNL     1       1.678  -2.924  11.898  1.00  0.00     0.039 C 
ENDBRANCH   5   8
TORSDOF 1
ENDMDL
