MODEL 1
REMARK VINA RESULT:    -7.182      0.000      0.000
REMARK INTER + INTRA:          -8.940
REMARK INTER:                  -8.652
REMARK INTRA:                  -0.288
REMARK UNBOUND:                -0.288
REMARK SMILES Oc1cc(O)c2c(c1)O[C@H](c1ccc(O)c(O)c1)[C@H](O)C2
REMARK SMILES IDX 21 1 19 2 10 3 9 4 7 5 8 6 2 7 3 8 4 9 6 10 20 11 11 13
REMARK SMILES IDX 18 14 12 15 16 16 13 17 14 18 17 19 15 21 5 23 1 25
REMARK H PARENT 20 12 17 20 15 22 5 24 1 26
REMARK Flexibility Score: inf
ROOT
ATOM      1  C   UNL     1     203.024 205.604 276.416  1.00  0.00     0.079 C 
ATOM      2  C   UNL     1     201.664 205.915 275.762  1.00  0.00     0.164 C 
ATOM      3  C   UNL     1     201.574 207.424 275.467  1.00  0.00     0.232 C 
ATOM      4  O   UNL     1     201.769 208.175 276.668  1.00  0.00    -0.482 OA
ATOM      5  C   UNL     1     202.688 207.785 277.649  1.00  0.00     0.131 A 
ATOM      6  C   UNL     1     202.963 208.649 278.713  1.00  0.00     0.093 A 
ATOM      7  C   UNL     1     203.880 208.277 279.703  1.00  0.00     0.122 A 
ATOM      8  C   UNL     1     204.523 207.039 279.626  1.00  0.00     0.092 A 
ATOM      9  C   UNL     1     204.250 206.161 278.568  1.00  0.00     0.126 A 
ATOM     10  C   UNL     1     203.315 206.523 277.581  1.00  0.00     0.039 A 
ENDROOT
BRANCH   2  11
ATOM     11  O   UNL     1     200.621 205.530 276.621  1.00  0.00    -0.389 OA
ATOM     12  H   UNL     1     200.069 204.871 276.125  1.00  0.00     0.211 HD
ENDBRANCH   2  11
BRANCH   3  13
ATOM     13  C   UNL     1     200.254 207.785 274.825  1.00  0.00    -0.001 A 
ATOM     14  C   UNL     1     199.528 208.912 275.248  1.00  0.00     0.057 A 
ATOM     15  C   UNL     1     199.707 206.952 273.837  1.00  0.00     0.012 A 
ATOM     16  C   UNL     1     198.290 209.220 274.673  1.00  0.00     0.157 A 
ATOM     17  C   UNL     1     198.470 207.256 273.260  1.00  0.00     0.050 A 
ATOM     18  C   UNL     1     197.757 208.389 273.673  1.00  0.00     0.157 A 
BRANCH  16  19
ATOM     19  O   UNL     1     197.602 210.351 275.112  1.00  0.00    -0.504 OA
ATOM     20  H   UNL     1     197.968 210.955 275.839  1.00  0.00     0.293 HD
ENDBRANCH  16  19
BRANCH  18  21
ATOM     21  O   UNL     1     196.526 208.690 273.095  1.00  0.00    -0.504 OA
ATOM     22  H   UNL     1     196.195 208.208 272.268  1.00  0.00     0.293 HD
ENDBRANCH  18  21
ENDBRANCH   3  13
BRANCH   9  23
ATOM     23  O   UNL     1     204.908 204.933 278.493  1.00  0.00    -0.507 OA
ATOM     24  H   UNL     1     204.605 204.206 277.855  1.00  0.00     0.293 HD
ENDBRANCH   9  23
BRANCH   7  25
ATOM     25  O   UNL     1     204.162 209.134 280.766  1.00  0.00    -0.508 OA
ATOM     26  H   UNL     1     203.946 210.123 280.721  1.00  0.00     0.293 HD
ENDBRANCH   7  25
TORSDOF 6
ENDMDL
MODEL 2
REMARK VINA RESULT:    -6.971      2.181      6.276
REMARK INTER + INTRA:          -8.686
REMARK INTER:                  -8.424
REMARK INTRA:                  -0.261
REMARK UNBOUND:                -0.288
REMARK SMILES Oc1cc(O)c2c(c1)O[C@H](c1ccc(O)c(O)c1)[C@H](O)C2
REMARK SMILES IDX 21 1 19 2 10 3 9 4 7 5 8 6 2 7 3 8 4 9 6 10 20 11 11 13
REMARK SMILES IDX 18 14 12 15 16 16 13 17 14 18 17 19 15 21 5 23 1 25
REMARK H PARENT 20 12 17 20 15 22 5 24 1 26
REMARK Flexibility Score: inf
ROOT
ATOM      1  C   UNL     1     203.684 205.628 275.348  1.00  0.00     0.079 C 
ATOM      2  C   UNL     1     204.106 206.835 276.208  1.00  0.00     0.164 C 
ATOM      3  C   UNL     1     202.965 207.192 277.180  1.00  0.00     0.232 C 
ATOM      4  O   UNL     1     201.761 207.454 276.453  1.00  0.00    -0.482 OA
ATOM      5  C   UNL     1     201.405 206.722 275.314  1.00  0.00     0.131 A 
ATOM      6  C   UNL     1     200.138 206.902 274.753  1.00  0.00     0.093 A 
ATOM      7  C   UNL     1     199.762 206.179 273.614  1.00  0.00     0.122 A 
ATOM      8  C   UNL     1     200.658 205.273 273.039  1.00  0.00     0.092 A 
ATOM      9  C   UNL     1     201.935 205.090 273.589  1.00  0.00     0.126 A 
ATOM     10  C   UNL     1     202.322 205.829 274.721  1.00  0.00     0.039 A 
ENDROOT
BRANCH   2  11
ATOM     11  O   UNL     1     204.395 207.934 275.382  1.00  0.00    -0.389 OA
ATOM     12  H   UNL     1     204.623 207.568 274.487  1.00  0.00     0.211 HD
ENDBRANCH   2  11
BRANCH   3  13
ATOM     13  C   UNL     1     203.327 208.375 278.048  1.00  0.00    -0.001 A 
ATOM     14  C   UNL     1     202.935 209.678 277.695  1.00  0.00     0.057 A 
ATOM     15  C   UNL     1     204.120 208.186 279.190  1.00  0.00     0.012 A 
ATOM     16  C   UNL     1     203.304 210.772 278.486  1.00  0.00     0.157 A 
ATOM     17  C   UNL     1     204.491 209.276 279.982  1.00  0.00     0.050 A 
ATOM     18  C   UNL     1     204.085 210.572 279.637  1.00  0.00     0.157 A 
BRANCH  16  19
ATOM     19  O   UNL     1     202.890 212.050 278.110  1.00  0.00    -0.504 OA
ATOM     20  H   UNL     1     202.222 212.581 278.656  1.00  0.00     0.293 HD
ENDBRANCH  16  19
BRANCH  18  21
ATOM     21  O   UNL     1     204.455 211.656 280.429  1.00  0.00    -0.504 OA
ATOM     22  H   UNL     1     204.677 212.559 280.025  1.00  0.00     0.293 HD
ENDBRANCH  18  21
ENDBRANCH   3  13
BRANCH   9  23
ATOM     23  O   UNL     1     202.816 204.174 273.014  1.00  0.00    -0.507 OA
ATOM     24  H   UNL     1     203.302 203.482 273.573  1.00  0.00     0.293 HD
ENDBRANCH   9  23
BRANCH   7  25
ATOM     25  O   UNL     1     198.500 206.350 273.050  1.00  0.00    -0.508 OA
ATOM     26  H   UNL     1     197.888 205.562 272.871  1.00  0.00     0.293 HD
ENDBRANCH   7  25
TORSDOF 6
ENDMDL
MODEL 3
REMARK VINA RESULT:    -6.637      3.094      4.311
REMARK INTER + INTRA:          -8.283
REMARK INTER:                  -8.520
REMARK INTRA:                   0.237
REMARK UNBOUND:                -0.288
REMARK SMILES Oc1cc(O)c2c(c1)O[C@H](c1ccc(O)c(O)c1)[C@H](O)C2
REMARK SMILES IDX 21 1 19 2 10 3 9 4 7 5 8 6 2 7 3 8 4 9 6 10 20 11 11 13
REMARK SMILES IDX 18 14 12 15 16 16 13 17 14 18 17 19 15 21 5 23 1 25
REMARK H PARENT 20 12 17 20 15 22 5 24 1 26
REMARK Flexibility Score: inf
ROOT
ATOM      1  C   UNL     1     204.476 209.704 277.226  1.00  0.00     0.079 C 
ATOM      2  C   UNL     1     204.213 208.523 276.271  1.00  0.00     0.164 C 
ATOM      3  C   UNL     1     202.747 208.072 276.410  1.00  0.00     0.232 C 
ATOM      4  O   UNL     1     202.462 207.729 277.768  1.00  0.00    -0.482 OA
ATOM      5  C   UNL     1     202.999 208.444 278.845  1.00  0.00     0.131 A 
ATOM      6  C   UNL     1     202.546 208.176 280.140  1.00  0.00     0.093 A 
ATOM      7  C   UNL     1     203.070 208.881 281.230  1.00  0.00     0.122 A 
ATOM      8  C   UNL     1     204.050 209.856 281.021  1.00  0.00     0.092 A 
ATOM      9  C   UNL     1     204.517 210.129 279.728  1.00  0.00     0.126 A 
ATOM     10  C   UNL     1     204.006 209.409 278.632  1.00  0.00     0.039 A 
ENDROOT
BRANCH   2  11
ATOM     11  O   UNL     1     205.075 207.457 276.580  1.00  0.00    -0.389 OA
ATOM     12  H   UNL     1     205.340 207.043 275.717  1.00  0.00     0.211 HD
ENDBRANCH   2  11
BRANCH   3  13
ATOM     13  C   UNL     1     202.436 206.911 275.494  1.00  0.00    -0.001 A 
ATOM     14  C   UNL     1     203.411 206.399 274.620  1.00  0.00     0.057 A 
ATOM     15  C   UNL     1     201.141 206.371 275.464  1.00  0.00     0.012 A 
ATOM     16  C   UNL     1     203.105 205.346 273.749  1.00  0.00     0.157 A 
ATOM     17  C   UNL     1     200.832 205.319 274.597  1.00  0.00     0.050 A 
ATOM     18  C   UNL     1     201.810 204.801 273.738  1.00  0.00     0.157 A 
BRANCH  16  19
ATOM     19  O   UNL     1     204.100 204.858 272.901  1.00  0.00    -0.504 OA
ATOM     20  H   UNL     1     204.544 205.441 272.202  1.00  0.00     0.293 HD
ENDBRANCH  16  19
BRANCH  18  21
ATOM     21  O   UNL     1     201.500 203.752 272.875  1.00  0.00    -0.504 OA
ATOM     22  H   UNL     1     201.221 203.918 271.915  1.00  0.00     0.293 HD
ENDBRANCH  18  21
ENDBRANCH   3  13
BRANCH   9  23
ATOM     23  O   UNL     1     205.484 211.113 279.530  1.00  0.00    -0.507 OA
ATOM     24  H   UNL     1     205.493 211.968 280.074  1.00  0.00     0.293 HD
ENDBRANCH   9  23
BRANCH   7  25
ATOM     25  O   UNL     1     202.622 208.622 282.524  1.00  0.00    -0.508 OA
ATOM     26  H   UNL     1     203.258 208.330 283.257  1.00  0.00     0.293 HD
ENDBRANCH   7  25
TORSDOF 6
ENDMDL
MODEL 4
REMARK VINA RESULT:    -6.454      2.735      6.481
REMARK INTER + INTRA:          -8.062
REMARK INTER:                  -8.445
REMARK INTRA:                   0.382
REMARK UNBOUND:                -0.288
REMARK SMILES Oc1cc(O)c2c(c1)O[C@H](c1ccc(O)c(O)c1)[C@H](O)C2
REMARK SMILES IDX 21 1 19 2 10 3 9 4 7 5 8 6 2 7 3 8 4 9 6 10 20 11 11 13
REMARK SMILES IDX 18 14 12 15 16 16 13 17 14 18 17 19 15 21 5 23 1 25
REMARK H PARENT 20 12 17 20 15 22 5 24 1 26
REMARK Flexibility Score: inf
ROOT
ATOM      1  C   UNL     1     204.473 205.972 275.877  1.00  0.00     0.079 C 
ATOM      2  C   UNL     1     204.220 206.694 277.214  1.00  0.00     0.164 C 
ATOM      3  C   UNL     1     203.044 206.017 277.944  1.00  0.00     0.232 C 
ATOM      4  O   UNL     1     201.881 206.019 277.112  1.00  0.00    -0.482 OA
ATOM      5  C   UNL     1     201.954 205.819 275.729  1.00  0.00     0.131 A 
ATOM      6  C   UNL     1     200.775 205.653 274.997  1.00  0.00     0.093 A 
ATOM      7  C   UNL     1     200.828 205.452 273.612  1.00  0.00     0.122 A 
ATOM      8  C   UNL     1     202.064 205.416 272.961  1.00  0.00     0.092 A 
ATOM      9  C   UNL     1     203.253 205.588 273.684  1.00  0.00     0.126 A 
ATOM     10  C   UNL     1     203.203 205.810 275.072  1.00  0.00     0.039 A 
ENDROOT
BRANCH   2  11
ATOM     11  O   UNL     1     203.926 208.047 276.979  1.00  0.00    -0.389 OA
ATOM     12  H   UNL     1     204.519 208.577 277.573  1.00  0.00     0.211 HD
ENDBRANCH   2  11
BRANCH   3  13
ATOM     13  C   UNL     1     202.752 206.691 279.265  1.00  0.00    -0.001 A 
ATOM     14  C   UNL     1     203.340 207.924 279.593  1.00  0.00     0.057 A 
ATOM     15  C   UNL     1     201.932 206.052 280.209  1.00  0.00     0.012 A 
ATOM     16  C   UNL     1     203.093 208.525 280.833  1.00  0.00     0.157 A 
ATOM     17  C   UNL     1     201.683 206.649 281.448  1.00  0.00     0.050 A 
ATOM     18  C   UNL     1     202.258 207.886 281.765  1.00  0.00     0.157 A 
BRANCH  16  19
ATOM     19  O   UNL     1     203.687 209.754 281.121  1.00  0.00    -0.504 OA
ATOM     20  H   UNL     1     203.263 210.633 280.850  1.00  0.00     0.293 HD
ENDBRANCH  16  19
BRANCH  18  21
ATOM     21  O   UNL     1     202.006 208.479 283.001  1.00  0.00    -0.504 OA
ATOM     22  H   UNL     1     202.438 208.138 283.852  1.00  0.00     0.293 HD
ENDBRANCH  18  21
ENDBRANCH   3  13
BRANCH   9  23
ATOM     23  O   UNL     1     204.482 205.537 273.026  1.00  0.00    -0.507 OA
ATOM     24  H   UNL     1     205.256 206.131 273.300  1.00  0.00     0.293 HD
ENDBRANCH   9  23
BRANCH   7  25
ATOM     25  O   UNL     1     199.657 205.283 272.875  1.00  0.00    -0.508 OA
ATOM     26  H   UNL     1     199.677 205.160 271.869  1.00  0.00     0.293 HD
ENDBRANCH   7  25
TORSDOF 6
ENDMDL
MODEL 5
REMARK VINA RESULT:    -6.130      3.748      5.919
REMARK INTER + INTRA:          -7.672
REMARK INTER:                  -8.081
REMARK INTRA:                   0.409
REMARK UNBOUND:                -0.288
REMARK SMILES Oc1cc(O)c2c(c1)O[C@H](c1ccc(O)c(O)c1)[C@H](O)C2
REMARK SMILES IDX 21 1 19 2 10 3 9 4 7 5 8 6 2 7 3 8 4 9 6 10 20 11 11 13
REMARK SMILES IDX 18 14 12 15 16 16 13 17 14 18 17 19 15 21 5 23 1 25
REMARK H PARENT 20 12 17 20 15 22 5 24 1 26
REMARK Flexibility Score: inf
ROOT
ATOM      1  C   UNL     1     205.528 208.291 276.144  1.00  0.00     0.079 C 
ATOM      2  C   UNL     1     204.496 208.939 277.087  1.00  0.00     0.164 C 
ATOM      3  C   UNL     1     203.773 207.838 277.885  1.00  0.00     0.232 C 
ATOM      4  O   UNL     1     203.162 206.902 276.993  1.00  0.00    -0.482 OA
ATOM      5  C   UNL     1     203.771 206.507 275.796  1.00  0.00     0.131 A 
ATOM      6  C   UNL     1     203.213 205.460 275.057  1.00  0.00     0.093 A 
ATOM      7  C   UNL     1     203.809 205.050 273.857  1.00  0.00     0.122 A 
ATOM      8  C   UNL     1     204.965 205.689 273.401  1.00  0.00     0.092 A 
ATOM      9  C   UNL     1     205.529 206.745 274.131  1.00  0.00     0.126 A 
ATOM     10  C   UNL     1     204.923 207.172 275.326  1.00  0.00     0.039 A 
ENDROOT
BRANCH   2  11
ATOM     11  O   UNL     1     203.566 209.681 276.340  1.00  0.00    -0.389 OA
ATOM     12  H   UNL     1     203.429 210.538 276.823  1.00  0.00     0.211 HD
ENDBRANCH   2  11
BRANCH   3  13
ATOM     13  C   UNL     1     202.744 208.422 278.827  1.00  0.00    -0.001 A 
ATOM     14  C   UNL     1     202.618 207.947 280.144  1.00  0.00     0.057 A 
ATOM     15  C   UNL     1     201.857 209.408 278.367  1.00  0.00     0.012 A 
ATOM     16  C   UNL     1     201.640 208.468 280.999  1.00  0.00     0.157 A 
ATOM     17  C   UNL     1     200.879 209.931 279.218  1.00  0.00     0.050 A 
ATOM     18  C   UNL     1     200.766 209.467 280.535  1.00  0.00     0.157 A 
BRANCH  16  19
ATOM     19  O   UNL     1     201.549 207.980 282.302  1.00  0.00    -0.504 OA
ATOM     20  H   UNL     1     201.168 208.534 283.059  1.00  0.00     0.293 HD
ENDBRANCH  16  19
BRANCH  18  21
ATOM     21  O   UNL     1     199.792 209.991 281.381  1.00  0.00    -0.504 OA
ATOM     22  H   UNL     1     199.227 210.789 281.112  1.00  0.00     0.293 HD
ENDBRANCH  18  21
ENDBRANCH   3  13
BRANCH   9  23
ATOM     23  O   UNL     1     206.691 207.366 273.673  1.00  0.00    -0.507 OA
ATOM     24  H   UNL     1     206.928 208.314 273.943  1.00  0.00     0.293 HD
ENDBRANCH   9  23
BRANCH   7  25
ATOM     25  O   UNL     1     203.261 204.006 273.115  1.00  0.00    -0.508 OA
ATOM     26  H   UNL     1     203.846 203.306 272.673  1.00  0.00     0.293 HD
ENDBRANCH   7  25
TORSDOF 6
ENDMDL
MODEL 6
REMARK VINA RESULT:    -6.094      1.760      6.569
REMARK INTER + INTRA:          -7.629
REMARK INTER:                  -7.248
REMARK INTRA:                  -0.381
REMARK UNBOUND:                -0.288
REMARK SMILES Oc1cc(O)c2c(c1)O[C@H](c1ccc(O)c(O)c1)[C@H](O)C2
REMARK SMILES IDX 21 1 19 2 10 3 9 4 7 5 8 6 2 7 3 8 4 9 6 10 20 11 11 13
REMARK SMILES IDX 18 14 12 15 16 16 13 17 14 18 17 19 15 21 5 23 1 25
REMARK H PARENT 20 12 17 20 15 22 5 24 1 26
REMARK Flexibility Score: inf
ROOT
ATOM      1  C   UNL     1     202.116 205.888 275.318  1.00  0.00     0.079 C 
ATOM      2  C   UNL     1     202.892 206.939 276.136  1.00  0.00     0.164 C 
ATOM      3  C   UNL     1     201.914 207.684 277.065  1.00  0.00     0.232 C 
ATOM      4  O   UNL     1     200.862 208.278 276.301  1.00  0.00    -0.482 OA
ATOM      5  C   UNL     1     200.301 207.643 275.186  1.00  0.00     0.131 A 
ATOM      6  C   UNL     1     199.160 208.187 274.590  1.00  0.00     0.093 A 
ATOM      7  C   UNL     1     198.584 207.566 273.475  1.00  0.00     0.122 A 
ATOM      8  C   UNL     1     199.152 206.398 272.959  1.00  0.00     0.092 A 
ATOM      9  C   UNL     1     200.300 205.847 273.545  1.00  0.00     0.126 A 
ATOM     10  C   UNL     1     200.893 206.479 274.653  1.00  0.00     0.039 A 
ENDROOT
BRANCH   2  11
ATOM     11  O   UNL     1     203.520 207.850 275.270  1.00  0.00    -0.389 OA
ATOM     12  H   UNL     1     203.099 207.735 274.378  1.00  0.00     0.211 HD
ENDBRANCH   2  11
BRANCH   3  13
ATOM     13  C   UNL     1     202.626 208.732 277.890  1.00  0.00    -0.001 A 
ATOM     14  C   UNL     1     203.538 208.364 278.894  1.00  0.00     0.057 A 
ATOM     15  C   UNL     1     202.331 210.091 277.699  1.00  0.00     0.012 A 
ATOM     16  C   UNL     1     204.167 209.339 279.678  1.00  0.00     0.157 A 
ATOM     17  C   UNL     1     202.957 211.067 278.479  1.00  0.00     0.050 A 
ATOM     18  C   UNL     1     203.877 210.698 279.469  1.00  0.00     0.157 A 
BRANCH  16  19
ATOM     19  O   UNL     1     205.072 208.938 280.661  1.00  0.00    -0.504 OA
ATOM     20  H   UNL     1     206.034 209.255 280.666  1.00  0.00     0.293 HD
ENDBRANCH  16  19
BRANCH  18  21
ATOM     21  O   UNL     1     204.501 211.673 280.244  1.00  0.00    -0.504 OA
ATOM     22  H   UNL     1     205.453 211.968 280.063  1.00  0.00     0.293 HD
ENDBRANCH  18  21
ENDBRANCH   3  13
BRANCH   9  23
ATOM     23  O   UNL     1     200.850 204.673 273.030  1.00  0.00    -0.507 OA
ATOM     24  H   UNL     1     200.328 204.070 272.405  1.00  0.00     0.293 HD
ENDBRANCH   9  23
BRANCH   7  25
ATOM     25  O   UNL     1     197.445 208.100 272.875  1.00  0.00    -0.508 OA
ATOM     26  H   UNL     1     196.708 207.506 272.513  1.00  0.00     0.293 HD
ENDBRANCH   7  25
TORSDOF 6
ENDMDL
MODEL 7
REMARK VINA RESULT:    -5.785      2.470      6.819
REMARK INTER + INTRA:          -7.257
REMARK INTER:                  -6.879
REMARK INTRA:                  -0.378
REMARK UNBOUND:                -0.288
REMARK SMILES Oc1cc(O)c2c(c1)O[C@H](c1ccc(O)c(O)c1)[C@H](O)C2
REMARK SMILES IDX 21 1 19 2 10 3 9 4 7 5 8 6 2 7 3 8 4 9 6 10 20 11 11 13
REMARK SMILES IDX 18 14 12 15 16 16 13 17 14 18 17 19 15 21 5 23 1 25
REMARK H PARENT 20 12 17 20 15 22 5 24 1 26
REMARK Flexibility Score: inf
ROOT
ATOM      1  C   UNL     1     202.798 208.872 275.392  1.00  0.00     0.079 C 
ATOM      2  C   UNL     1     202.936 209.279 276.872  1.00  0.00     0.164 C 
ATOM      3  C   UNL     1     203.209 208.023 277.722  1.00  0.00     0.232 C 
ATOM      4  O   UNL     1     202.168 207.062 277.531  1.00  0.00    -0.482 OA
ATOM      5  C   UNL     1     201.567 206.852 276.285  1.00  0.00     0.131 A 
ATOM      6  C   UNL     1     200.685 205.780 276.121  1.00  0.00     0.093 A 
ATOM      7  C   UNL     1     200.075 205.553 274.881  1.00  0.00     0.122 A 
ATOM      8  C   UNL     1     200.350 206.401 273.805  1.00  0.00     0.092 A 
ATOM      9  C   UNL     1     201.228 207.484 273.959  1.00  0.00     0.126 A 
ATOM     10  C   UNL     1     201.828 207.726 275.209  1.00  0.00     0.039 A 
ENDROOT
BRANCH   2  11
ATOM     11  O   UNL     1     201.757 209.907 277.307  1.00  0.00    -0.389 OA
ATOM     12  H   UNL     1     201.148 209.187 277.621  1.00  0.00     0.211 HD
ENDBRANCH   2  11
BRANCH   3  13
ATOM     13  C   UNL     1     203.350 208.367 279.187  1.00  0.00    -0.001 A 
ATOM     14  C   UNL     1     202.369 207.984 280.118  1.00  0.00     0.057 A 
ATOM     15  C   UNL     1     204.442 209.134 279.622  1.00  0.00     0.012 A 
ATOM     16  C   UNL     1     202.489 208.337 281.467  1.00  0.00     0.157 A 
ATOM     17  C   UNL     1     204.566 209.488 280.969  1.00  0.00     0.050 A 
ATOM     18  C   UNL     1     203.594 209.092 281.896  1.00  0.00     0.157 A 
BRANCH  16  19
ATOM     19  O   UNL     1     201.500 207.933 282.363  1.00  0.00    -0.504 OA
ATOM     20  H   UNL     1     200.744 207.316 282.088  1.00  0.00     0.293 HD
ENDBRANCH  16  19
BRANCH  18  21
ATOM     21  O   UNL     1     203.721 209.445 283.238  1.00  0.00    -0.504 OA
ATOM     22  H   UNL     1     203.178 208.988 283.962  1.00  0.00     0.293 HD
ENDBRANCH  18  21
ENDBRANCH   3  13
BRANCH   9  23
ATOM     23  O   UNL     1     201.506 208.316 272.875  1.00  0.00    -0.507 OA
ATOM     24  H   UNL     1     201.295 208.038 271.923  1.00  0.00     0.293 HD
ENDBRANCH   9  23
BRANCH   7  25
ATOM     25  O   UNL     1     199.196 204.485 274.708  1.00  0.00    -0.508 OA
ATOM     26  H   UNL     1     198.211 204.634 274.524  1.00  0.00     0.293 HD
ENDBRANCH   7  25
TORSDOF 6
ENDMDL
