MODEL 1
REMARK VINA RESULT:    -3.132      0.000      0.000
REMARK INTER + INTRA:          -3.645
REMARK INTER:                  -3.407
REMARK INTRA:                  -0.238
REMARK UNBOUND:                -0.238
REMARK SMILES O=C([O-])c1ccccc1O
REMARK SMILES IDX 4 1 9 2 5 3 8 4 6 5 7 6 2 7 1 8 3 9 10 10
REMARK H PARENT 10 11
REMARK Flexibility Score: inf
ROOT
ATOM      1  C   UNL     1     139.023 127.863 130.282  1.00  0.00     0.039 A 
ATOM      2  C   UNL     1     138.268 127.830 131.484  1.00  0.00     0.124 A 
ATOM      3  C   UNL     1     138.380 127.565 129.066  1.00  0.00     0.014 A 
ATOM      4  C   UNL     1     136.894 127.563 131.430  1.00  0.00     0.047 A 
ATOM      5  C   UNL     1     137.013 127.281 129.034  1.00  0.00     0.001 A 
ATOM      6  C   UNL     1     136.269 127.289 130.213  1.00  0.00     0.004 A 
ENDROOT
BRANCH   1   7
ATOM      7  C   UNL     1     140.456 128.233 130.245  1.00  0.00     0.075 C 
ATOM      8  O   UNL     1     140.971 128.724 129.207  1.00  0.00    -0.545 OA
ATOM      9  O   UNL     1     141.268 127.975 131.343  1.00  0.00    -0.545 OA
ENDBRANCH   1   7
BRANCH   2  10
ATOM     10  O   UNL     1     138.844 128.018 132.742  1.00  0.00    -0.507 OA
ATOM     11  H   UNL     1     138.464 127.631 133.594  1.00  0.00     0.293 HD
ENDBRANCH   2  10
TORSDOF 2
ENDMDL
MODEL 2
REMARK VINA RESULT:    -2.693      2.183      3.423
REMARK INTER + INTRA:          -3.167
REMARK INTER:                  -2.939
REMARK INTRA:                  -0.229
REMARK UNBOUND:                -0.238
REMARK SMILES O=C([O-])c1ccccc1O
REMARK SMILES IDX 4 1 9 2 5 3 8 4 6 5 7 6 2 7 1 8 3 9 10 10
REMARK H PARENT 10 11
REMARK Flexibility Score: inf
ROOT
ATOM      1  C   UNL     1     138.040 127.758 130.212  1.00  0.00     0.039 A 
ATOM      2  C   UNL     1     138.274 127.761 131.612  1.00  0.00     0.124 A 
ATOM      3  C   UNL     1     139.102 128.074 129.344  1.00  0.00     0.014 A 
ATOM      4  C   UNL     1     139.563 128.017 132.098  1.00  0.00     0.047 A 
ATOM      5  C   UNL     1     140.375 128.347 129.847  1.00  0.00     0.001 A 
ATOM      6  C   UNL     1     140.609 128.309 131.221  1.00  0.00     0.004 A 
ENDROOT
BRANCH   1   7
ATOM      7  C   UNL     1     136.731 127.401 129.619  1.00  0.00     0.075 C 
ATOM      8  O   UNL     1     136.645 127.024 128.420  1.00  0.00    -0.545 OA
ATOM      9  O   UNL     1     135.568 127.548 130.364  1.00  0.00    -0.545 OA
ENDBRANCH   1   7
BRANCH   2  10
ATOM     10  O   UNL     1     137.258 127.553 132.548  1.00  0.00    -0.507 OA
ATOM     11  H   UNL     1     137.187 126.724 133.120  1.00  0.00     0.293 HD
ENDBRANCH   2  10
TORSDOF 2
ENDMDL
MODEL 3
REMARK VINA RESULT:    -1.615      0.981      2.549
REMARK INTER + INTRA:          -1.994
REMARK INTER:                  -1.803
REMARK INTRA:                  -0.191
REMARK UNBOUND:                -0.238
REMARK SMILES O=C([O-])c1ccccc1O
REMARK SMILES IDX 4 1 9 2 5 3 8 4 6 5 7 6 2 7 1 8 3 9 10 10
REMARK H PARENT 10 11
REMARK Flexibility Score: inf
ROOT
ATOM      1  C   UNL     1     138.228 127.733 130.886  1.00  0.00     0.039 A 
ATOM      2  C   UNL     1     138.477 127.997 129.514  1.00  0.00     0.124 A 
ATOM      3  C   UNL     1     136.948 127.296 131.274  1.00  0.00     0.014 A 
ATOM      4  C   UNL     1     137.469 127.761 128.570  1.00  0.00     0.047 A 
ATOM      5  C   UNL     1     135.948 127.087 130.322  1.00  0.00     0.001 A 
ATOM      6  C   UNL     1     136.210 127.309 128.971  1.00  0.00     0.004 A 
ENDROOT
BRANCH   1   7
ATOM      7  C   UNL     1     139.270 127.863 131.930  1.00  0.00     0.075 C 
ATOM      8  O   UNL     1     138.997 127.674 133.144  1.00  0.00    -0.545 OA
ATOM      9  O   UNL     1     140.553 128.268 131.582  1.00  0.00    -0.545 OA
ENDBRANCH   1   7
BRANCH   2  10
ATOM     10  O   UNL     1     139.686 128.522 129.054  1.00  0.00    -0.507 OA
ATOM     11  H   UNL     1     140.172 129.284 129.505  1.00  0.00     0.293 HD
ENDBRANCH   2  10
TORSDOF 2
ENDMDL
MODEL 4
REMARK VINA RESULT:    -1.610      2.282      4.170
REMARK INTER + INTRA:          -1.990
REMARK INTER:                  -1.742
REMARK INTRA:                  -0.248
REMARK UNBOUND:                -0.238
REMARK SMILES O=C([O-])c1ccccc1O
REMARK SMILES IDX 4 1 9 2 5 3 8 4 6 5 7 6 2 7 1 8 3 9 10 10
REMARK H PARENT 10 11
REMARK Flexibility Score: inf
ROOT
ATOM      1  C   UNL     1     137.696 127.677 130.644  1.00  0.00     0.039 A 
ATOM      2  C   UNL     1     138.489 128.114 129.551  1.00  0.00     0.124 A 
ATOM      3  C   UNL     1     138.279 127.606 131.923  1.00  0.00     0.014 A 
ATOM      4  C   UNL     1     139.811 128.521 129.775  1.00  0.00     0.047 A 
ATOM      5  C   UNL     1     139.604 127.996 132.124  1.00  0.00     0.001 A 
ATOM      6  C   UNL     1     140.367 128.462 131.054  1.00  0.00     0.004 A 
ENDROOT
BRANCH   1   7
ATOM      7  C   UNL     1     136.265 127.325 130.505  1.00  0.00     0.075 C 
ATOM      8  O   UNL     1     135.812 126.255 130.991  1.00  0.00    -0.545 OA
ATOM      9  O   UNL     1     135.416 128.144 129.772  1.00  0.00    -0.545 OA
ENDBRANCH   1   7
BRANCH   2  10
ATOM     10  O   UNL     1     138.022 128.125 128.236  1.00  0.00    -0.507 OA
ATOM     11  H   UNL     1     137.261 127.546 127.908  1.00  0.00     0.293 HD
ENDBRANCH   2  10
TORSDOF 2
ENDMDL
MODEL 5
REMARK VINA RESULT:    -0.480      2.165      3.505
REMARK INTER + INTRA:          -0.760
REMARK INTER:                  -0.520
REMARK INTRA:                  -0.239
REMARK UNBOUND:                -0.238
REMARK SMILES O=C([O-])c1ccccc1O
REMARK SMILES IDX 4 1 9 2 5 3 8 4 6 5 7 6 2 7 1 8 3 9 10 10
REMARK H PARENT 10 11
REMARK Flexibility Score: inf
ROOT
ATOM      1  C   UNL     1     137.832 127.749 129.973  1.00  0.00     0.039 A 
ATOM      2  C   UNL     1     139.174 128.156 130.199  1.00  0.00     0.124 A 
ATOM      3  C   UNL     1     137.047 127.355 131.071  1.00  0.00     0.014 A 
ATOM      4  C   UNL     1     139.667 128.215 131.509  1.00  0.00     0.047 A 
ATOM      5  C   UNL     1     137.562 127.400 132.368  1.00  0.00     0.001 A 
ATOM      6  C   UNL     1     138.867 127.838 132.588  1.00  0.00     0.004 A 
ENDROOT
BRANCH   1   7
ATOM      7  C   UNL     1     137.209 127.755 128.630  1.00  0.00     0.075 C 
ATOM      8  O   UNL     1     136.274 126.960 128.348  1.00  0.00    -0.545 OA
ATOM      9  O   UNL     1     137.700 128.596 127.640  1.00  0.00    -0.545 OA
ENDBRANCH   1   7
BRANCH   2  10
ATOM     10  O   UNL     1     140.052 128.472 129.160  1.00  0.00    -0.507 OA
ATOM     11  H   UNL     1     139.770 128.544 128.192  1.00  0.00     0.293 HD
ENDBRANCH   2  10
TORSDOF 2
ENDMDL
MODEL 6
REMARK VINA RESULT:    -0.281      3.195      4.721
REMARK INTER + INTRA:          -0.544
REMARK INTER:                  -0.327
REMARK INTRA:                  -0.217
REMARK UNBOUND:                -0.238
REMARK SMILES O=C([O-])c1ccccc1O
REMARK SMILES IDX 4 1 9 2 5 3 8 4 6 5 7 6 2 7 1 8 3 9 10 10
REMARK H PARENT 10 11
REMARK Flexibility Score: inf
ROOT
ATOM      1  C   UNL     1     136.034 127.910 130.096  1.00  0.00     0.039 A 
ATOM      2  C   UNL     1     136.801 127.233 129.111  1.00  0.00     0.124 A 
ATOM      3  C   UNL     1     136.624 128.193 131.341  1.00  0.00     0.014 A 
ATOM      4  C   UNL     1     138.140 126.917 129.374  1.00  0.00     0.047 A 
ATOM      5  C   UNL     1     137.954 127.852 131.594  1.00  0.00     0.001 A 
ATOM      6  C   UNL     1     138.715 127.224 130.608  1.00  0.00     0.004 A 
ENDROOT
BRANCH   1   7
ATOM      7  C   UNL     1     134.645 128.364 129.858  1.00  0.00     0.075 C 
ATOM      8  O   UNL     1     133.907 128.716 130.815  1.00  0.00    -0.545 OA
ATOM      9  O   UNL     1     134.117 128.339 128.573  1.00  0.00    -0.545 OA
ENDBRANCH   1   7
BRANCH   2  10
ATOM     10  O   UNL     1     136.268 126.828 127.886  1.00  0.00    -0.507 OA
ATOM     11  H   UNL     1     135.284 126.657 127.734  1.00  0.00     0.293 HD
ENDBRANCH   2  10
TORSDOF 2
ENDMDL
