MODEL 1
REMARK VINA RESULT:    -4.905      0.000      0.000
REMARK INTER + INTRA:          -7.865
REMARK INTER:                  -7.485
REMARK INTRA:                  -0.380
REMARK UNBOUND:                -0.380
REMARK SMILES O=C([O-])CCCCCCCCC(=O)[O-]
REMARK SMILES IDX 7 1 6 2 5 3 4 4 2 5 1 6 3 7 8 8 9 9 10 10 11 11 12 12 13 13
REMARK SMILES IDX 14 14
REMARK H PARENT
REMARK Flexibility Score: inf
ROOT
ATOM      1  C   UNL     1       1.328  -8.700  -2.283  1.00  0.00     0.000 C 
ENDROOT
BRANCH   1   2
ATOM      2  C   UNL     1       0.980  -8.666  -0.785  1.00  0.00     0.000 C 
BRANCH   2   3
ATOM      3  C   UNL     1       0.846 -10.072  -0.173  1.00  0.00     0.006 C 
BRANCH   3   4
ATOM      4  C   UNL     1       0.027 -10.124   1.127  1.00  0.00     0.053 C 
BRANCH   4   5
ATOM      5  C   UNL     1      -1.444 -10.000   0.871  1.00  0.00     0.041 C 
ATOM      6  O   UNL     1      -2.235  -9.776   1.825  1.00  0.00    -0.550 OA
ATOM      7  O   UNL     1      -1.936 -10.099  -0.423  1.00  0.00    -0.550 OA
ENDBRANCH   4   5
ENDBRANCH   3   4
ENDBRANCH   2   3
ENDBRANCH   1   2
BRANCH   1   8
ATOM      8  C   UNL     1       1.738 -10.101  -2.772  1.00  0.00     0.000 C 
BRANCH   8   9
ATOM      9  C   UNL     1       2.837 -10.124  -3.851  1.00  0.00     0.000 C 
BRANCH   9  10
ATOM     10  C   UNL     1       3.869  -8.997  -3.682  1.00  0.00     0.006 C 
BRANCH  10  11
ATOM     11  C   UNL     1       4.081  -8.205  -4.979  1.00  0.00     0.053 C 
BRANCH  11  12
ATOM     12  C   UNL     1       4.818  -9.005  -6.008  1.00  0.00     0.041 C 
ATOM     13  O   UNL     1       5.775  -9.750  -5.666  1.00  0.00    -0.550 OA
ATOM     14  O   UNL     1       4.433  -8.951  -7.342  1.00  0.00    -0.550 OA
ENDBRANCH  11  12
ENDBRANCH  10  11
ENDBRANCH   9  10
ENDBRANCH   8   9
ENDBRANCH   1   8
TORSDOF 9
ENDMDL
MODEL 2
REMARK VINA RESULT:    -4.826      1.224      7.555
REMARK INTER + INTRA:          -7.745
REMARK INTER:                  -7.376
REMARK INTRA:                  -0.369
REMARK UNBOUND:                -0.380
REMARK SMILES O=C([O-])CCCCCCCCC(=O)[O-]
REMARK SMILES IDX 7 1 6 2 5 3 4 4 2 5 1 6 3 7 8 8 9 9 10 10 11 11 12 12 13 13
REMARK SMILES IDX 14 14
REMARK H PARENT
REMARK Flexibility Score: inf
ROOT
ATOM      1  C   UNL     1       2.198  -9.612  -3.944  1.00  0.00     0.000 C 
ENDROOT
BRANCH   1   2
ATOM      2  C   UNL     1       3.627  -9.182  -3.574  1.00  0.00     0.000 C 
BRANCH   2   3
ATOM      3  C   UNL     1       4.320  -8.388  -4.697  1.00  0.00     0.006 C 
BRANCH   3   4
ATOM      4  C   UNL     1       4.824  -9.249  -5.866  1.00  0.00     0.053 C 
BRANCH   4   5
ATOM      5  C   UNL     1       3.956  -9.116  -7.079  1.00  0.00     0.041 C 
ATOM      6  O   UNL     1       3.739 -10.115  -7.815  1.00  0.00    -0.550 OA
ATOM      7  O   UNL     1       3.361  -7.898  -7.379  1.00  0.00    -0.550 OA
ENDBRANCH   4   5
ENDBRANCH   3   4
ENDBRANCH   2   3
ENDBRANCH   1   2
BRANCH   1   8
ATOM      8  C   UNL     1       1.312  -9.874  -2.713  1.00  0.00     0.000 C 
BRANCH   8   9
ATOM      9  C   UNL     1       1.610  -8.989  -1.489  1.00  0.00     0.000 C 
BRANCH   9  10
ATOM     10  C   UNL     1       0.915  -9.480  -0.209  1.00  0.00     0.006 C 
BRANCH  10  11
ATOM     11  C   UNL     1      -0.471 -10.075  -0.493  1.00  0.00     0.053 C 
BRANCH  11  12
ATOM     12  C   UNL     1      -1.548  -9.375   0.276  1.00  0.00     0.041 C 
ATOM     13  O   UNL     1      -2.243  -8.482  -0.276  1.00  0.00    -0.550 OA
ATOM     14  O   UNL     1      -1.804  -9.727   1.596  1.00  0.00    -0.550 OA
ENDBRANCH  11  12
ENDBRANCH  10  11
ENDBRANCH   9  10
ENDBRANCH   8   9
ENDBRANCH   1   8
TORSDOF 9
ENDMDL
MODEL 3
REMARK VINA RESULT:    -4.684      1.542      7.474
REMARK INTER + INTRA:          -7.528
REMARK INTER:                  -7.148
REMARK INTRA:                  -0.380
REMARK UNBOUND:                -0.380
REMARK SMILES O=C([O-])CCCCCCCCC(=O)[O-]
REMARK SMILES IDX 7 1 6 2 5 3 4 4 2 5 1 6 3 7 8 8 9 9 10 10 11 11 12 12 13 13
REMARK SMILES IDX 14 14
REMARK H PARENT
REMARK Flexibility Score: inf
ROOT
ATOM      1  C   UNL     1       1.144  -9.276  -1.239  1.00  0.00     0.000 C 
ENDROOT
BRANCH   1   2
ATOM      2  C   UNL     1       2.437  -9.305  -2.071  1.00  0.00     0.000 C 
BRANCH   2   3
ATOM      3  C   UNL     1       2.191  -9.016  -3.563  1.00  0.00     0.006 C 
BRANCH   3   4
ATOM      4  C   UNL     1       3.446  -9.116  -4.445  1.00  0.00     0.053 C 
BRANCH   4   5
ATOM      5  C   UNL     1       3.304  -8.338  -5.717  1.00  0.00     0.041 C 
ATOM      6  O   UNL     1       3.609  -8.866  -6.819  1.00  0.00    -0.550 OA
ATOM      7  O   UNL     1       2.805  -7.043  -5.689  1.00  0.00    -0.550 OA
ENDBRANCH   4   5
ENDBRANCH   3   4
ENDBRANCH   2   3
ENDBRANCH   1   2
BRANCH   1   8
ATOM      8  C   UNL     1       0.599  -7.853  -1.024  1.00  0.00     0.000 C 
BRANCH   8   9
ATOM      9  C   UNL     1      -0.858  -7.632  -1.469  1.00  0.00     0.000 C 
BRANCH   9  10
ATOM     10  C   UNL     1      -1.876  -7.904  -0.350  1.00  0.00     0.006 C 
BRANCH  10  11
ATOM     11  C   UNL     1      -2.202  -9.398  -0.212  1.00  0.00     0.053 C 
BRANCH  11  12
ATOM     12  C   UNL     1      -1.919  -9.905   1.168  1.00  0.00     0.041 C 
ATOM     13  O   UNL     1      -0.733 -10.111   1.537  1.00  0.00    -0.550 OA
ATOM     14  O   UNL     1      -2.963 -10.125   2.058  1.00  0.00    -0.550 OA
ENDBRANCH  11  12
ENDBRANCH  10  11
ENDBRANCH   9  10
ENDBRANCH   8   9
ENDBRANCH   1   8
TORSDOF 9
ENDMDL
MODEL 4
REMARK VINA RESULT:    -4.635      1.444      7.021
REMARK INTER + INTRA:          -7.453
REMARK INTER:                  -6.917
REMARK INTRA:                  -0.536
REMARK UNBOUND:                -0.380
REMARK SMILES O=C([O-])CCCCCCCCC(=O)[O-]
REMARK SMILES IDX 7 1 6 2 5 3 4 4 2 5 1 6 3 7 8 8 9 9 10 10 11 11 12 12 13 13
REMARK SMILES IDX 14 14
REMARK H PARENT
REMARK Flexibility Score: inf
ROOT
ATOM      1  C   UNL     1       1.960  -9.115  -2.268  1.00  0.00     0.000 C 
ENDROOT
BRANCH   1   2
ATOM      2  C   UNL     1       2.362  -9.790  -3.591  1.00  0.00     0.000 C 
BRANCH   2   3
ATOM      3  C   UNL     1       3.856  -9.614  -3.918  1.00  0.00     0.006 C 
BRANCH   3   4
ATOM      4  C   UNL     1       4.206  -8.276  -4.590  1.00  0.00     0.053 C 
BRANCH   4   5
ATOM      5  C   UNL     1       3.523  -8.114  -5.913  1.00  0.00     0.041 C 
ATOM      6  O   UNL     1       2.621  -7.247  -6.058  1.00  0.00    -0.550 OA
ATOM      7  O   UNL     1       3.906  -8.897  -6.994  1.00  0.00    -0.550 OA
ENDBRANCH   4   5
ENDBRANCH   3   4
ENDBRANCH   2   3
ENDBRANCH   1   2
BRANCH   1   8
ATOM      8  C   UNL     1       1.604 -10.124  -1.162  1.00  0.00     0.000 C 
BRANCH   8   9
ATOM      9  C   UNL     1       1.177  -9.504   0.180  1.00  0.00     0.000 C 
BRANCH   9  10
ATOM     10  C   UNL     1      -0.134 -10.095   0.725  1.00  0.00     0.006 C 
BRANCH  10  11
ATOM     11  C   UNL     1      -1.242 -10.125  -0.336  1.00  0.00     0.053 C 
BRANCH  11  12
ATOM     12  C   UNL     1      -1.787  -8.757  -0.612  1.00  0.00     0.041 C 
ATOM     13  O   UNL     1      -2.226  -8.048   0.330  1.00  0.00    -0.550 OA
ATOM     14  O   UNL     1      -1.784  -8.255  -1.908  1.00  0.00    -0.550 OA
ENDBRANCH  11  12
ENDBRANCH  10  11
ENDBRANCH   9  10
ENDBRANCH   8   9
ENDBRANCH   1   8
TORSDOF 9
ENDMDL
MODEL 5
REMARK VINA RESULT:    -4.318      1.337      2.171
REMARK INTER + INTRA:          -6.970
REMARK INTER:                  -6.920
REMARK INTRA:                  -0.050
REMARK UNBOUND:                -0.380
REMARK SMILES O=C([O-])CCCCCCCCC(=O)[O-]
REMARK SMILES IDX 7 1 6 2 5 3 4 4 2 5 1 6 3 7 8 8 9 9 10 10 11 11 12 12 13 13
REMARK SMILES IDX 14 14
REMARK H PARENT
REMARK Flexibility Score: inf
ROOT
ATOM      1  C   UNL     1       1.239  -9.030  -0.340  1.00  0.00     0.000 C 
ENDROOT
BRANCH   1   2
ATOM      2  C   UNL     1       0.608  -9.934   0.733  1.00  0.00     0.000 C 
BRANCH   2   3
ATOM      3  C   UNL     1      -0.890  -9.651   0.944  1.00  0.00     0.006 C 
BRANCH   3   4
ATOM      4  C   UNL     1      -1.794 -10.123  -0.206  1.00  0.00     0.053 C 
BRANCH   4   5
ATOM      5  C   UNL     1      -1.695  -9.230  -1.404  1.00  0.00     0.041 C 
ATOM      6  O   UNL     1      -1.550  -9.725  -2.553  1.00  0.00    -0.550 OA
ATOM      7  O   UNL     1      -1.794  -7.853  -1.256  1.00  0.00    -0.550 OA
ENDBRANCH   4   5
ENDBRANCH   3   4
ENDBRANCH   2   3
ENDBRANCH   1   2
BRANCH   1   8
ATOM      8  C   UNL     1       1.813  -9.821  -1.530  1.00  0.00     0.000 C 
BRANCH   8   9
ATOM      9  C   UNL     1       1.882  -9.047  -2.859  1.00  0.00     0.000 C 
BRANCH   9  10
ATOM     10  C   UNL     1       3.024  -9.524  -3.772  1.00  0.00     0.006 C 
BRANCH  10  11
ATOM     11  C   UNL     1       3.510  -8.417  -4.718  1.00  0.00     0.053 C 
BRANCH  11  12
ATOM     12  C   UNL     1       4.292  -8.971  -5.869  1.00  0.00     0.041 C 
ATOM     13  O   UNL     1       3.867  -8.837  -7.047  1.00  0.00    -0.550 OA
ATOM     14  O   UNL     1       5.506  -9.609  -5.645  1.00  0.00    -0.550 OA
ENDBRANCH  11  12
ENDBRANCH  10  11
ENDBRANCH   9  10
ENDBRANCH   8   9
ENDBRANCH   1   8
TORSDOF 9
ENDMDL
MODEL 6
REMARK VINA RESULT:    -4.073     10.043     11.514
REMARK INTER + INTRA:          -6.596
REMARK INTER:                  -6.145
REMARK INTRA:                  -0.451
REMARK UNBOUND:                -0.380
REMARK SMILES O=C([O-])CCCCCCCCC(=O)[O-]
REMARK SMILES IDX 7 1 6 2 5 3 4 4 2 5 1 6 3 7 8 8 9 9 10 10 11 11 12 12 13 13
REMARK SMILES IDX 14 14
REMARK H PARENT
REMARK Flexibility Score: inf
ROOT
ATOM      1  C   UNL     1      -0.880   1.138  -0.191  1.00  0.00     0.000 C 
ENDROOT
BRANCH   1   2
ATOM      2  C   UNL     1      -1.736   2.415  -0.210  1.00  0.00     0.000 C 
BRANCH   2   3
ATOM      3  C   UNL     1      -1.527   3.254  -1.484  1.00  0.00     0.006 C 
BRANCH   3   4
ATOM      4  C   UNL     1      -0.796   2.516  -2.617  1.00  0.00     0.053 C 
BRANCH   4   5
ATOM      5  C   UNL     1       0.476   3.204  -3.009  1.00  0.00     0.041 C 
ATOM      6  O   UNL     1       0.878   4.207  -2.362  1.00  0.00    -0.550 OA
ATOM      7  O   UNL     1       1.232   2.719  -4.067  1.00  0.00    -0.550 OA
ENDBRANCH   4   5
ENDBRANCH   3   4
ENDBRANCH   2   3
ENDBRANCH   1   2
BRANCH   1   8
ATOM      8  C   UNL     1       0.174   1.138   0.931  1.00  0.00     0.000 C 
BRANCH   8   9
ATOM      9  C   UNL     1       0.768  -0.241   1.273  1.00  0.00     0.000 C 
BRANCH   9  10
ATOM     10  C   UNL     1       0.203  -1.373   0.400  1.00  0.00     0.006 C 
BRANCH  10  11
ATOM     11  C   UNL     1       1.042  -2.654   0.496  1.00  0.00     0.053 C 
BRANCH  11  12
ATOM     12  C   UNL     1       0.884  -3.517  -0.717  1.00  0.00     0.041 C 
ATOM     13  O   UNL     1       0.453  -4.695  -0.605  1.00  0.00    -0.550 OA
ATOM     14  O   UNL     1       1.186  -3.013  -1.976  1.00  0.00    -0.550 OA
ENDBRANCH  11  12
ENDBRANCH  10  11
ENDBRANCH   9  10
ENDBRANCH   8   9
ENDBRANCH   1   8
TORSDOF 9
ENDMDL
MODEL 7
REMARK VINA RESULT:    -4.008      9.928     10.905
REMARK INTER + INTRA:          -6.497
REMARK INTER:                  -6.060
REMARK INTRA:                  -0.437
REMARK UNBOUND:                -0.380
REMARK SMILES O=C([O-])CCCCCCCCC(=O)[O-]
REMARK SMILES IDX 7 1 6 2 5 3 4 4 2 5 1 6 3 7 8 8 9 9 10 10 11 11 12 12 13 13
REMARK SMILES IDX 14 14
REMARK H PARENT
REMARK Flexibility Score: inf
ROOT
ATOM      1  C   UNL     1       0.348   0.941   1.076  1.00  0.00     0.000 C 
ENDROOT
BRANCH   1   2
ATOM      2  C   UNL     1       0.764  -0.507   1.386  1.00  0.00     0.000 C 
BRANCH   2   3
ATOM      3  C   UNL     1       0.328  -1.499   0.292  1.00  0.00     0.006 C 
BRANCH   3   4
ATOM      4  C   UNL     1       1.016  -2.872   0.368  1.00  0.00     0.053 C 
BRANCH   4   5
ATOM      5  C   UNL     1       0.809  -3.675  -0.879  1.00  0.00     0.041 C 
ATOM      6  O   UNL     1       0.996  -3.151  -2.008  1.00  0.00    -0.550 OA
ATOM      7  O   UNL     1       0.441  -5.011  -0.793  1.00  0.00    -0.550 OA
ENDBRANCH   4   5
ENDBRANCH   3   4
ENDBRANCH   2   3
ENDBRANCH   1   2
BRANCH   1   8
ATOM      8  C   UNL     1      -0.548   1.054  -0.171  1.00  0.00     0.000 C 
BRANCH   8   9
ATOM      9  C   UNL     1      -1.576   2.200  -0.139  1.00  0.00     0.000 C 
BRANCH   9  10
ATOM     10  C   UNL     1      -1.555   3.062  -1.411  1.00  0.00     0.006 C 
BRANCH  10  11
ATOM     11  C   UNL     1      -0.775   2.394  -2.552  1.00  0.00     0.053 C 
BRANCH  11  12
ATOM     12  C   UNL     1       0.430   3.192  -2.945  1.00  0.00     0.041 C 
ATOM     13  O   UNL     1       0.784   4.186  -2.259  1.00  0.00    -0.550 OA
ATOM     14  O   UNL     1       1.180   2.820  -4.055  1.00  0.00    -0.550 OA
ENDBRANCH  11  12
ENDBRANCH  10  11
ENDBRANCH   9  10
ENDBRANCH   8   9
ENDBRANCH   1   8
TORSDOF 9
ENDMDL
MODEL 8
REMARK VINA RESULT:    -3.801     15.741     16.891
REMARK INTER + INTRA:          -6.180
REMARK INTER:                  -5.640
REMARK INTRA:                  -0.541
REMARK UNBOUND:                -0.380
REMARK SMILES O=C([O-])CCCCCCCCC(=O)[O-]
REMARK SMILES IDX 7 1 6 2 5 3 4 4 2 5 1 6 3 7 8 8 9 9 10 10 11 11 12 12 13 13
REMARK SMILES IDX 14 14
REMARK H PARENT
REMARK Flexibility Score: inf
ROOT
ATOM      1  C   UNL     1       7.655   1.671   9.893  1.00  0.00     0.000 C 
ENDROOT
BRANCH   1   2
ATOM      2  C   UNL     1       6.954   3.032  10.046  1.00  0.00     0.000 C 
BRANCH   2   3
ATOM      3  C   UNL     1       7.608   4.137   9.196  1.00  0.00     0.006 C 
BRANCH   3   4
ATOM      4  C   UNL     1       6.715   4.684   8.070  1.00  0.00     0.053 C 
BRANCH   4   5
ATOM      5  C   UNL     1       7.132   4.179   6.724  1.00  0.00     0.041 C 
ATOM      6  O   UNL     1       7.451   2.970   6.572  1.00  0.00    -0.550 OA
ATOM      7  O   UNL     1       7.139   5.034   5.630  1.00  0.00    -0.550 OA
ENDBRANCH   4   5
ENDBRANCH   3   4
ENDBRANCH   2   3
ENDBRANCH   1   2
BRANCH   1   8
ATOM      8  C   UNL     1       6.668   0.493   9.814  1.00  0.00     0.000 C 
BRANCH   8   9
ATOM      9  C   UNL     1       7.270  -0.890  10.125  1.00  0.00     0.000 C 
BRANCH   9  10
ATOM     10  C   UNL     1       7.295  -1.823   8.903  1.00  0.00     0.006 C 
BRANCH  10  11
ATOM     11  C   UNL     1       8.724  -2.194   8.486  1.00  0.00     0.053 C 
BRANCH  11  12
ATOM     12  C   UNL     1       9.130  -1.515   7.215  1.00  0.00     0.041 C 
ATOM     13  O   UNL     1       9.596  -2.187   6.258  1.00  0.00    -0.550 OA
ATOM     14  O   UNL     1       8.966  -0.142   7.076  1.00  0.00    -0.550 OA
ENDBRANCH  11  12
ENDBRANCH  10  11
ENDBRANCH   9  10
ENDBRANCH   8   9
ENDBRANCH   1   8
TORSDOF 9
ENDMDL
MODEL 9
REMARK VINA RESULT:    -3.727     15.242     16.460
REMARK INTER + INTRA:          -6.068
REMARK INTER:                  -5.540
REMARK INTRA:                  -0.528
REMARK UNBOUND:                -0.380
REMARK SMILES O=C([O-])CCCCCCCCC(=O)[O-]
REMARK SMILES IDX 7 1 6 2 5 3 4 4 2 5 1 6 3 7 8 8 9 9 10 10 11 11 12 12 13 13
REMARK SMILES IDX 14 14
REMARK H PARENT
REMARK Flexibility Score: inf
ROOT
ATOM      1  C   UNL     1       6.817  -1.367   9.804  1.00  0.00     0.000 C 
ENDROOT
BRANCH   1   2
ATOM      2  C   UNL     1       7.754  -2.581   9.692  1.00  0.00     0.000 C 
BRANCH   2   3
ATOM      3  C   UNL     1       9.234  -2.180   9.552  1.00  0.00     0.006 C 
BRANCH   3   4
ATOM      4  C   UNL     1       9.941  -2.775   8.324  1.00  0.00     0.053 C 
BRANCH   4   5
ATOM      5  C   UNL     1       9.660  -1.993   7.078  1.00  0.00     0.041 C 
ATOM      6  O   UNL     1       9.769  -2.540   5.949  1.00  0.00    -0.550 OA
ATOM      7  O   UNL     1       9.247  -0.670   7.165  1.00  0.00    -0.550 OA
ENDBRANCH   4   5
ENDBRANCH   3   4
ENDBRANCH   2   3
ENDBRANCH   1   2
BRANCH   1   8
ATOM      8  C   UNL     1       7.564  -0.060  10.125  1.00  0.00     0.000 C 
BRANCH   8   9
ATOM      9  C   UNL     1       7.021   1.197   9.420  1.00  0.00     0.000 C 
BRANCH   9  10
ATOM     10  C   UNL     1       8.115   2.230   9.107  1.00  0.00     0.006 C 
BRANCH  10  11
ATOM     11  C   UNL     1       7.563   3.450   8.357  1.00  0.00     0.053 C 
BRANCH  11  12
ATOM     12  C   UNL     1       7.509   3.219   6.878  1.00  0.00     0.041 C 
ATOM     13  O   UNL     1       8.010   2.176   6.381  1.00  0.00    -0.550 OA
ATOM     14  O   UNL     1       6.880   4.140   6.050  1.00  0.00    -0.550 OA
ENDBRANCH  11  12
ENDBRANCH  10  11
ENDBRANCH   9  10
ENDBRANCH   8   9
ENDBRANCH   1   8
TORSDOF 9
ENDMDL
