MODEL 1
REMARK VINA RESULT:    -5.899      0.000      0.000
REMARK INTER + INTRA:          -6.701
REMARK INTER:                  -6.589
REMARK INTRA:                  -0.112
REMARK UNBOUND:                -0.112
REMARK SMILES COc1cc2ccc(=O)oc2cc1OC
REMARK SMILES IDX 3 1 13 2 12 3 11 4 5 5 4 6 6 7 7 8 8 9 9 10 10 11 2 12 1 13
REMARK SMILES IDX 14 14 15 15
REMARK H PARENT
REMARK Flexibility Score: inf
ROOT
ATOM      1  C   UNL     1      19.433  -4.259  20.162  1.00  0.00     0.161 A 
ATOM      2  C   UNL     1      20.600  -4.229  19.379  1.00  0.00     0.164 A 
ATOM      3  C   UNL     1      21.703  -3.460  19.799  1.00  0.00     0.098 A 
ATOM      4  C   UNL     1      21.645  -2.726  20.986  1.00  0.00     0.142 A 
ATOM      5  C   UNL     1      20.474  -2.755  21.771  1.00  0.00     0.022 A 
ATOM      6  C   UNL     1      19.375  -3.519  21.361  1.00  0.00     0.062 A 
ATOM      7  C   UNL     1      20.446  -2.010  22.954  1.00  0.00     0.019 A 
ATOM      8  C   UNL     1      21.567  -1.266  23.322  1.00  0.00     0.094 A 
ATOM      9  C   UNL     1      22.693  -1.284  22.492  1.00  0.00     0.336 A 
ATOM     10  O   UNL     1      23.715  -0.620  22.805  1.00  0.00    -0.246 OA
ATOM     11  O   UNL     1      22.693  -2.003  21.372  1.00  0.00    -0.423 OA
ENDROOT
BRANCH   1  12
ATOM     12  O   UNL     1      18.353  -5.037  19.715  1.00  0.00    -0.493 OA
ATOM     13  C   UNL     1      17.228  -4.526  19.005  1.00  0.00     0.278 C 
ENDBRANCH   1  12
BRANCH   2  14
ATOM     14  O   UNL     1      20.623  -4.979  18.193  1.00  0.00    -0.493 OA
ATOM     15  C   UNL     1      21.686  -4.955  17.244  1.00  0.00     0.278 C 
ENDBRANCH   2  14
TORSDOF 2
ENDMDL
MODEL 2
REMARK VINA RESULT:    -5.678      2.760      3.718
REMARK INTER + INTRA:          -6.454
REMARK INTER:                  -6.332
REMARK INTRA:                  -0.122
REMARK UNBOUND:                -0.112
REMARK SMILES COc1cc2ccc(=O)oc2cc1OC
REMARK SMILES IDX 3 1 13 2 12 3 11 4 5 5 4 6 6 7 7 8 8 9 9 10 10 11 2 12 1 13
REMARK SMILES IDX 14 14 15 15
REMARK H PARENT
REMARK Flexibility Score: inf
ROOT
ATOM      1  C   UNL     1      17.129  -1.290  19.834  1.00  0.00     0.161 A 
ATOM      2  C   UNL     1      17.240  -2.655  19.518  1.00  0.00     0.164 A 
ATOM      3  C   UNL     1      18.176  -3.457  20.200  1.00  0.00     0.098 A 
ATOM      4  C   UNL     1      18.996  -2.903  21.187  1.00  0.00     0.142 A 
ATOM      5  C   UNL     1      18.885  -1.534  21.504  1.00  0.00     0.022 A 
ATOM      6  C   UNL     1      17.956  -0.733  20.830  1.00  0.00     0.062 A 
ATOM      7  C   UNL     1      19.719  -1.010  22.497  1.00  0.00     0.019 A 
ATOM      8  C   UNL     1      20.629  -1.849  23.140  1.00  0.00     0.094 A 
ATOM      9  C   UNL     1      20.683  -3.198  22.773  1.00  0.00     0.336 A 
ATOM     10  O   UNL     1      21.497  -3.972  23.341  1.00  0.00    -0.246 OA
ATOM     11  O   UNL     1      19.877  -3.670  21.825  1.00  0.00    -0.423 OA
ENDROOT
BRANCH   1  12
ATOM     12  O   UNL     1      16.185  -0.521  19.135  1.00  0.00    -0.493 OA
ATOM     13  C   UNL     1      16.498   0.369  18.067  1.00  0.00     0.278 C 
ENDBRANCH   1  12
BRANCH   2  14
ATOM     14  O   UNL     1      16.401  -3.176  18.521  1.00  0.00    -0.493 OA
ATOM     15  C   UNL     1      15.890  -4.506  18.510  1.00  0.00     0.278 C 
ENDBRANCH   2  14
TORSDOF 2
ENDMDL
MODEL 3
REMARK VINA RESULT:    -5.610      2.606      4.439
REMARK INTER + INTRA:          -6.378
REMARK INTER:                  -6.255
REMARK INTRA:                  -0.123
REMARK UNBOUND:                -0.112
REMARK SMILES COc1cc2ccc(=O)oc2cc1OC
REMARK SMILES IDX 3 1 13 2 12 3 11 4 5 5 4 6 6 7 7 8 8 9 9 10 10 11 2 12 1 13
REMARK SMILES IDX 14 14 15 15
REMARK H PARENT
REMARK Flexibility Score: inf
ROOT
ATOM      1  C   UNL     1      16.801  -3.678  17.689  1.00  0.00     0.161 A 
ATOM      2  C   UNL     1      16.686  -2.397  18.255  1.00  0.00     0.164 A 
ATOM      3  C   UNL     1      17.766  -1.851  18.977  1.00  0.00     0.098 A 
ATOM      4  C   UNL     1      18.950  -2.577  19.135  1.00  0.00     0.142 A 
ATOM      5  C   UNL     1      19.065  -3.863  18.569  1.00  0.00     0.022 A 
ATOM      6  C   UNL     1      17.996  -4.409  17.849  1.00  0.00     0.062 A 
ATOM      7  C   UNL     1      20.263  -4.563  18.744  1.00  0.00     0.019 A 
ATOM      8  C   UNL     1      21.300  -3.977  19.469  1.00  0.00     0.094 A 
ATOM      9  C   UNL     1      21.113  -2.697  20.003  1.00  0.00     0.336 A 
ATOM     10  O   UNL     1      22.036  -2.150  20.660  1.00  0.00    -0.246 OA
ATOM     11  O   UNL     1      19.964  -2.053  19.820  1.00  0.00    -0.423 OA
ENDROOT
BRANCH   1  12
ATOM     12  O   UNL     1      15.706  -4.190  16.975  1.00  0.00    -0.493 OA
ATOM     13  C   UNL     1      14.951  -5.334  17.364  1.00  0.00     0.278 C 
ENDBRANCH   1  12
BRANCH   2  14
ATOM     14  O   UNL     1      15.483  -1.697  18.076  1.00  0.00    -0.493 OA
ATOM     15  C   UNL     1      14.843  -0.920  19.084  1.00  0.00     0.278 C 
ENDBRANCH   2  14
TORSDOF 2
ENDMDL
MODEL 4
REMARK VINA RESULT:    -5.604      2.755      3.723
REMARK INTER + INTRA:          -6.371
REMARK INTER:                  -6.254
REMARK INTRA:                  -0.117
REMARK UNBOUND:                -0.112
REMARK SMILES COc1cc2ccc(=O)oc2cc1OC
REMARK SMILES IDX 3 1 13 2 12 3 11 4 5 5 4 6 6 7 7 8 8 9 9 10 10 11 2 12 1 13
REMARK SMILES IDX 14 14 15 15
REMARK H PARENT
REMARK Flexibility Score: inf
ROOT
ATOM      1  C   UNL     1      17.066  -2.659  19.569  1.00  0.00     0.161 A 
ATOM      2  C   UNL     1      17.083  -1.284  19.855  1.00  0.00     0.164 A 
ATOM      3  C   UNL     1      18.010  -0.775  20.786  1.00  0.00     0.098 A 
ATOM      4  C   UNL     1      18.911  -1.629  21.427  1.00  0.00     0.142 A 
ATOM      5  C   UNL     1      18.894  -3.009  21.141  1.00  0.00     0.022 A 
ATOM      6  C   UNL     1      17.976  -3.521  20.216  1.00  0.00     0.062 A 
ATOM      7  C   UNL     1      19.808  -3.838  21.799  1.00  0.00     0.019 A 
ATOM      8  C   UNL     1      20.704  -3.281  22.712  1.00  0.00     0.094 A 
ATOM      9  C   UNL     1      20.662  -1.902  22.946  1.00  0.00     0.336 A 
ATOM     10  O   UNL     1      21.462  -1.380  23.766  1.00  0.00    -0.246 OA
ATOM     11  O   UNL     1      19.783  -1.137  22.305  1.00  0.00    -0.423 OA
ENDROOT
BRANCH   1  12
ATOM     12  O   UNL     1      16.130  -3.133  18.636  1.00  0.00    -0.493 OA
ATOM     13  C   UNL     1      15.762  -4.500  18.482  1.00  0.00     0.278 C 
ENDBRANCH   1  12
BRANCH   2  14
ATOM     14  O   UNL     1      16.165  -0.456  19.192  1.00  0.00    -0.493 OA
ATOM     15  C   UNL     1      16.481   0.369  18.074  1.00  0.00     0.278 C 
ENDBRANCH   2  14
TORSDOF 2
ENDMDL
MODEL 5
REMARK VINA RESULT:    -5.579      2.583      5.963
REMARK INTER + INTRA:          -6.343
REMARK INTER:                  -6.198
REMARK INTRA:                  -0.145
REMARK UNBOUND:                -0.112
REMARK SMILES COc1cc2ccc(=O)oc2cc1OC
REMARK SMILES IDX 3 1 13 2 12 3 11 4 5 5 4 6 6 7 7 8 8 9 9 10 10 11 2 12 1 13
REMARK SMILES IDX 14 14 15 15
REMARK H PARENT
REMARK Flexibility Score: inf
ROOT
ATOM      1  C   UNL     1      18.702  -1.777  21.012  1.00  0.00     0.161 A 
ATOM      2  C   UNL     1      19.120  -3.107  21.184  1.00  0.00     0.164 A 
ATOM      3  C   UNL     1      18.497  -4.136  20.451  1.00  0.00     0.098 A 
ATOM      4  C   UNL     1      17.465  -3.842  19.555  1.00  0.00     0.142 A 
ATOM      5  C   UNL     1      17.045  -2.508  19.382  1.00  0.00     0.022 A 
ATOM      6  C   UNL     1      17.662  -1.480  20.108  1.00  0.00     0.062 A 
ATOM      7  C   UNL     1      16.011  -2.246  18.478  1.00  0.00     0.019 A 
ATOM      8  C   UNL     1      15.429  -3.302  17.779  1.00  0.00     0.094 A 
ATOM      9  C   UNL     1      15.897  -4.601  18.002  1.00  0.00     0.336 A 
ATOM     10  O   UNL     1      15.385  -5.569  17.381  1.00  0.00    -0.246 OA
ATOM     11  O   UNL     1      16.883  -4.822  18.867  1.00  0.00    -0.423 OA
ENDROOT
BRANCH   1  12
ATOM     12  O   UNL     1      19.346  -0.776  21.758  1.00  0.00    -0.493 OA
ATOM     13  C   UNL     1      20.231   0.196  21.212  1.00  0.00     0.278 C 
ENDBRANCH   1  12
BRANCH   2  14
ATOM     14  O   UNL     1      20.158  -3.366  22.092  1.00  0.00    -0.493 OA
ATOM     15  C   UNL     1      21.538  -3.434  21.743  1.00  0.00     0.278 C 
ENDBRANCH   2  14
TORSDOF 2
ENDMDL
MODEL 6
REMARK VINA RESULT:    -5.497      3.413      5.010
REMARK INTER + INTRA:          -6.252
REMARK INTER:                  -6.089
REMARK INTRA:                  -0.163
REMARK UNBOUND:                -0.112
REMARK SMILES COc1cc2ccc(=O)oc2cc1OC
REMARK SMILES IDX 3 1 13 2 12 3 11 4 5 5 4 6 6 7 7 8 8 9 9 10 10 11 2 12 1 13
REMARK SMILES IDX 14 14 15 15
REMARK H PARENT
REMARK Flexibility Score: inf
ROOT
ATOM      1  C   UNL     1      17.974  -0.717  20.032  1.00  0.00     0.161 A 
ATOM      2  C   UNL     1      17.797  -0.590  18.644  1.00  0.00     0.164 A 
ATOM      3  C   UNL     1      18.568  -1.378  17.766  1.00  0.00     0.098 A 
ATOM      4  C   UNL     1      19.509  -2.282  18.267  1.00  0.00     0.142 A 
ATOM      5  C   UNL     1      19.687  -2.409  19.660  1.00  0.00     0.022 A 
ATOM      6  C   UNL     1      18.922  -1.630  20.537  1.00  0.00     0.062 A 
ATOM      7  C   UNL     1      20.635  -3.322  20.130  1.00  0.00     0.019 A 
ATOM      8  C   UNL     1      21.372  -4.076  19.217  1.00  0.00     0.094 A 
ATOM      9  C   UNL     1      21.142  -3.896  17.849  1.00  0.00     0.336 A 
ATOM     10  O   UNL     1      21.796  -4.566  17.008  1.00  0.00    -0.246 OA
ATOM     11  O   UNL     1      20.232  -3.020  17.429  1.00  0.00    -0.423 OA
ENDROOT
BRANCH   1  12
ATOM     12  O   UNL     1      17.188   0.082  20.878  1.00  0.00    -0.493 OA
ATOM     13  C   UNL     1      16.021  -0.367  21.560  1.00  0.00     0.278 C 
ENDBRANCH   1  12
BRANCH   2  14
ATOM     14  O   UNL     1      16.844   0.327  18.177  1.00  0.00    -0.493 OA
ATOM     15  C   UNL     1      15.524  -0.017  17.768  1.00  0.00     0.278 C 
ENDBRANCH   2  14
TORSDOF 2
ENDMDL
MODEL 7
REMARK VINA RESULT:    -5.487      1.876      2.754
REMARK INTER + INTRA:          -6.241
REMARK INTER:                  -6.114
REMARK INTRA:                  -0.127
REMARK UNBOUND:                -0.112
REMARK SMILES COc1cc2ccc(=O)oc2cc1OC
REMARK SMILES IDX 3 1 13 2 12 3 11 4 5 5 4 6 6 7 7 8 8 9 9 10 10 11 2 12 1 13
REMARK SMILES IDX 14 14 15 15
REMARK H PARENT
REMARK Flexibility Score: inf
ROOT
ATOM      1  C   UNL     1      20.946  -3.624  18.810  1.00  0.00     0.161 A 
ATOM      2  C   UNL     1      20.167  -2.527  18.407  1.00  0.00     0.164 A 
ATOM      3  C   UNL     1      20.193  -1.337  19.161  1.00  0.00     0.098 A 
ATOM      4  C   UNL     1      20.986  -1.242  20.307  1.00  0.00     0.142 A 
ATOM      5  C   UNL     1      21.767  -2.343  20.713  1.00  0.00     0.022 A 
ATOM      6  C   UNL     1      21.747  -3.528  19.966  1.00  0.00     0.062 A 
ATOM      7  C   UNL     1      22.550  -2.218  21.864  1.00  0.00     0.019 A 
ATOM      8  C   UNL     1      22.537  -1.017  22.574  1.00  0.00     0.094 A 
ATOM      9  C   UNL     1      21.736   0.033  22.112  1.00  0.00     0.336 A 
ATOM     10  O   UNL     1      21.710   1.125  22.737  1.00  0.00    -0.246 OA
ATOM     11  O   UNL     1      21.002  -0.114  21.013  1.00  0.00    -0.423 OA
ENDROOT
BRANCH   1  12
ATOM     12  O   UNL     1      20.898  -4.794  18.034  1.00  0.00    -0.493 OA
ATOM     13  C   UNL     1      21.829  -5.122  17.008  1.00  0.00     0.278 C 
ENDBRANCH   1  12
BRANCH   2  14
ATOM     14  O   UNL     1      19.383  -2.657  17.250  1.00  0.00    -0.493 OA
ATOM     15  C   UNL     1      17.977  -2.886  17.249  1.00  0.00     0.278 C 
ENDBRANCH   2  14
TORSDOF 2
ENDMDL
MODEL 8
REMARK VINA RESULT:    -5.478      2.258      5.328
REMARK INTER + INTRA:          -6.231
REMARK INTER:                  -6.110
REMARK INTRA:                  -0.121
REMARK UNBOUND:                -0.112
REMARK SMILES COc1cc2ccc(=O)oc2cc1OC
REMARK SMILES IDX 3 1 13 2 12 3 11 4 5 5 4 6 6 7 7 8 8 9 9 10 10 11 2 12 1 13
REMARK SMILES IDX 14 14 15 15
REMARK H PARENT
REMARK Flexibility Score: inf
ROOT
ATOM      1  C   UNL     1      20.285  -4.309  18.587  1.00  0.00     0.161 A 
ATOM      2  C   UNL     1      20.383  -3.406  19.658  1.00  0.00     0.164 A 
ATOM      3  C   UNL     1      19.277  -2.602  19.999  1.00  0.00     0.098 A 
ATOM      4  C   UNL     1      18.085  -2.696  19.276  1.00  0.00     0.142 A 
ATOM      5  C   UNL     1      17.986  -3.601  18.200  1.00  0.00     0.022 A 
ATOM      6  C   UNL     1      19.081  -4.404  17.858  1.00  0.00     0.062 A 
ATOM      7  C   UNL     1      16.779  -3.672  17.497  1.00  0.00     0.019 A 
ATOM      8  C   UNL     1      15.717  -2.852  17.876  1.00  0.00     0.094 A 
ATOM      9  C   UNL     1      15.887  -1.977  18.954  1.00  0.00     0.336 A 
ATOM     10  O   UNL     1      14.941  -1.229  19.312  1.00  0.00    -0.246 OA
ATOM     11  O   UNL     1      17.046  -1.931  19.606  1.00  0.00    -0.423 OA
ENDROOT
BRANCH   1  12
ATOM     12  O   UNL     1      21.405  -5.096  18.276  1.00  0.00    -0.493 OA
ATOM     13  C   UNL     1      22.030  -5.144  16.996  1.00  0.00     0.278 C 
ENDBRANCH   1  12
BRANCH   2  14
ATOM     14  O   UNL     1      21.595  -3.339  20.362  1.00  0.00    -0.493 OA
ATOM     15  C   UNL     1      21.704  -3.304  21.782  1.00  0.00     0.278 C 
ENDBRANCH   2  14
TORSDOF 2
ENDMDL
