MODEL 1
REMARK VINA RESULT:    -6.319      0.000      0.000
REMARK INTER + INTRA:          -8.256
REMARK INTER:                  -7.427
REMARK INTRA:                  -0.829
REMARK UNBOUND:                -0.829
REMARK SMILES C=C(C)[C@@H]1CC[C@]2(CO)CC[C@]3(C)[C@@H](CC[C@@H]4[C@]5(C)CC[C@@H](O)C(C)(C)[C@H]5CC[C@]43C)[C@H]12
REMARK SMILES IDX 4 1 5 2 6 3 7 4 32 5 14 6 15 7 16 8 17 9 18 10 20 11 21 12
REMARK SMILES IDX 22 13 24 14 27 15 28 16 29 17 30 18 12 19 11 20 10 21 13 22
REMARK SMILES IDX 31 23 25 24 26 25 19 26 2 27 3 28 1 29 8 30 9 31 23 33
REMARK H PARENT 9 32 23 34
REMARK Flexibility Score: inf
ROOT
ATOM      1  C   UNL     1     -13.646  82.428  -8.990  1.00  0.00     0.018 C 
ATOM      2  C   UNL     1     -14.830  81.740  -8.304  1.00  0.00     0.009 C 
ATOM      3  C   UNL     1     -14.487  81.635  -6.819  1.00  0.00     0.010 C 
ATOM      4  C   UNL     1     -12.952  81.829  -6.669  1.00  0.00    -0.003 C 
ATOM      5  C   UNL     1     -12.429  82.023  -8.116  1.00  0.00     0.008 C 
ATOM      6  C   UNL     1     -11.065  82.801  -8.332  1.00  0.00    -0.000 C 
ATOM      7  C   UNL     1      -9.988  81.821  -8.897  1.00  0.00     0.005 C 
ATOM      8  C   UNL     1      -8.647  82.478  -9.302  1.00  0.00     0.005 C 
ATOM      9  C   UNL     1      -8.375  83.817  -8.572  1.00  0.00     0.002 C 
ATOM     10  C   UNL     1      -6.933  84.507  -8.777  1.00  0.00    -0.026 C 
ATOM     11  C   UNL     1      -6.071  83.890  -9.939  1.00  0.00     0.010 C 
ATOM     12  C   UNL     1      -5.039  82.862  -9.466  1.00  0.00     0.033 C 
ATOM     13  C   UNL     1      -3.983  83.478  -8.509  1.00  0.00     0.120 C 
ATOM     14  C   UNL     1      -4.556  84.599  -7.545  1.00  0.00    -0.006 C 
ATOM     15  C   UNL     1      -6.123  84.423  -7.431  1.00  0.00     0.003 C 
ATOM     16  C   UNL     1      -6.833  85.150  -6.263  1.00  0.00     0.005 C 
ATOM     17  C   UNL     1      -8.377  84.991  -6.275  1.00  0.00     0.008 C 
ATOM     18  C   UNL     1      -8.926  83.756  -7.081  1.00  0.00    -0.024 C 
ATOM     19  C   UNL     1     -10.548  83.761  -7.149  1.00  0.00    -0.024 C 
ATOM     20  C   UNL     1     -11.174  83.408  -5.749  1.00  0.00     0.008 C 
ATOM     21  C   UNL     1     -12.665  83.081  -5.811  1.00  0.00     0.010 C 
ATOM     22  C   UNL     1     -11.081  85.204  -7.469  1.00  0.00     0.012 C 
ATOM     23  C   UNL     1      -8.412  82.453  -6.343  1.00  0.00     0.012 C 
ATOM     24  C   UNL     1      -4.142  86.017  -8.023  1.00  0.00     0.014 C 
ATOM     25  C   UNL     1      -3.908  84.398  -6.149  1.00  0.00     0.014 C 
ATOM     26  C   UNL     1      -7.200  85.994  -9.198  1.00  0.00     0.012 C 
ENDROOT
BRANCH   1  27
ATOM     27  C   UNL     1     -13.873  83.926  -9.240  1.00  0.00    -0.077 C 
ATOM     28  C   UNL     1     -14.660  84.818  -8.304  1.00  0.00     0.039 C 
ATOM     29  C   UNL     1     -13.493  84.458 -10.416  1.00  0.00     0.008 C 
ENDBRANCH   1  27
BRANCH   4  30
ATOM     30  C   UNL     1     -12.333  80.546  -6.031  1.00  0.00     0.163 C 
BRANCH  30  31
ATOM     31  O   UNL     1     -11.996  79.599  -7.012  1.00  0.00    -0.396 OA
ATOM     32  H   UNL     1     -11.075  79.812  -7.316  1.00  0.00     0.210 HD
ENDBRANCH  30  31
ENDBRANCH   4  30
BRANCH  13  33
ATOM     33  O   UNL     1      -2.887  83.960  -9.250  1.00  0.00    -0.393 OA
ATOM     34  H   UNL     1      -2.334  83.174  -9.503  1.00  0.00     0.210 HD
ENDBRANCH  13  33
TORSDOF 4
ENDMDL
MODEL 2
REMARK VINA RESULT:    -6.002      8.077     12.095
REMARK INTER + INTRA:          -7.884
REMARK INTER:                  -7.152
REMARK INTRA:                  -0.732
REMARK UNBOUND:                -0.829
REMARK SMILES C=C(C)[C@@H]1CC[C@]2(CO)CC[C@]3(C)[C@@H](CC[C@@H]4[C@]5(C)CC[C@@H](O)C(C)(C)[C@H]5CC[C@]43C)[C@H]12
REMARK SMILES IDX 4 1 5 2 6 3 7 4 32 5 14 6 15 7 16 8 17 9 18 10 20 11 21 12
REMARK SMILES IDX 22 13 24 14 27 15 28 16 29 17 30 18 12 19 11 20 10 21 13 22
REMARK SMILES IDX 31 23 25 24 26 25 19 26 2 27 3 28 1 29 8 30 9 31 23 33
REMARK H PARENT 9 32 23 34
REMARK Flexibility Score: inf
ROOT
ATOM      1  C   UNL     1      -5.072  94.370 -16.602  1.00  0.00     0.018 C 
ATOM      2  C   UNL     1      -4.566  94.408 -18.047  1.00  0.00     0.009 C 
ATOM      3  C   UNL     1      -4.452  92.959 -18.519  1.00  0.00     0.010 C 
ATOM      4  C   UNL     1      -4.442  92.046 -17.260  1.00  0.00    -0.003 C 
ATOM      5  C   UNL     1      -4.528  93.022 -16.058  1.00  0.00     0.008 C 
ATOM      6  C   UNL     1      -5.111  92.484 -14.685  1.00  0.00    -0.000 C 
ATOM      7  C   UNL     1      -3.982  92.474 -13.606  1.00  0.00     0.005 C 
ATOM      8  C   UNL     1      -4.443  92.117 -12.173  1.00  0.00     0.005 C 
ATOM      9  C   UNL     1      -5.751  91.287 -12.139  1.00  0.00     0.002 C 
ATOM     10  C   UNL     1      -6.236  90.705 -10.717  1.00  0.00    -0.026 C 
ATOM     11  C   UNL     1      -5.481  91.301  -9.472  1.00  0.00     0.010 C 
ATOM     12  C   UNL     1      -4.336  90.421  -8.962  1.00  0.00     0.033 C 
ATOM     13  C   UNL     1      -4.828  89.034  -8.467  1.00  0.00     0.120 C 
ATOM     14  C   UNL     1      -6.038  88.440  -9.300  1.00  0.00    -0.006 C 
ATOM     15  C   UNL     1      -6.077  89.139 -10.717  1.00  0.00     0.003 C 
ATOM     16  C   UNL     1      -6.921  88.456 -11.820  1.00  0.00     0.005 C 
ATOM     17  C   UNL     1      -6.970  89.252 -13.152  1.00  0.00     0.008 C 
ATOM     18  C   UNL     1      -5.801  90.282 -13.371  1.00  0.00    -0.024 C 
ATOM     19  C   UNL     1      -6.021  91.158 -14.720  1.00  0.00    -0.024 C 
ATOM     20  C   UNL     1      -5.790  90.283 -16.007  1.00  0.00     0.008 C 
ATOM     21  C   UNL     1      -5.665  91.103 -17.289  1.00  0.00     0.010 C 
ATOM     22  C   UNL     1      -7.515  91.634 -14.827  1.00  0.00     0.012 C 
ATOM     23  C   UNL     1      -4.459  89.448 -13.472  1.00  0.00     0.012 C 
ATOM     24  C   UNL     1      -7.376  88.576  -8.523  1.00  0.00     0.014 C 
ATOM     25  C   UNL     1      -5.786  86.918  -9.479  1.00  0.00     0.014 C 
ATOM     26  C   UNL     1      -7.735  91.132 -10.541  1.00  0.00     0.012 C 
ENDROOT
BRANCH   1  27
ATOM     27  C   UNL     1      -6.580  94.629 -16.478  1.00  0.00    -0.077 C 
ATOM     28  C   UNL     1      -7.589  94.208 -17.526  1.00  0.00     0.039 C 
ATOM     29  C   UNL     1      -7.030  95.400 -15.471  1.00  0.00     0.008 C 
ENDBRANCH   1  27
BRANCH   4  30
ATOM     30  C   UNL     1      -3.103  91.245 -17.219  1.00  0.00     0.163 C 
BRANCH  30  31
ATOM     31  O   UNL     1      -2.969  90.416 -18.345  1.00  0.00    -0.396 OA
ATOM     32  H   UNL     1      -3.703  89.749 -18.304  1.00  0.00     0.210 HD
ENDBRANCH  30  31
ENDBRANCH   4  30
BRANCH  13  33
ATOM     33  O   UNL     1      -5.140  89.098  -7.096  1.00  0.00    -0.393 OA
ATOM     34  H   UNL     1      -5.345  90.047  -6.884  1.00  0.00     0.210 HD
ENDBRANCH  13  33
TORSDOF 4
ENDMDL
MODEL 3
REMARK VINA RESULT:    -5.787      1.688      7.903
REMARK INTER + INTRA:          -7.631
REMARK INTER:                  -6.793
REMARK INTRA:                  -0.837
REMARK UNBOUND:                -0.829
REMARK SMILES C=C(C)[C@@H]1CC[C@]2(CO)CC[C@]3(C)[C@@H](CC[C@@H]4[C@]5(C)CC[C@@H](O)C(C)(C)[C@H]5CC[C@]43C)[C@H]12
REMARK SMILES IDX 4 1 5 2 6 3 7 4 32 5 14 6 15 7 16 8 17 9 18 10 20 11 21 12
REMARK SMILES IDX 22 13 24 14 27 15 28 16 29 17 30 18 12 19 11 20 10 21 13 22
REMARK SMILES IDX 31 23 25 24 26 25 19 26 2 27 3 28 1 29 8 30 9 31 23 33
REMARK H PARENT 9 32 23 34
REMARK Flexibility Score: inf
ROOT
ATOM      1  C   UNL     1      -3.889  84.572  -8.614  1.00  0.00     0.018 C 
ATOM      2  C   UNL     1      -2.878  85.706  -8.428  1.00  0.00     0.009 C 
ATOM      3  C   UNL     1      -3.491  86.693  -7.435  1.00  0.00     0.010 C 
ATOM      4  C   UNL     1      -5.020  86.415  -7.368  1.00  0.00    -0.003 C 
ATOM      5  C   UNL     1      -5.261  85.257  -8.372  1.00  0.00     0.008 C 
ATOM      6  C   UNL     1      -6.531  84.331  -8.172  1.00  0.00    -0.000 C 
ATOM      7  C   UNL     1      -7.523  84.539  -9.361  1.00  0.00     0.005 C 
ATOM      8  C   UNL     1      -8.740  83.585  -9.377  1.00  0.00     0.005 C 
ATOM      9  C   UNL     1      -9.091  83.014  -7.981  1.00  0.00     0.002 C 
ATOM     10  C   UNL     1     -10.443  82.149  -7.839  1.00  0.00    -0.026 C 
ATOM     11  C   UNL     1     -11.100  81.732  -9.206  1.00  0.00     0.010 C 
ATOM     12  C   UNL     1     -12.240  82.652  -9.653  1.00  0.00     0.033 C 
ATOM     13  C   UNL     1     -13.429  82.651  -8.654  1.00  0.00     0.120 C 
ATOM     14  C   UNL     1     -13.001  82.520  -7.134  1.00  0.00    -0.006 C 
ATOM     15  C   UNL     1     -11.490  82.959  -6.988  1.00  0.00     0.003 C 
ATOM     16  C   UNL     1     -10.978  83.275  -5.562  1.00  0.00     0.005 C 
ATOM     17  C   UNL     1      -9.466  83.618  -5.501  1.00  0.00     0.008 C 
ATOM     18  C   UNL     1      -8.825  84.104  -6.853  1.00  0.00    -0.024 C 
ATOM     19  C   UNL     1      -7.220  84.299  -6.718  1.00  0.00    -0.024 C 
ATOM     20  C   UNL     1      -6.875  85.561  -5.843  1.00  0.00     0.008 C 
ATOM     21  C   UNL     1      -5.412  85.989  -5.937  1.00  0.00     0.010 C 
ATOM     22  C   UNL     1      -6.583  83.091  -5.939  1.00  0.00     0.012 C 
ATOM     23  C   UNL     1      -9.515  85.479  -7.227  1.00  0.00     0.012 C 
ATOM     24  C   UNL     1     -13.267  81.087  -6.596  1.00  0.00     0.014 C 
ATOM     25  C   UNL     1     -13.901  83.475  -6.305  1.00  0.00     0.014 C 
ATOM     26  C   UNL     1     -10.048  80.803  -7.137  1.00  0.00     0.012 C 
ENDROOT
BRANCH   1  27
ATOM     27  C   UNL     1      -3.564  83.322  -7.783  1.00  0.00    -0.077 C 
ATOM     28  C   UNL     1      -2.877  83.373  -6.434  1.00  0.00     0.039 C 
ATOM     29  C   UNL     1      -3.751  82.107  -8.328  1.00  0.00     0.008 C 
ENDBRANCH   1  27
BRANCH   4  30
ATOM     30  C   UNL     1      -5.793  87.695  -7.815  1.00  0.00     0.163 C 
BRANCH  30  31
ATOM     31  O   UNL     1      -5.900  87.766  -9.213  1.00  0.00    -0.396 OA
ATOM     32  H   UNL     1      -6.488  87.019  -9.498  1.00  0.00     0.210 HD
ENDBRANCH  30  31
ENDBRANCH   4  30
BRANCH  13  33
ATOM     33  O   UNL     1     -14.352  81.648  -9.008  1.00  0.00    -0.393 OA
ATOM     34  H   UNL     1     -13.846  80.938  -9.485  1.00  0.00     0.210 HD
ENDBRANCH  13  33
TORSDOF 4
ENDMDL
MODEL 4
REMARK VINA RESULT:    -5.656      1.394      7.909
REMARK INTER + INTRA:          -7.478
REMARK INTER:                  -6.754
REMARK INTRA:                  -0.724
REMARK UNBOUND:                -0.829
REMARK SMILES C=C(C)[C@@H]1CC[C@]2(CO)CC[C@]3(C)[C@@H](CC[C@@H]4[C@]5(C)CC[C@@H](O)C(C)(C)[C@H]5CC[C@]43C)[C@H]12
REMARK SMILES IDX 4 1 5 2 6 3 7 4 32 5 14 6 15 7 16 8 17 9 18 10 20 11 21 12
REMARK SMILES IDX 22 13 24 14 27 15 28 16 29 17 30 18 12 19 11 20 10 21 13 22
REMARK SMILES IDX 31 23 25 24 26 25 19 26 2 27 3 28 1 29 8 30 9 31 23 33
REMARK H PARENT 9 32 23 34
REMARK Flexibility Score: inf
ROOT
ATOM      1  C   UNL     1      -4.324  85.727  -6.298  1.00  0.00     0.018 C 
ATOM      2  C   UNL     1      -2.958  85.901  -6.966  1.00  0.00     0.009 C 
ATOM      3  C   UNL     1      -3.162  85.684  -8.464  1.00  0.00     0.010 C 
ATOM      4  C   UNL     1      -4.516  84.943  -8.659  1.00  0.00    -0.003 C 
ATOM      5  C   UNL     1      -5.062  84.724  -7.224  1.00  0.00     0.008 C 
ATOM      6  C   UNL     1      -6.624  84.539  -7.027  1.00  0.00    -0.000 C 
ATOM      7  C   UNL     1      -6.920  83.087  -6.531  1.00  0.00     0.005 C 
ATOM      8  C   UNL     1      -8.393  82.809  -6.149  1.00  0.00     0.005 C 
ATOM      9  C   UNL     1      -9.397  83.763  -6.843  1.00  0.00     0.002 C 
ATOM     10  C   UNL     1     -10.970  83.461  -6.662  1.00  0.00    -0.026 C 
ATOM     11  C   UNL     1     -11.310  82.402  -5.550  1.00  0.00     0.010 C 
ATOM     12  C   UNL     1     -11.534  80.987  -6.091  1.00  0.00     0.033 C 
ATOM     13  C   UNL     1     -12.743  80.907  -7.062  1.00  0.00     0.120 C 
ATOM     14  C   UNL     1     -12.935  82.193  -7.968  1.00  0.00    -0.006 C 
ATOM     15  C   UNL     1     -11.566  82.979  -8.037  1.00  0.00     0.003 C 
ATOM     16  C   UNL     1     -11.412  84.038  -9.155  1.00  0.00     0.005 C 
ATOM     17  C   UNL     1     -10.072  84.818  -9.098  1.00  0.00     0.008 C 
ATOM     18  C   UNL     1      -8.906  84.108  -8.316  1.00  0.00    -0.024 C 
ATOM     19  C   UNL     1      -7.599  85.064  -8.195  1.00  0.00    -0.024 C 
ATOM     20  C   UNL     1      -6.876  85.212  -9.584  1.00  0.00     0.008 C 
ATOM     21  C   UNL     1      -5.480  85.824  -9.484  1.00  0.00     0.010 C 
ATOM     22  C   UNL     1      -8.023  86.527  -7.809  1.00  0.00     0.012 C 
ATOM     23  C   UNL     1      -8.547  82.788  -9.113  1.00  0.00     0.012 C 
ATOM     24  C   UNL     1     -14.110  83.071  -7.457  1.00  0.00     0.014 C 
ATOM     25  C   UNL     1     -13.330  81.714  -9.391  1.00  0.00     0.014 C 
ATOM     26  C   UNL     1     -11.635  84.799  -6.183  1.00  0.00     0.012 C 
ENDROOT
BRANCH   1  27
ATOM     27  C   UNL     1      -5.027  87.058  -5.990  1.00  0.00    -0.077 C 
ATOM     28  C   UNL     1      -4.794  88.327  -6.784  1.00  0.00     0.039 C 
ATOM     29  C   UNL     1      -5.771  87.163  -4.875  1.00  0.00     0.008 C 
ENDBRANCH   1  27
BRANCH   4  30
ATOM     30  C   UNL     1      -4.254  83.573  -9.359  1.00  0.00     0.163 C 
BRANCH  30  31
ATOM     31  O   UNL     1      -2.882  83.276  -9.406  1.00  0.00    -0.396 OA
ATOM     32  H   UNL     1      -2.801  82.302  -9.583  1.00  0.00     0.210 HD
ENDBRANCH  30  31
ENDBRANCH   4  30
BRANCH  13  33
ATOM     33  O   UNL     1     -13.918  80.616  -6.342  1.00  0.00    -0.393 OA
ATOM     34  H   UNL     1     -13.650  80.436  -5.402  1.00  0.00     0.210 HD
ENDBRANCH  13  33
TORSDOF 4
ENDMDL
MODEL 5
REMARK VINA RESULT:    -5.600      1.876      3.905
REMARK INTER + INTRA:          -7.411
REMARK INTER:                  -6.825
REMARK INTRA:                  -0.586
REMARK UNBOUND:                -0.829
REMARK SMILES C=C(C)[C@@H]1CC[C@]2(CO)CC[C@]3(C)[C@@H](CC[C@@H]4[C@]5(C)CC[C@@H](O)C(C)(C)[C@H]5CC[C@]43C)[C@H]12
REMARK SMILES IDX 4 1 5 2 6 3 7 4 32 5 14 6 15 7 16 8 17 9 18 10 20 11 21 12
REMARK SMILES IDX 22 13 24 14 27 15 28 16 29 17 30 18 12 19 11 20 10 21 13 22
REMARK SMILES IDX 31 23 25 24 26 25 19 26 2 27 3 28 1 29 8 30 9 31 23 33
REMARK H PARENT 9 32 23 34
REMARK Flexibility Score: inf
ROOT
ATOM      1  C   UNL     1     -13.364  80.983  -5.859  1.00  0.00     0.018 C 
ATOM      2  C   UNL     1     -14.782  80.598  -6.287  1.00  0.00     0.009 C 
ATOM      3  C   UNL     1     -14.922  80.977  -7.761  1.00  0.00     0.010 C 
ATOM      4  C   UNL     1     -13.789  81.984  -8.104  1.00  0.00    -0.003 C 
ATOM      5  C   UNL     1     -13.016  82.186  -6.775  1.00  0.00     0.008 C 
ATOM      6  C   UNL     1     -11.505  82.660  -6.840  1.00  0.00    -0.000 C 
ATOM      7  C   UNL     1     -11.380  84.095  -6.234  1.00  0.00     0.005 C 
ATOM      8  C   UNL     1      -9.934  84.626  -6.092  1.00  0.00     0.005 C 
ATOM      9  C   UNL     1      -8.934  83.952  -7.064  1.00  0.00     0.002 C 
ATOM     10  C   UNL     1      -7.437  84.543  -7.134  1.00  0.00    -0.026 C 
ATOM     11  C   UNL     1      -7.077  85.552  -5.982  1.00  0.00     0.010 C 
ATOM     12  C   UNL     1      -7.220  87.024  -6.379  1.00  0.00     0.033 C 
ATOM     13  C   UNL     1      -6.263  87.422  -7.535  1.00  0.00     0.120 C 
ATOM     14  C   UNL     1      -6.029  86.280  -8.609  1.00  0.00    -0.006 C 
ATOM     15  C   UNL     1      -7.222  85.247  -8.524  1.00  0.00     0.003 C 
ATOM     16  C   UNL     1      -7.403  84.276  -9.717  1.00  0.00     0.005 C 
ATOM     17  C   UNL     1      -8.544  83.244  -9.514  1.00  0.00     0.008 C 
ATOM     18  C   UNL     1      -9.639  83.641  -8.456  1.00  0.00    -0.024 C 
ATOM     19  C   UNL     1     -10.703  82.439  -8.218  1.00  0.00    -0.024 C 
ATOM     20  C   UNL     1     -11.650  82.267  -9.463  1.00  0.00     0.008 C 
ATOM     21  C   UNL     1     -12.867  81.385  -9.188  1.00  0.00     0.010 C 
ATOM     22  C   UNL     1      -9.957  81.061  -8.094  1.00  0.00     0.012 C 
ATOM     23  C   UNL     1     -10.379  84.926  -9.011  1.00  0.00     0.012 C 
ATOM     24  C   UNL     1      -4.639  85.613  -8.426  1.00  0.00     0.014 C 
ATOM     25  C   UNL     1      -6.017  86.946 -10.011  1.00  0.00     0.014 C 
ATOM     26  C   UNL     1      -6.462  83.328  -6.946  1.00  0.00     0.012 C 
ENDROOT
BRANCH   1  27
ATOM     27  C   UNL     1     -12.388  79.796  -5.845  1.00  0.00    -0.077 C 
ATOM     28  C   UNL     1     -12.527  78.591  -6.751  1.00  0.00     0.039 C 
ATOM     29  C   UNL     1     -11.448  79.734  -4.885  1.00  0.00     0.008 C 
ENDBRANCH   1  27
BRANCH   4  30
ATOM     30  C   UNL     1     -14.425  83.330  -8.577  1.00  0.00     0.163 C 
BRANCH  30  31
ATOM     31  O   UNL     1     -14.624  83.341  -9.967  1.00  0.00    -0.396 OA
ATOM     32  H   UNL     1     -13.800  83.713 -10.376  1.00  0.00     0.210 HD
ENDBRANCH  30  31
ENDBRANCH   4  30
BRANCH  13  33
ATOM     33  O   UNL     1      -5.040  87.879  -7.007  1.00  0.00    -0.393 OA
ATOM     34  H   UNL     1      -4.324  87.293  -7.371  1.00  0.00     0.210 HD
ENDBRANCH  13  33
TORSDOF 4
ENDMDL
MODEL 6
REMARK VINA RESULT:    -5.575      5.335      8.069
REMARK INTER + INTRA:          -7.382
REMARK INTER:                  -6.542
REMARK INTRA:                  -0.839
REMARK UNBOUND:                -0.829
REMARK SMILES C=C(C)[C@@H]1CC[C@]2(CO)CC[C@]3(C)[C@@H](CC[C@@H]4[C@]5(C)CC[C@@H](O)C(C)(C)[C@H]5CC[C@]43C)[C@H]12
REMARK SMILES IDX 4 1 5 2 6 3 7 4 32 5 14 6 15 7 16 8 17 9 18 10 20 11 21 12
REMARK SMILES IDX 22 13 24 14 27 15 28 16 29 17 30 18 12 19 11 20 10 21 13 22
REMARK SMILES IDX 31 23 25 24 26 25 19 26 2 27 3 28 1 29 8 30 9 31 23 33
REMARK H PARENT 9 32 23 34
REMARK Flexibility Score: inf
ROOT
ATOM      1  C   UNL     1      -8.322  85.495  -9.372  1.00  0.00     0.018 C 
ATOM      2  C   UNL     1      -8.004  84.095  -8.838  1.00  0.00     0.009 C 
ATOM      3  C   UNL     1      -6.797  84.234  -7.913  1.00  0.00     0.010 C 
ATOM      4  C   UNL     1      -6.107  85.592  -8.228  1.00  0.00    -0.003 C 
ATOM      5  C   UNL     1      -6.944  86.209  -9.378  1.00  0.00     0.008 C 
ATOM      6  C   UNL     1      -6.921  87.782  -9.574  1.00  0.00    -0.000 C 
ATOM      7  C   UNL     1      -6.227  88.129 -10.929  1.00  0.00     0.005 C 
ATOM      8  C   UNL     1      -6.269  89.624 -11.327  1.00  0.00     0.005 C 
ATOM      9  C   UNL     1      -6.446  90.575 -10.117  1.00  0.00     0.002 C 
ATOM     10  C   UNL     1      -6.328  92.160 -10.382  1.00  0.00    -0.026 C 
ATOM     11  C   UNL     1      -6.343  92.573 -11.900  1.00  0.00     0.010 C 
ATOM     12  C   UNL     1      -4.950  92.801 -12.494  1.00  0.00     0.033 C 
ATOM     13  C   UNL     1      -4.192  93.965 -11.800  1.00  0.00     0.120 C 
ATOM     14  C   UNL     1      -4.473  94.088 -10.245  1.00  0.00    -0.006 C 
ATOM     15  C   UNL     1      -5.011  92.701  -9.711  1.00  0.00     0.003 C 
ATOM     16  C   UNL     1      -4.988  92.474  -8.180  1.00  0.00     0.005 C 
ATOM     17  C   UNL     1      -5.609  91.123  -7.739  1.00  0.00     0.008 C 
ATOM     18  C   UNL     1      -5.671  90.009  -8.848  1.00  0.00    -0.024 C 
ATOM     19  C   UNL     1      -6.462  88.690  -8.328  1.00  0.00    -0.024 C 
ATOM     20  C   UNL     1      -5.609  87.900  -7.269  1.00  0.00     0.008 C 
ATOM     21  C   UNL     1      -6.141  86.498  -6.978  1.00  0.00     0.010 C 
ATOM     22  C   UNL     1      -7.769  89.102  -7.559  1.00  0.00     0.012 C 
ATOM     23  C   UNL     1      -4.177  89.640  -9.221  1.00  0.00     0.012 C 
ATOM     24  C   UNL     1      -5.436  95.267  -9.939  1.00  0.00     0.014 C 
ATOM     25  C   UNL     1      -3.128  94.426  -9.547  1.00  0.00     0.014 C 
ATOM     26  C   UNL     1      -7.607  92.820  -9.756  1.00  0.00     0.012 C 
ENDROOT
BRANCH   1  27
ATOM     27  C   UNL     1      -9.475  86.184  -8.626  1.00  0.00    -0.077 C 
ATOM     28  C   UNL     1      -9.782  85.947  -7.163  1.00  0.00     0.039 C 
ATOM     29  C   UNL     1     -10.359  86.918  -9.325  1.00  0.00     0.008 C 
ENDBRANCH   1  27
BRANCH   4  30
ATOM     30  C   UNL     1      -4.643  85.326  -8.700  1.00  0.00     0.163 C 
BRANCH  30  31
ATOM     31  O   UNL     1      -4.588  85.082 -10.082  1.00  0.00    -0.396 OA
ATOM     32  H   UNL     1      -5.519  84.926 -10.387  1.00  0.00     0.210 HD
ENDBRANCH  30  31
ENDBRANCH   4  30
BRANCH  13  33
ATOM     33  O   UNL     1      -4.466  95.177 -12.461  1.00  0.00    -0.393 OA
ATOM     34  H   UNL     1      -3.611  95.679 -12.523  1.00  0.00     0.210 HD
ENDBRANCH  13  33
TORSDOF 4
ENDMDL
MODEL 7
REMARK VINA RESULT:    -5.567      6.500     10.494
REMARK INTER + INTRA:          -7.372
REMARK INTER:                  -6.534
REMARK INTRA:                  -0.838
REMARK UNBOUND:                -0.829
REMARK SMILES C=C(C)[C@@H]1CC[C@]2(CO)CC[C@]3(C)[C@@H](CC[C@@H]4[C@]5(C)CC[C@@H](O)C(C)(C)[C@H]5CC[C@]43C)[C@H]12
REMARK SMILES IDX 4 1 5 2 6 3 7 4 32 5 14 6 15 7 16 8 17 9 18 10 20 11 21 12
REMARK SMILES IDX 22 13 24 14 27 15 28 16 29 17 30 18 12 19 11 20 10 21 13 22
REMARK SMILES IDX 31 23 25 24 26 25 19 26 2 27 3 28 1 29 8 30 9 31 23 33
REMARK H PARENT 9 32 23 34
REMARK Flexibility Score: inf
ROOT
ATOM      1  C   UNL     1      -5.789  95.368  -7.164  1.00  0.00     0.018 C 
ATOM      2  C   UNL     1      -5.919  96.687  -7.932  1.00  0.00     0.009 C 
ATOM      3  C   UNL     1      -6.318  96.333  -9.363  1.00  0.00     0.010 C 
ATOM      4  C   UNL     1      -5.993  94.830  -9.592  1.00  0.00    -0.003 C 
ATOM      5  C   UNL     1      -5.373  94.346  -8.256  1.00  0.00     0.008 C 
ATOM      6  C   UNL     1      -5.448  92.803  -7.899  1.00  0.00    -0.000 C 
ATOM      7  C   UNL     1      -4.008  92.197  -7.895  1.00  0.00     0.005 C 
ATOM      8  C   UNL     1      -3.913  90.730  -7.412  1.00  0.00     0.005 C 
ATOM      9  C   UNL     1      -5.238  89.945  -7.573  1.00  0.00     0.002 C 
ATOM     10  C   UNL     1      -5.216  88.362  -7.270  1.00  0.00    -0.026 C 
ATOM     11  C   UNL     1      -3.912  87.850  -6.553  1.00  0.00     0.010 C 
ATOM     12  C   UNL     1      -2.875  87.251  -7.508  1.00  0.00     0.033 C 
ATOM     13  C   UNL     1      -3.408  85.995  -8.251  1.00  0.00     0.120 C 
ATOM     14  C   UNL     1      -4.948  86.062  -8.617  1.00  0.00    -0.006 C 
ATOM     15  C   UNL     1      -5.409  87.574  -8.618  1.00  0.00     0.003 C 
ATOM     16  C   UNL     1      -6.753  87.904  -9.312  1.00  0.00     0.005 C 
ATOM     17  C   UNL     1      -7.167  89.394  -9.195  1.00  0.00     0.008 C 
ATOM     18  C   UNL     1      -5.998  90.403  -8.893  1.00  0.00    -0.024 C 
ATOM     19  C   UNL     1      -6.554  91.908  -8.650  1.00  0.00    -0.024 C 
ATOM     20  C   UNL     1      -7.057  92.549  -9.996  1.00  0.00     0.008 C 
ATOM     21  C   UNL     1      -7.292  94.056  -9.906  1.00  0.00     0.010 C 
ATOM     22  C   UNL     1      -7.824  91.882  -7.724  1.00  0.00     0.012 C 
ATOM     23  C   UNL     1      -5.024  90.373 -10.141  1.00  0.00     0.012 C 
ATOM     24  C   UNL     1      -5.792  85.175  -7.662  1.00  0.00     0.014 C 
ATOM     25  C   UNL     1      -5.121  85.465 -10.040  1.00  0.00     0.014 C 
ATOM     26  C   UNL     1      -6.385  88.078  -6.263  1.00  0.00     0.012 C 
ENDROOT
BRANCH   1  27
ATOM     27  C   UNL     1      -7.024  95.035  -6.313  1.00  0.00    -0.077 C 
ATOM     28  C   UNL     1      -8.434  95.432  -6.697  1.00  0.00     0.039 C 
ATOM     29  C   UNL     1      -6.851  94.499  -5.092  1.00  0.00     0.008 C 
ENDBRANCH   1  27
BRANCH   4  30
ATOM     30  C   UNL     1      -4.958  94.701 -10.754  1.00  0.00     0.163 C 
BRANCH  30  31
ATOM     31  O   UNL     1      -3.644  94.872 -10.288  1.00  0.00    -0.396 OA
ATOM     32  H   UNL     1      -3.500  95.847 -10.176  1.00  0.00     0.210 HD
ENDBRANCH  30  31
ENDBRANCH   4  30
BRANCH  13  33
ATOM     33  O   UNL     1      -3.114  84.837  -7.505  1.00  0.00    -0.393 OA
ATOM     34  H   UNL     1      -3.684  84.858  -6.691  1.00  0.00     0.210 HD
ENDBRANCH  13  33
TORSDOF 4
ENDMDL
MODEL 8
REMARK VINA RESULT:    -5.538      5.549      9.112
REMARK INTER + INTRA:          -7.339
REMARK INTER:                  -6.543
REMARK INTRA:                  -0.796
REMARK UNBOUND:                -0.829
REMARK SMILES C=C(C)[C@@H]1CC[C@]2(CO)CC[C@]3(C)[C@@H](CC[C@@H]4[C@]5(C)CC[C@@H](O)C(C)(C)[C@H]5CC[C@]43C)[C@H]12
REMARK SMILES IDX 4 1 5 2 6 3 7 4 32 5 14 6 15 7 16 8 17 9 18 10 20 11 21 12
REMARK SMILES IDX 22 13 24 14 27 15 28 16 29 17 30 18 12 19 11 20 10 21 13 22
REMARK SMILES IDX 31 23 25 24 26 25 19 26 2 27 3 28 1 29 8 30 9 31 23 33
REMARK H PARENT 9 32 23 34
REMARK Flexibility Score: inf
ROOT
ATOM      1  C   UNL     1      -4.971  86.814  -6.980  1.00  0.00     0.018 C 
ATOM      2  C   UNL     1      -5.653  86.292  -5.712  1.00  0.00     0.009 C 
ATOM      3  C   UNL     1      -7.155  86.507  -5.891  1.00  0.00     0.010 C 
ATOM      4  C   UNL     1      -7.356  87.549  -7.028  1.00  0.00    -0.003 C 
ATOM      5  C   UNL     1      -5.922  87.938  -7.472  1.00  0.00     0.008 C 
ATOM      6  C   UNL     1      -5.709  88.505  -8.937  1.00  0.00    -0.000 C 
ATOM      7  C   UNL     1      -5.260  89.999  -8.860  1.00  0.00     0.005 C 
ATOM      8  C   UNL     1      -4.866  90.639 -10.212  1.00  0.00     0.005 C 
ATOM      9  C   UNL     1      -5.512  89.938 -11.433  1.00  0.00     0.002 C 
ATOM     10  C   UNL     1      -5.320  90.620 -12.881  1.00  0.00    -0.026 C 
ATOM     11  C   UNL     1      -4.241  91.763 -12.928  1.00  0.00     0.010 C 
ATOM     12  C   UNL     1      -4.828  93.174 -12.814  1.00  0.00     0.033 C 
ATOM     13  C   UNL     1      -5.784  93.516 -13.989  1.00  0.00     0.120 C 
ATOM     14  C   UNL     1      -6.641  92.288 -14.507  1.00  0.00    -0.006 C 
ATOM     15  C   UNL     1      -6.702  91.190 -13.372  1.00  0.00     0.003 C 
ATOM     16  C   UNL     1      -7.784  90.092 -13.506  1.00  0.00     0.005 C 
ATOM     17  C   UNL     1      -7.719  89.012 -12.395  1.00  0.00     0.008 C 
ATOM     18  C   UNL     1      -6.979  89.439 -11.074  1.00  0.00    -0.024 C 
ATOM     19  C   UNL     1      -6.843  88.198 -10.037  1.00  0.00    -0.024 C 
ATOM     20  C   UNL     1      -8.236  87.835  -9.402  1.00  0.00     0.008 C 
ATOM     21  C   UNL     1      -8.135  86.905  -8.195  1.00  0.00     0.010 C 
ATOM     22  C   UNL     1      -6.401  86.894 -10.795  1.00  0.00     0.012 C 
ATOM     23  C   UNL     1      -7.827  90.607 -10.423  1.00  0.00     0.012 C 
ATOM     24  C   UNL     1      -6.083  91.739 -15.849  1.00  0.00     0.014 C 
ATOM     25  C   UNL     1      -8.074  92.806 -14.806  1.00  0.00     0.014 C 
ATOM     26  C   UNL     1      -4.785  89.500 -13.841  1.00  0.00     0.012 C 
ENDROOT
BRANCH   1  27
ATOM     27  C   UNL     1      -4.607  85.704  -7.978  1.00  0.00    -0.077 C 
ATOM     28  C   UNL     1      -5.496  84.511  -8.258  1.00  0.00     0.039 C 
ATOM     29  C   UNL     1      -3.379  85.695  -8.525  1.00  0.00     0.008 C 
ENDBRANCH   1  27
BRANCH   4  30
ATOM     30  C   UNL     1      -8.107  88.792  -6.456  1.00  0.00     0.163 C 
BRANCH  30  31
ATOM     31  O   UNL     1      -7.210  89.726  -5.912  1.00  0.00    -0.396 OA
ATOM     32  H   UNL     1      -6.869  90.274  -6.665  1.00  0.00     0.210 HD
ENDBRANCH  30  31
ENDBRANCH   4  30
BRANCH  13  33
ATOM     33  O   UNL     1      -5.057  94.107 -15.041  1.00  0.00    -0.393 OA
ATOM     34  H   UNL     1      -5.399  95.033 -15.151  1.00  0.00     0.210 HD
ENDBRANCH  13  33
TORSDOF 4
ENDMDL
MODEL 9
REMARK VINA RESULT:    -5.535      1.709      2.838
REMARK INTER + INTRA:          -7.335
REMARK INTER:                  -6.609
REMARK INTRA:                  -0.726
REMARK UNBOUND:                -0.829
REMARK SMILES C=C(C)[C@@H]1CC[C@]2(CO)CC[C@]3(C)[C@@H](CC[C@@H]4[C@]5(C)CC[C@@H](O)C(C)(C)[C@H]5CC[C@]43C)[C@H]12
REMARK SMILES IDX 4 1 5 2 6 3 7 4 32 5 14 6 15 7 16 8 17 9 18 10 20 11 21 12
REMARK SMILES IDX 22 13 24 14 27 15 28 16 29 17 30 18 12 19 11 20 10 21 13 22
REMARK SMILES IDX 31 23 25 24 26 25 19 26 2 27 3 28 1 29 8 30 9 31 23 33
REMARK H PARENT 9 32 23 34
REMARK Flexibility Score: inf
ROOT
ATOM      1  C   UNL     1     -13.303  84.084  -7.915  1.00  0.00     0.018 C 
ATOM      2  C   UNL     1     -14.342  83.107  -8.473  1.00  0.00     0.009 C 
ATOM      3  C   UNL     1     -13.613  81.794  -8.755  1.00  0.00     0.010 C 
ATOM      4  C   UNL     1     -12.089  82.095  -8.807  1.00  0.00    -0.003 C 
ATOM      5  C   UNL     1     -11.974  83.624  -8.572  1.00  0.00     0.008 C 
ATOM      6  C   UNL     1     -10.617  84.203  -7.992  1.00  0.00    -0.000 C 
ATOM      7  C   UNL     1      -9.927  85.097  -9.071  1.00  0.00     0.005 C 
ATOM      8  C   UNL     1      -8.666  85.854  -8.591  1.00  0.00     0.005 C 
ATOM      9  C   UNL     1      -7.976  85.186  -7.376  1.00  0.00     0.002 C 
ATOM     10  C   UNL     1      -6.557  85.781  -6.896  1.00  0.00    -0.026 C 
ATOM     11  C   UNL     1      -6.179  87.168  -7.534  1.00  0.00     0.010 C 
ATOM     12  C   UNL     1      -5.243  87.060  -8.742  1.00  0.00     0.033 C 
ATOM     13  C   UNL     1      -3.871  86.433  -8.375  1.00  0.00     0.120 C 
ATOM     14  C   UNL     1      -3.948  85.302  -7.268  1.00  0.00    -0.006 C 
ATOM     15  C   UNL     1      -5.423  84.737  -7.215  1.00  0.00     0.003 C 
ATOM     16  C   UNL     1      -5.639  83.386  -6.492  1.00  0.00     0.005 C 
ATOM     17  C   UNL     1      -7.125  82.948  -6.416  1.00  0.00     0.008 C 
ATOM     18  C   UNL     1      -8.082  83.602  -7.480  1.00  0.00    -0.024 C 
ATOM     19  C   UNL     1      -9.631  83.189  -7.226  1.00  0.00    -0.024 C 
ATOM     20  C   UNL     1      -9.883  81.681  -7.599  1.00  0.00     0.008 C 
ATOM     21  C   UNL     1     -11.362  81.313  -7.691  1.00  0.00     0.010 C 
ATOM     22  C   UNL     1      -9.980  83.283  -5.696  1.00  0.00     0.012 C 
ATOM     23  C   UNL     1      -7.607  83.099  -8.904  1.00  0.00     0.012 C 
ATOM     24  C   UNL     1      -3.453  85.827  -5.893  1.00  0.00     0.014 C 
ATOM     25  C   UNL     1      -2.973  84.167  -7.683  1.00  0.00     0.014 C 
ATOM     26  C   UNL     1      -6.677  86.048  -5.355  1.00  0.00     0.012 C 
ENDROOT
BRANCH   1  27
ATOM     27  C   UNL     1     -13.335  84.199  -6.384  1.00  0.00    -0.077 C 
ATOM     28  C   UNL     1     -13.721  83.056  -5.469  1.00  0.00     0.039 C 
ATOM     29  C   UNL     1     -13.164  85.406  -5.815  1.00  0.00     0.008 C 
ENDBRANCH   1  27
BRANCH   4  30
ATOM     30  C   UNL     1     -11.540  81.717 -10.219  1.00  0.00     0.163 C 
BRANCH  30  31
ATOM     31  O   UNL     1     -12.338  80.738 -10.833  1.00  0.00    -0.396 OA
ATOM     32  H   UNL     1     -12.599  80.091 -10.126  1.00  0.00     0.210 HD
ENDBRANCH  30  31
ENDBRANCH   4  30
BRANCH  13  33
ATOM     33  O   UNL     1      -2.966  87.445  -8.003  1.00  0.00    -0.393 OA
ATOM     34  H   UNL     1      -3.223  87.750  -7.093  1.00  0.00     0.210 HD
ENDBRANCH  13  33
TORSDOF 4
ENDMDL
