MODEL 1
REMARK VINA RESULT:    -3.725      0.000      0.000
REMARK INTER + INTRA:          -4.166
REMARK INTER:                  -4.052
REMARK INTRA:                  -0.115
REMARK UNBOUND:                -0.115
REMARK SMILES C=C(C)[C@H]1CC=C(C)[C@@H](O)C1
REMARK SMILES IDX 8 1 7 2 6 3 5 4 4 5 11 6 9 7 10 8 2 10 1 11 3 12
REMARK H PARENT 10 9
REMARK Flexibility Score: inf
ROOT
ATOM      1  C   UNL     1       7.420  -0.332   0.393  1.00  0.00     0.042 C 
ATOM      2  C   UNL     1       6.958   1.098   0.275  1.00  0.00    -0.049 C 
ATOM      3  C   UNL     1       5.668   1.376   0.016  1.00  0.00    -0.025 C 
ATOM      4  C   UNL     1       5.223   2.805  -0.144  1.00  0.00     0.035 C 
ATOM      5  C   UNL     1       6.217   3.646  -0.997  1.00  0.00     0.021 C 
ATOM      6  C   UNL     1       7.694   3.152  -0.917  1.00  0.00     0.044 C 
ATOM      7  C   UNL     1       7.949   2.246   0.302  1.00  0.00     0.140 C 
ENDROOT
BRANCH   7   8
ATOM      8  O   UNL     1       9.268   1.765   0.273  1.00  0.00    -0.389 OA
ATOM      9  H   UNL     1       9.637   1.891   1.187  1.00  0.00     0.211 HD
ENDBRANCH   7   8
BRANCH   5  10
ATOM     10  C   UNL     1       5.752   3.753  -2.444  1.00  0.00    -0.077 C 
ATOM     11  C   UNL     1       5.689   2.666  -3.232  1.00  0.00     0.008 C 
ATOM     12  C   UNL     1       5.346   5.086  -3.017  1.00  0.00     0.039 C 
ENDBRANCH   5  10
TORSDOF 2
ENDMDL
MODEL 2
REMARK VINA RESULT:    -3.703      0.180      1.057
REMARK INTER + INTRA:          -4.142
REMARK INTER:                  -3.980
REMARK INTRA:                  -0.162
REMARK UNBOUND:                -0.115
REMARK SMILES C=C(C)[C@H]1CC=C(C)[C@@H](O)C1
REMARK SMILES IDX 8 1 7 2 6 3 5 4 4 5 11 6 9 7 10 8 2 10 1 11 3 12
REMARK H PARENT 10 9
REMARK Flexibility Score: inf
ROOT
ATOM      1  C   UNL     1       7.453  -0.396   0.490  1.00  0.00     0.042 C 
ATOM      2  C   UNL     1       6.956   1.020   0.357  1.00  0.00    -0.049 C 
ATOM      3  C   UNL     1       5.671   1.263   0.044  1.00  0.00    -0.025 C 
ATOM      4  C   UNL     1       5.192   2.680  -0.130  1.00  0.00     0.035 C 
ATOM      5  C   UNL     1       6.197   3.552  -0.936  1.00  0.00     0.021 C 
ATOM      6  C   UNL     1       7.683   3.100  -0.795  1.00  0.00     0.044 C 
ATOM      7  C   UNL     1       7.912   2.195   0.431  1.00  0.00     0.140 C 
ENDROOT
BRANCH   7   8
ATOM      8  O   UNL     1       9.244   1.753   0.457  1.00  0.00    -0.389 OA
ATOM      9  H   UNL     1       9.639   2.088   1.304  1.00  0.00     0.211 HD
ENDBRANCH   7   8
BRANCH   5  10
ATOM     10  C   UNL     1       5.792   3.653  -2.402  1.00  0.00    -0.077 C 
ATOM     11  C   UNL     1       5.312   4.802  -2.907  1.00  0.00     0.008 C 
ATOM     12  C   UNL     1       5.931   2.463  -3.315  1.00  0.00     0.039 C 
ENDBRANCH   5  10
TORSDOF 2
ENDMDL
MODEL 3
REMARK VINA RESULT:    -3.474      9.000     10.388
REMARK INTER + INTRA:          -3.893
REMARK INTER:                  -3.744
REMARK INTRA:                  -0.149
REMARK UNBOUND:                -0.115
REMARK SMILES C=C(C)[C@H]1CC=C(C)[C@@H](O)C1
REMARK SMILES IDX 8 1 7 2 6 3 5 4 4 5 11 6 9 7 10 8 2 10 1 11 3 12
REMARK H PARENT 10 9
REMARK Flexibility Score: inf
ROOT
ATOM      1  C   UNL     1      -2.616   8.607   3.502  1.00  0.00     0.042 C 
ATOM      2  C   UNL     1      -2.173   8.511   2.065  1.00  0.00    -0.049 C 
ATOM      3  C   UNL     1      -3.069   8.621   1.069  1.00  0.00    -0.025 C 
ATOM      4  C   UNL     1      -2.625   8.479  -0.363  1.00  0.00     0.035 C 
ATOM      5  C   UNL     1      -1.625   7.304  -0.562  1.00  0.00     0.021 C 
ATOM      6  C   UNL     1      -0.763   6.986   0.698  1.00  0.00     0.044 C 
ATOM      7  C   UNL     1      -0.744   8.148   1.709  1.00  0.00     0.140 C 
ENDROOT
BRANCH   7   8
ATOM      8  O   UNL     1      -0.025   7.773   2.856  1.00  0.00    -0.389 OA
ATOM      9  H   UNL     1       0.335   6.863   2.682  1.00  0.00     0.211 HD
ENDBRANCH   7   8
BRANCH   5  10
ATOM     10  C   UNL     1      -2.333   6.054  -1.072  1.00  0.00    -0.077 C 
ATOM     11  C   UNL     1      -3.589   6.117  -1.547  1.00  0.00     0.008 C 
ATOM     12  C   UNL     1      -1.630   4.722  -1.058  1.00  0.00     0.039 C 
ENDBRANCH   5  10
TORSDOF 2
ENDMDL
MODEL 4
REMARK VINA RESULT:    -3.401      1.964      4.125
REMARK INTER + INTRA:          -3.814
REMARK INTER:                  -3.603
REMARK INTRA:                  -0.211
REMARK UNBOUND:                -0.115
REMARK SMILES C=C(C)[C@H]1CC=C(C)[C@@H](O)C1
REMARK SMILES IDX 8 1 7 2 6 3 5 4 4 5 11 6 9 7 10 8 2 10 1 11 3 12
REMARK H PARENT 10 9
REMARK Flexibility Score: inf
ROOT
ATOM      1  C   UNL     1       6.289   3.148  -3.811  1.00  0.00     0.042 C 
ATOM      2  C   UNL     1       5.919   2.716  -2.416  1.00  0.00    -0.049 C 
ATOM      3  C   UNL     1       5.971   3.592  -1.397  1.00  0.00    -0.025 C 
ATOM      4  C   UNL     1       5.642   3.142   0.002  1.00  0.00     0.035 C 
ATOM      5  C   UNL     1       6.271   1.761   0.345  1.00  0.00     0.021 C 
ATOM      6  C   UNL     1       6.472   0.832  -0.891  1.00  0.00     0.044 C 
ATOM      7  C   UNL     1       5.620   1.264  -2.099  1.00  0.00     0.140 C 
ENDROOT
BRANCH   7   8
ATOM      8  O   UNL     1       5.906   0.445  -3.204  1.00  0.00    -0.389 OA
ATOM      9  H   UNL     1       6.167   1.049  -3.947  1.00  0.00     0.211 HD
ENDBRANCH   7   8
BRANCH   5  10
ATOM     10  C   UNL     1       7.570   1.922   1.126  1.00  0.00    -0.077 C 
ATOM     11  C   UNL     1       8.761   1.829   0.511  1.00  0.00     0.008 C 
ATOM     12  C   UNL     1       7.539   2.198   2.607  1.00  0.00     0.039 C 
ENDBRANCH   5  10
TORSDOF 2
ENDMDL
MODEL 5
REMARK VINA RESULT:    -3.385      2.002      3.960
REMARK INTER + INTRA:          -3.796
REMARK INTER:                  -3.620
REMARK INTRA:                  -0.176
REMARK UNBOUND:                -0.115
REMARK SMILES C=C(C)[C@H]1CC=C(C)[C@@H](O)C1
REMARK SMILES IDX 8 1 7 2 6 3 5 4 4 5 11 6 9 7 10 8 2 10 1 11 3 12
REMARK H PARENT 10 9
REMARK Flexibility Score: inf
ROOT
ATOM      1  C   UNL     1       8.993   3.648  -1.487  1.00  0.00     0.042 C 
ATOM      2  C   UNL     1       7.986   2.904  -0.648  1.00  0.00    -0.049 C 
ATOM      3  C   UNL     1       8.356   1.820   0.056  1.00  0.00    -0.025 C 
ATOM      4  C   UNL     1       7.334   1.057   0.857  1.00  0.00     0.035 C 
ATOM      5  C   UNL     1       5.998   0.862   0.084  1.00  0.00     0.021 C 
ATOM      6  C   UNL     1       5.693   1.990  -0.949  1.00  0.00     0.044 C 
ATOM      7  C   UNL     1       6.514   3.267  -0.688  1.00  0.00     0.140 C 
ENDROOT
BRANCH   7   8
ATOM      8  O   UNL     1       6.261   4.212  -1.695  1.00  0.00    -0.389 OA
ATOM      9  H   UNL     1       7.116   4.348  -2.181  1.00  0.00     0.211 HD
ENDBRANCH   7   8
BRANCH   5  10
ATOM     10  C   UNL     1       5.932  -0.513  -0.571  1.00  0.00    -0.077 C 
ATOM     11  C   UNL     1       5.041  -0.772  -1.544  1.00  0.00     0.008 C 
ATOM     12  C   UNL     1       6.874  -1.607  -0.141  1.00  0.00     0.039 C 
ENDBRANCH   5  10
TORSDOF 2
ENDMDL
MODEL 6
REMARK VINA RESULT:    -3.376      8.554      9.664
REMARK INTER + INTRA:          -3.786
REMARK INTER:                  -3.656
REMARK INTRA:                  -0.130
REMARK UNBOUND:                -0.115
REMARK SMILES C=C(C)[C@H]1CC=C(C)[C@@H](O)C1
REMARK SMILES IDX 8 1 7 2 6 3 5 4 4 5 11 6 9 7 10 8 2 10 1 11 3 12
REMARK H PARENT 10 9
REMARK Flexibility Score: inf
ROOT
ATOM      1  C   UNL     1      -0.502   4.529  -4.402  1.00  0.00     0.042 C 
ATOM      2  C   UNL     1      -1.454   5.197  -3.444  1.00  0.00    -0.049 C 
ATOM      3  C   UNL     1      -1.670   6.522  -3.513  1.00  0.00    -0.025 C 
ATOM      4  C   UNL     1      -2.589   7.188  -2.523  1.00  0.00     0.035 C 
ATOM      5  C   UNL     1      -2.370   6.676  -1.070  1.00  0.00     0.021 C 
ATOM      6  C   UNL     1      -1.847   5.209  -0.989  1.00  0.00     0.044 C 
ATOM      7  C   UNL     1      -2.077   4.426  -2.296  1.00  0.00     0.140 C 
ENDROOT
BRANCH   7   8
ATOM      8  O   UNL     1      -1.512   3.145  -2.192  1.00  0.00    -0.389 OA
ATOM      9  H   UNL     1      -0.539   3.247  -2.364  1.00  0.00     0.211 HD
ENDBRANCH   7   8
BRANCH   5  10
ATOM     10  C   UNL     1      -1.475   7.621  -0.278  1.00  0.00    -0.077 C 
ATOM     11  C   UNL     1      -1.114   8.814  -0.781  1.00  0.00     0.008 C 
ATOM     12  C   UNL     1      -0.985   7.235   1.093  1.00  0.00     0.039 C 
ENDBRANCH   5  10
TORSDOF 2
ENDMDL
MODEL 7
REMARK VINA RESULT:    -3.366      2.064      2.985
REMARK INTER + INTRA:          -3.776
REMARK INTER:                  -3.564
REMARK INTRA:                  -0.211
REMARK UNBOUND:                -0.115
REMARK SMILES C=C(C)[C@H]1CC=C(C)[C@@H](O)C1
REMARK SMILES IDX 8 1 7 2 6 3 5 4 4 5 11 6 9 7 10 8 2 10 1 11 3 12
REMARK H PARENT 10 9
REMARK Flexibility Score: inf
ROOT
ATOM      1  C   UNL     1       7.512   2.213   1.766  1.00  0.00     0.042 C 
ATOM      2  C   UNL     1       6.575   1.785   0.667  1.00  0.00    -0.049 C 
ATOM      3  C   UNL     1       6.601   0.523   0.204  1.00  0.00    -0.025 C 
ATOM      4  C   UNL     1       5.692   0.115  -0.925  1.00  0.00     0.035 C 
ATOM      5  C   UNL     1       5.629   1.183  -2.054  1.00  0.00     0.021 C 
ATOM      6  C   UNL     1       5.875   2.642  -1.560  1.00  0.00     0.044 C 
ATOM      7  C   UNL     1       5.685   2.790  -0.038  1.00  0.00     0.140 C 
ENDROOT
BRANCH   7   8
ATOM      8  O   UNL     1       6.001   4.100   0.358  1.00  0.00    -0.389 OA
ATOM      9  H   UNL     1       6.050   4.093   1.350  1.00  0.00     0.211 HD
ENDBRANCH   7   8
BRANCH   5  10
ATOM     10  C   UNL     1       6.564   0.830  -3.204  1.00  0.00    -0.077 C 
ATOM     11  C   UNL     1       7.740   1.463  -3.358  1.00  0.00     0.008 C 
ATOM     12  C   UNL     1       6.187  -0.246  -4.189  1.00  0.00     0.039 C 
ENDBRANCH   5  10
TORSDOF 2
ENDMDL
MODEL 8
REMARK VINA RESULT:    -3.355     10.192     11.462
REMARK INTER + INTRA:          -3.764
REMARK INTER:                  -3.568
REMARK INTRA:                  -0.196
REMARK UNBOUND:                -0.115
REMARK SMILES C=C(C)[C@H]1CC=C(C)[C@@H](O)C1
REMARK SMILES IDX 8 1 7 2 6 3 5 4 4 5 11 6 9 7 10 8 2 10 1 11 3 12
REMARK H PARENT 10 9
REMARK Flexibility Score: inf
ROOT
ATOM      1  C   UNL     1      -1.138   4.196  -1.222  1.00  0.00     0.042 C 
ATOM      2  C   UNL     1      -2.407   4.558  -1.951  1.00  0.00    -0.049 C 
ATOM      3  C   UNL     1      -3.156   5.596  -1.537  1.00  0.00    -0.025 C 
ATOM      4  C   UNL     1      -4.444   5.924  -2.243  1.00  0.00     0.035 C 
ATOM      5  C   UNL     1      -5.281   4.655  -2.573  1.00  0.00     0.021 C 
ATOM      6  C   UNL     1      -4.425   3.369  -2.785  1.00  0.00     0.044 C 
ATOM      7  C   UNL     1      -2.944   3.686  -3.069  1.00  0.00     0.140 C 
ENDROOT
BRANCH   7   8
ATOM      8  O   UNL     1      -2.210   2.493  -3.165  1.00  0.00    -0.389 OA
ATOM      9  H   UNL     1      -1.681   2.414  -2.328  1.00  0.00     0.211 HD
ENDBRANCH   7   8
BRANCH   5  10
ATOM     10  C   UNL     1      -6.370   4.423  -1.532  1.00  0.00    -0.077 C 
ATOM     11  C   UNL     1      -7.170   5.428  -1.134  1.00  0.00     0.008 C 
ATOM     12  C   UNL     1      -6.574   3.055  -0.935  1.00  0.00     0.039 C 
ENDBRANCH   5  10
TORSDOF 2
ENDMDL
MODEL 9
REMARK VINA RESULT:    -3.340      9.584     10.820
REMARK INTER + INTRA:          -3.748
REMARK INTER:                  -3.531
REMARK INTRA:                  -0.217
REMARK UNBOUND:                -0.115
REMARK SMILES C=C(C)[C@H]1CC=C(C)[C@@H](O)C1
REMARK SMILES IDX 8 1 7 2 6 3 5 4 4 5 11 6 9 7 10 8 2 10 1 11 3 12
REMARK H PARENT 10 9
REMARK Flexibility Score: inf
ROOT
ATOM      1  C   UNL     1       1.026  10.003   1.796  1.00  0.00     0.042 C 
ATOM      2  C   UNL     1       0.064   8.995   1.221  1.00  0.00    -0.049 C 
ATOM      3  C   UNL     1      -0.455   9.174  -0.007  1.00  0.00    -0.025 C 
ATOM      4  C   UNL     1      -1.448   8.185  -0.556  1.00  0.00     0.035 C 
ATOM      5  C   UNL     1      -2.505   7.755   0.501  1.00  0.00     0.021 C 
ATOM      6  C   UNL     1      -1.989   7.810   1.972  1.00  0.00     0.044 C 
ATOM      7  C   UNL     1      -0.451   7.840   2.057  1.00  0.00     0.140 C 
ENDROOT
BRANCH   7   8
ATOM      8  O   UNL     1      -0.048   7.975   3.395  1.00  0.00    -0.389 OA
ATOM      9  H   UNL     1      -0.772   7.585   3.952  1.00  0.00     0.211 HD
ENDBRANCH   7   8
BRANCH   5  10
ATOM     10  C   UNL     1      -3.800   8.544   0.345  1.00  0.00    -0.077 C 
ATOM     11  C   UNL     1      -4.692   8.224  -0.609  1.00  0.00     0.008 C 
ATOM     12  C   UNL     1      -4.106   9.695   1.266  1.00  0.00     0.039 C 
ENDBRANCH   5  10
TORSDOF 2
ENDMDL
