MODEL 1
REMARK VINA RESULT:    -4.179      0.000      0.000
REMARK INTER + INTRA:          -6.786
REMARK INTER:                  -6.378
REMARK INTRA:                  -0.409
REMARK UNBOUND:                -0.409
REMARK SMILES CC1=CCC[C@H](C)C(=O)C[C@H](C(C)C)C(=O)C1
REMARK SMILES IDX 8 1 9 2 6 3 7 4 5 5 4 6 3 7 2 8 1 9 10 11 11 12 15 13 16 14
REMARK SMILES IDX 17 15 12 17 13 18 14 19
REMARK H PARENT
REMARK Flexibility Score: 70.00
ROOT
ATOM      1  C   UNL     1      17.751 -31.061  23.074  1.00  0.00     0.136 C 
ATOM      2  O   UNL     1      18.742 -31.096  23.789  1.00  0.00    -0.299 OA
ENDROOT
BRANCH   1   3
ATOM      3  C   UNL     1      17.890 -30.705  21.601  1.00  0.00     0.053 C 
ATOM      4  C   UNL     1      18.338 -29.245  21.436  1.00  0.00     0.016 C 
BRANCH   3   5
ATOM      5  C   UNL     1      18.874 -31.668  20.893  1.00  0.00     0.015 C 
BRANCH   5   6
ATOM      6  C   UNL     1      18.202 -32.986  20.462  1.00  0.00     0.028 C 
BRANCH   6   7
ATOM      7  C   UNL     1      18.363 -34.055  21.513  1.00  0.00    -0.028 C 
ATOM      8  C   UNL     1      17.337 -34.685  22.136  1.00  0.00    -0.070 CG0
ATOM      9  C   UNL     1      17.671 -35.696  23.202  1.00  0.00     0.039 C 
ATOM     10  G   UNL     1      15.876 -34.415  21.804  1.00  0.00     0.000 G0
ENDBRANCH   6   7
ENDBRANCH   5   6
ENDBRANCH   3   5
ENDBRANCH   1   3
BRANCH   1  11
ATOM     11  C   UNL     1      16.402 -31.395  23.667  1.00  0.00     0.087 C 
BRANCH  11  12
ATOM     12  C   UNL     1      15.377 -31.960  22.641  1.00  0.00     0.066 C 
BRANCH  12  13
ATOM     13  C   UNL     1      15.230 -33.466  22.809  1.00  0.00     0.140 C 
ATOM     14  O   UNL     1      14.545 -33.911  23.720  1.00  0.00    -0.299 OA
BRANCH  13  15
ATOM     15  C   UNL     1      15.865 -34.417  21.826  1.00  0.00     0.106 CG0
ATOM     16  G   UNL     1      17.332 -34.675  22.141  1.00  0.00     0.000 G0
ENDBRANCH  13  15
ENDBRANCH  12  13
BRANCH  12  17
ATOM     17  C   UNL     1      13.984 -31.245  22.649  1.00  0.00    -0.006 C 
ATOM     18  C   UNL     1      13.299 -31.366  21.274  1.00  0.00     0.008 C 
ATOM     19  C   UNL     1      14.083 -29.754  23.021  1.00  0.00     0.008 C 
ENDBRANCH  12  17
ENDBRANCH  11  12
ENDBRANCH   1  11
TORSDOF 1
ENDMDL
MODEL 2
REMARK VINA RESULT:    -4.155      1.837      2.187
REMARK INTER + INTRA:          -6.750
REMARK INTER:                  -7.008
REMARK INTRA:                   0.258
REMARK UNBOUND:                -0.409
REMARK SMILES CC1=CCC[C@H](C)C(=O)C[C@H](C(C)C)C(=O)C1
REMARK SMILES IDX 8 1 9 2 6 3 7 4 5 5 4 6 3 7 2 8 1 9 10 11 11 12 15 13 16 14
REMARK SMILES IDX 17 15 12 17 13 18 14 19
REMARK H PARENT
REMARK Flexibility Score: 70.00
ROOT
ATOM      1  C   UNL     1      16.135 -29.497  22.059  1.00  0.00     0.136 C 
ATOM      2  O   UNL     1      15.638 -28.459  21.646  1.00  0.00    -0.299 OA
ENDROOT
BRANCH   1   3
ATOM      3  C   UNL     1      17.356 -30.083  21.368  1.00  0.00     0.053 C 
ATOM      4  C   UNL     1      18.363 -28.977  21.015  1.00  0.00     0.016 C 
BRANCH   3   5
ATOM      5  C   UNL     1      18.018 -31.171  22.248  1.00  0.00     0.015 C 
BRANCH   5   6
ATOM      6  C   UNL     1      18.102 -32.536  21.536  1.00  0.00     0.028 C 
BRANCH   6   7
ATOM      7  C   UNL     1      16.818 -32.859  20.814  1.00  0.00    -0.028 C 
ATOM      8  C   UNL     1      15.675 -33.262  21.418  1.00  0.00    -0.070 CG0
ATOM      9  C   UNL     1      14.493 -33.596  20.544  1.00  0.00     0.039 C 
ATOM     10  G   UNL     1      15.537 -33.390  22.929  1.00  0.00     0.000 G0
ENDBRANCH   6   7
ENDBRANCH   5   6
ENDBRANCH   3   5
ENDBRANCH   1   3
BRANCH   1  11
ATOM     11  C   UNL     1      15.532 -30.171  23.271  1.00  0.00     0.087 C 
BRANCH  11  12
ATOM     12  C   UNL     1      14.307 -31.075  22.953  1.00  0.00     0.066 C 
BRANCH  12  13
ATOM     13  C   UNL     1      14.509 -32.468  23.532  1.00  0.00     0.140 C 
ATOM     14  O   UNL     1      13.795 -32.855  24.447  1.00  0.00    -0.299 OA
BRANCH  13  15
ATOM     15  C   UNL     1      15.536 -33.404  22.946  1.00  0.00     0.106 CG0
ATOM     16  G   UNL     1      15.680 -33.231  21.441  1.00  0.00     0.000 G0
ENDBRANCH  13  15
ENDBRANCH  12  13
BRANCH  12  17
ATOM     17  C   UNL     1      12.925 -30.473  23.380  1.00  0.00    -0.006 C 
ATOM     18  C   UNL     1      12.001 -30.307  22.158  1.00  0.00     0.008 C 
ATOM     19  C   UNL     1      13.061 -29.111  24.084  1.00  0.00     0.008 C 
ENDBRANCH  12  17
ENDBRANCH  11  12
ENDBRANCH   1  11
TORSDOF 1
ENDMDL
MODEL 3
REMARK VINA RESULT:    -4.121      2.328      3.720
REMARK INTER + INTRA:          -6.698
REMARK INTER:                  -6.365
REMARK INTRA:                  -0.333
REMARK UNBOUND:                -0.409
REMARK SMILES CC1=CCC[C@H](C)C(=O)C[C@H](C(C)C)C(=O)C1
REMARK SMILES IDX 8 1 9 2 6 3 7 4 5 5 4 6 3 7 2 8 1 9 10 11 11 12 15 13 16 14
REMARK SMILES IDX 17 15 12 17 13 18 14 19
REMARK H PARENT
REMARK Flexibility Score: 70.00
ROOT
ATOM      1  C   UNL     1      15.809 -33.666  20.533  1.00  0.00     0.136 C 
ATOM      2  O   UNL     1      14.612 -33.540  20.754  1.00  0.00    -0.299 OA
ENDROOT
BRANCH   1   3
ATOM      3  C   UNL     1      16.279 -34.500  19.350  1.00  0.00     0.053 C 
ATOM      4  C   UNL     1      17.623 -33.980  18.819  1.00  0.00     0.016 C 
BRANCH   3   5
ATOM      5  C   UNL     1      16.380 -35.996  19.738  1.00  0.00     0.015 C 
BRANCH   5   6
ATOM      6  C   UNL     1      17.839 -36.494  19.788  1.00  0.00     0.028 C 
BRANCH   6   7
ATOM      7  C   UNL     1      18.178 -37.069  21.139  1.00  0.00    -0.028 C 
ATOM      8  C   UNL     1      18.779 -36.382  22.140  1.00  0.00    -0.070 CG0
ATOM      9  C   UNL     1      19.096 -37.122  23.414  1.00  0.00     0.039 C 
ATOM     10  G   UNL     1      19.143 -34.908  22.031  1.00  0.00     0.000 G0
ENDBRANCH   6   7
ENDBRANCH   5   6
ENDBRANCH   3   5
ENDBRANCH   1   3
BRANCH   1  11
ATOM     11  C   UNL     1      16.802 -32.969  21.434  1.00  0.00     0.087 C 
BRANCH  11  12
ATOM     12  C   UNL     1      16.972 -33.635  22.830  1.00  0.00     0.066 C 
BRANCH  12  13
ATOM     13  C   UNL     1      18.424 -34.033  23.057  1.00  0.00     0.140 C 
ATOM     14  O   UNL     1      18.989 -33.706  24.091  1.00  0.00    -0.299 OA
BRANCH  13  15
ATOM     15  C   UNL     1      19.156 -34.885  22.050  1.00  0.00     0.106 CG0
ATOM     16  G   UNL     1      18.765 -36.353  22.145  1.00  0.00     0.000 G0
ENDBRANCH  13  15
ENDBRANCH  12  13
BRANCH  12  17
ATOM     17  C   UNL     1      16.417 -32.792  24.027  1.00  0.00    -0.006 C 
ATOM     18  C   UNL     1      14.913 -33.060  24.233  1.00  0.00     0.008 C 
ATOM     19  C   UNL     1      16.626 -31.279  23.836  1.00  0.00     0.008 C 
ENDBRANCH  12  17
ENDBRANCH  11  12
ENDBRANCH   1  11
TORSDOF 1
ENDMDL
MODEL 4
REMARK VINA RESULT:    -4.044      2.083      4.889
REMARK INTER + INTRA:          -6.580
REMARK INTER:                  -6.531
REMARK INTRA:                  -0.050
REMARK UNBOUND:                -0.409
REMARK SMILES CC1=CCC[C@H](C)C(=O)C[C@H](C(C)C)C(=O)C1
REMARK SMILES IDX 8 1 9 2 6 3 7 4 5 5 4 6 3 7 2 8 1 9 10 11 11 12 15 13 16 14
REMARK SMILES IDX 17 15 12 17 13 18 14 19
REMARK H PARENT
REMARK Flexibility Score: 70.00
ROOT
ATOM      1  C   UNL     1      14.323 -32.717  21.253  1.00  0.00     0.136 C 
ATOM      2  O   UNL     1      13.935 -33.103  20.159  1.00  0.00    -0.299 OA
ENDROOT
BRANCH   1   3
ATOM      3  C   UNL     1      13.591 -31.589  21.964  1.00  0.00     0.053 C 
ATOM      4  C   UNL     1      13.749 -31.714  23.487  1.00  0.00     0.016 C 
BRANCH   3   5
ATOM      5  C   UNL     1      14.092 -30.211  21.469  1.00  0.00     0.015 C 
BRANCH   5   6
ATOM      6  C   UNL     1      15.115 -29.574  22.432  1.00  0.00     0.028 C 
BRANCH   6   7
ATOM      7  C   UNL     1      16.428 -29.308  21.742  1.00  0.00    -0.028 C 
ATOM      8  C   UNL     1      17.551 -30.048  21.912  1.00  0.00    -0.070 CG0
ATOM      9  C   UNL     1      18.799 -29.616  21.185  1.00  0.00     0.039 C 
ATOM     10  G   UNL     1      17.602 -31.286  22.797  1.00  0.00     0.000 G0
ENDBRANCH   6   7
ENDBRANCH   5   6
ENDBRANCH   3   5
ENDBRANCH   1   3
BRANCH   1  11
ATOM     11  C   UNL     1      15.518 -33.390  21.890  1.00  0.00     0.087 C 
BRANCH  11  12
ATOM     12  C   UNL     1      16.850 -33.190  21.112  1.00  0.00     0.066 C 
BRANCH  12  13
ATOM     13  C   UNL     1      17.900 -32.551  22.010  1.00  0.00     0.140 C 
ATOM     14  O   UNL     1      19.027 -33.024  22.058  1.00  0.00    -0.299 OA
BRANCH  13  15
ATOM     15  C   UNL     1      17.587 -31.300  22.792  1.00  0.00     0.106 CG0
ATOM     16  G   UNL     1      17.560 -30.061  21.908  1.00  0.00     0.000 G0
ENDBRANCH  13  15
ENDBRANCH  12  13
BRANCH  12  17
ATOM     17  C   UNL     1      17.400 -34.483  20.419  1.00  0.00    -0.006 C 
ATOM     18  C   UNL     1      18.196 -34.125  19.149  1.00  0.00     0.008 C 
ATOM     19  C   UNL     1      16.286 -35.475  20.040  1.00  0.00     0.008 C 
ENDBRANCH  12  17
ENDBRANCH  11  12
ENDBRANCH   1  11
TORSDOF 1
ENDMDL
MODEL 5
REMARK VINA RESULT:    -3.962      2.202      4.777
REMARK INTER + INTRA:          -6.456
REMARK INTER:                  -6.089
REMARK INTRA:                  -0.366
REMARK UNBOUND:                -0.409
REMARK SMILES CC1=CCC[C@H](C)C(=O)C[C@H](C(C)C)C(=O)C1
REMARK SMILES IDX 8 1 9 2 6 3 7 4 5 5 4 6 3 7 2 8 1 9 10 11 11 12 15 13 16 14
REMARK SMILES IDX 17 15 12 17 13 18 14 19
REMARK H PARENT
REMARK Flexibility Score: 70.00
ROOT
ATOM      1  C   UNL     1      15.334 -33.911  21.754  1.00  0.00     0.136 C 
ATOM      2  O   UNL     1      14.676 -33.889  20.723  1.00  0.00    -0.299 OA
ENDROOT
BRANCH   1   3
ATOM      3  C   UNL     1      15.001 -32.951  22.887  1.00  0.00     0.053 C 
ATOM      4  C   UNL     1      15.283 -33.601  24.250  1.00  0.00     0.016 C 
BRANCH   3   5
ATOM      5  C   UNL     1      15.788 -31.627  22.734  1.00  0.00     0.015 C 
BRANCH   5   6
ATOM      6  C   UNL     1      16.832 -31.429  23.851  1.00  0.00     0.028 C 
BRANCH   6   7
ATOM      7  C   UNL     1      18.212 -31.210  23.284  1.00  0.00    -0.028 C 
ATOM      8  C   UNL     1      19.146 -32.180  23.135  1.00  0.00    -0.070 CG0
ATOM      9  C   UNL     1      20.497 -31.783  22.598  1.00  0.00     0.039 C 
ATOM     10  G   UNL     1      18.889 -33.639  23.484  1.00  0.00     0.000 G0
ENDBRANCH   6   7
ENDBRANCH   5   6
ENDBRANCH   3   5
ENDBRANCH   1   3
BRANCH   1  11
ATOM     11  C   UNL     1      16.457 -34.913  21.892  1.00  0.00     0.087 C 
BRANCH  11  12
ATOM     12  C   UNL     1      17.795 -34.463  21.238  1.00  0.00     0.066 C 
BRANCH  12  13
ATOM     13  C   UNL     1      18.930 -34.528  22.251  1.00  0.00     0.140 C 
ATOM     14  O   UNL     1      19.888 -35.259  22.043  1.00  0.00    -0.299 OA
BRANCH  13  15
ATOM     15  C   UNL     1      18.920 -33.651  23.478  1.00  0.00     0.106 CG0
ATOM     16  G   UNL     1      19.127 -32.182  23.136  1.00  0.00     0.000 G0
ENDBRANCH  13  15
ENDBRANCH  12  13
BRANCH  12  17
ATOM     17  C   UNL     1      18.163 -35.219  19.917  1.00  0.00    -0.006 C 
ATOM     18  C   UNL     1      17.804 -34.369  18.683  1.00  0.00     0.008 C 
ATOM     19  C   UNL     1      17.460 -36.583  19.798  1.00  0.00     0.008 C 
ENDBRANCH  12  17
ENDBRANCH  11  12
ENDBRANCH   1  11
TORSDOF 1
ENDMDL
MODEL 6
REMARK VINA RESULT:    -3.905      1.750      3.574
REMARK INTER + INTRA:          -6.368
REMARK INTER:                  -6.307
REMARK INTRA:                  -0.061
REMARK UNBOUND:                -0.409
REMARK SMILES CC1=CCC[C@H](C)C(=O)C[C@H](C(C)C)C(=O)C1
REMARK SMILES IDX 8 1 9 2 6 3 7 4 5 5 4 6 3 7 2 8 1 9 10 11 11 12 15 13 16 14
REMARK SMILES IDX 17 15 12 17 13 18 14 19
REMARK H PARENT
REMARK Flexibility Score: 70.00
ROOT
ATOM      1  C   UNL     1      15.526 -34.112  21.737  1.00  0.00     0.136 C 
ATOM      2  O   UNL     1      15.308 -34.370  22.912  1.00  0.00    -0.299 OA
ENDROOT
BRANCH   1   3
ATOM      3  C   UNL     1      16.223 -35.134  20.852  1.00  0.00     0.053 C 
ATOM      4  C   UNL     1      16.306 -34.631  19.403  1.00  0.00     0.016 C 
BRANCH   3   5
ATOM      5  C   UNL     1      17.631 -35.468  21.402  1.00  0.00     0.015 C 
BRANCH   5   6
ATOM      6  C   UNL     1      18.654 -34.349  21.123  1.00  0.00     0.028 C 
BRANCH   6   7
ATOM      7  C   UNL     1      18.833 -33.455  22.323  1.00  0.00    -0.028 C 
ATOM      8  C   UNL     1      18.493 -32.144  22.365  1.00  0.00    -0.070 CG0
ATOM      9  C   UNL     1      18.786 -31.377  23.630  1.00  0.00     0.039 C 
ATOM     10  G   UNL     1      17.833 -31.422  21.199  1.00  0.00     0.000 G0
ENDBRANCH   6   7
ENDBRANCH   5   6
ENDBRANCH   3   5
ENDBRANCH   1   3
BRANCH   1  11
ATOM     11  C   UNL     1      15.075 -32.781  21.178  1.00  0.00     0.087 C 
BRANCH  11  12
ATOM     12  C   UNL     1      15.376 -31.568  22.104  1.00  0.00     0.066 C 
BRANCH  12  13
ATOM     13  C   UNL     1      16.536 -30.751  21.552  1.00  0.00     0.140 C 
ATOM     14  O   UNL     1      16.428 -29.537  21.445  1.00  0.00    -0.299 OA
BRANCH  13  15
ATOM     15  C   UNL     1      17.844 -31.413  21.195  1.00  0.00     0.106 CG0
ATOM     16  G   UNL     1      18.460 -32.144  22.380  1.00  0.00     0.000 G0
ENDBRANCH  13  15
ENDBRANCH  12  13
BRANCH  12  17
ATOM     17  C   UNL     1      14.137 -30.662  22.416  1.00  0.00    -0.006 C 
ATOM     18  C   UNL     1      13.581 -30.961  23.822  1.00  0.00     0.008 C 
ATOM     19  C   UNL     1      13.002 -30.835  21.390  1.00  0.00     0.008 C 
ENDBRANCH  12  17
ENDBRANCH  11  12
ENDBRANCH   1  11
TORSDOF 1
ENDMDL
MODEL 7
REMARK VINA RESULT:    -3.744      2.245      3.782
REMARK INTER + INTRA:          -6.123
REMARK INTER:                  -5.907
REMARK INTRA:                  -0.216
REMARK UNBOUND:                -0.409
REMARK SMILES CC1=CCC[C@H](C)C(=O)C[C@H](C(C)C)C(=O)C1
REMARK SMILES IDX 8 1 9 2 6 3 7 4 5 5 4 6 3 7 2 8 1 9 10 11 11 12 15 13 16 14
REMARK SMILES IDX 17 15 12 17 13 18 14 19
REMARK H PARENT
REMARK Flexibility Score: 70.00
ROOT
ATOM      1  C   UNL     1      17.641 -35.320  23.625  1.00  0.00     0.136 C 
ATOM      2  O   UNL     1      17.660 -36.033  24.619  1.00  0.00    -0.299 OA
ENDROOT
BRANCH   1   3
ATOM      3  C   UNL     1      18.684 -35.511  22.534  1.00  0.00     0.053 C 
ATOM      4  C   UNL     1      20.074 -35.086  23.030  1.00  0.00     0.016 C 
BRANCH   3   5
ATOM      5  C   UNL     1      18.700 -36.979  22.040  1.00  0.00     0.015 C 
BRANCH   5   6
ATOM      6  C   UNL     1      17.761 -37.206  20.838  1.00  0.00     0.028 C 
BRANCH   6   7
ATOM      7  C   UNL     1      17.891 -36.102  19.820  1.00  0.00    -0.028 C 
ATOM      8  C   UNL     1      16.972 -35.128  19.617  1.00  0.00    -0.070 CG0
ATOM      9  C   UNL     1      17.232 -34.127  18.521  1.00  0.00     0.039 C 
ATOM     10  G   UNL     1      15.699 -35.006  20.443  1.00  0.00     0.000 G0
ENDBRANCH   6   7
ENDBRANCH   5   6
ENDBRANCH   3   5
ENDBRANCH   1   3
BRANCH   1  11
ATOM     11  C   UNL     1      16.562 -34.270  23.491  1.00  0.00     0.087 C 
BRANCH  11  12
ATOM     12  C   UNL     1      16.713 -33.358  22.241  1.00  0.00     0.066 C 
BRANCH  12  13
ATOM     13  C   UNL     1      15.646 -33.691  21.207  1.00  0.00     0.140 C 
ATOM     14  O   UNL     1      14.768 -32.877  20.957  1.00  0.00    -0.299 OA
BRANCH  13  15
ATOM     15  C   UNL     1      15.697 -34.987  20.437  1.00  0.00     0.106 CG0
ATOM     16  G   UNL     1      16.974 -35.120  19.620  1.00  0.00     0.000 G0
ENDBRANCH  13  15
ENDBRANCH  12  13
BRANCH  12  17
ATOM     17  C   UNL     1      16.747 -31.823  22.553  1.00  0.00    -0.006 C 
ATOM     18  C   UNL     1      18.174 -31.264  22.390  1.00  0.00     0.008 C 
ATOM     19  C   UNL     1      16.248 -31.494  23.972  1.00  0.00     0.008 C 
ENDBRANCH  12  17
ENDBRANCH  11  12
ENDBRANCH   1  11
TORSDOF 1
ENDMDL
MODEL 8
REMARK VINA RESULT:    -3.604      2.070      3.571
REMARK INTER + INTRA:          -5.909
REMARK INTER:                  -5.518
REMARK INTRA:                  -0.392
REMARK UNBOUND:                -0.409
REMARK SMILES CC1=CCC[C@H](C)C(=O)C[C@H](C(C)C)C(=O)C1
REMARK SMILES IDX 8 1 9 2 6 3 7 4 5 5 4 6 3 7 2 8 1 9 10 11 11 12 15 13 16 14
REMARK SMILES IDX 17 15 12 17 13 18 14 19
REMARK H PARENT
REMARK Flexibility Score: 70.00
ROOT
ATOM      1  C   UNL     1      17.386 -33.558  20.720  1.00  0.00     0.136 C 
ATOM      2  O   UNL     1      17.903 -33.486  19.614  1.00  0.00    -0.299 OA
ENDROOT
BRANCH   1   3
ATOM      3  C   UNL     1      16.467 -34.723  21.054  1.00  0.00     0.053 C 
ATOM      4  C   UNL     1      15.268 -34.761  20.093  1.00  0.00     0.016 C 
BRANCH   3   5
ATOM      5  C   UNL     1      17.243 -36.062  21.021  1.00  0.00     0.015 C 
BRANCH   5   6
ATOM      6  C   UNL     1      18.566 -35.996  21.809  1.00  0.00     0.028 C 
BRANCH   6   7
ATOM      7  C   UNL     1      18.349 -36.277  23.274  1.00  0.00    -0.028 C 
ATOM      8  C   UNL     1      18.632 -35.410  24.276  1.00  0.00    -0.070 CG0
ATOM      9  C   UNL     1      18.403 -35.868  25.693  1.00  0.00     0.039 C 
ATOM     10  G   UNL     1      19.165 -34.006  24.030  1.00  0.00     0.000 G0
ENDBRANCH   6   7
ENDBRANCH   5   6
ENDBRANCH   3   5
ENDBRANCH   1   3
BRANCH   1  11
ATOM     11  C   UNL     1      17.689 -32.490  21.747  1.00  0.00     0.087 C 
BRANCH  11  12
ATOM     12  C   UNL     1      17.024 -32.733  23.132  1.00  0.00     0.066 C 
BRANCH  12  13
ATOM     13  C   UNL     1      18.086 -32.946  24.202  1.00  0.00     0.140 C 
ATOM     14  O   UNL     1      18.040 -32.299  25.240  1.00  0.00    -0.299 OA
BRANCH  13  15
ATOM     15  C   UNL     1      19.156 -33.994  24.028  1.00  0.00     0.106 CG0
ATOM     16  G   UNL     1      18.628 -35.401  24.269  1.00  0.00     0.000 G0
ENDBRANCH  13  15
ENDBRANCH  12  13
BRANCH  12  17
ATOM     17  C   UNL     1      15.992 -31.635  23.561  1.00  0.00    -0.006 C 
ATOM     18  C   UNL     1      14.585 -31.971  23.029  1.00  0.00     0.008 C 
ATOM     19  C   UNL     1      16.382 -30.229  23.070  1.00  0.00     0.008 C 
ENDBRANCH  12  17
ENDBRANCH  11  12
ENDBRANCH   1  11
TORSDOF 1
ENDMDL
MODEL 9
REMARK VINA RESULT:    -3.601      1.918      4.001
REMARK INTER + INTRA:          -5.905
REMARK INTER:                  -5.721
REMARK INTRA:                  -0.184
REMARK UNBOUND:                -0.409
REMARK SMILES CC1=CCC[C@H](C)C(=O)C[C@H](C(C)C)C(=O)C1
REMARK SMILES IDX 8 1 9 2 6 3 7 4 5 5 4 6 3 7 2 8 1 9 10 11 11 12 15 13 16 14
REMARK SMILES IDX 17 15 12 17 13 18 14 19
REMARK H PARENT
REMARK Flexibility Score: 70.00
ROOT
ATOM      1  C   UNL     1      16.143 -31.059  22.947  1.00  0.00     0.136 C 
ATOM      2  O   UNL     1      15.997 -30.042  22.282  1.00  0.00    -0.299 OA
ENDROOT
BRANCH   1   3
ATOM      3  C   UNL     1      14.981 -32.024  23.124  1.00  0.00     0.053 C 
ATOM      4  C   UNL     1      13.819 -31.344  23.864  1.00  0.00     0.016 C 
BRANCH   3   5
ATOM      5  C   UNL     1      14.514 -32.579  21.756  1.00  0.00     0.015 C 
BRANCH   5   6
ATOM      6  C   UNL     1      15.015 -34.014  21.500  1.00  0.00     0.028 C 
BRANCH   6   7
ATOM      7  C   UNL     1      15.903 -34.079  20.283  1.00  0.00    -0.028 C 
ATOM      8  C   UNL     1      17.239 -34.300  20.314  1.00  0.00    -0.070 CG0
ATOM      9  C   UNL     1      17.989 -34.283  19.007  1.00  0.00     0.039 C 
ATOM     10  G   UNL     1      18.005 -34.564  21.603  1.00  0.00     0.000 G0
ENDBRANCH   6   7
ENDBRANCH   5   6
ENDBRANCH   3   5
ENDBRANCH   1   3
BRANCH   1  11
ATOM     11  C   UNL     1      17.492 -31.347  23.565  1.00  0.00     0.087 C 
BRANCH  11  12
ATOM     12  C   UNL     1      17.863 -32.858  23.607  1.00  0.00     0.066 C 
BRANCH  12  13
ATOM     13  C   UNL     1      18.468 -33.293  22.279  1.00  0.00     0.140 C 
ATOM     14  O   UNL     1      19.368 -32.634  21.776  1.00  0.00    -0.299 OA
BRANCH  13  15
ATOM     15  C   UNL     1      18.018 -34.567  21.608  1.00  0.00     0.106 CG0
ATOM     16  G   UNL     1      17.238 -34.297  20.328  1.00  0.00     0.000 G0
ENDBRANCH  13  15
ENDBRANCH  12  13
BRANCH  12  17
ATOM     17  C   UNL     1      18.772 -33.273  24.813  1.00  0.00    -0.006 C 
ATOM     18  C   UNL     1      18.616 -34.775  25.122  1.00  0.00     0.008 C 
ATOM     19  C   UNL     1      18.466 -32.472  26.091  1.00  0.00     0.008 C 
ENDBRANCH  12  17
ENDBRANCH  11  12
ENDBRANCH   1  11
TORSDOF 1
ENDMDL
