MODEL 1
REMARK VINA RESULT:    -2.702      0.000      0.000
REMARK INTER + INTRA:          -2.939
REMARK INTER:                  -2.939
REMARK INTRA:                   0.000
REMARK UNBOUND:                 0.000
REMARK SMILES [NH3+]CC(=O)[O-]
REMARK SMILES IDX 2 1 1 2 3 6 4 7 5 8
REMARK H PARENT 1 3 1 4 1 5
REMARK Flexibility Score: inf
ROOT
ATOM      1  C   UNL     1      45.909  16.372  76.794  1.00  0.00     0.312 C 
ENDROOT
BRANCH   1   2
ATOM      2  N   UNL     1      46.688  15.875  77.926  1.00  0.00    -0.353 N 
ATOM      3  H   UNL     1      46.803  16.629  78.642  1.00  0.00     0.344 HD
ATOM      4  H   UNL     1      46.211  15.049  78.354  1.00  0.00     0.344 HD
ATOM      5  H   UNL     1      47.634  15.583  77.588  1.00  0.00     0.344 HD
ENDBRANCH   1   2
BRANCH   1   6
ATOM      6  C   UNL     1      45.827  17.867  76.824  1.00  0.00     0.096 C 
ATOM      7  O   UNL     1      45.677  18.470  77.920  1.00  0.00    -0.544 OA
ATOM      8  O   UNL     1      45.865  18.590  75.639  1.00  0.00    -0.544 OA
ENDBRANCH   1   6
TORSDOF 2
ENDMDL
MODEL 2
REMARK VINA RESULT:    -2.586      8.215      8.485
REMARK INTER + INTRA:          -2.812
REMARK INTER:                  -2.812
REMARK INTRA:                   0.000
REMARK UNBOUND:                 0.000
REMARK SMILES [NH3+]CC(=O)[O-]
REMARK SMILES IDX 2 1 1 2 3 6 4 7 5 8
REMARK H PARENT 1 3 1 4 1 5
REMARK Flexibility Score: inf
ROOT
ATOM      1  C   UNL     1      37.641  17.998  80.187  1.00  0.00     0.312 C 
ENDROOT
BRANCH   1   2
ATOM      2  N   UNL     1      38.401  17.047  79.380  1.00  0.00    -0.353 N 
ATOM      3  H   UNL     1      38.838  16.323  79.994  1.00  0.00     0.344 HD
ATOM      4  H   UNL     1      37.774  16.588  78.680  1.00  0.00     0.344 HD
ATOM      5  H   UNL     1      39.158  17.559  78.870  1.00  0.00     0.344 HD
ENDBRANCH   1   2
BRANCH   1   6
ATOM      6  C   UNL     1      38.390  19.287  80.332  1.00  0.00     0.096 C 
ATOM      7  O   UNL     1      39.626  19.276  80.574  1.00  0.00    -0.544 OA
ATOM      8  O   UNL     1      37.713  20.497  80.251  1.00  0.00    -0.544 OA
ENDBRANCH   1   6
TORSDOF 2
ENDMDL
MODEL 3
REMARK VINA RESULT:    -2.479     20.820     21.196
REMARK INTER + INTRA:          -2.696
REMARK INTER:                  -2.696
REMARK INTRA:                   0.000
REMARK UNBOUND:                 0.000
REMARK SMILES [NH3+]CC(=O)[O-]
REMARK SMILES IDX 2 1 1 2 3 6 4 7 5 8
REMARK H PARENT 1 3 1 4 1 5
REMARK Flexibility Score: inf
ROOT
ATOM      1  C   UNL     1      43.755  31.769  93.698  1.00  0.00     0.312 C 
ENDROOT
BRANCH   1   2
ATOM      2  N   UNL     1      44.428  33.038  93.433  1.00  0.00    -0.353 N 
ATOM      3  H   UNL     1      43.970  33.807  93.973  1.00  0.00     0.344 HD
ATOM      4  H   UNL     1      45.438  32.971  93.698  1.00  0.00     0.344 HD
ATOM      5  H   UNL     1      44.360  33.255  92.412  1.00  0.00     0.344 HD
ENDBRANCH   1   2
BRANCH   1   6
ATOM      6  C   UNL     1      44.141  30.742  92.679  1.00  0.00     0.096 C 
ATOM      7  O   UNL     1      44.538  29.605  93.046  1.00  0.00    -0.544 OA
ATOM      8  O   UNL     1      44.112  31.058  91.326  1.00  0.00    -0.544 OA
ENDBRANCH   1   6
TORSDOF 2
ENDMDL
MODEL 4
REMARK VINA RESULT:    -2.440     20.958     21.358
REMARK INTER + INTRA:          -2.654
REMARK INTER:                  -2.654
REMARK INTRA:                   0.000
REMARK UNBOUND:                 0.000
REMARK SMILES [NH3+]CC(=O)[O-]
REMARK SMILES IDX 2 1 1 2 3 6 4 7 5 8
REMARK H PARENT 1 3 1 4 1 5
REMARK Flexibility Score: inf
ROOT
ATOM      1  C   UNL     1      43.722  31.877  93.768  1.00  0.00     0.312 C 
ENDROOT
BRANCH   1   2
ATOM      2  N   UNL     1      44.390  33.134  93.442  1.00  0.00    -0.353 N 
ATOM      3  H   UNL     1      44.104  33.457  92.489  1.00  0.00     0.344 HD
ATOM      4  H   UNL     1      44.149  33.864  94.151  1.00  0.00     0.344 HD
ATOM      5  H   UNL     1      45.425  32.983  93.450  1.00  0.00     0.344 HD
ENDBRANCH   1   2
BRANCH   1   6
ATOM      6  C   UNL     1      44.103  30.806  92.792  1.00  0.00     0.096 C 
ATOM      7  O   UNL     1      44.193  31.072  91.565  1.00  0.00    -0.544 OA
ATOM      8  O   UNL     1      44.308  29.505  93.232  1.00  0.00    -0.544 OA
ENDBRANCH   1   6
TORSDOF 2
ENDMDL
MODEL 5
REMARK VINA RESULT:    -2.402      1.658      1.947
REMARK INTER + INTRA:          -2.613
REMARK INTER:                  -2.613
REMARK INTRA:                   0.000
REMARK UNBOUND:                 0.000
REMARK SMILES [NH3+]CC(=O)[O-]
REMARK SMILES IDX 2 1 1 2 3 6 4 7 5 8
REMARK H PARENT 1 3 1 4 1 5
REMARK Flexibility Score: inf
ROOT
ATOM      1  C   UNL     1      46.035  18.862  78.009  1.00  0.00     0.312 C 
ENDROOT
BRANCH   1   2
ATOM      2  N   UNL     1      47.115  18.380  78.866  1.00  0.00    -0.353 N 
ATOM      3  H   UNL     1      48.041  18.653  78.464  1.00  0.00     0.344 HD
ATOM      4  H   UNL     1      47.016  18.778  79.828  1.00  0.00     0.344 HD
ATOM      5  H   UNL     1      47.066  17.337  78.924  1.00  0.00     0.344 HD
ENDBRANCH   1   2
BRANCH   1   6
ATOM      6  C   UNL     1      45.839  17.948  76.839  1.00  0.00     0.096 C 
ATOM      7  O   UNL     1      45.649  16.716  77.024  1.00  0.00    -0.544 OA
ATOM      8  O   UNL     1      45.917  18.446  75.545  1.00  0.00    -0.544 OA
ENDBRANCH   1   6
TORSDOF 2
ENDMDL
MODEL 6
REMARK VINA RESULT:    -2.294      8.899      9.273
REMARK INTER + INTRA:          -2.495
REMARK INTER:                  -2.495
REMARK INTRA:                   0.000
REMARK UNBOUND:                 0.000
REMARK SMILES [NH3+]CC(=O)[O-]
REMARK SMILES IDX 2 1 1 2 3 6 4 7 5 8
REMARK H PARENT 1 3 1 4 1 5
REMARK Flexibility Score: inf
ROOT
ATOM      1  C   UNL     1      38.766  18.813  80.195  1.00  0.00     0.312 C 
ENDROOT
BRANCH   1   2
ATOM      2  N   UNL     1      38.224  17.555  79.689  1.00  0.00    -0.353 N 
ATOM      3  H   UNL     1      37.179  17.593  79.676  1.00  0.00     0.344 HD
ATOM      4  H   UNL     1      38.583  17.371  78.724  1.00  0.00     0.344 HD
ATOM      5  H   UNL     1      38.527  16.775  80.317  1.00  0.00     0.344 HD
ENDBRANCH   1   2
BRANCH   1   6
ATOM      6  C   UNL     1      37.686  19.640  80.823  1.00  0.00     0.096 C 
ATOM      7  O   UNL     1      37.089  20.518  80.148  1.00  0.00    -0.544 OA
ATOM      8  O   UNL     1      37.377  19.474  82.167  1.00  0.00    -0.544 OA
ENDBRANCH   1   6
TORSDOF 2
ENDMDL
MODEL 7
REMARK VINA RESULT:    -2.206     20.360     20.759
REMARK INTER + INTRA:          -2.399
REMARK INTER:                  -2.399
REMARK INTRA:                   0.000
REMARK UNBOUND:                 0.000
REMARK SMILES [NH3+]CC(=O)[O-]
REMARK SMILES IDX 2 1 1 2 3 6 4 7 5 8
REMARK H PARENT 1 3 1 4 1 5
REMARK Flexibility Score: inf
ROOT
ATOM      1  C   UNL     1      48.698  34.471  86.341  1.00  0.00     0.312 C 
ENDROOT
BRANCH   1   2
ATOM      2  N   UNL     1      47.884  35.382  85.540  1.00  0.00    -0.353 N 
ATOM      3  H   UNL     1      47.852  36.326  85.989  1.00  0.00     0.344 HD
ATOM      4  H   UNL     1      48.279  35.462  84.574  1.00  0.00     0.344 HD
ATOM      5  H   UNL     1      46.910  35.005  85.477  1.00  0.00     0.344 HD
ENDBRANCH   1   2
BRANCH   1   6
ATOM      6  C   UNL     1      49.258  35.177  87.537  1.00  0.00     0.096 C 
ATOM      7  O   UNL     1      48.621  36.125  88.068  1.00  0.00    -0.544 OA
ATOM      8  O   UNL     1      50.506  34.822  88.033  1.00  0.00    -0.544 OA
ENDBRANCH   1   6
TORSDOF 2
ENDMDL
MODEL 8
REMARK VINA RESULT:    -2.077     16.802     17.167
REMARK INTER + INTRA:          -2.260
REMARK INTER:                  -2.260
REMARK INTRA:                   0.000
REMARK UNBOUND:                 0.000
REMARK SMILES [NH3+]CC(=O)[O-]
REMARK SMILES IDX 2 1 1 2 3 6 4 7 5 8
REMARK H PARENT 1 3 1 4 1 5
REMARK Flexibility Score: inf
ROOT
ATOM      1  C   UNL     1      43.502  33.006  81.677  1.00  0.00     0.312 C 
ENDROOT
BRANCH   1   2
ATOM      2  N   UNL     1      43.229  33.361  83.067  1.00  0.00    -0.353 N 
ATOM      3  H   UNL     1      42.550  32.684  83.485  1.00  0.00     0.344 HD
ATOM      4  H   UNL     1      44.117  33.359  83.620  1.00  0.00     0.344 HD
ATOM      5  H   UNL     1      42.812  34.320  83.100  1.00  0.00     0.344 HD
ENDBRANCH   1   2
BRANCH   1   6
ATOM      6  C   UNL     1      42.622  33.786  80.749  1.00  0.00     0.096 C 
ATOM      7  O   UNL     1      41.614  33.240  80.226  1.00  0.00    -0.544 OA
ATOM      8  O   UNL     1      42.943  35.097  80.422  1.00  0.00    -0.544 OA
ENDBRANCH   1   6
TORSDOF 2
ENDMDL
MODEL 9
REMARK VINA RESULT:    -2.053     21.525     21.881
REMARK INTER + INTRA:          -2.232
REMARK INTER:                  -2.232
REMARK INTRA:                   0.000
REMARK UNBOUND:                 0.000
REMARK SMILES [NH3+]CC(=O)[O-]
REMARK SMILES IDX 2 1 1 2 3 6 4 7 5 8
REMARK H PARENT 1 3 1 4 1 5
REMARK Flexibility Score: inf
ROOT
ATOM      1  C   UNL     1      53.578  34.839  88.325  1.00  0.00     0.312 C 
ENDROOT
BRANCH   1   2
ATOM      2  N   UNL     1      54.248  36.125  88.504  1.00  0.00    -0.353 N 
ATOM      3  H   UNL     1      55.284  36.004  88.422  1.00  0.00     0.344 HD
ATOM      4  H   UNL     1      53.913  36.807  87.786  1.00  0.00     0.344 HD
ATOM      5  H   UNL     1      54.025  36.497  89.455  1.00  0.00     0.344 HD
ENDBRANCH   1   2
BRANCH   1   6
ATOM      6  C   UNL     1      52.328  35.002  87.515  1.00  0.00     0.096 C 
ATOM      7  O   UNL     1      51.273  35.420  88.060  1.00  0.00    -0.544 OA
ATOM      8  O   UNL     1      52.317  34.643  86.174  1.00  0.00    -0.544 OA
ENDBRANCH   1   6
TORSDOF 2
ENDMDL
