MODEL 1
REMARK VINA RESULT:    -4.159      0.000      0.000
REMARK INTER + INTRA:          -4.924
REMARK INTER:                  -4.889
REMARK INTRA:                  -0.035
REMARK UNBOUND:                -0.035
REMARK SMILES O=C([O-])CCC(=O)[O-]
REMARK SMILES IDX 4 1 2 2 1 3 3 4 5 5 6 6 7 7 8 8
REMARK H PARENT
REMARK Flexibility Score: inf
ROOT
ATOM      1  C   UNL     1      -3.855  16.381  62.872  1.00  0.00     0.059 C 
ENDROOT
BRANCH   1   2
ATOM      2  C   UNL     1      -4.161  15.409  63.967  1.00  0.00     0.042 C 
ATOM      3  O   UNL     1      -5.341  15.005  64.143  1.00  0.00    -0.550 OA
ATOM      4  O   UNL     1      -3.154  14.986  64.825  1.00  0.00    -0.550 OA
ENDBRANCH   1   2
BRANCH   1   5
ATOM      5  C   UNL     1      -4.769  16.139  61.670  1.00  0.00     0.059 C 
BRANCH   5   6
ATOM      6  C   UNL     1      -4.080  16.533  60.401  1.00  0.00     0.042 C 
ATOM      7  O   UNL     1      -3.340  17.552  60.373  1.00  0.00    -0.550 OA
ATOM      8  O   UNL     1      -4.295  15.805  59.239  1.00  0.00    -0.550 OA
ENDBRANCH   5   6
ENDBRANCH   1   5
TORSDOF 3
ENDMDL
MODEL 2
REMARK VINA RESULT:    -4.147      0.108      4.307
REMARK INTER + INTRA:          -4.909
REMARK INTER:                  -4.872
REMARK INTRA:                  -0.038
REMARK UNBOUND:                -0.035
REMARK SMILES O=C([O-])CCC(=O)[O-]
REMARK SMILES IDX 4 1 2 2 1 3 3 4 5 5 6 6 7 7 8 8
REMARK H PARENT
REMARK Flexibility Score: inf
ROOT
ATOM      1  C   UNL     1      -4.749  16.093  61.624  1.00  0.00     0.059 C 
ENDROOT
BRANCH   1   2
ATOM      2  C   UNL     1      -4.021  16.466  60.373  1.00  0.00     0.042 C 
ATOM      3  O   UNL     1      -3.177  17.402  60.385  1.00  0.00    -0.550 OA
ATOM      4  O   UNL     1      -4.307  15.814  59.179  1.00  0.00    -0.550 OA
ENDBRANCH   1   2
BRANCH   1   5
ATOM      5  C   UNL     1      -3.914  16.449  62.855  1.00  0.00     0.059 C 
BRANCH   5   6
ATOM      6  C   UNL     1      -4.149  15.458  63.952  1.00  0.00     0.042 C 
ATOM      7  O   UNL     1      -5.302  14.984  64.140  1.00  0.00    -0.550 OA
ATOM      8  O   UNL     1      -3.110  15.096  64.797  1.00  0.00    -0.550 OA
ENDBRANCH   5   6
ENDBRANCH   1   5
TORSDOF 3
ENDMDL
MODEL 3
REMARK VINA RESULT:    -3.980     13.137     13.952
REMARK INTER + INTRA:          -4.713
REMARK INTER:                  -4.642
REMARK INTRA:                  -0.071
REMARK UNBOUND:                -0.035
REMARK SMILES O=C([O-])CCC(=O)[O-]
REMARK SMILES IDX 4 1 2 2 1 3 3 4 5 5 6 6 7 7 8 8
REMARK H PARENT
REMARK Flexibility Score: inf
ROOT
ATOM      1  C   UNL     1       3.337  20.506  50.830  1.00  0.00     0.059 C 
ENDROOT
BRANCH   1   2
ATOM      2  C   UNL     1       3.453  19.015  50.817  1.00  0.00     0.042 C 
ATOM      3  O   UNL     1       2.948  18.349  49.875  1.00  0.00    -0.550 OA
ATOM      4  O   UNL     1       4.075  18.356  51.870  1.00  0.00    -0.550 OA
ENDBRANCH   1   2
BRANCH   1   5
ATOM      5  C   UNL     1       2.177  20.961  49.943  1.00  0.00     0.059 C 
BRANCH   5   6
ATOM      6  C   UNL     1       0.958  21.225  50.770  1.00  0.00     0.042 C 
ATOM      7  O   UNL     1      -0.064  21.739  50.244  1.00  0.00    -0.550 OA
ATOM      8  O   UNL     1       0.968  20.949  52.131  1.00  0.00    -0.550 OA
ENDBRANCH   5   6
ENDBRANCH   1   5
TORSDOF 3
ENDMDL
MODEL 4
REMARK VINA RESULT:    -3.956     16.962     17.719
REMARK INTER + INTRA:          -4.685
REMARK INTER:                  -4.650
REMARK INTRA:                  -0.035
REMARK UNBOUND:                -0.035
REMARK SMILES O=C([O-])CCC(=O)[O-]
REMARK SMILES IDX 4 1 2 2 1 3 3 4 5 5 6 6 7 7 8 8
REMARK H PARENT
REMARK Flexibility Score: inf
ROOT
ATOM      1  C   UNL     1      12.340  11.917  65.122  1.00  0.00     0.059 C 
ENDROOT
BRANCH   1   2
ATOM      2  C   UNL     1      12.845  13.317  64.978  1.00  0.00     0.042 C 
ATOM      3  O   UNL     1      14.083  13.540  64.901  1.00  0.00    -0.550 OA
ATOM      4  O   UNL     1      11.954  14.383  64.979  1.00  0.00    -0.550 OA
ENDBRANCH   1   2
BRANCH   1   5
ATOM      5  C   UNL     1      13.135  10.966  64.226  1.00  0.00     0.059 C 
BRANCH   5   6
ATOM      6  C   UNL     1      12.297   9.789  63.838  1.00  0.00     0.042 C 
ATOM      7  O   UNL     1      11.420   9.348  64.628  1.00  0.00    -0.550 OA
ATOM      8  O   UNL     1      12.517   9.148  62.626  1.00  0.00    -0.550 OA
ENDBRANCH   5   6
ENDBRANCH   1   5
TORSDOF 3
ENDMDL
MODEL 5
REMARK VINA RESULT:    -3.911     12.292     13.157
REMARK INTER + INTRA:          -4.632
REMARK INTER:                  -4.596
REMARK INTRA:                  -0.036
REMARK UNBOUND:                -0.035
REMARK SMILES O=C([O-])CCC(=O)[O-]
REMARK SMILES IDX 4 1 2 2 1 3 3 4 5 5 6 6 7 7 8 8
REMARK H PARENT
REMARK Flexibility Score: inf
ROOT
ATOM      1  C   UNL     1       4.418  18.310  52.359  1.00  0.00     0.059 C 
ENDROOT
BRANCH   1   2
ATOM      2  C   UNL     1       4.923  18.068  53.746  1.00  0.00     0.042 C 
ATOM      3  O   UNL     1       4.366  18.623  54.730  1.00  0.00    -0.550 OA
ATOM      4  O   UNL     1       6.041  17.269  53.950  1.00  0.00    -0.550 OA
ENDBRANCH   1   2
BRANCH   1   5
ATOM      5  C   UNL     1       3.349  19.404  52.363  1.00  0.00     0.059 C 
BRANCH   5   6
ATOM      6  C   UNL     1       3.022  19.821  50.963  1.00  0.00     0.042 C 
ATOM      7  O   UNL     1       2.824  21.036  50.695  1.00  0.00    -0.550 OA
ATOM      8  O   UNL     1       2.886  18.865  49.966  1.00  0.00    -0.550 OA
ENDBRANCH   5   6
ENDBRANCH   1   5
TORSDOF 3
ENDMDL
MODEL 6
REMARK VINA RESULT:    -3.908     12.289     13.585
REMARK INTER + INTRA:          -4.629
REMARK INTER:                  -4.592
REMARK INTRA:                  -0.037
REMARK UNBOUND:                -0.035
REMARK SMILES O=C([O-])CCC(=O)[O-]
REMARK SMILES IDX 4 1 2 2 1 3 3 4 5 5 6 6 7 7 8 8
REMARK H PARENT
REMARK Flexibility Score: inf
ROOT
ATOM      1  C   UNL     1       3.273  19.407  52.445  1.00  0.00     0.059 C 
ENDROOT
BRANCH   1   2
ATOM      2  C   UNL     1       2.805  19.777  51.074  1.00  0.00     0.042 C 
ATOM      3  O   UNL     1       2.279  20.903  50.866  1.00  0.00    -0.550 OA
ATOM      4  O   UNL     1       2.905  18.862  50.033  1.00  0.00    -0.550 OA
ENDBRANCH   1   2
BRANCH   1   5
ATOM      5  C   UNL     1       4.421  18.400  52.365  1.00  0.00     0.059 C 
BRANCH   5   6
ATOM      6  C   UNL     1       4.933  18.080  53.735  1.00  0.00     0.042 C 
ATOM      7  O   UNL     1       4.398  18.603  54.749  1.00  0.00    -0.550 OA
ATOM      8  O   UNL     1       6.032  17.246  53.889  1.00  0.00    -0.550 OA
ENDBRANCH   5   6
ENDBRANCH   1   5
TORSDOF 3
ENDMDL
MODEL 7
REMARK VINA RESULT:    -3.594     16.561     17.460
REMARK INTER + INTRA:          -4.260
REMARK INTER:                  -4.222
REMARK INTRA:                  -0.038
REMARK UNBOUND:                -0.035
REMARK SMILES O=C([O-])CCC(=O)[O-]
REMARK SMILES IDX 4 1 2 2 1 3 3 4 5 5 6 6 7 7 8 8
REMARK H PARENT
REMARK Flexibility Score: inf
ROOT
ATOM      1  C   UNL     1      12.096  11.600  64.882  1.00  0.00     0.059 C 
ENDROOT
BRANCH   1   2
ATOM      2  C   UNL     1      12.866  10.555  64.140  1.00  0.00     0.042 C 
ATOM      3  O   UNL     1      14.125  10.601  64.104  1.00  0.00    -0.550 OA
ATOM      4  O   UNL     1      12.195   9.557  63.445  1.00  0.00    -0.550 OA
ENDBRANCH   1   2
BRANCH   1   5
ATOM      5  C   UNL     1      12.960  12.842  65.109  1.00  0.00     0.059 C 
BRANCH   5   6
ATOM      6  C   UNL     1      12.141  14.084  64.952  1.00  0.00     0.042 C 
ATOM      7  O   UNL     1      11.155  14.293  65.708  1.00  0.00    -0.550 OA
ATOM      8  O   UNL     1      12.435  14.987  63.939  1.00  0.00    -0.550 OA
ENDBRANCH   5   6
ENDBRANCH   1   5
TORSDOF 3
ENDMDL
MODEL 8
REMARK VINA RESULT:    -3.054     20.074     20.878
REMARK INTER + INTRA:          -3.625
REMARK INTER:                  -3.585
REMARK INTRA:                  -0.041
REMARK UNBOUND:                -0.035
REMARK SMILES O=C([O-])CCC(=O)[O-]
REMARK SMILES IDX 4 1 2 2 1 3 3 4 5 5 6 6 7 7 8 8
REMARK H PARENT
REMARK Flexibility Score: inf
ROOT
ATOM      1  C   UNL     1       9.547   4.829  52.452  1.00  0.00     0.059 C 
ENDROOT
BRANCH   1   2
ATOM      2  C   UNL     1       8.567   4.830  53.582  1.00  0.00     0.042 C 
ATOM      3  O   UNL     1       7.482   4.198  53.480  1.00  0.00    -0.550 OA
ATOM      4  O   UNL     1       8.828   5.569  54.729  1.00  0.00    -0.550 OA
ENDBRANCH   1   2
BRANCH   1   5
ATOM      5  C   UNL     1       9.902   3.396  52.053  1.00  0.00     0.059 C 
BRANCH   5   6
ATOM      6  C   UNL     1      11.387   3.221  51.998  1.00  0.00     0.042 C 
ATOM      7  O   UNL     1      12.126   4.182  51.655  1.00  0.00    -0.550 OA
ATOM      8  O   UNL     1      11.952   1.984  52.277  1.00  0.00    -0.550 OA
ENDBRANCH   5   6
ENDBRANCH   1   5
TORSDOF 3
ENDMDL
