MODEL 1
REMARK VINA RESULT:    -7.266      0.000      0.000
REMARK INTER + INTRA:         -11.574
REMARK INTER:                 -10.665
REMARK INTRA:                  -0.910
REMARK UNBOUND:                -0.910
REMARK SMILES Cc1cc2c(C(C)C)c(O)c(O)c(C=O)c2c(O)c1-c1c(C)cc2c(C(C)C)c(O)c(O)c(C=O)c2c1O
REMARK SMILES IDX 1 1 2 2 3 3 4 4 16 5 13 6 11 7 9 8 5 9 17 10 19 11 20 12
REMARK SMILES IDX 37 13 21 14 36 15 23 16 22 17 24 18 33 19 25 20 31 21 29 22
REMARK SMILES IDX 38 23 34 25 35 26 26 27 27 28 28 29 32 30 30 32 18 34 6 36
REMARK SMILES IDX 7 37 8 38 14 39 15 40 10 41 12 43
REMARK H PARENT 38 24 32 31 30 33 18 35 10 42 12 44
REMARK Flexibility Score: inf
ROOT
ATOM      1  C   UNL     1      24.330   0.924  81.977  1.00  0.00     0.045 C 
ATOM      2  C   UNL     1      23.832  -0.031  83.034  1.00  0.00    -0.039 A 
ATOM      3  C   UNL     1      23.007   0.449  84.053  1.00  0.00     0.013 A 
ATOM      4  C   UNL     1      22.501  -0.399  85.061  1.00  0.00    -0.006 A 
ATOM      5  C   UNL     1      22.950  -1.752  85.109  1.00  0.00     0.039 A 
ATOM      6  C   UNL     1      22.626  -2.547  86.249  1.00  0.00     0.072 A 
ATOM      7  C   UNL     1      21.870  -1.988  87.300  1.00  0.00     0.169 A 
ATOM      8  C   UNL     1      21.345  -0.696  87.189  1.00  0.00     0.162 A 
ATOM      9  C   UNL     1      21.576   0.083  86.036  1.00  0.00     0.008 A 
ATOM     10  C   UNL     1      23.690  -2.266  84.002  1.00  0.00     0.132 A 
ATOM     11  C   UNL     1      24.135  -1.401  82.978  1.00  0.00     0.031 A 
ENDROOT
BRANCH  11  12
ATOM     12  C   UNL     1      24.928  -1.934  81.840  1.00  0.00     0.031 A 
ATOM     13  C   UNL     1      26.325  -2.012  81.952  1.00  0.00     0.132 A 
ATOM     14  C   UNL     1      24.296  -2.326  80.646  1.00  0.00    -0.039 A 
ATOM     15  C   UNL     1      27.097  -2.591  80.906  1.00  0.00     0.039 A 
ATOM     16  C   UNL     1      25.079  -2.683  79.543  1.00  0.00     0.013 A 
ATOM     17  C   UNL     1      22.796  -2.274  80.504  1.00  0.00     0.045 C 
ATOM     18  C   UNL     1      26.488  -2.760  79.631  1.00  0.00    -0.006 A 
ATOM     19  C   UNL     1      28.442  -3.019  81.090  1.00  0.00     0.072 A 
ATOM     20  C   UNL     1      27.295  -3.036  78.488  1.00  0.00     0.008 A 
ATOM     21  C   UNL     1      29.202  -3.427  79.973  1.00  0.00     0.169 A 
ATOM     22  C   UNL     1      28.640  -3.417  78.689  1.00  0.00     0.162 A 
BRANCH  13  23
ATOM     23  O   UNL     1      26.912  -1.433  83.083  1.00  0.00    -0.507 OA
ATOM     24  H   UNL     1      27.505  -0.615  83.035  1.00  0.00     0.293 HD
ENDBRANCH  13  23
BRANCH  19  25
ATOM     25  C   UNL     1      29.008  -3.237  82.440  1.00  0.00     0.264 C 
ATOM     26  O   UNL     1      30.218  -2.981  82.676  1.00  0.00    -0.298 OA
ENDBRANCH  19  25
BRANCH  20  27
ATOM     27  C   UNL     1      26.731  -2.926  77.061  1.00  0.00     0.017 C 
ATOM     28  C   UNL     1      25.992  -1.598  76.865  1.00  0.00     0.012 C 
ATOM     29  C   UNL     1      25.853  -4.123  76.653  1.00  0.00     0.012 C 
ENDBRANCH  20  27
BRANCH  21  30
ATOM     30  O   UNL     1      30.521  -3.878  80.106  1.00  0.00    -0.504 OA
ATOM     31  H   UNL     1      31.138  -3.620  80.863  1.00  0.00     0.293 HD
ENDBRANCH  21  30
BRANCH  22  32
ATOM     32  O   UNL     1      29.415  -3.829  77.602  1.00  0.00    -0.504 OA
ATOM     33  H   UNL     1      30.381  -4.121  77.691  1.00  0.00     0.293 HD
ENDBRANCH  22  32
ENDBRANCH  11  12
BRANCH  10  34
ATOM     34  O   UNL     1      23.950  -3.637  83.902  1.00  0.00    -0.507 OA
ATOM     35  H   UNL     1      24.198  -4.104  83.040  1.00  0.00     0.293 HD
ENDBRANCH  10  34
BRANCH   9  36
ATOM     36  C   UNL     1      20.840   1.423  85.859  1.00  0.00     0.017 C 
ATOM     37  C   UNL     1      20.391   1.615  84.407  1.00  0.00     0.012 C 
ATOM     38  C   UNL     1      21.639   2.637  86.365  1.00  0.00     0.012 C 
ENDBRANCH   9  36
BRANCH   6  39
ATOM     39  C   UNL     1      23.146  -3.920  86.412  1.00  0.00     0.264 C 
ATOM     40  O   UNL     1      24.326  -4.116  86.806  1.00  0.00    -0.298 OA
ENDBRANCH   6  39
BRANCH   8  41
ATOM     41  O   UNL     1      20.604  -0.166  88.250  1.00  0.00    -0.504 OA
ATOM     42  H   UNL     1      21.026   0.339  89.020  1.00  0.00     0.293 HD
ENDBRANCH   8  41
BRANCH   7  43
ATOM     43  O   UNL     1      21.636  -2.691  88.489  1.00  0.00    -0.504 OA
ATOM     44  H   UNL     1      20.931  -3.407  88.594  1.00  0.00     0.293 HD
ENDBRANCH   7  43
TORSDOF 11
ENDMDL
MODEL 2
REMARK VINA RESULT:    -6.723      1.589      8.771
REMARK INTER + INTRA:         -10.777
REMARK INTER:                  -9.870
REMARK INTRA:                  -0.907
REMARK UNBOUND:                -0.910
REMARK SMILES Cc1cc2c(C(C)C)c(O)c(O)c(C=O)c2c(O)c1-c1c(C)cc2c(C(C)C)c(O)c(O)c(C=O)c2c1O
REMARK SMILES IDX 1 1 2 2 3 3 4 4 16 5 13 6 11 7 9 8 5 9 17 10 19 11 20 12
REMARK SMILES IDX 37 13 21 14 36 15 23 16 22 17 24 18 33 19 25 20 31 21 29 22
REMARK SMILES IDX 38 23 34 25 35 26 26 27 27 28 28 29 32 30 30 32 18 34 6 36
REMARK SMILES IDX 7 37 8 38 14 39 15 40 10 41 12 43
REMARK H PARENT 38 24 32 31 30 33 18 35 10 42 12 44
REMARK Flexibility Score: inf
ROOT
ATOM      1  C   UNL     1      27.344  -0.965  83.696  1.00  0.00     0.045 C 
ATOM      2  C   UNL     1      26.927  -1.512  82.353  1.00  0.00    -0.039 A 
ATOM      3  C   UNL     1      27.909  -1.874  81.429  1.00  0.00     0.013 A 
ATOM      4  C   UNL     1      27.580  -2.404  80.163  1.00  0.00    -0.006 A 
ATOM      5  C   UNL     1      26.209  -2.447  79.773  1.00  0.00     0.039 A 
ATOM      6  C   UNL     1      25.886  -2.763  78.420  1.00  0.00     0.072 A 
ATOM      7  C   UNL     1      26.918  -3.028  77.497  1.00  0.00     0.169 A 
ATOM      8  C   UNL     1      28.250  -3.089  77.919  1.00  0.00     0.162 A 
ATOM      9  C   UNL     1      28.593  -2.867  79.270  1.00  0.00     0.008 A 
ATOM     10  C   UNL     1      25.209  -2.194  80.760  1.00  0.00     0.132 A 
ATOM     11  C   UNL     1      25.574  -1.717  82.039  1.00  0.00     0.031 A 
ENDROOT
BRANCH  11  12
ATOM     12  C   UNL     1      24.530  -1.429  83.056  1.00  0.00     0.031 A 
ATOM     13  C   UNL     1      24.125  -2.448  83.932  1.00  0.00     0.132 A 
ATOM     14  C   UNL     1      23.925  -0.161  83.125  1.00  0.00    -0.039 A 
ATOM     15  C   UNL     1      23.184  -2.175  84.965  1.00  0.00     0.039 A 
ATOM     16  C   UNL     1      22.845   0.034  83.993  1.00  0.00     0.013 A 
ATOM     17  C   UNL     1      24.354   0.959  82.212  1.00  0.00     0.045 C 
ATOM     18  C   UNL     1      22.415  -0.980  84.878  1.00  0.00    -0.006 A 
ATOM     19  C   UNL     1      22.996  -3.036  86.082  1.00  0.00     0.072 A 
ATOM     20  C   UNL     1      21.260  -0.817  85.699  1.00  0.00     0.008 A 
ATOM     21  C   UNL     1      21.934  -2.793  86.978  1.00  0.00     0.169 A 
ATOM     22  C   UNL     1      21.068  -1.710  86.777  1.00  0.00     0.162 A 
BRANCH  13  23
ATOM     23  O   UNL     1      24.620  -3.735  83.694  1.00  0.00    -0.507 OA
ATOM     24  H   UNL     1      24.021  -4.529  83.510  1.00  0.00     0.293 HD
ENDBRANCH  13  23
BRANCH  19  25
ATOM     25  C   UNL     1      23.998  -4.064  86.444  1.00  0.00     0.264 C 
ATOM     26  O   UNL     1      25.180  -3.734  86.728  1.00  0.00    -0.298 OA
ENDBRANCH  19  25
BRANCH  20  27
ATOM     27  C   UNL     1      20.236   0.300  85.433  1.00  0.00     0.017 C 
ATOM     28  C   UNL     1      19.875   0.368  83.946  1.00  0.00     0.012 C 
ATOM     29  C   UNL     1      20.674   1.675  85.968  1.00  0.00     0.012 C 
ENDBRANCH  20  27
BRANCH  21  30
ATOM     30  O   UNL     1      21.723  -3.599  88.103  1.00  0.00    -0.504 OA
ATOM     31  H   UNL     1      21.907  -3.311  89.054  1.00  0.00     0.293 HD
ENDBRANCH  21  30
BRANCH  22  32
ATOM     32  O   UNL     1      20.027  -1.491  87.683  1.00  0.00    -0.504 OA
ATOM     33  H   UNL     1      19.927  -2.011  88.547  1.00  0.00     0.293 HD
ENDBRANCH  22  32
ENDBRANCH  11  12
BRANCH  10  34
ATOM     34  O   UNL     1      23.861  -2.448  80.483  1.00  0.00    -0.507 OA
ATOM     35  H   UNL     1      23.268  -1.830  79.946  1.00  0.00     0.293 HD
ENDBRANCH  10  34
BRANCH   9  36
ATOM     36  C   UNL     1      30.035  -3.119  79.744  1.00  0.00     0.017 C 
ATOM     37  C   UNL     1      30.062  -4.092  80.926  1.00  0.00     0.012 C 
ATOM     38  C   UNL     1      30.815  -1.829  80.060  1.00  0.00     0.012 C 
ENDBRANCH   9  36
BRANCH   6  39
ATOM     39  C   UNL     1      24.494  -2.722  77.923  1.00  0.00     0.264 C 
ATOM     40  O   UNL     1      24.018  -3.689  77.270  1.00  0.00    -0.298 OA
ENDBRANCH   6  39
BRANCH   8  41
ATOM     41  O   UNL     1      29.254  -3.348  76.981  1.00  0.00    -0.504 OA
ATOM     42  H   UNL     1      29.900  -2.640  76.653  1.00  0.00     0.293 HD
ENDBRANCH   8  41
BRANCH   7  43
ATOM     43  O   UNL     1      26.653  -3.219  76.135  1.00  0.00    -0.504 OA
ATOM     44  H   UNL     1      27.367  -3.269  75.421  1.00  0.00     0.293 HD
ENDBRANCH   7  43
TORSDOF 11
ENDMDL
MODEL 3
REMARK VINA RESULT:    -6.668      3.946      6.459
REMARK INTER + INTRA:         -10.697
REMARK INTER:                  -9.683
REMARK INTRA:                  -1.014
REMARK UNBOUND:                -0.910
REMARK SMILES Cc1cc2c(C(C)C)c(O)c(O)c(C=O)c2c(O)c1-c1c(C)cc2c(C(C)C)c(O)c(O)c(C=O)c2c1O
REMARK SMILES IDX 1 1 2 2 3 3 4 4 16 5 13 6 11 7 9 8 5 9 17 10 19 11 20 12
REMARK SMILES IDX 37 13 21 14 36 15 23 16 22 17 24 18 33 19 25 20 31 21 29 22
REMARK SMILES IDX 38 23 34 25 35 26 26 27 27 28 28 29 32 30 30 32 18 34 6 36
REMARK SMILES IDX 7 37 8 38 14 39 15 40 10 41 12 43
REMARK H PARENT 38 24 32 31 30 33 18 35 10 42 12 44
REMARK Flexibility Score: inf
ROOT
ATOM      1  C   UNL     1      30.043  -3.460  81.785  1.00  0.00     0.045 C 
ATOM      2  C   UNL     1      28.886  -2.572  81.397  1.00  0.00    -0.039 A 
ATOM      3  C   UNL     1      27.868  -2.335  82.323  1.00  0.00     0.013 A 
ATOM      4  C   UNL     1      26.768  -1.503  82.022  1.00  0.00    -0.006 A 
ATOM      5  C   UNL     1      26.632  -1.000  80.695  1.00  0.00     0.039 A 
ATOM      6  C   UNL     1      25.415  -0.355  80.323  1.00  0.00     0.072 A 
ATOM      7  C   UNL     1      24.376  -0.222  81.267  1.00  0.00     0.169 A 
ATOM      8  C   UNL     1      24.566  -0.623  82.594  1.00  0.00     0.162 A 
ATOM      9  C   UNL     1      25.790  -1.185  83.012  1.00  0.00     0.008 A 
ATOM     10  C   UNL     1      27.730  -1.143  79.793  1.00  0.00     0.132 A 
ATOM     11  C   UNL     1      28.843  -1.937  80.145  1.00  0.00     0.031 A 
ENDROOT
BRANCH  11  12
ATOM     12  C   UNL     1      29.973  -2.105  79.195  1.00  0.00     0.031 A 
ATOM     13  C   UNL     1      31.145  -1.355  79.383  1.00  0.00     0.132 A 
ATOM     14  C   UNL     1      29.865  -2.978  78.098  1.00  0.00    -0.039 A 
ATOM     15  C   UNL     1      32.269  -1.557  78.532  1.00  0.00     0.039 A 
ATOM     16  C   UNL     1      30.886  -3.004  77.142  1.00  0.00     0.013 A 
ATOM     17  C   UNL     1      28.627  -3.812  77.884  1.00  0.00     0.045 C 
ATOM     18  C   UNL     1      32.071  -2.252  77.306  1.00  0.00    -0.006 A 
ATOM     19  C   UNL     1      33.577  -1.108  78.867  1.00  0.00     0.072 A 
ATOM     20  C   UNL     1      33.074  -2.205  76.293  1.00  0.00     0.008 A 
ATOM     21  C   UNL     1      34.608  -1.190  77.908  1.00  0.00     0.169 A 
ATOM     22  C   UNL     1      34.354  -1.715  76.633  1.00  0.00     0.162 A 
BRANCH  13  23
ATOM     23  O   UNL     1      31.125  -0.367  80.373  1.00  0.00    -0.507 OA
ATOM     24  H   UNL     1      31.519  -0.506  81.295  1.00  0.00     0.293 HD
ENDBRANCH  13  23
BRANCH  19  25
ATOM     25  C   UNL     1      33.937  -0.737  80.254  1.00  0.00     0.264 C 
ATOM     26  O   UNL     1      34.252   0.448  80.539  1.00  0.00    -0.298 OA
ENDBRANCH  19  25
BRANCH  20  27
ATOM     27  C   UNL     1      32.787  -2.674  74.856  1.00  0.00     0.017 C 
ATOM     28  C   UNL     1      33.236  -4.125  74.654  1.00  0.00     0.012 C 
ATOM     29  C   UNL     1      33.377  -1.748  73.778  1.00  0.00     0.012 C 
ENDBRANCH  20  27
BRANCH  21  30
ATOM     30  O   UNL     1      35.916  -0.782  78.198  1.00  0.00    -0.504 OA
ATOM     31  H   UNL     1      36.659  -0.721  77.516  1.00  0.00     0.293 HD
ENDBRANCH  21  30
BRANCH  22  32
ATOM     32  O   UNL     1      35.396  -1.787  75.705  1.00  0.00    -0.504 OA
ATOM     33  H   UNL     1      36.346  -1.508  75.918  1.00  0.00     0.293 HD
ENDBRANCH  22  32
ENDBRANCH  11  12
BRANCH  10  34
ATOM     34  O   UNL     1      27.729  -0.469  78.567  1.00  0.00    -0.507 OA
ATOM     35  H   UNL     1      28.460   0.162  78.268  1.00  0.00     0.293 HD
ENDBRANCH  10  34
BRANCH   9  36
ATOM     36  C   UNL     1      26.039  -1.447  84.508  1.00  0.00     0.017 C 
ATOM     37  C   UNL     1      25.208  -2.633  85.004  1.00  0.00     0.012 C 
ATOM     38  C   UNL     1      25.831  -0.206  85.395  1.00  0.00     0.012 C 
ENDBRANCH   9  36
BRANCH   6  39
ATOM     39  C   UNL     1      25.165   0.096  78.937  1.00  0.00     0.264 C 
ATOM     40  O   UNL     1      24.546  -0.642  78.125  1.00  0.00    -0.298 OA
ENDBRANCH   6  39
BRANCH   8  41
ATOM     41  O   UNL     1      23.516  -0.485  83.506  1.00  0.00    -0.504 OA
ATOM     42  H   UNL     1      23.403   0.327  84.102  1.00  0.00     0.293 HD
ENDBRANCH   8  41
BRANCH   7  43
ATOM     43  O   UNL     1      23.122   0.291  80.910  1.00  0.00    -0.504 OA
ATOM     44  H   UNL     1      22.982   1.192  80.475  1.00  0.00     0.293 HD
ENDBRANCH   7  43
TORSDOF 11
ENDMDL
MODEL 4
REMARK VINA RESULT:    -6.620      4.447     10.935
REMARK INTER + INTRA:         -10.625
REMARK INTER:                  -9.613
REMARK INTRA:                  -1.012
REMARK UNBOUND:                -0.910
REMARK SMILES Cc1cc2c(C(C)C)c(O)c(O)c(C=O)c2c(O)c1-c1c(C)cc2c(C(C)C)c(O)c(O)c(C=O)c2c1O
REMARK SMILES IDX 1 1 2 2 3 3 4 4 16 5 13 6 11 7 9 8 5 9 17 10 19 11 20 12
REMARK SMILES IDX 37 13 21 14 36 15 23 16 22 17 24 18 33 19 25 20 31 21 29 22
REMARK SMILES IDX 38 23 34 25 35 26 26 27 27 28 28 29 32 30 30 32 18 34 6 36
REMARK SMILES IDX 7 37 8 38 14 39 15 40 10 41 12 43
REMARK H PARENT 38 24 32 31 30 33 18 35 10 42 12 44
REMARK Flexibility Score: inf
ROOT
ATOM      1  C   UNL     1      29.702  -3.417  77.457  1.00  0.00     0.045 C 
ATOM      2  C   UNL     1      30.867  -2.554  77.875  1.00  0.00    -0.039 A 
ATOM      3  C   UNL     1      31.900  -2.316  76.966  1.00  0.00     0.013 A 
ATOM      4  C   UNL     1      33.008  -1.506  77.296  1.00  0.00    -0.006 A 
ATOM      5  C   UNL     1      33.134  -1.028  78.634  1.00  0.00     0.039 A 
ATOM      6  C   UNL     1      34.356  -0.407  79.032  1.00  0.00     0.072 A 
ATOM      7  C   UNL     1      35.409  -0.275  78.104  1.00  0.00     0.169 A 
ATOM      8  C   UNL     1      35.231  -0.650  76.768  1.00  0.00     0.162 A 
ATOM      9  C   UNL     1      34.004  -1.186  76.324  1.00  0.00     0.008 A 
ATOM     10  C   UNL     1      32.023  -1.169  79.518  1.00  0.00     0.132 A 
ATOM     11  C   UNL     1      30.902  -1.940  79.138  1.00  0.00     0.031 A 
ENDROOT
BRANCH  11  12
ATOM     12  C   UNL     1      29.757  -2.107  80.070  1.00  0.00     0.031 A 
ATOM     13  C   UNL     1      28.591  -1.354  79.866  1.00  0.00     0.132 A 
ATOM     14  C   UNL     1      29.846  -2.983  81.167  1.00  0.00    -0.039 A 
ATOM     15  C   UNL     1      27.453  -1.554  80.699  1.00  0.00     0.039 A 
ATOM     16  C   UNL     1      28.811  -3.008  82.107  1.00  0.00     0.013 A 
ATOM     17  C   UNL     1      31.078  -3.820  81.399  1.00  0.00     0.045 C 
ATOM     18  C   UNL     1      27.630  -2.252  81.927  1.00  0.00    -0.006 A 
ATOM     19  C   UNL     1      26.152  -1.101  80.345  1.00  0.00     0.072 A 
ATOM     20  C   UNL     1      26.612  -2.205  82.925  1.00  0.00     0.008 A 
ATOM     21  C   UNL     1      25.105  -1.182  81.288  1.00  0.00     0.169 A 
ATOM     22  C   UNL     1      25.338  -1.710  82.565  1.00  0.00     0.162 A 
BRANCH  13  23
ATOM     23  O   UNL     1      28.628  -0.364  78.878  1.00  0.00    -0.507 OA
ATOM     24  H   UNL     1      29.469   0.148  78.646  1.00  0.00     0.293 HD
ENDBRANCH  13  23
BRANCH  19  25
ATOM     25  C   UNL     1      25.814  -0.727  78.953  1.00  0.00     0.264 C 
ATOM     26  O   UNL     1      25.528   0.464  78.662  1.00  0.00    -0.298 OA
ENDBRANCH  19  25
BRANCH  20  27
ATOM     27  C   UNL     1      26.876  -2.677  84.365  1.00  0.00     0.017 C 
ATOM     28  C   UNL     1      26.343  -4.097  84.581  1.00  0.00     0.012 C 
ATOM     29  C   UNL     1      26.343  -1.709  85.436  1.00  0.00     0.012 C 
ENDBRANCH  20  27
BRANCH  21  30
ATOM     30  O   UNL     1      23.803  -0.770  80.979  1.00  0.00    -0.504 OA
ATOM     31  H   UNL     1      22.966  -1.262  81.262  1.00  0.00     0.293 HD
ENDBRANCH  21  30
BRANCH  22  32
ATOM     32  O   UNL     1      24.282  -1.782  83.477  1.00  0.00    -0.504 OA
ATOM     33  H   UNL     1      23.482  -2.390  83.349  1.00  0.00     0.293 HD
ENDBRANCH  22  32
ENDBRANCH  11  12
BRANCH  10  34
ATOM     34  O   UNL     1      32.017  -0.516  80.756  1.00  0.00    -0.507 OA
ATOM     35  H   UNL     1      32.757   0.092  81.077  1.00  0.00     0.293 HD
ENDBRANCH  10  34
BRANCH   9  36
ATOM     36  C   UNL     1      33.771  -1.419  74.821  1.00  0.00     0.017 C 
ATOM     37  C   UNL     1      34.562  -2.632  74.324  1.00  0.00     0.012 C 
ATOM     38  C   UNL     1      34.045  -0.177  73.955  1.00  0.00     0.012 C 
ENDBRANCH   9  36
BRANCH   6  39
ATOM     39  C   UNL     1      34.594   0.016  80.428  1.00  0.00     0.264 C 
ATOM     40  O   UNL     1      35.201  -0.740  81.233  1.00  0.00    -0.298 OA
ENDBRANCH   6  39
BRANCH   8  41
ATOM     41  O   UNL     1      36.295  -0.513  75.872  1.00  0.00    -0.504 OA
ATOM     42  H   UNL     1      37.223  -0.222  76.156  1.00  0.00     0.293 HD
ENDBRANCH   8  41
BRANCH   7  43
ATOM     43  O   UNL     1      36.666   0.213  78.486  1.00  0.00    -0.504 OA
ATOM     44  H   UNL     1      37.328  -0.305  79.047  1.00  0.00     0.293 HD
ENDBRANCH   7  43
TORSDOF 11
ENDMDL
MODEL 5
REMARK VINA RESULT:    -6.236      2.383      9.156
REMARK INTER + INTRA:         -10.063
REMARK INTER:                  -9.056
REMARK INTRA:                  -1.006
REMARK UNBOUND:                -0.910
REMARK SMILES Cc1cc2c(C(C)C)c(O)c(O)c(C=O)c2c(O)c1-c1c(C)cc2c(C(C)C)c(O)c(O)c(C=O)c2c1O
REMARK SMILES IDX 1 1 2 2 3 3 4 4 16 5 13 6 11 7 9 8 5 9 17 10 19 11 20 12
REMARK SMILES IDX 37 13 21 14 36 15 23 16 22 17 24 18 33 19 25 20 31 21 29 22
REMARK SMILES IDX 38 23 34 25 35 26 26 27 27 28 28 29 32 30 30 32 18 34 6 36
REMARK SMILES IDX 7 37 8 38 14 39 15 40 10 41 12 43
REMARK H PARENT 38 24 32 31 30 33 18 35 10 42 12 44
REMARK Flexibility Score: inf
ROOT
ATOM      1  C   UNL     1      27.273  -0.549  83.272  1.00  0.00     0.045 C 
ATOM      2  C   UNL     1      26.859  -1.184  81.967  1.00  0.00    -0.039 A 
ATOM      3  C   UNL     1      27.843  -1.606  81.071  1.00  0.00     0.013 A 
ATOM      4  C   UNL     1      27.516  -2.219  79.842  1.00  0.00    -0.006 A 
ATOM      5  C   UNL     1      26.146  -2.288  79.454  1.00  0.00     0.039 A 
ATOM      6  C   UNL     1      25.825  -2.693  78.124  1.00  0.00     0.072 A 
ATOM      7  C   UNL     1      26.860  -3.018  77.222  1.00  0.00     0.169 A 
ATOM      8  C   UNL     1      28.191  -3.051  77.650  1.00  0.00     0.162 A 
ATOM      9  C   UNL     1      28.531  -2.739  78.984  1.00  0.00     0.008 A 
ATOM     10  C   UNL     1      25.144  -1.970  80.420  1.00  0.00     0.132 A 
ATOM     11  C   UNL     1      25.506  -1.410  81.664  1.00  0.00     0.031 A 
ENDROOT
BRANCH  11  12
ATOM     12  C   UNL     1      24.460  -1.055  82.659  1.00  0.00     0.031 A 
ATOM     13  C   UNL     1      23.775   0.163  82.529  1.00  0.00     0.132 A 
ATOM     14  C   UNL     1      24.180  -1.908  83.741  1.00  0.00    -0.039 A 
ATOM     15  C   UNL     1      22.715   0.488  83.423  1.00  0.00     0.039 A 
ATOM     16  C   UNL     1      23.298  -1.479  84.738  1.00  0.00     0.013 A 
ATOM     17  C   UNL     1      24.885  -3.232  83.894  1.00  0.00     0.045 C 
ATOM     18  C   UNL     1      22.602  -0.254  84.632  1.00  0.00    -0.006 A 
ATOM     19  C   UNL     1      21.763   1.509  83.148  1.00  0.00     0.072 A 
ATOM     20  C   UNL     1      21.771   0.229  85.687  1.00  0.00     0.008 A 
ATOM     21  C   UNL     1      20.845   1.893  84.149  1.00  0.00     0.169 A 
ATOM     22  C   UNL     1      20.862   1.273  85.405  1.00  0.00     0.162 A 
BRANCH  13  23
ATOM     23  O   UNL     1      24.225   1.054  81.549  1.00  0.00    -0.507 OA
ATOM     24  H   UNL     1      25.039   0.873  80.975  1.00  0.00     0.293 HD
ENDBRANCH  13  23
BRANCH  19  25
ATOM     25  C   UNL     1      21.576   2.045  81.781  1.00  0.00     0.264 C 
ATOM     26  O   UNL     1      21.239   3.246  81.605  1.00  0.00    -0.298 OA
ENDBRANCH  19  25
BRANCH  20  27
ATOM     27  C   UNL     1      21.849  -0.362  87.105  1.00  0.00     0.017 C 
ATOM     28  C   UNL     1      23.177   0.000  87.777  1.00  0.00     0.012 C 
ATOM     29  C   UNL     1      21.590  -1.879  87.154  1.00  0.00     0.012 C 
ENDBRANCH  20  27
BRANCH  21  30
ATOM     30  O   UNL     1      19.875   2.876  83.918  1.00  0.00    -0.504 OA
ATOM     31  H   UNL     1      19.377   2.993  83.046  1.00  0.00     0.293 HD
ENDBRANCH  21  30
BRANCH  22  32
ATOM     32  O   UNL     1      19.939   1.671  86.376  1.00  0.00    -0.504 OA
ATOM     33  H   UNL     1      19.704   2.641  86.549  1.00  0.00     0.293 HD
ENDBRANCH  22  32
ENDBRANCH  11  12
BRANCH  10  34
ATOM     34  O   UNL     1      23.797  -2.243  80.157  1.00  0.00    -0.507 OA
ATOM     35  H   UNL     1      23.174  -2.695  80.812  1.00  0.00     0.293 HD
ENDBRANCH  10  34
BRANCH   9  36
ATOM     36  C   UNL     1      29.972  -2.959  79.476  1.00  0.00     0.017 C 
ATOM     37  C   UNL     1      29.997  -3.850  80.721  1.00  0.00     0.012 C 
ATOM     38  C   UNL     1      30.752  -1.651  79.706  1.00  0.00     0.012 C 
ENDBRANCH   9  36
BRANCH   6  39
ATOM     39  C   UNL     1      24.435  -2.686  77.622  1.00  0.00     0.264 C 
ATOM     40  O   UNL     1      23.844  -3.766  77.356  1.00  0.00    -0.298 OA
ENDBRANCH   6  39
BRANCH   8  41
ATOM     41  O   UNL     1      29.196  -3.371  76.733  1.00  0.00    -0.504 OA
ATOM     42  H   UNL     1      30.163  -3.093  76.853  1.00  0.00     0.293 HD
ENDBRANCH   8  41
BRANCH   7  43
ATOM     43  O   UNL     1      26.597  -3.299  75.875  1.00  0.00    -0.504 OA
ATOM     44  H   UNL     1      26.586  -4.230  75.483  1.00  0.00     0.293 HD
ENDBRANCH   7  43
TORSDOF 11
ENDMDL
MODEL 6
REMARK VINA RESULT:    -6.050      7.857     14.511
REMARK INTER + INTRA:          -9.790
REMARK INTER:                 -10.174
REMARK INTRA:                   0.384
REMARK UNBOUND:                -0.910
REMARK SMILES Cc1cc2c(C(C)C)c(O)c(O)c(C=O)c2c(O)c1-c1c(C)cc2c(C(C)C)c(O)c(O)c(C=O)c2c1O
REMARK SMILES IDX 1 1 2 2 3 3 4 4 16 5 13 6 11 7 9 8 5 9 17 10 19 11 20 12
REMARK SMILES IDX 37 13 21 14 36 15 23 16 22 17 24 18 33 19 25 20 31 21 29 22
REMARK SMILES IDX 38 23 34 25 35 26 26 27 27 28 28 29 32 30 30 32 18 34 6 36
REMARK SMILES IDX 7 37 8 38 14 39 15 40 10 41 12 43
REMARK H PARENT 38 24 32 31 30 33 18 35 10 42 12 44
REMARK Flexibility Score: inf
ROOT
ATOM      1  C   UNL     1      34.297   1.288  76.791  1.00  0.00     0.045 C 
ATOM      2  C   UNL     1      35.071   0.378  75.869  1.00  0.00    -0.039 A 
ATOM      3  C   UNL     1      35.787   0.932  74.807  1.00  0.00     0.013 A 
ATOM      4  C   UNL     1      36.540   0.134  73.920  1.00  0.00    -0.006 A 
ATOM      5  C   UNL     1      36.460  -1.286  74.039  1.00  0.00     0.039 A 
ATOM      6  C   UNL     1      37.029  -2.097  73.013  1.00  0.00     0.072 A 
ATOM      7  C   UNL     1      37.659  -1.490  71.908  1.00  0.00     0.169 A 
ATOM      8  C   UNL     1      37.826  -0.101  71.859  1.00  0.00     0.162 A 
ATOM      9  C   UNL     1      37.350   0.722  72.902  1.00  0.00     0.008 A 
ATOM     10  C   UNL     1      35.831  -1.840  75.194  1.00  0.00     0.132 A 
ATOM     11  C   UNL     1      35.132  -1.007  76.095  1.00  0.00     0.031 A 
ENDROOT
BRANCH  11  12
ATOM     12  C   UNL     1      34.456  -1.590  77.283  1.00  0.00     0.031 A 
ATOM     13  C   UNL     1      33.075  -1.837  77.234  1.00  0.00     0.132 A 
ATOM     14  C   UNL     1      35.178  -1.860  78.459  1.00  0.00    -0.039 A 
ATOM     15  C   UNL     1      32.420  -2.466  78.331  1.00  0.00     0.039 A 
ATOM     16  C   UNL     1      34.488  -2.268  79.606  1.00  0.00     0.013 A 
ATOM     17  C   UNL     1      36.665  -1.625  78.533  1.00  0.00     0.045 C 
ATOM     18  C   UNL     1      33.097  -2.516  79.582  1.00  0.00    -0.006 A 
ATOM     19  C   UNL     1      31.131  -3.058  78.220  1.00  0.00     0.072 A 
ATOM     20  C   UNL     1      32.375  -2.845  80.768  1.00  0.00     0.008 A 
ATOM     21  C   UNL     1      30.471  -3.513  79.381  1.00  0.00     0.169 A 
ATOM     22  C   UNL     1      31.078  -3.391  80.638  1.00  0.00     0.162 A 
BRANCH  13  23
ATOM     23  O   UNL     1      32.377  -1.374  76.114  1.00  0.00    -0.507 OA
ATOM     24  H   UNL     1      32.305  -1.903  75.254  1.00  0.00     0.293 HD
ENDBRANCH  13  23
BRANCH  19  25
ATOM     25  C   UNL     1      30.542  -3.390  76.903  1.00  0.00     0.264 C 
ATOM     26  O   UNL     1      29.347  -3.088  76.641  1.00  0.00    -0.298 OA
ENDBRANCH  19  25
BRANCH  20  27
ATOM     27  C   UNL     1      32.978  -2.618  82.165  1.00  0.00     0.017 C 
ATOM     28  C   UNL     1      33.677  -1.257  82.244  1.00  0.00     0.012 C 
ATOM     29  C   UNL     1      33.909  -3.755  82.624  1.00  0.00     0.012 C 
ENDBRANCH  20  27
BRANCH  21  30
ATOM     30  O   UNL     1      29.212  -4.122  79.320  1.00  0.00    -0.504 OA
ATOM     31  H   UNL     1      28.334  -3.620  79.314  1.00  0.00     0.293 HD
ENDBRANCH  21  30
BRANCH  22  32
ATOM     32  O   UNL     1      30.403  -3.853  81.771  1.00  0.00    -0.504 OA
ATOM     33  H   UNL     1      30.514  -3.439  82.688  1.00  0.00     0.293 HD
ENDBRANCH  22  32
ENDBRANCH  11  12
BRANCH  10  34
ATOM     34  O   UNL     1      35.931  -3.210  75.465  1.00  0.00    -0.507 OA
ATOM     35  H   UNL     1      35.198  -3.755  75.897  1.00  0.00     0.293 HD
ENDBRANCH  10  34
BRANCH   9  36
ATOM     36  C   UNL     1      37.705   2.219  72.916  1.00  0.00     0.017 C 
ATOM     37  C   UNL     1      36.440   3.083  72.899  1.00  0.00     0.012 C 
ATOM     38  C   UNL     1      38.682   2.632  71.801  1.00  0.00     0.012 C 
ENDBRANCH   9  36
BRANCH   6  39
ATOM     39  C   UNL     1      36.891  -3.569  73.019  1.00  0.00     0.264 C 
ATOM     40  O   UNL     1      35.926  -4.125  72.429  1.00  0.00    -0.298 OA
ENDBRANCH   6  39
BRANCH   8  41
ATOM     41  O   UNL     1      38.449   0.474  70.749  1.00  0.00    -0.504 OA
ATOM     42  H   UNL     1      38.126   1.332  70.316  1.00  0.00     0.293 HD
ENDBRANCH   8  41
BRANCH   7  43
ATOM     43  O   UNL     1      38.120  -2.243  70.820  1.00  0.00    -0.504 OA
ATOM     44  H   UNL     1      37.847  -3.199  70.637  1.00  0.00     0.293 HD
ENDBRANCH   7  43
TORSDOF 11
ENDMDL
MODEL 7
REMARK VINA RESULT:    -6.020      2.067      8.963
REMARK INTER + INTRA:          -9.746
REMARK INTER:                  -8.950
REMARK INTRA:                  -0.796
REMARK UNBOUND:                -0.910
REMARK SMILES Cc1cc2c(C(C)C)c(O)c(O)c(C=O)c2c(O)c1-c1c(C)cc2c(C(C)C)c(O)c(O)c(C=O)c2c1O
REMARK SMILES IDX 1 1 2 2 3 3 4 4 16 5 13 6 11 7 9 8 5 9 17 10 19 11 20 12
REMARK SMILES IDX 37 13 21 14 36 15 23 16 22 17 24 18 33 19 25 20 31 21 29 22
REMARK SMILES IDX 38 23 34 25 35 26 26 27 27 28 28 29 32 30 30 32 18 34 6 36
REMARK SMILES IDX 7 37 8 38 14 39 15 40 10 41 12 43
REMARK H PARENT 38 24 32 31 30 33 18 35 10 42 12 44
REMARK Flexibility Score: inf
ROOT
ATOM      1  C   UNL     1      22.221  -1.993  80.482  1.00  0.00     0.045 C 
ATOM      2  C   UNL     1      23.720  -2.043  80.651  1.00  0.00    -0.039 A 
ATOM      3  C   UNL     1      24.506  -2.554  79.617  1.00  0.00     0.013 A 
ATOM      4  C   UNL     1      25.913  -2.614  79.712  1.00  0.00    -0.006 A 
ATOM      5  C   UNL     1      26.532  -2.261  80.948  1.00  0.00     0.039 A 
ATOM      6  C   UNL     1      27.921  -2.535  81.127  1.00  0.00     0.072 A 
ATOM      7  C   UNL     1      28.655  -3.142  80.087  1.00  0.00     0.169 A 
ATOM      8  C   UNL     1      28.060  -3.382  78.843  1.00  0.00     0.162 A 
ATOM      9  C   UNL     1      26.711  -3.042  78.608  1.00  0.00     0.008 A 
ATOM     10  C   UNL     1      25.741  -1.626  81.952  1.00  0.00     0.132 A 
ATOM     11  C   UNL     1      24.340  -1.532  81.802  1.00  0.00     0.031 A 
ENDROOT
BRANCH  11  12
ATOM     12  C   UNL     1      23.516  -0.894  82.861  1.00  0.00     0.031 A 
ATOM     13  C   UNL     1      23.058   0.420  82.676  1.00  0.00     0.132 A 
ATOM     14  C   UNL     1      23.222  -1.579  84.053  1.00  0.00    -0.039 A 
ATOM     15  C   UNL     1      22.201   1.024  83.640  1.00  0.00     0.039 A 
ATOM     16  C   UNL     1      22.571  -0.900  85.089  1.00  0.00     0.013 A 
ATOM     17  C   UNL     1      23.682  -2.998  84.271  1.00  0.00     0.045 C 
ATOM     18  C   UNL     1      22.108   0.425  84.928  1.00  0.00    -0.006 A 
ATOM     19  C   UNL     1      21.429   2.186  83.362  1.00  0.00     0.072 A 
ATOM     20  C   UNL     1      21.524   1.151  86.008  1.00  0.00     0.008 A 
ATOM     21  C   UNL     1      20.735   2.828  84.409  1.00  0.00     0.169 A 
ATOM     22  C   UNL     1      20.797   2.327  85.716  1.00  0.00     0.162 A 
BRANCH  13  23
ATOM     23  O   UNL     1      23.537   1.118  81.561  1.00  0.00    -0.507 OA
ATOM     24  H   UNL     1      23.441   0.772  80.615  1.00  0.00     0.293 HD
ENDBRANCH  13  23
BRANCH  19  25
ATOM     25  C   UNL     1      21.171   2.630  81.973  1.00  0.00     0.264 C 
ATOM     26  O   UNL     1      21.157   3.856  81.686  1.00  0.00    -0.298 OA
ENDBRANCH  19  25
BRANCH  20  27
ATOM     27  C   UNL     1      21.672   0.679  87.465  1.00  0.00     0.017 C 
ATOM     28  C   UNL     1      23.140   0.704  87.902  1.00  0.00     0.012 C 
ATOM     29  C   UNL     1      21.029  -0.693  87.735  1.00  0.00     0.012 C 
ENDBRANCH  20  27
BRANCH  21  30
ATOM     30  O   UNL     1      19.943   3.960  84.181  1.00  0.00    -0.504 OA
ATOM     31  H   UNL     1      19.862   4.429  83.289  1.00  0.00     0.293 HD
ENDBRANCH  21  30
BRANCH  22  32
ATOM     32  O   UNL     1      20.097   2.981  86.732  1.00  0.00    -0.504 OA
ATOM     33  H   UNL     1      19.157   2.724  87.010  1.00  0.00     0.293 HD
ENDBRANCH  22  32
ENDBRANCH  11  12
BRANCH  10  34
ATOM     34  O   UNL     1      26.350  -1.060  83.078  1.00  0.00    -0.507 OA
ATOM     35  H   UNL     1      27.047  -0.330  83.036  1.00  0.00     0.293 HD
ENDBRANCH  10  34
BRANCH   9  36
ATOM     36  C   UNL     1      26.134  -3.144  77.186  1.00  0.00     0.017 C 
ATOM     37  C   UNL     1      25.768  -1.761  76.640  1.00  0.00     0.012 C 
ATOM     38  C   UNL     1      24.953  -4.125  77.068  1.00  0.00     0.012 C 
ENDBRANCH   9  36
BRANCH   6  39
ATOM     39  C   UNL     1      28.602  -2.294  82.416  1.00  0.00     0.264 C 
ATOM     40  O   UNL     1      29.165  -3.238  83.031  1.00  0.00    -0.298 OA
ENDBRANCH   6  39
BRANCH   8  41
ATOM     41  O   UNL     1      28.810  -3.991  77.833  1.00  0.00    -0.504 OA
ATOM     42  H   UNL     1      28.508  -4.827  77.347  1.00  0.00     0.293 HD
ENDBRANCH   8  41
BRANCH   7  43
ATOM     43  O   UNL     1      29.986  -3.542  80.264  1.00  0.00    -0.504 OA
ATOM     44  H   UNL     1      30.645  -3.666  79.508  1.00  0.00     0.293 HD
ENDBRANCH   7  43
TORSDOF 11
ENDMDL
MODEL 8
REMARK VINA RESULT:    -5.942     15.970     18.895
REMARK INTER + INTRA:          -9.631
REMARK INTER:                  -9.689
REMARK INTRA:                   0.058
REMARK UNBOUND:                -0.910
REMARK SMILES Cc1cc2c(C(C)C)c(O)c(O)c(C=O)c2c(O)c1-c1c(C)cc2c(C(C)C)c(O)c(O)c(C=O)c2c1O
REMARK SMILES IDX 1 1 2 2 3 3 4 4 16 5 13 6 11 7 9 8 5 9 17 10 19 11 20 12
REMARK SMILES IDX 37 13 21 14 36 15 23 16 22 17 24 18 33 19 25 20 31 21 29 22
REMARK SMILES IDX 38 23 34 25 35 26 26 27 27 28 28 29 32 30 30 32 18 34 6 36
REMARK SMILES IDX 7 37 8 38 14 39 15 40 10 41 12 43
REMARK H PARENT 38 24 32 31 30 33 18 35 10 42 12 44
REMARK Flexibility Score: inf
ROOT
ATOM      1  C   UNL     1      30.117  16.055  82.012  1.00  0.00     0.045 C 
ATOM      2  C   UNL     1      31.076  15.297  81.128  1.00  0.00    -0.039 A 
ATOM      3  C   UNL     1      32.409  15.168  81.522  1.00  0.00     0.013 A 
ATOM      4  C   UNL     1      33.350  14.459  80.744  1.00  0.00    -0.006 A 
ATOM      5  C   UNL     1      32.953  13.976  79.462  1.00  0.00     0.039 A 
ATOM      6  C   UNL     1      33.950  13.465  78.578  1.00  0.00     0.072 A 
ATOM      7  C   UNL     1      35.300  13.443  78.984  1.00  0.00     0.169 A 
ATOM      8  C   UNL     1      35.659  13.819  80.283  1.00  0.00     0.162 A 
ATOM      9  C   UNL     1      34.683  14.246  81.208  1.00  0.00     0.008 A 
ATOM     10  C   UNL     1      31.568  14.002  79.120  1.00  0.00     0.132 A 
ATOM     11  C   UNL     1      30.641  14.671  79.949  1.00  0.00     0.031 A 
ENDROOT
BRANCH  11  12
ATOM     12  C   UNL     1      29.203  14.720  79.578  1.00  0.00     0.031 A 
ATOM     13  C   UNL     1      28.263  14.058  80.384  1.00  0.00     0.132 A 
ATOM     14  C   UNL     1      28.783  15.388  78.414  1.00  0.00    -0.039 A 
ATOM     15  C   UNL     1      26.873  14.156  80.093  1.00  0.00     0.039 A 
ATOM     16  C   UNL     1      27.446  15.291  78.014  1.00  0.00     0.013 A 
ATOM     17  C   UNL     1      29.766  16.125  77.540  1.00  0.00     0.045 C 
ATOM     18  C   UNL     1      26.485  14.624  78.806  1.00  0.00    -0.006 A 
ATOM     19  C   UNL     1      25.864  13.821  81.039  1.00  0.00     0.072 A 
ATOM     20  C   UNL     1      25.142  14.444  78.360  1.00  0.00     0.008 A 
ATOM     21  C   UNL     1      24.514  13.779  80.631  1.00  0.00     0.169 A 
ATOM     22  C   UNL     1      24.162  14.069  79.306  1.00  0.00     0.162 A 
BRANCH  13  23
ATOM     23  O   UNL     1      28.756  13.253  81.418  1.00  0.00    -0.507 OA
ATOM     24  H   UNL     1      29.715  12.933  81.455  1.00  0.00     0.293 HD
ENDBRANCH  13  23
BRANCH  19  25
ATOM     25  C   UNL     1      26.164  13.706  82.484  1.00  0.00     0.264 C 
ATOM     26  O   UNL     1      25.613  12.816  83.184  1.00  0.00    -0.298 OA
ENDBRANCH  19  25
BRANCH  20  27
ATOM     27  C   UNL     1      24.750  14.651  76.887  1.00  0.00     0.017 C 
ATOM     28  C   UNL     1      23.856  15.884  76.726  1.00  0.00     0.012 C 
ATOM     29  C   UNL     1      24.113  13.407  76.240  1.00  0.00     0.012 C 
ENDBRANCH  20  27
BRANCH  21  30
ATOM     30  O   UNL     1      23.484  13.477  81.530  1.00  0.00    -0.504 OA
ATOM     31  H   UNL     1      23.057  14.147  82.155  1.00  0.00     0.293 HD
ENDBRANCH  21  30
BRANCH  22  32
ATOM     32  O   UNL     1      22.816  14.023  78.932  1.00  0.00    -0.504 OA
ATOM     33  H   UNL     1      22.226  14.845  78.889  1.00  0.00     0.293 HD
ENDBRANCH  22  32
ENDBRANCH  11  12
BRANCH  10  34
ATOM     34  O   UNL     1      31.108  13.334  77.979  1.00  0.00    -0.507 OA
ATOM     35  H   UNL     1      31.495  13.464  77.054  1.00  0.00     0.293 HD
ENDBRANCH  10  34
BRANCH   9  36
ATOM     36  C   UNL     1      35.073  14.478  82.679  1.00  0.00     0.017 C 
ATOM     37  C   UNL     1      36.014  15.677  82.815  1.00  0.00     0.012 C 
ATOM     38  C   UNL     1      35.652  13.229  83.367  1.00  0.00     0.012 C 
ENDBRANCH   9  36
BRANCH   6  39
ATOM     39  C   UNL     1      33.626  13.046  77.198  1.00  0.00     0.264 C 
ATOM     40  O   UNL     1      34.294  13.480  76.223  1.00  0.00    -0.298 OA
ENDBRANCH   6  39
BRANCH   8  41
ATOM     41  O   UNL     1      37.006  13.793  80.656  1.00  0.00    -0.504 OA
ATOM     42  H   UNL     1      37.608  14.606  80.607  1.00  0.00     0.293 HD
ENDBRANCH   8  41
BRANCH   7  43
ATOM     43  O   UNL     1      36.325  13.068  78.105  1.00  0.00    -0.504 OA
ATOM     44  H   UNL     1      37.090  13.672  77.836  1.00  0.00     0.293 HD
ENDBRANCH   7  43
TORSDOF 11
ENDMDL
MODEL 9
REMARK VINA RESULT:    -5.783      5.192     11.839
REMARK INTER + INTRA:          -9.397
REMARK INTER:                  -8.537
REMARK INTRA:                  -0.860
REMARK UNBOUND:                -0.910
REMARK SMILES Cc1cc2c(C(C)C)c(O)c(O)c(C=O)c2c(O)c1-c1c(C)cc2c(C(C)C)c(O)c(O)c(C=O)c2c1O
REMARK SMILES IDX 1 1 2 2 3 3 4 4 16 5 13 6 11 7 9 8 5 9 17 10 19 11 20 12
REMARK SMILES IDX 37 13 21 14 36 15 23 16 22 17 24 18 33 19 25 20 31 21 29 22
REMARK SMILES IDX 38 23 34 25 35 26 26 27 27 28 28 29 32 30 30 32 18 34 6 36
REMARK SMILES IDX 7 37 8 38 14 39 15 40 10 41 12 43
REMARK H PARENT 38 24 32 31 30 33 18 35 10 42 12 44
REMARK Flexibility Score: inf
ROOT
ATOM      1  C   UNL     1      33.174  -0.075  81.126  1.00  0.00     0.045 C 
ATOM      2  C   UNL     1      33.602  -0.969  79.989  1.00  0.00    -0.039 A 
ATOM      3  C   UNL     1      34.858  -0.779  79.407  1.00  0.00     0.013 A 
ATOM      4  C   UNL     1      35.318  -1.592  78.350  1.00  0.00    -0.006 A 
ATOM      5  C   UNL     1      34.424  -2.546  77.778  1.00  0.00     0.039 A 
ATOM      6  C   UNL     1      34.798  -3.206  76.570  1.00  0.00     0.072 A 
ATOM      7  C   UNL     1      36.038  -2.910  75.967  1.00  0.00     0.169 A 
ATOM      8  C   UNL     1      36.950  -2.056  76.596  1.00  0.00     0.162 A 
ATOM      9  C   UNL     1      36.642  -1.455  77.835  1.00  0.00     0.008 A 
ATOM     10  C   UNL     1      33.195  -2.819  78.451  1.00  0.00     0.132 A 
ATOM     11  C   UNL     1      32.787  -2.022  79.543  1.00  0.00     0.031 A 
ENDROOT
BRANCH  11  12
ATOM     12  C   UNL     1      31.495  -2.292  80.226  1.00  0.00     0.031 A 
ATOM     13  C   UNL     1      30.297  -1.902  79.608  1.00  0.00     0.132 A 
ATOM     14  C   UNL     1      31.466  -2.900  81.494  1.00  0.00    -0.039 A 
ATOM     15  C   UNL     1      29.045  -2.219  80.206  1.00  0.00     0.039 A 
ATOM     16  C   UNL     1      30.248  -3.005  82.174  1.00  0.00     0.013 A 
ATOM     17  C   UNL     1      32.735  -3.349  82.173  1.00  0.00     0.045 C 
ATOM     18  C   UNL     1      29.031  -2.612  81.574  1.00  0.00    -0.006 A 
ATOM     19  C   UNL     1      27.817  -2.176  79.488  1.00  0.00     0.072 A 
ATOM     20  C   UNL     1      27.800  -2.634  82.294  1.00  0.00     0.008 A 
ATOM     21  C   UNL     1      26.599  -2.337  80.182  1.00  0.00     0.169 A 
ATOM     22  C   UNL     1      26.591  -2.545  81.568  1.00  0.00     0.162 A 
BRANCH  13  23
ATOM     23  O   UNL     1      30.395  -1.134  78.442  1.00  0.00    -0.507 OA
ATOM     24  H   UNL     1      29.946  -0.233  78.339  1.00  0.00     0.293 HD
ENDBRANCH  13  23
BRANCH  19  25
ATOM     25  C   UNL     1      27.785  -2.161  78.008  1.00  0.00     0.264 C 
ATOM     26  O   UNL     1      27.121  -3.023  77.374  1.00  0.00    -0.298 OA
ENDBRANCH  19  25
BRANCH  20  27
ATOM     27  C   UNL     1      27.768  -2.752  83.828  1.00  0.00     0.017 C 
ATOM     28  C   UNL     1      27.192  -4.103  84.261  1.00  0.00     0.012 C 
ATOM     29  C   UNL     1      27.042  -1.584  84.519  1.00  0.00     0.012 C 
ENDBRANCH  20  27
BRANCH  21  30
ATOM     30  O   UNL     1      25.367  -2.324  79.516  1.00  0.00    -0.504 OA
ATOM     31  H   UNL     1      24.721  -1.547  79.525  1.00  0.00     0.293 HD
ENDBRANCH  21  30
BRANCH  22  32
ATOM     32  O   UNL     1      25.370  -2.706  82.227  1.00  0.00    -0.504 OA
ATOM     33  H   UNL     1      24.910  -1.955  82.727  1.00  0.00     0.293 HD
ENDBRANCH  22  32
ENDBRANCH  11  12
BRANCH  10  34
ATOM     34  O   UNL     1      32.399  -3.901  78.058  1.00  0.00    -0.507 OA
ATOM     35  H   UNL     1      32.766  -4.766  77.685  1.00  0.00     0.293 HD
ENDBRANCH  10  34
BRANCH   9  36
ATOM     36  C   UNL     1      37.727  -0.669  78.593  1.00  0.00     0.017 C 
ATOM     37  C   UNL     1      38.050   0.647  77.880  1.00  0.00     0.012 C 
ATOM     38  C   UNL     1      39.002  -1.486  78.869  1.00  0.00     0.012 C 
ENDBRANCH   9  36
BRANCH   6  39
ATOM     39  C   UNL     1      33.878  -4.125  75.868  1.00  0.00     0.264 C 
ATOM     40  O   UNL     1      33.156  -3.711  74.923  1.00  0.00    -0.298 OA
ENDBRANCH   6  39
BRANCH   8  41
ATOM     41  O   UNL     1      38.168  -1.776  75.971  1.00  0.00    -0.504 OA
ATOM     42  H   UNL     1      38.342  -0.922  75.454  1.00  0.00     0.293 HD
ENDBRANCH   8  41
BRANCH   7  43
ATOM     43  O   UNL     1      36.391  -3.440  74.718  1.00  0.00    -0.504 OA
ATOM     44  H   UNL     1      37.283  -3.870  74.518  1.00  0.00     0.293 HD
ENDBRANCH   7  43
TORSDOF 11
ENDMDL
