MODEL 1
REMARK VINA RESULT:    -6.586      0.000      0.000
REMARK INTER + INTRA:         -11.230
REMARK INTER:                  -9.667
REMARK INTRA:                  -1.563
REMARK UNBOUND:                -1.563
REMARK SMILES O=c1c(O[C@H]2O[C@H](CO)[C@@H](O)[C@@H](O)[C@@H]2O)c(-c2ccc(O)c(O)c2)oc2cc(O)cc(O)c12
REMARK SMILES IDX 4 1 3 2 16 3 25 4 2 5 26 6 1 7 33 8 27 9 31 10 28 11 30 12
REMARK SMILES IDX 17 13 18 14 19 15 20 16 24 17 22 18 21 19 23 21 32 23 29 25
REMARK SMILES IDX 5 27 14 28 6 29 12 30 7 31 10 32 15 33 13 35 8 37 9 38 11 40
REMARK H PARENT 21 20 23 22 32 24 29 26 15 34 13 36 9 39 11 41
REMARK Flexibility Score: inf
ROOT
ATOM      1  O   UNL     1      30.708  56.815   8.316  1.00  0.00    -0.454 OA
ENDROOT
BRANCH   1   2
ATOM      2  C   UNL     1      30.244  57.318   7.078  1.00  0.00     0.214 A 
ATOM      3  C   UNL     1      28.855  57.333   6.849  1.00  0.00     0.180 A 
ATOM      4  O   UNL     1      28.371  57.710   5.673  1.00  0.00    -0.452 OA
ATOM      5  C   UNL     1      31.092  57.774   6.039  1.00  0.00     0.239 A 
ATOM      6  C   UNL     1      29.129  58.143   4.677  1.00  0.00     0.146 A 
ATOM      7  O   UNL     1      32.340  57.719   6.179  1.00  0.00    -0.285 OA
ATOM      8  C   UNL     1      30.534  58.248   4.827  1.00  0.00     0.111 A 
ATOM      9  C   UNL     1      28.512  58.492   3.472  1.00  0.00     0.094 A 
ATOM     10  C   UNL     1      31.294  58.777   3.740  1.00  0.00     0.134 A 
ATOM     11  C   UNL     1      29.271  58.945   2.396  1.00  0.00     0.123 A 
ATOM     12  C   UNL     1      30.654  59.081   2.530  1.00  0.00     0.093 A 
BRANCH   3  13
ATOM     13  C   UNL     1      27.894  56.918   7.886  1.00  0.00     0.025 A 
ATOM     14  C   UNL     1      27.674  55.559   8.152  1.00  0.00     0.016 A 
ATOM     15  C   UNL     1      26.785  55.174   9.158  1.00  0.00     0.051 A 
ATOM     16  C   UNL     1      26.123  56.143   9.927  1.00  0.00     0.157 A 
ATOM     17  C   UNL     1      27.253  57.887   8.671  1.00  0.00     0.062 A 
ATOM     18  C   UNL     1      26.364  57.506   9.685  1.00  0.00     0.158 A 
BRANCH  16  19
ATOM     19  O   UNL     1      25.238  55.756  10.930  1.00  0.00    -0.504 OA
ATOM     20  H   UNL     1      24.871  56.423  11.600  1.00  0.00     0.293 HD
ENDBRANCH  16  19
BRANCH  18  21
ATOM     21  O   UNL     1      25.734  58.494  10.440  1.00  0.00    -0.504 OA
ATOM     22  H   UNL     1      24.725  58.557  10.509  1.00  0.00     0.293 HD
ENDBRANCH  18  21
ENDBRANCH   3  13
BRANCH  10  23
ATOM     23  O   UNL     1      32.663  59.053   3.806  1.00  0.00    -0.507 OA
ATOM     24  H   UNL     1      33.156  59.299   4.651  1.00  0.00     0.293 HD
ENDBRANCH  10  23
BRANCH  11  25
ATOM     25  O   UNL     1      28.637  59.274   1.200  1.00  0.00    -0.508 OA
ATOM     26  H   UNL     1      29.112  59.190   0.309  1.00  0.00     0.293 HD
ENDBRANCH  11  25
ENDBRANCH   1   2
BRANCH   1  27
ATOM     27  C   UNL     1      30.783  57.524   9.559  1.00  0.00     0.339 C 
ATOM     28  C   UNL     1      31.901  58.594   9.534  1.00  0.00     0.214 C 
ATOM     29  O   UNL     1      30.929  56.636  10.655  1.00  0.00    -0.332 OA
ATOM     30  C   UNL     1      33.318  57.998   9.719  1.00  0.00     0.180 C 
ATOM     31  C   UNL     1      32.142  55.908  10.578  1.00  0.00     0.179 C 
ATOM     32  C   UNL     1      33.343  56.864  10.767  1.00  0.00     0.177 C 
BRANCH  28  33
ATOM     33  O   UNL     1      31.657  59.576  10.512  1.00  0.00    -0.384 OA
ATOM     34  H   UNL     1      30.957  59.229  11.127  1.00  0.00     0.211 HD
ENDBRANCH  28  33
BRANCH  30  35
ATOM     35  O   UNL     1      33.855  57.581   8.487  1.00  0.00    -0.387 OA
ATOM     36  H   UNL     1      34.624  58.166   8.280  1.00  0.00     0.211 HD
ENDBRANCH  30  35
BRANCH  31  37
ATOM     37  C   UNL     1      32.108  54.829  11.673  1.00  0.00     0.191 C 
BRANCH  37  38
ATOM     38  O   UNL     1      32.940  53.748  11.347  1.00  0.00    -0.394 OA
ATOM     39  H   UNL     1      32.399  52.925  11.470  1.00  0.00     0.210 HD
ENDBRANCH  37  38
ENDBRANCH  31  37
BRANCH  32  40
ATOM     40  O   UNL     1      34.553  56.153  10.659  1.00  0.00    -0.387 OA
ATOM     41  H   UNL     1      35.261  56.709  11.080  1.00  0.00     0.211 HD
ENDBRANCH  32  40
ENDBRANCH   1  27
TORSDOF 12
ENDMDL
MODEL 2
REMARK VINA RESULT:    -6.559      3.817      8.916
REMARK INTER + INTRA:         -11.190
REMARK INTER:                  -9.656
REMARK INTRA:                  -1.535
REMARK UNBOUND:                -1.563
REMARK SMILES O=c1c(O[C@H]2O[C@H](CO)[C@@H](O)[C@@H](O)[C@@H]2O)c(-c2ccc(O)c(O)c2)oc2cc(O)cc(O)c12
REMARK SMILES IDX 4 1 3 2 16 3 25 4 2 5 26 6 1 7 33 8 27 9 31 10 28 11 30 12
REMARK SMILES IDX 17 13 18 14 19 15 20 16 24 17 22 18 21 19 23 21 32 23 29 25
REMARK SMILES IDX 5 27 14 28 6 29 12 30 7 31 10 32 15 33 13 35 8 37 9 38 11 40
REMARK H PARENT 21 20 23 22 32 24 29 26 15 34 13 36 9 39 11 41
REMARK Flexibility Score: inf
ROOT
ATOM      1  O   UNL     1      30.026  62.040   3.581  1.00  0.00    -0.454 OA
ENDROOT
BRANCH   1   2
ATOM      2  C   UNL     1      30.557  60.938   4.290  1.00  0.00     0.214 A 
ATOM      3  C   UNL     1      30.530  59.676   3.667  1.00  0.00     0.180 A 
ATOM      4  O   UNL     1      30.932  58.593   4.320  1.00  0.00    -0.452 OA
ATOM      5  C   UNL     1      31.080  61.017   5.604  1.00  0.00     0.239 A 
ATOM      6  C   UNL     1      31.427  58.625   5.548  1.00  0.00     0.146 A 
ATOM      7  O   UNL     1      31.064  62.112   6.219  1.00  0.00    -0.285 OA
ATOM      8  C   UNL     1      31.577  59.853   6.239  1.00  0.00     0.111 A 
ATOM      9  C   UNL     1      31.798  57.418   6.149  1.00  0.00     0.094 A 
ATOM     10  C   UNL     1      32.172  59.831   7.537  1.00  0.00     0.134 A 
ATOM     11  C   UNL     1      32.317  57.403   7.441  1.00  0.00     0.123 A 
ATOM     12  C   UNL     1      32.496  58.603   8.131  1.00  0.00     0.093 A 
BRANCH   3  13
ATOM     13  C   UNL     1      30.044  59.503   2.287  1.00  0.00     0.025 A 
ATOM     14  C   UNL     1      30.945  59.295   1.233  1.00  0.00     0.016 A 
ATOM     15  C   UNL     1      30.475  59.101  -0.068  1.00  0.00     0.051 A 
ATOM     16  C   UNL     1      29.097  59.090  -0.328  1.00  0.00     0.157 A 
ATOM     17  C   UNL     1      28.665  59.467   2.031  1.00  0.00     0.062 A 
ATOM     18  C   UNL     1      28.188  59.268   0.729  1.00  0.00     0.158 A 
BRANCH  16  19
ATOM     19  O   UNL     1      28.631  58.895  -1.626  1.00  0.00    -0.504 OA
ATOM     20  H   UNL     1      28.011  58.127  -1.857  1.00  0.00     0.293 HD
ENDBRANCH  16  19
BRANCH  18  21
ATOM     21  O   UNL     1      26.812  59.248   0.508  1.00  0.00    -0.504 OA
ATOM     22  H   UNL     1      26.351  58.462   0.065  1.00  0.00     0.293 HD
ENDBRANCH  18  21
ENDBRANCH   3  13
BRANCH  10  23
ATOM     23  O   UNL     1      32.494  60.980   8.267  1.00  0.00    -0.507 OA
ATOM     24  H   UNL     1      33.380  61.460   8.215  1.00  0.00     0.293 HD
ENDBRANCH  10  23
BRANCH  11  25
ATOM     25  O   UNL     1      32.665  56.188   8.026  1.00  0.00    -0.508 OA
ATOM     26  H   UNL     1      33.613  56.000   8.332  1.00  0.00     0.293 HD
ENDBRANCH  11  25
ENDBRANCH   1   2
BRANCH   1  27
ATOM     27  C   UNL     1      30.694  62.824   2.585  1.00  0.00     0.339 C 
ATOM     28  C   UNL     1      31.570  63.928   3.226  1.00  0.00     0.214 C 
ATOM     29  O   UNL     1      29.777  63.361   1.646  1.00  0.00    -0.332 OA
ATOM     30  C   UNL     1      30.751  65.144   3.722  1.00  0.00     0.180 C 
ATOM     31  C   UNL     1      28.864  64.254   2.260  1.00  0.00     0.179 C 
ATOM     32  C   UNL     1      29.611  65.517   2.749  1.00  0.00     0.177 C 
BRANCH  28  33
ATOM     33  O   UNL     1      32.563  64.348   2.321  1.00  0.00    -0.384 OA
ATOM     34  H   UNL     1      32.336  63.982   1.425  1.00  0.00     0.211 HD
ENDBRANCH  28  33
BRANCH  30  35
ATOM     35  O   UNL     1      30.273  64.932   5.028  1.00  0.00    -0.387 OA
ATOM     36  H   UNL     1      30.784  64.181   5.418  1.00  0.00     0.211 HD
ENDBRANCH  30  35
BRANCH  31  37
ATOM     37  C   UNL     1      27.787  64.608   1.221  1.00  0.00     0.191 C 
BRANCH  37  38
ATOM     38  O   UNL     1      26.582  64.970   1.841  1.00  0.00    -0.394 OA
ATOM     39  H   UNL     1      26.639  64.654   2.780  1.00  0.00     0.210 HD
ENDBRANCH  37  38
ENDBRANCH  31  37
BRANCH  32  40
ATOM     40  O   UNL     1      28.717  66.395   3.390  1.00  0.00    -0.387 OA
ATOM     41  H   UNL     1      27.857  66.357   2.892  1.00  0.00     0.211 HD
ENDBRANCH  32  40
ENDBRANCH   1  27
TORSDOF 12
ENDMDL
MODEL 3
REMARK VINA RESULT:    -6.517      4.792      8.532
REMARK INTER + INTRA:         -11.129
REMARK INTER:                  -9.647
REMARK INTRA:                  -1.482
REMARK UNBOUND:                -1.563
REMARK SMILES O=c1c(O[C@H]2O[C@H](CO)[C@@H](O)[C@@H](O)[C@@H]2O)c(-c2ccc(O)c(O)c2)oc2cc(O)cc(O)c12
REMARK SMILES IDX 4 1 3 2 16 3 25 4 2 5 26 6 1 7 33 8 27 9 31 10 28 11 30 12
REMARK SMILES IDX 17 13 18 14 19 15 20 16 24 17 22 18 21 19 23 21 32 23 29 25
REMARK SMILES IDX 5 27 14 28 6 29 12 30 7 31 10 32 15 33 13 35 8 37 9 38 11 40
REMARK H PARENT 21 20 23 22 32 24 29 26 15 34 13 36 9 39 11 41
REMARK Flexibility Score: inf
ROOT
ATOM      1  O   UNL     1      30.038  61.966   2.023  1.00  0.00    -0.454 OA
ENDROOT
BRANCH   1   2
ATOM      2  C   UNL     1      29.645  61.285   0.847  1.00  0.00     0.214 A 
ATOM      3  C   UNL     1      29.795  59.886   0.812  1.00  0.00     0.180 A 
ATOM      4  O   UNL     1      29.528  59.207  -0.297  1.00  0.00    -0.452 OA
ATOM      5  C   UNL     1      29.145  61.927  -0.313  1.00  0.00     0.239 A 
ATOM      6  C   UNL     1      29.059  59.770  -1.401  1.00  0.00     0.146 A 
ATOM      7  O   UNL     1      29.056  63.180  -0.345  1.00  0.00    -0.285 OA
ATOM      8  C   UNL     1      28.792  61.161  -1.450  1.00  0.00     0.111 A 
ATOM      9  C   UNL     1      28.835  58.961  -2.518  1.00  0.00     0.094 A 
ATOM     10  C   UNL     1      28.231  61.701  -2.647  1.00  0.00     0.134 A 
ATOM     11  C   UNL     1      28.349  59.510  -3.702  1.00  0.00     0.123 A 
ATOM     12  C   UNL     1      28.056  60.874  -3.765  1.00  0.00     0.093 A 
BRANCH   3  13
ATOM     13  C   UNL     1      30.267  59.127   1.984  1.00  0.00     0.025 A 
ATOM     14  C   UNL     1      31.633  58.870   2.165  1.00  0.00     0.016 A 
ATOM     15  C   UNL     1      32.076  58.178   3.294  1.00  0.00     0.051 A 
ATOM     16  C   UNL     1      31.160  57.754   4.268  1.00  0.00     0.157 A 
ATOM     17  C   UNL     1      29.354  58.726   2.970  1.00  0.00     0.062 A 
ATOM     18  C   UNL     1      29.793  58.036   4.106  1.00  0.00     0.158 A 
BRANCH  16  19
ATOM     19  O   UNL     1      31.604  57.065   5.394  1.00  0.00    -0.504 OA
ATOM     20  H   UNL     1      30.988  56.875   6.177  1.00  0.00     0.293 HD
ENDBRANCH  16  19
BRANCH  18  21
ATOM     21  O   UNL     1      28.858  57.642   5.063  1.00  0.00    -0.504 OA
ATOM     22  H   UNL     1      28.178  56.913   4.881  1.00  0.00     0.293 HD
ENDBRANCH  18  21
ENDBRANCH   3  13
BRANCH  10  23
ATOM     23  O   UNL     1      27.803  63.026  -2.779  1.00  0.00    -0.507 OA
ATOM     24  H   UNL     1      28.401  63.832  -2.678  1.00  0.00     0.293 HD
ENDBRANCH  10  23
BRANCH  11  25
ATOM     25  O   UNL     1      28.148  58.689  -4.808  1.00  0.00    -0.508 OA
ATOM     26  H   UNL     1      27.403  58.867  -5.472  1.00  0.00     0.293 HD
ENDBRANCH  11  25
ENDBRANCH   1   2
BRANCH   1  27
ATOM     27  C   UNL     1      31.298  62.604   2.268  1.00  0.00     0.339 C 
ATOM     28  C   UNL     1      31.879  62.199   3.644  1.00  0.00     0.214 C 
ATOM     29  O   UNL     1      31.201  64.012   2.131  1.00  0.00    -0.332 OA
ATOM     30  C   UNL     1      31.207  62.934   4.828  1.00  0.00     0.180 C 
ATOM     31  C   UNL     1      30.319  64.570   3.089  1.00  0.00     0.179 C 
ATOM     32  C   UNL     1      30.916  64.417   4.507  1.00  0.00     0.177 C 
BRANCH  28  33
ATOM     33  O   UNL     1      33.270  62.413   3.666  1.00  0.00    -0.384 OA
ATOM     34  H   UNL     1      33.591  62.439   2.726  1.00  0.00     0.211 HD
ENDBRANCH  28  33
BRANCH  30  35
ATOM     35  O   UNL     1      30.050  62.256   5.253  1.00  0.00    -0.387 OA
ATOM     36  H   UNL     1      29.332  62.926   5.365  1.00  0.00     0.211 HD
ENDBRANCH  30  35
BRANCH  31  37
ATOM     37  C   UNL     1      30.111  66.050   2.726  1.00  0.00     0.191 C 
BRANCH  37  38
ATOM     38  O   UNL     1      28.893  66.530   3.228  1.00  0.00    -0.394 OA
ATOM     39  H   UNL     1      28.700  66.010   4.052  1.00  0.00     0.210 HD
ENDBRANCH  37  38
ENDBRANCH  31  37
BRANCH  32  40
ATOM     40  O   UNL     1      30.030  64.939   5.469  1.00  0.00    -0.387 OA
ATOM     41  H   UNL     1      30.168  64.424   6.308  1.00  0.00     0.211 HD
ENDBRANCH  32  40
ENDBRANCH   1  27
TORSDOF 12
ENDMDL
MODEL 4
REMARK VINA RESULT:    -6.439      4.933      8.850
REMARK INTER + INTRA:         -11.014
REMARK INTER:                  -9.480
REMARK INTRA:                  -1.535
REMARK UNBOUND:                -1.563
REMARK SMILES O=c1c(O[C@H]2O[C@H](CO)[C@@H](O)[C@@H](O)[C@@H]2O)c(-c2ccc(O)c(O)c2)oc2cc(O)cc(O)c12
REMARK SMILES IDX 4 1 3 2 16 3 25 4 2 5 26 6 1 7 33 8 27 9 31 10 28 11 30 12
REMARK SMILES IDX 17 13 18 14 19 15 20 16 24 17 22 18 21 19 23 21 32 23 29 25
REMARK SMILES IDX 5 27 14 28 6 29 12 30 7 31 10 32 15 33 13 35 8 37 9 38 11 40
REMARK H PARENT 21 20 23 22 32 24 29 26 15 34 13 36 9 39 11 41
REMARK Flexibility Score: inf
ROOT
ATOM      1  O   UNL     1      29.658  62.067   1.737  1.00  0.00    -0.454 OA
ENDROOT
BRANCH   1   2
ATOM      2  C   UNL     1      29.355  61.332   0.568  1.00  0.00     0.214 A 
ATOM      3  C   UNL     1      29.620  59.949   0.569  1.00  0.00     0.180 A 
ATOM      4  O   UNL     1      29.439  59.227  -0.529  1.00  0.00    -0.452 OA
ATOM      5  C   UNL     1      28.835  61.906  -0.619  1.00  0.00     0.239 A 
ATOM      6  C   UNL     1      28.955  59.725  -1.657  1.00  0.00     0.146 A 
ATOM      7  O   UNL     1      28.644  63.145  -0.682  1.00  0.00    -0.285 OA
ATOM      8  C   UNL     1      28.576  61.088  -1.746  1.00  0.00     0.111 A 
ATOM      9  C   UNL     1      28.828  58.877  -2.761  1.00  0.00     0.094 A 
ATOM     10  C   UNL     1      28.006  61.554  -2.969  1.00  0.00     0.134 A 
ATOM     11  C   UNL     1      28.331  59.359  -3.969  1.00  0.00     0.123 A 
ATOM     12  C   UNL     1      27.929  60.692  -4.071  1.00  0.00     0.093 A 
BRANCH   3  13
ATOM     13  C   UNL     1      30.120  59.257   1.770  1.00  0.00     0.025 A 
ATOM     14  C   UNL     1      31.496  59.181   2.029  1.00  0.00     0.016 A 
ATOM     15  C   UNL     1      31.962  58.552   3.185  1.00  0.00     0.051 A 
ATOM     16  C   UNL     1      31.056  58.010   4.109  1.00  0.00     0.157 A 
ATOM     17  C   UNL     1      29.213  58.738   2.706  1.00  0.00     0.062 A 
ATOM     18  C   UNL     1      29.675  58.110   3.870  1.00  0.00     0.158 A 
BRANCH  16  19
ATOM     19  O   UNL     1      31.523  57.383   5.262  1.00  0.00    -0.504 OA
ATOM     20  H   UNL     1      31.141  57.601   6.176  1.00  0.00     0.293 HD
ENDBRANCH  16  19
BRANCH  18  21
ATOM     21  O   UNL     1      28.747  57.596   4.775  1.00  0.00    -0.504 OA
ATOM     22  H   UNL     1      28.983  56.851   5.420  1.00  0.00     0.293 HD
ENDBRANCH  18  21
ENDBRANCH   3  13
BRANCH  10  23
ATOM     23  O   UNL     1      27.474  62.836  -3.143  1.00  0.00    -0.507 OA
ATOM     24  H   UNL     1      26.652  63.044  -3.690  1.00  0.00     0.293 HD
ENDBRANCH  10  23
BRANCH  11  25
ATOM     25  O   UNL     1      28.227  58.500  -5.060  1.00  0.00    -0.508 OA
ATOM     26  H   UNL     1      28.342  57.498  -4.957  1.00  0.00     0.293 HD
ENDBRANCH  11  25
ENDBRANCH   1   2
BRANCH   1  27
ATOM     27  C   UNL     1      28.821  62.237   2.888  1.00  0.00     0.339 C 
ATOM     28  C   UNL     1      27.599  63.132   2.573  1.00  0.00     0.214 C 
ATOM     29  O   UNL     1      29.558  62.725   3.997  1.00  0.00    -0.332 OA
ATOM     30  C   UNL     1      27.945  64.640   2.526  1.00  0.00     0.180 C 
ATOM     31  C   UNL     1      30.092  64.011   3.744  1.00  0.00     0.179 C 
ATOM     32  C   UNL     1      28.947  65.044   3.630  1.00  0.00     0.177 C 
BRANCH  28  33
ATOM     33  O   UNL     1      26.571  62.899   3.505  1.00  0.00    -0.384 OA
ATOM     34  H   UNL     1      26.862  62.159   4.103  1.00  0.00     0.211 HD
ENDBRANCH  28  33
BRANCH  30  35
ATOM     35  O   UNL     1      28.398  65.015   1.248  1.00  0.00    -0.387 OA
ATOM     36  H   UNL     1      27.614  65.041   0.646  1.00  0.00     0.211 HD
ENDBRANCH  30  35
BRANCH  31  37
ATOM     37  C   UNL     1      31.044  64.358   4.900  1.00  0.00     0.191 C 
BRANCH  37  38
ATOM     38  O   UNL     1      30.437  65.228   5.817  1.00  0.00    -0.394 OA
ATOM     39  H   UNL     1      29.647  65.618   5.359  1.00  0.00     0.210 HD
ENDBRANCH  37  38
ENDBRANCH  31  37
BRANCH  32  40
ATOM     40  O   UNL     1      29.467  66.321   3.344  1.00  0.00    -0.387 OA
ATOM     41  H   UNL     1      29.738  66.730   4.209  1.00  0.00     0.211 HD
ENDBRANCH  32  40
ENDBRANCH   1  27
TORSDOF 12
ENDMDL
MODEL 5
REMARK VINA RESULT:    -6.326      1.439      2.436
REMARK INTER + INTRA:         -10.848
REMARK INTER:                  -9.448
REMARK INTRA:                  -1.400
REMARK UNBOUND:                -1.563
REMARK SMILES O=c1c(O[C@H]2O[C@H](CO)[C@@H](O)[C@@H](O)[C@@H]2O)c(-c2ccc(O)c(O)c2)oc2cc(O)cc(O)c12
REMARK SMILES IDX 4 1 3 2 16 3 25 4 2 5 26 6 1 7 33 8 27 9 31 10 28 11 30 12
REMARK SMILES IDX 17 13 18 14 19 15 20 16 24 17 22 18 21 19 23 21 32 23 29 25
REMARK SMILES IDX 5 27 14 28 6 29 12 30 7 31 10 32 15 33 13 35 8 37 9 38 11 40
REMARK H PARENT 21 20 23 22 32 24 29 26 15 34 13 36 9 39 11 41
REMARK Flexibility Score: inf
ROOT
ATOM      1  O   UNL     1      31.170  58.216   7.733  1.00  0.00    -0.454 OA
ENDROOT
BRANCH   1   2
ATOM      2  C   UNL     1      30.406  58.391   6.555  1.00  0.00     0.214 A 
ATOM      3  C   UNL     1      29.008  58.262   6.648  1.00  0.00     0.180 A 
ATOM      4  O   UNL     1      28.251  58.327   5.561  1.00  0.00    -0.452 OA
ATOM      5  C   UNL     1      30.964  58.652   5.279  1.00  0.00     0.239 A 
ATOM      6  C   UNL     1      28.733  58.569   4.351  1.00  0.00     0.146 A 
ATOM      7  O   UNL     1      32.211  58.712   5.142  1.00  0.00    -0.285 OA
ATOM      8  C   UNL     1      30.118  58.798   4.153  1.00  0.00     0.111 A 
ATOM      9  C   UNL     1      27.845  58.592   3.272  1.00  0.00     0.094 A 
ATOM     10  C   UNL     1      30.571  59.113   2.836  1.00  0.00     0.134 A 
ATOM     11  C   UNL     1      28.309  58.835   1.981  1.00  0.00     0.123 A 
ATOM     12  C   UNL     1      29.665  59.088   1.767  1.00  0.00     0.093 A 
BRANCH   3  13
ATOM     13  C   UNL     1      28.335  58.034   7.940  1.00  0.00     0.025 A 
ATOM     14  C   UNL     1      28.052  56.732   8.377  1.00  0.00     0.016 A 
ATOM     15  C   UNL     1      27.443  56.522   9.616  1.00  0.00     0.051 A 
ATOM     16  C   UNL     1      27.130  57.610  10.444  1.00  0.00     0.157 A 
ATOM     17  C   UNL     1      28.045  59.120   8.778  1.00  0.00     0.062 A 
ATOM     18  C   UNL     1      27.438  58.915  10.023  1.00  0.00     0.158 A 
BRANCH  16  19
ATOM     19  O   UNL     1      26.523  57.398  11.679  1.00  0.00    -0.504 OA
ATOM     20  H   UNL     1      25.553  57.112  11.751  1.00  0.00     0.293 HD
ENDBRANCH  16  19
BRANCH  18  21
ATOM     21  O   UNL     1      27.154  60.017  10.828  1.00  0.00    -0.504 OA
ATOM     22  H   UNL     1      26.285  60.532  10.747  1.00  0.00     0.293 HD
ENDBRANCH  18  21
ENDBRANCH   3  13
BRANCH  10  23
ATOM     23  O   UNL     1      31.884  59.485   2.532  1.00  0.00    -0.507 OA
ATOM     24  H   UNL     1      32.648  59.473   3.190  1.00  0.00     0.293 HD
ENDBRANCH  10  23
BRANCH  11  25
ATOM     25  O   UNL     1      27.409  58.839   0.918  1.00  0.00    -0.508 OA
ATOM     26  H   UNL     1      26.911  58.000   0.644  1.00  0.00     0.293 HD
ENDBRANCH  11  25
ENDBRANCH   1   2
BRANCH   1  27
ATOM     27  C   UNL     1      32.121  57.177   7.994  1.00  0.00     0.339 C 
ATOM     28  C   UNL     1      31.748  56.374   9.264  1.00  0.00     0.214 C 
ATOM     29  O   UNL     1      33.442  57.689   8.066  1.00  0.00    -0.332 OA
ATOM     30  C   UNL     1      32.101  57.112  10.577  1.00  0.00     0.180 C 
ATOM     31  C   UNL     1      33.591  58.598   9.142  1.00  0.00     0.179 C 
ATOM     32  C   UNL     1      33.456  57.848  10.488  1.00  0.00     0.177 C 
BRANCH  28  33
ATOM     33  O   UNL     1      32.364  55.108   9.238  1.00  0.00    -0.384 OA
ATOM     34  H   UNL     1      31.683  54.432   9.498  1.00  0.00     0.211 HD
ENDBRANCH  28  33
BRANCH  30  35
ATOM     35  O   UNL     1      31.062  57.977  10.965  1.00  0.00    -0.387 OA
ATOM     36  H   UNL     1      31.253  58.286  11.884  1.00  0.00     0.211 HD
ENDBRANCH  30  35
BRANCH  31  37
ATOM     37  C   UNL     1      34.973  59.259   9.007  1.00  0.00     0.191 C 
BRANCH  37  38
ATOM     38  O   UNL     1      35.974  58.468   9.589  1.00  0.00    -0.394 OA
ATOM     39  H   UNL     1      36.843  58.877   9.337  1.00  0.00     0.210 HD
ENDBRANCH  37  38
ENDBRANCH  31  37
BRANCH  32  40
ATOM     40  O   UNL     1      33.570  58.751  11.563  1.00  0.00    -0.387 OA
ATOM     41  H   UNL     1      32.711  58.724  12.063  1.00  0.00     0.211 HD
ENDBRANCH  32  40
ENDBRANCH   1  27
TORSDOF 12
ENDMDL
MODEL 6
REMARK VINA RESULT:    -6.304      3.847      9.662
REMARK INTER + INTRA:         -10.815
REMARK INTER:                  -9.299
REMARK INTRA:                  -1.515
REMARK UNBOUND:                -1.563
REMARK SMILES O=c1c(O[C@H]2O[C@H](CO)[C@@H](O)[C@@H](O)[C@@H]2O)c(-c2ccc(O)c(O)c2)oc2cc(O)cc(O)c12
REMARK SMILES IDX 4 1 3 2 16 3 25 4 2 5 26 6 1 7 33 8 27 9 31 10 28 11 30 12
REMARK SMILES IDX 17 13 18 14 19 15 20 16 24 17 22 18 21 19 23 21 32 23 29 25
REMARK SMILES IDX 5 27 14 28 6 29 12 30 7 31 10 32 15 33 13 35 8 37 9 38 11 40
REMARK H PARENT 21 20 23 22 32 24 29 26 15 34 13 36 9 39 11 41
REMARK Flexibility Score: inf
ROOT
ATOM      1  O   UNL     1      31.623  61.011   1.249  1.00  0.00    -0.454 OA
ENDROOT
BRANCH   1   2
ATOM      2  C   UNL     1      31.058  60.130   2.199  1.00  0.00     0.214 A 
ATOM      3  C   UNL     1      29.942  59.365   1.809  1.00  0.00     0.180 A 
ATOM      4  O   UNL     1      29.317  58.589   2.686  1.00  0.00    -0.452 OA
ATOM      5  C   UNL     1      31.521  59.994   3.531  1.00  0.00     0.239 A 
ATOM      6  C   UNL     1      29.718  58.435   3.939  1.00  0.00     0.146 A 
ATOM      7  O   UNL     1      32.474  60.705   3.937  1.00  0.00    -0.285 OA
ATOM      8  C   UNL     1      30.879  59.094   4.415  1.00  0.00     0.111 A 
ATOM      9  C   UNL     1      28.969  57.611   4.782  1.00  0.00     0.094 A 
ATOM     10  C   UNL     1      31.297  58.843   5.758  1.00  0.00     0.134 A 
ATOM     11  C   UNL     1      29.349  57.425   6.110  1.00  0.00     0.123 A 
ATOM     12  C   UNL     1      30.504  58.044   6.593  1.00  0.00     0.093 A 
BRANCH   3  13
ATOM     13  C   UNL     1      29.416  59.407   0.433  1.00  0.00     0.025 A 
ATOM     14  C   UNL     1      28.368  60.276   0.096  1.00  0.00     0.016 A 
ATOM     15  C   UNL     1      27.896  60.333  -1.218  1.00  0.00     0.051 A 
ATOM     16  C   UNL     1      28.481  59.539  -2.215  1.00  0.00     0.157 A 
ATOM     17  C   UNL     1      30.018  58.632  -0.568  1.00  0.00     0.062 A 
ATOM     18  C   UNL     1      29.552  58.689  -1.888  1.00  0.00     0.158 A 
BRANCH  16  19
ATOM     19  O   UNL     1      28.009  59.598  -3.524  1.00  0.00    -0.504 OA
ATOM     20  H   UNL     1      27.566  60.434  -3.890  1.00  0.00     0.293 HD
ENDBRANCH  16  19
BRANCH  18  21
ATOM     21  O   UNL     1      30.166  57.898  -2.858  1.00  0.00    -0.504 OA
ATOM     22  H   UNL     1      30.094  58.108  -3.847  1.00  0.00     0.293 HD
ENDBRANCH  18  21
ENDBRANCH   3  13
BRANCH  10  23
ATOM     23  O   UNL     1      32.490  59.325   6.306  1.00  0.00    -0.507 OA
ATOM     24  H   UNL     1      32.877  59.021   7.187  1.00  0.00     0.293 HD
ENDBRANCH  10  23
BRANCH  11  25
ATOM     25  O   UNL     1      28.580  56.611   6.936  1.00  0.00    -0.508 OA
ATOM     26  H   UNL     1      28.982  55.814   7.417  1.00  0.00     0.293 HD
ENDBRANCH  11  25
ENDBRANCH   1   2
BRANCH   1  27
ATOM     27  C   UNL     1      31.538  62.442   1.246  1.00  0.00     0.339 C 
ATOM     28  C   UNL     1      30.778  62.962   0.002  1.00  0.00     0.214 C 
ATOM     29  O   UNL     1      32.819  63.038   1.366  1.00  0.00    -0.332 OA
ATOM     30  C   UNL     1      31.637  62.949  -1.285  1.00  0.00     0.180 C 
ATOM     31  C   UNL     1      33.648  62.721   0.262  1.00  0.00     0.179 C 
ATOM     32  C   UNL     1      33.095  63.386  -1.020  1.00  0.00     0.177 C 
BRANCH  28  33
ATOM     33  O   UNL     1      30.281  64.257   0.241  1.00  0.00    -0.384 OA
ATOM     34  H   UNL     1      29.291  64.225   0.153  1.00  0.00     0.211 HD
ENDBRANCH  28  33
BRANCH  30  35
ATOM     35  O   UNL     1      31.576  61.695  -1.921  1.00  0.00    -0.387 OA
ATOM     36  H   UNL     1      30.639  61.540  -2.192  1.00  0.00     0.211 HD
ENDBRANCH  30  35
BRANCH  31  37
ATOM     37  C   UNL     1      35.066  63.220   0.584  1.00  0.00     0.191 C 
BRANCH  37  38
ATOM     38  O   UNL     1      36.040  62.360   0.056  1.00  0.00    -0.394 OA
ATOM     39  H   UNL     1      36.858  62.905  -0.082  1.00  0.00     0.210 HD
ENDBRANCH  37  38
ENDBRANCH  31  37
BRANCH  32  40
ATOM     40  O   UNL     1      33.894  63.048  -2.129  1.00  0.00    -0.387 OA
ATOM     41  H   UNL     1      34.821  63.342  -1.925  1.00  0.00     0.211 HD
ENDBRANCH  32  40
ENDBRANCH   1  27
TORSDOF 12
ENDMDL
MODEL 7
REMARK VINA RESULT:    -6.258      3.617      8.966
REMARK INTER + INTRA:         -10.748
REMARK INTER:                  -9.520
REMARK INTRA:                  -1.228
REMARK UNBOUND:                -1.563
REMARK SMILES O=c1c(O[C@H]2O[C@H](CO)[C@@H](O)[C@@H](O)[C@@H]2O)c(-c2ccc(O)c(O)c2)oc2cc(O)cc(O)c12
REMARK SMILES IDX 4 1 3 2 16 3 25 4 2 5 26 6 1 7 33 8 27 9 31 10 28 11 30 12
REMARK SMILES IDX 17 13 18 14 19 15 20 16 24 17 22 18 21 19 23 21 32 23 29 25
REMARK SMILES IDX 5 27 14 28 6 29 12 30 7 31 10 32 15 33 13 35 8 37 9 38 11 40
REMARK H PARENT 21 20 23 22 32 24 29 26 15 34 13 36 9 39 11 41
REMARK Flexibility Score: inf
ROOT
ATOM      1  O   UNL     1      29.965  60.034   2.169  1.00  0.00    -0.454 OA
ENDROOT
BRANCH   1   2
ATOM      2  C   UNL     1      30.036  59.990   3.581  1.00  0.00     0.214 A 
ATOM      3  C   UNL     1      29.347  60.979   4.309  1.00  0.00     0.180 A 
ATOM      4  O   UNL     1      29.452  61.039   5.630  1.00  0.00    -0.452 OA
ATOM      5  C   UNL     1      30.789  59.036   4.309  1.00  0.00     0.239 A 
ATOM      6  C   UNL     1      30.145  60.166   6.347  1.00  0.00     0.146 A 
ATOM      7  O   UNL     1      31.469  58.176   3.695  1.00  0.00    -0.285 OA
ATOM      8  C   UNL     1      30.811  59.082   5.724  1.00  0.00     0.111 A 
ATOM      9  C   UNL     1      30.207  60.341   7.732  1.00  0.00     0.094 A 
ATOM     10  C   UNL     1      31.493  58.139   6.553  1.00  0.00     0.134 A 
ATOM     11  C   UNL     1      30.930  59.452   8.524  1.00  0.00     0.123 A 
ATOM     12  C   UNL     1      31.573  58.362   7.934  1.00  0.00     0.093 A 
BRANCH   3  13
ATOM     13  C   UNL     1      28.504  61.986   3.641  1.00  0.00     0.025 A 
ATOM     14  C   UNL     1      27.252  61.635   3.116  1.00  0.00     0.016 A 
ATOM     15  C   UNL     1      26.445  62.602   2.512  1.00  0.00     0.051 A 
ATOM     16  C   UNL     1      26.870  63.937   2.447  1.00  0.00     0.157 A 
ATOM     17  C   UNL     1      28.918  63.326   3.599  1.00  0.00     0.062 A 
ATOM     18  C   UNL     1      28.110  64.300   2.999  1.00  0.00     0.158 A 
BRANCH  16  19
ATOM     19  O   UNL     1      26.063  64.900   1.845  1.00  0.00    -0.504 OA
ATOM     20  H   UNL     1      25.166  64.661   1.438  1.00  0.00     0.293 HD
ENDBRANCH  16  19
BRANCH  18  21
ATOM     21  O   UNL     1      28.555  65.621   2.966  1.00  0.00    -0.504 OA
ATOM     22  H   UNL     1      29.261  65.933   2.308  1.00  0.00     0.293 HD
ENDBRANCH  18  21
ENDBRANCH   3  13
BRANCH  10  23
ATOM     23  O   UNL     1      32.076  56.961   6.077  1.00  0.00    -0.507 OA
ATOM     24  H   UNL     1      32.702  56.378   6.612  1.00  0.00     0.293 HD
ENDBRANCH  10  23
BRANCH  11  25
ATOM     25  O   UNL     1      30.990  59.653   9.900  1.00  0.00    -0.508 OA
ATOM     26  H   UNL     1      31.872  59.631  10.401  1.00  0.00     0.293 HD
ENDBRANCH  11  25
ENDBRANCH   1   2
BRANCH   1  27
ATOM     27  C   UNL     1      31.058  59.928   1.249  1.00  0.00     0.339 C 
ATOM     28  C   UNL     1      31.437  61.307   0.659  1.00  0.00     0.214 C 
ATOM     29  O   UNL     1      30.790  58.977   0.232  1.00  0.00    -0.332 OA
ATOM     30  C   UNL     1      30.468  61.781  -0.452  1.00  0.00     0.180 C 
ATOM     31  C   UNL     1      29.682  59.361  -0.563  1.00  0.00     0.179 C 
ATOM     32  C   UNL     1      30.033  60.626  -1.380  1.00  0.00     0.177 C 
BRANCH  28  33
ATOM     33  O   UNL     1      32.758  61.283   0.173  1.00  0.00    -0.384 OA
ATOM     34  H   UNL     1      32.744  61.608  -0.767  1.00  0.00     0.211 HD
ENDBRANCH  28  33
BRANCH  30  35
ATOM     35  O   UNL     1      29.362  62.454   0.097  1.00  0.00    -0.387 OA
ATOM     36  H   UNL     1      28.665  62.510  -0.602  1.00  0.00     0.211 HD
ENDBRANCH  30  35
BRANCH  31  37
ATOM     37  C   UNL     1      29.336  58.179  -1.483  1.00  0.00     0.191 C 
BRANCH  37  38
ATOM     38  O   UNL     1      30.028  58.261  -2.699  1.00  0.00    -0.394 OA
ATOM     39  H   UNL     1      30.651  57.488  -2.725  1.00  0.00     0.210 HD
ENDBRANCH  37  38
ENDBRANCH  31  37
BRANCH  32  40
ATOM     40  O   UNL     1      28.926  61.034  -2.147  1.00  0.00    -0.387 OA
ATOM     41  H   UNL     1      28.605  60.238  -2.650  1.00  0.00     0.211 HD
ENDBRANCH  32  40
ENDBRANCH   1  27
TORSDOF 12
ENDMDL
MODEL 8
REMARK VINA RESULT:    -6.195      4.285      9.183
REMARK INTER + INTRA:         -10.656
REMARK INTER:                  -9.243
REMARK INTRA:                  -1.413
REMARK UNBOUND:                -1.563
REMARK SMILES O=c1c(O[C@H]2O[C@H](CO)[C@@H](O)[C@@H](O)[C@@H]2O)c(-c2ccc(O)c(O)c2)oc2cc(O)cc(O)c12
REMARK SMILES IDX 4 1 3 2 16 3 25 4 2 5 26 6 1 7 33 8 27 9 31 10 28 11 30 12
REMARK SMILES IDX 17 13 18 14 19 15 20 16 24 17 22 18 21 19 23 21 32 23 29 25
REMARK SMILES IDX 5 27 14 28 6 29 12 30 7 31 10 32 15 33 13 35 8 37 9 38 11 40
REMARK H PARENT 21 20 23 22 32 24 29 26 15 34 13 36 9 39 11 41
REMARK Flexibility Score: inf
ROOT
ATOM      1  O   UNL     1      30.095  62.664   3.230  1.00  0.00    -0.454 OA
ENDROOT
BRANCH   1   2
ATOM      2  C   UNL     1      30.612  61.523   3.887  1.00  0.00     0.214 A 
ATOM      3  C   UNL     1      30.409  60.265   3.287  1.00  0.00     0.180 A 
ATOM      4  O   UNL     1      30.793  59.155   3.902  1.00  0.00    -0.452 OA
ATOM      5  C   UNL     1      31.288  61.561   5.131  1.00  0.00     0.239 A 
ATOM      6  C   UNL     1      31.428  59.148   5.065  1.00  0.00     0.146 A 
ATOM      7  O   UNL     1      31.434  62.656   5.730  1.00  0.00    -0.285 OA
ATOM      8  C   UNL     1      31.757  60.361   5.719  1.00  0.00     0.111 A 
ATOM      9  C   UNL     1      31.764  57.917   5.634  1.00  0.00     0.094 A 
ATOM     10  C   UNL     1      32.495  60.294   6.940  1.00  0.00     0.134 A 
ATOM     11  C   UNL     1      32.426  57.862   6.859  1.00  0.00     0.123 A 
ATOM     12  C   UNL     1      32.783  59.045   7.508  1.00  0.00     0.093 A 
BRANCH   3  13
ATOM     13  C   UNL     1      29.754  60.130   1.974  1.00  0.00     0.025 A 
ATOM     14  C   UNL     1      30.515  60.096   0.796  1.00  0.00     0.016 A 
ATOM     15  C   UNL     1      29.889  59.936  -0.442  1.00  0.00     0.051 A 
ATOM     16  C   UNL     1      28.497  59.785  -0.517  1.00  0.00     0.157 A 
ATOM     17  C   UNL     1      28.364  59.954   1.902  1.00  0.00     0.062 A 
ATOM     18  C   UNL     1      27.732  59.788   0.663  1.00  0.00     0.158 A 
BRANCH  16  19
ATOM     19  O   UNL     1      27.875  59.625  -1.753  1.00  0.00    -0.504 OA
ATOM     20  H   UNL     1      26.944  59.986  -1.929  1.00  0.00     0.293 HD
ENDBRANCH  16  19
BRANCH  18  21
ATOM     21  O   UNL     1      26.348  59.625   0.625  1.00  0.00    -0.504 OA
ATOM     22  H   UNL     1      25.913  58.827   0.176  1.00  0.00     0.293 HD
ENDBRANCH  18  21
ENDBRANCH   3  13
BRANCH  10  23
ATOM     23  O   UNL     1      32.993  61.414   7.614  1.00  0.00    -0.507 OA
ATOM     24  H   UNL     1      33.107  61.474   8.614  1.00  0.00     0.293 HD
ENDBRANCH  10  23
BRANCH  11  25
ATOM     25  O   UNL     1      32.739  56.624   7.414  1.00  0.00    -0.508 OA
ATOM     26  H   UNL     1      32.866  56.509   8.413  1.00  0.00     0.293 HD
ENDBRANCH  11  25
ENDBRANCH   1   2
BRANCH   1  27
ATOM     27  C   UNL     1      28.953  63.437   3.620  1.00  0.00     0.339 C 
ATOM     28  C   UNL     1      28.014  63.704   2.420  1.00  0.00     0.214 C 
ATOM     29  O   UNL     1      29.338  64.641   4.264  1.00  0.00    -0.332 OA
ATOM     30  C   UNL     1      28.528  64.823   1.481  1.00  0.00     0.180 C 
ATOM     31  C   UNL     1      30.071  65.486   3.396  1.00  0.00     0.179 C 
ATOM     32  C   UNL     1      29.154  66.000   2.262  1.00  0.00     0.177 C 
BRANCH  28  33
ATOM     33  O   UNL     1      26.718  64.011   2.875  1.00  0.00    -0.384 OA
ATOM     34  H   UNL     1      26.386  64.790   2.354  1.00  0.00     0.211 HD
ENDBRANCH  28  33
BRANCH  30  35
ATOM     35  O   UNL     1      29.413  64.306   0.518  1.00  0.00    -0.387 OA
ATOM     36  H   UNL     1      30.233  64.858   0.535  1.00  0.00     0.211 HD
ENDBRANCH  30  35
BRANCH  31  37
ATOM     37  C   UNL     1      30.627  66.649   4.235  1.00  0.00     0.191 C 
BRANCH  37  38
ATOM     38  O   UNL     1      31.625  67.346   3.540  1.00  0.00    -0.394 OA
ATOM     39  H   UNL     1      32.429  66.764   3.536  1.00  0.00     0.210 HD
ENDBRANCH  37  38
ENDBRANCH  31  37
BRANCH  32  40
ATOM     40  O   UNL     1      29.883  66.814   1.375  1.00  0.00    -0.387 OA
ATOM     41  H   UNL     1      29.226  67.360   0.867  1.00  0.00     0.211 HD
ENDBRANCH  32  40
ENDBRANCH   1  27
TORSDOF 12
ENDMDL
MODEL 9
REMARK VINA RESULT:    -6.191      1.212      2.022
REMARK INTER + INTRA:         -10.650
REMARK INTER:                  -8.793
REMARK INTRA:                  -1.857
REMARK UNBOUND:                -1.563
REMARK SMILES O=c1c(O[C@H]2O[C@H](CO)[C@@H](O)[C@@H](O)[C@@H]2O)c(-c2ccc(O)c(O)c2)oc2cc(O)cc(O)c12
REMARK SMILES IDX 4 1 3 2 16 3 25 4 2 5 26 6 1 7 33 8 27 9 31 10 28 11 30 12
REMARK SMILES IDX 17 13 18 14 19 15 20 16 24 17 22 18 21 19 23 21 32 23 29 25
REMARK SMILES IDX 5 27 14 28 6 29 12 30 7 31 10 32 15 33 13 35 8 37 9 38 11 40
REMARK H PARENT 21 20 23 22 32 24 29 26 15 34 13 36 9 39 11 41
REMARK Flexibility Score: inf
ROOT
ATOM      1  O   UNL     1      30.700  56.957   8.164  1.00  0.00    -0.454 OA
ENDROOT
BRANCH   1   2
ATOM      2  C   UNL     1      30.224  57.502   6.949  1.00  0.00     0.214 A 
ATOM      3  C   UNL     1      28.832  57.640   6.786  1.00  0.00     0.180 A 
ATOM      4  O   UNL     1      28.327  58.061   5.634  1.00  0.00    -0.452 OA
ATOM      5  C   UNL     1      31.058  57.885   5.870  1.00  0.00     0.239 A 
ATOM      6  C   UNL     1      29.073  58.429   4.602  1.00  0.00     0.146 A 
ATOM      7  O   UNL     1      32.301  57.720   5.951  1.00  0.00    -0.285 OA
ATOM      8  C   UNL     1      30.487  58.410   4.685  1.00  0.00     0.111 A 
ATOM      9  C   UNL     1      28.433  58.834   3.428  1.00  0.00     0.094 A 
ATOM     10  C   UNL     1      31.238  58.874   3.563  1.00  0.00     0.134 A 
ATOM     11  C   UNL     1      29.176  59.223   2.316  1.00  0.00     0.123 A 
ATOM     12  C   UNL     1      30.571  59.235   2.384  1.00  0.00     0.093 A 
BRANCH   3  13
ATOM     13  C   UNL     1      27.889  57.308   7.868  1.00  0.00     0.025 A 
ATOM     14  C   UNL     1      27.349  58.316   8.679  1.00  0.00     0.016 A 
ATOM     15  C   UNL     1      26.431  57.997   9.682  1.00  0.00     0.051 A 
ATOM     16  C   UNL     1      26.023  56.669   9.872  1.00  0.00     0.157 A 
ATOM     17  C   UNL     1      27.462  55.983   8.040  1.00  0.00     0.062 A 
ATOM     18  C   UNL     1      26.538  55.658   9.041  1.00  0.00     0.158 A 
BRANCH  16  19
ATOM     19  O   UNL     1      25.107  56.353  10.872  1.00  0.00    -0.504 OA
ATOM     20  H   UNL     1      24.191  55.980  10.653  1.00  0.00     0.293 HD
ENDBRANCH  16  19
BRANCH  18  21
ATOM     21  O   UNL     1      26.142  54.330   9.193  1.00  0.00    -0.504 OA
ATOM     22  H   UNL     1      25.271  54.077   9.645  1.00  0.00     0.293 HD
ENDBRANCH  18  21
ENDBRANCH   3  13
BRANCH  10  23
ATOM     23  O   UNL     1      32.628  59.028   3.564  1.00  0.00    -0.507 OA
ATOM     24  H   UNL     1      33.282  58.313   3.281  1.00  0.00     0.293 HD
ENDBRANCH  10  23
BRANCH  11  25
ATOM     25  O   UNL     1      28.518  59.609   1.151  1.00  0.00    -0.508 OA
ATOM     26  H   UNL     1      29.016  60.034   0.378  1.00  0.00     0.293 HD
ENDBRANCH  11  25
ENDBRANCH   1   2
BRANCH   1  27
ATOM     27  C   UNL     1      31.299  57.672   9.252  1.00  0.00     0.339 C 
ATOM     28  C   UNL     1      32.681  57.084   9.622  1.00  0.00     0.214 C 
ATOM     29  O   UNL     1      30.434  57.729  10.374  1.00  0.00    -0.332 OA
ATOM     30  C   UNL     1      32.586  55.781  10.452  1.00  0.00     0.180 C 
ATOM     31  C   UNL     1      30.165  56.438  10.892  1.00  0.00     0.179 C 
ATOM     32  C   UNL     1      31.453  55.836  11.500  1.00  0.00     0.177 C 
BRANCH  28  33
ATOM     33  O   UNL     1      33.449  58.042  10.311  1.00  0.00    -0.384 OA
ATOM     34  H   UNL     1      34.283  58.196   9.792  1.00  0.00     0.211 HD
ENDBRANCH  28  33
BRANCH  30  35
ATOM     35  O   UNL     1      32.467  54.657   9.614  1.00  0.00    -0.387 OA
ATOM     36  H   UNL     1      33.162  54.006   9.881  1.00  0.00     0.211 HD
ENDBRANCH  30  35
BRANCH  31  37
ATOM     37  C   UNL     1      29.060  56.581  11.952  1.00  0.00     0.191 C 
BRANCH  37  38
ATOM     38  O   UNL     1      28.372  55.373  12.135  1.00  0.00    -0.394 OA
ATOM     39  H   UNL     1      29.039  54.646  12.028  1.00  0.00     0.210 HD
ENDBRANCH  37  38
ENDBRANCH  31  37
BRANCH  32  40
ATOM     40  O   UNL     1      31.203  54.539  11.987  1.00  0.00    -0.387 OA
ATOM     41  H   UNL     1      31.402  53.903  11.249  1.00  0.00     0.211 HD
ENDBRANCH  32  40
ENDBRANCH   1  27
TORSDOF 12
ENDMDL
