MODEL 1
REMARK VINA RESULT:    -5.809      0.000      0.000
REMARK INTER + INTRA:         -13.478
REMARK INTER:                 -10.563
REMARK INTRA:                  -2.915
REMARK UNBOUND:                -2.915
REMARK SMILES CCCCCC=CCC=CCCCCCCCC(=O)[O-]
REMARK SMILES IDX 11 1 12 2 13 3 14 4 15 5 16 6 17 7 18 8 19 9 20 10 10 11
REMARK SMILES IDX 9 12 8 13 7 14 6 15 5 16 4 17 3 18 2 19 1 20
REMARK H PARENT
REMARK Flexibility Score: inf
ROOT
ATOM      1  C   UNL     1     -12.862   0.991 -33.724  1.00  0.00     0.027 C 
ENDROOT
BRANCH   1   2
ATOM      2  C   UNL     1     -12.979   0.281 -35.082  1.00  0.00     0.004 C 
BRANCH   2   3
ATOM      3  C   UNL     1     -11.776   0.501 -36.020  1.00  0.00     0.000 C 
BRANCH   3   4
ATOM      4  C   UNL     1     -12.114   1.148 -37.378  1.00  0.00     0.000 C 
BRANCH   4   5
ATOM      5  C   UNL     1     -12.124   2.688 -37.380  1.00  0.00     0.000 C 
BRANCH   5   6
ATOM      6  C   UNL     1     -13.432   3.275 -37.927  1.00  0.00     0.006 C 
BRANCH   6   7
ATOM      7  C   UNL     1     -14.528   2.206 -37.998  1.00  0.00     0.053 C 
BRANCH   7   8
ATOM      8  C   UNL     1     -15.743   2.748 -38.680  1.00  0.00     0.041 C 
ATOM      9  O   UNL     1     -16.615   3.372 -38.020  1.00  0.00    -0.550 OA
ATOM     10  O   UNL     1     -15.889   2.607 -40.054  1.00  0.00    -0.550 OA
ENDBRANCH   7   8
ENDBRANCH   6   7
ENDBRANCH   5   6
ENDBRANCH   4   5
ENDBRANCH   3   4
ENDBRANCH   2   3
ENDBRANCH   1   2
BRANCH   1  11
ATOM     11  C   UNL     1     -13.515   2.347 -33.750  1.00  0.00    -0.031 C 
ATOM     12  C   UNL     1     -12.793   3.477 -33.732  1.00  0.00    -0.027 C 
BRANCH  12  13
ATOM     13  C   UNL     1     -13.445   4.831 -33.752  1.00  0.00     0.054 C 
BRANCH  13  14
ATOM     14  C   UNL     1     -14.176   5.052 -35.051  1.00  0.00    -0.027 C 
ATOM     15  C   UNL     1     -15.516   5.044 -35.175  1.00  0.00    -0.031 C 
BRANCH  15  16
ATOM     16  C   UNL     1     -16.459   4.801 -34.021  1.00  0.00     0.027 C 
BRANCH  16  17
ATOM     17  C   UNL     1     -17.376   3.584 -34.249  1.00  0.00     0.004 C 
BRANCH  17  18
ATOM     18  C   UNL     1     -17.227   2.485 -33.176  1.00  0.00     0.000 C 
BRANCH  18  19
ATOM     19  C   UNL     1     -16.745   1.124 -33.704  1.00  0.00    -0.003 C 
ATOM     20  C   UNL     1     -16.658   1.076 -35.229  1.00  0.00     0.004 C 
ENDBRANCH  18  19
ENDBRANCH  17  18
ENDBRANCH  16  17
ENDBRANCH  15  16
ENDBRANCH  13  14
ENDBRANCH  12  13
ENDBRANCH   1  11
TORSDOF 14
ENDMDL
MODEL 2
REMARK VINA RESULT:    -5.779      1.090      3.080
REMARK INTER + INTRA:         -13.423
REMARK INTER:                 -10.662
REMARK INTRA:                  -2.762
REMARK UNBOUND:                -2.915
REMARK SMILES CCCCCC=CCC=CCCCCCCCC(=O)[O-]
REMARK SMILES IDX 11 1 12 2 13 3 14 4 15 5 16 6 17 7 18 8 19 9 20 10 10 11
REMARK SMILES IDX 9 12 8 13 7 14 6 15 5 16 4 17 3 18 2 19 1 20
REMARK H PARENT
REMARK Flexibility Score: inf
ROOT
ATOM      1  C   UNL     1     -12.671   0.379 -35.298  1.00  0.00     0.027 C 
ENDROOT
BRANCH   1   2
ATOM      2  C   UNL     1     -12.396   0.848 -36.735  1.00  0.00     0.004 C 
BRANCH   2   3
ATOM      3  C   UNL     1     -11.686   2.213 -36.833  1.00  0.00     0.000 C 
BRANCH   3   4
ATOM      4  C   UNL     1     -12.393   3.256 -37.723  1.00  0.00     0.000 C 
BRANCH   4   5
ATOM      5  C   UNL     1     -13.460   4.104 -37.007  1.00  0.00     0.000 C 
BRANCH   5   6
ATOM      6  C   UNL     1     -14.849   3.980 -37.650  1.00  0.00     0.006 C 
BRANCH   6   7
ATOM      7  C   UNL     1     -14.827   2.996 -38.823  1.00  0.00     0.053 C 
BRANCH   7   8
ATOM      8  C   UNL     1     -15.993   3.235 -39.728  1.00  0.00     0.041 C 
ATOM      9  O   UNL     1     -17.082   3.659 -39.260  1.00  0.00    -0.550 OA
ATOM     10  O   UNL     1     -15.862   3.038 -41.097  1.00  0.00    -0.550 OA
ENDBRANCH   7   8
ENDBRANCH   6   7
ENDBRANCH   5   6
ENDBRANCH   4   5
ENDBRANCH   3   4
ENDBRANCH   2   3
ENDBRANCH   1   2
BRANCH   1  11
ATOM     11  C   UNL     1     -14.103   0.618 -34.901  1.00  0.00    -0.031 C 
ATOM     12  C   UNL     1     -15.062   0.829 -35.816  1.00  0.00    -0.027 C 
BRANCH  12  13
ATOM     13  C   UNL     1     -16.491   1.073 -35.420  1.00  0.00     0.054 C 
BRANCH  13  14
ATOM     14  C   UNL     1     -16.623   1.149 -33.921  1.00  0.00    -0.027 C 
ATOM     15  C   UNL     1     -16.817   2.291 -33.236  1.00  0.00    -0.031 C 
BRANCH  15  16
ATOM     16  C   UNL     1     -16.917   3.648 -33.889  1.00  0.00     0.027 C 
BRANCH  16  17
ATOM     17  C   UNL     1     -15.563   4.382 -33.946  1.00  0.00     0.004 C 
BRANCH  17  18
ATOM     18  C   UNL     1     -14.483   3.764 -33.033  1.00  0.00     0.000 C 
BRANCH  18  19
ATOM     19  C   UNL     1     -13.036   4.132 -33.401  1.00  0.00    -0.003 C 
ATOM     20  C   UNL     1     -12.467   5.249 -32.527  1.00  0.00     0.004 C 
ENDBRANCH  18  19
ENDBRANCH  17  18
ENDBRANCH  16  17
ENDBRANCH  15  16
ENDBRANCH  13  14
ENDBRANCH  12  13
ENDBRANCH   1  11
TORSDOF 14
ENDMDL
MODEL 3
REMARK VINA RESULT:    -5.774      2.854      5.716
REMARK INTER + INTRA:         -13.415
REMARK INTER:                 -10.683
REMARK INTRA:                  -2.732
REMARK UNBOUND:                -2.915
REMARK SMILES CCCCCC=CCC=CCCCCCCCC(=O)[O-]
REMARK SMILES IDX 11 1 12 2 13 3 14 4 15 5 16 6 17 7 18 8 19 9 20 10 10 11
REMARK SMILES IDX 9 12 8 13 7 14 6 15 5 16 4 17 3 18 2 19 1 20
REMARK H PARENT
REMARK Flexibility Score: inf
ROOT
ATOM      1  C   UNL     1     -17.014   1.416 -35.413  1.00  0.00     0.027 C 
ENDROOT
BRANCH   1   2
ATOM      2  C   UNL     1     -16.575   1.170 -33.961  1.00  0.00     0.004 C 
BRANCH   2   3
ATOM      3  C   UNL     1     -16.525   2.439 -33.088  1.00  0.00     0.000 C 
BRANCH   3   4
ATOM      4  C   UNL     1     -15.112   2.994 -32.818  1.00  0.00     0.000 C 
BRANCH   4   5
ATOM      5  C   UNL     1     -14.734   4.239 -33.640  1.00  0.00     0.000 C 
BRANCH   5   6
ATOM      6  C   UNL     1     -13.242   4.586 -33.546  1.00  0.00     0.006 C 
BRANCH   6   7
ATOM      7  C   UNL     1     -12.831   4.861 -32.097  1.00  0.00     0.053 C 
BRANCH   7   8
ATOM      8  C   UNL     1     -12.931   6.322 -31.793  1.00  0.00     0.041 C 
ATOM      9  O   UNL     1     -12.922   6.723 -30.600  1.00  0.00    -0.550 OA
ATOM     10  O   UNL     1     -12.982   7.245 -32.830  1.00  0.00    -0.550 OA
ENDBRANCH   7   8
ENDBRANCH   6   7
ENDBRANCH   5   6
ENDBRANCH   4   5
ENDBRANCH   3   4
ENDBRANCH   2   3
ENDBRANCH   1   2
BRANCH   1  11
ATOM     11  C   UNL     1     -15.844   1.759 -36.295  1.00  0.00    -0.031 C 
ATOM     12  C   UNL     1     -15.859   2.831 -37.102  1.00  0.00    -0.027 C 
BRANCH  12  13
ATOM     13  C   UNL     1     -14.693   3.170 -37.987  1.00  0.00     0.054 C 
BRANCH  13  14
ATOM     14  C   UNL     1     -13.778   4.155 -37.308  1.00  0.00    -0.027 C 
ATOM     15  C   UNL     1     -12.460   3.958 -37.121  1.00  0.00    -0.031 C 
BRANCH  15  16
ATOM     16  C   UNL     1     -11.733   2.710 -37.562  1.00  0.00     0.027 C 
BRANCH  16  17
ATOM     17  C   UNL     1     -11.520   1.707 -36.411  1.00  0.00     0.004 C 
BRANCH  17  18
ATOM     18  C   UNL     1     -12.439   0.470 -36.489  1.00  0.00     0.000 C 
BRANCH  18  19
ATOM     19  C   UNL     1     -12.944  -0.048 -35.132  1.00  0.00    -0.003 C 
ATOM     20  C   UNL     1     -12.666   0.924 -33.985  1.00  0.00     0.004 C 
ENDBRANCH  18  19
ENDBRANCH  17  18
ENDBRANCH  16  17
ENDBRANCH  15  16
ENDBRANCH  13  14
ENDBRANCH  12  13
ENDBRANCH   1  11
TORSDOF 14
ENDMDL
MODEL 4
REMARK VINA RESULT:    -5.710      2.715      5.612
REMARK INTER + INTRA:         -13.299
REMARK INTER:                 -10.588
REMARK INTRA:                  -2.711
REMARK UNBOUND:                -2.915
REMARK SMILES CCCCCC=CCC=CCCCCCCCC(=O)[O-]
REMARK SMILES IDX 11 1 12 2 13 3 14 4 15 5 16 6 17 7 18 8 19 9 20 10 10 11
REMARK SMILES IDX 9 12 8 13 7 14 6 15 5 16 4 17 3 18 2 19 1 20
REMARK H PARENT
REMARK Flexibility Score: inf
ROOT
ATOM      1  C   UNL     1     -16.624   1.064 -35.007  1.00  0.00     0.027 C 
ENDROOT
BRANCH   1   2
ATOM      2  C   UNL     1     -16.951   1.493 -33.569  1.00  0.00     0.004 C 
BRANCH   2   3
ATOM      3  C   UNL     1     -17.260   2.995 -33.408  1.00  0.00     0.000 C 
BRANCH   3   4
ATOM      4  C   UNL     1     -16.928   3.867 -34.636  1.00  0.00     0.000 C 
BRANCH   4   5
ATOM      5  C   UNL     1     -15.707   4.790 -34.466  1.00  0.00     0.000 C 
BRANCH   5   6
ATOM      6  C   UNL     1     -14.803   4.373 -33.297  1.00  0.00     0.006 C 
BRANCH   6   7
ATOM      7  C   UNL     1     -13.345   4.756 -33.566  1.00  0.00     0.053 C 
BRANCH   7   8
ATOM      8  C   UNL     1     -12.891   5.800 -32.597  1.00  0.00     0.041 C 
ATOM      9  O   UNL     1     -12.471   5.466 -31.458  1.00  0.00    -0.550 OA
ATOM     10  O   UNL     1     -12.884   7.138 -32.969  1.00  0.00    -0.550 OA
ENDBRANCH   7   8
ENDBRANCH   6   7
ENDBRANCH   5   6
ENDBRANCH   4   5
ENDBRANCH   3   4
ENDBRANCH   2   3
ENDBRANCH   1   2
BRANCH   1  11
ATOM     11  C   UNL     1     -15.201   0.590 -35.134  1.00  0.00    -0.031 C 
ATOM     12  C   UNL     1     -14.195   1.201 -34.490  1.00  0.00    -0.027 C 
BRANCH  12  13
ATOM     13  C   UNL     1     -12.773   0.731 -34.621  1.00  0.00     0.054 C 
BRANCH  13  14
ATOM     14  C   UNL     1     -12.502   0.236 -36.018  1.00  0.00    -0.027 C 
ATOM     15  C   UNL     1     -12.040   1.010 -37.017  1.00  0.00    -0.031 C 
BRANCH  15  16
ATOM     16  C   UNL     1     -11.745   2.483 -36.864  1.00  0.00     0.027 C 
BRANCH  16  17
ATOM     17  C   UNL     1     -12.943   3.373 -37.247  1.00  0.00     0.004 C 
BRANCH  17  18
ATOM     18  C   UNL     1     -13.984   2.663 -38.138  1.00  0.00     0.000 C 
BRANCH  18  19
ATOM     19  C   UNL     1     -15.439   3.108 -37.914  1.00  0.00    -0.003 C 
ATOM     20  C   UNL     1     -16.180   3.395 -39.220  1.00  0.00     0.004 C 
ENDBRANCH  18  19
ENDBRANCH  17  18
ENDBRANCH  16  17
ENDBRANCH  15  16
ENDBRANCH  13  14
ENDBRANCH  12  13
ENDBRANCH   1  11
TORSDOF 14
ENDMDL
MODEL 5
REMARK VINA RESULT:    -5.695      2.300      4.571
REMARK INTER + INTRA:         -13.271
REMARK INTER:                 -10.819
REMARK INTRA:                  -2.452
REMARK UNBOUND:                -2.915
REMARK SMILES CCCCCC=CCC=CCCCCCCCC(=O)[O-]
REMARK SMILES IDX 11 1 12 2 13 3 14 4 15 5 16 6 17 7 18 8 19 9 20 10 10 11
REMARK SMILES IDX 9 12 8 13 7 14 6 15 5 16 4 17 3 18 2 19 1 20
REMARK H PARENT
REMARK Flexibility Score: inf
ROOT
ATOM      1  C   UNL     1     -15.116   1.456 -37.745  1.00  0.00     0.027 C 
ENDROOT
BRANCH   1   2
ATOM      2  C   UNL     1     -14.430   2.676 -38.378  1.00  0.00     0.004 C 
BRANCH   2   3
ATOM      3  C   UNL     1     -14.003   3.761 -37.368  1.00  0.00     0.000 C 
BRANCH   3   4
ATOM      4  C   UNL     1     -12.512   3.738 -36.974  1.00  0.00     0.000 C 
BRANCH   4   5
ATOM      5  C   UNL     1     -11.699   2.575 -37.572  1.00  0.00     0.000 C 
BRANCH   5   6
ATOM      6  C   UNL     1     -11.449   1.443 -36.566  1.00  0.00     0.006 C 
BRANCH   6   7
ATOM      7  C   UNL     1     -11.727   1.908 -35.133  1.00  0.00     0.053 C 
BRANCH   7   8
ATOM      8  C   UNL     1     -12.610   0.930 -34.428  1.00  0.00     0.041 C 
ATOM      9  O   UNL     1     -12.909  -0.163 -34.975  1.00  0.00    -0.550 OA
ATOM     10  O   UNL     1     -13.064   1.204 -33.143  1.00  0.00    -0.550 OA
ENDBRANCH   7   8
ENDBRANCH   6   7
ENDBRANCH   5   6
ENDBRANCH   4   5
ENDBRANCH   3   4
ENDBRANCH   2   3
ENDBRANCH   1   2
BRANCH   1  11
ATOM     11  C   UNL     1     -15.549   1.736 -36.332  1.00  0.00    -0.031 C 
ATOM     12  C   UNL     1     -16.140   0.797 -35.577  1.00  0.00    -0.027 C 
BRANCH  12  13
ATOM     13  C   UNL     1     -16.578   1.078 -34.167  1.00  0.00     0.054 C 
BRANCH  13  14
ATOM     14  C   UNL     1     -17.332   2.379 -34.092  1.00  0.00    -0.027 C 
ATOM     15  C   UNL     1     -16.788   3.547 -33.704  1.00  0.00    -0.031 C 
BRANCH  15  16
ATOM     16  C   UNL     1     -15.345   3.696 -33.283  1.00  0.00     0.027 C 
BRANCH  16  17
ATOM     17  C   UNL     1     -14.648   4.890 -33.964  1.00  0.00     0.004 C 
BRANCH  17  18
ATOM     18  C   UNL     1     -13.156   5.029 -33.596  1.00  0.00     0.000 C 
BRANCH  18  19
ATOM     19  C   UNL     1     -12.825   4.764 -32.118  1.00  0.00    -0.003 C 
ATOM     20  C   UNL     1     -12.727   6.047 -31.292  1.00  0.00     0.004 C 
ENDBRANCH  18  19
ENDBRANCH  17  18
ENDBRANCH  16  17
ENDBRANCH  15  16
ENDBRANCH  13  14
ENDBRANCH  12  13
ENDBRANCH   1  11
TORSDOF 14
ENDMDL
MODEL 6
REMARK VINA RESULT:    -5.668      2.827      4.806
REMARK INTER + INTRA:         -13.222
REMARK INTER:                 -10.989
REMARK INTRA:                  -2.233
REMARK UNBOUND:                -2.915
REMARK SMILES CCCCCC=CCC=CCCCCCCCC(=O)[O-]
REMARK SMILES IDX 11 1 12 2 13 3 14 4 15 5 16 6 17 7 18 8 19 9 20 10 10 11
REMARK SMILES IDX 9 12 8 13 7 14 6 15 5 16 4 17 3 18 2 19 1 20
REMARK H PARENT
REMARK Flexibility Score: inf
ROOT
ATOM      1  C   UNL     1     -12.466   0.065 -36.397  1.00  0.00     0.027 C 
ENDROOT
BRANCH   1   2
ATOM      2  C   UNL     1     -13.174   0.112 -35.034  1.00  0.00     0.004 C 
BRANCH   2   3
ATOM      3  C   UNL     1     -12.469   0.992 -33.982  1.00  0.00     0.000 C 
BRANCH   3   4
ATOM      4  C   UNL     1     -13.383   1.994 -33.248  1.00  0.00     0.000 C 
BRANCH   4   5
ATOM      5  C   UNL     1     -13.525   3.366 -33.934  1.00  0.00     0.000 C 
BRANCH   5   6
ATOM      6  C   UNL     1     -14.103   4.441 -33.002  1.00  0.00     0.006 C 
BRANCH   6   7
ATOM      7  C   UNL     1     -13.096   4.824 -31.913  1.00  0.00     0.053 C 
BRANCH   7   8
ATOM      8  C   UNL     1     -12.988   6.311 -31.801  1.00  0.00     0.041 C 
ATOM      9  O   UNL     1     -12.993   7.026 -32.837  1.00  0.00    -0.550 OA
ATOM     10  O   UNL     1     -12.932   6.912 -30.550  1.00  0.00    -0.550 OA
ENDBRANCH   7   8
ENDBRANCH   6   7
ENDBRANCH   5   6
ENDBRANCH   4   5
ENDBRANCH   3   4
ENDBRANCH   2   3
ENDBRANCH   1   2
BRANCH   1  11
ATOM     11  C   UNL     1     -13.038   1.076 -37.353  1.00  0.00    -0.031 C 
ATOM     12  C   UNL     1     -12.883   2.395 -37.161  1.00  0.00    -0.027 C 
BRANCH  12  13
ATOM     13  C   UNL     1     -13.458   3.405 -38.114  1.00  0.00     0.054 C 
BRANCH  13  14
ATOM     14  C   UNL     1     -14.767   2.919 -38.679  1.00  0.00    -0.027 C 
ATOM     15  C   UNL     1     -15.934   2.942 -38.011  1.00  0.00    -0.031 C 
BRANCH  15  16
ATOM     16  C   UNL     1     -16.076   3.451 -36.597  1.00  0.00     0.027 C 
BRANCH  16  17
ATOM     17  C   UNL     1     -17.153   2.694 -35.796  1.00  0.00     0.004 C 
BRANCH  17  18
ATOM     18  C   UNL     1     -16.619   1.447 -35.061  1.00  0.00     0.000 C 
BRANCH  18  19
ATOM     19  C   UNL     1     -16.898   1.417 -33.549  1.00  0.00    -0.003 C 
ATOM     20  C   UNL     1     -17.606   2.676 -33.051  1.00  0.00     0.004 C 
ENDBRANCH  18  19
ENDBRANCH  17  18
ENDBRANCH  16  17
ENDBRANCH  15  16
ENDBRANCH  13  14
ENDBRANCH  12  13
ENDBRANCH   1  11
TORSDOF 14
ENDMDL
MODEL 7
REMARK VINA RESULT:    -5.600      1.952      3.524
REMARK INTER + INTRA:         -13.098
REMARK INTER:                 -10.342
REMARK INTRA:                  -2.756
REMARK UNBOUND:                -2.915
REMARK SMILES CCCCCC=CCC=CCCCCCCCC(=O)[O-]
REMARK SMILES IDX 11 1 12 2 13 3 14 4 15 5 16 6 17 7 18 8 19 9 20 10 10 11
REMARK SMILES IDX 9 12 8 13 7 14 6 15 5 16 4 17 3 18 2 19 1 20
REMARK H PARENT
REMARK Flexibility Score: inf
ROOT
ATOM      1  C   UNL     1     -12.513   0.535 -35.299  1.00  0.00     0.027 C 
ENDROOT
BRANCH   1   2
ATOM      2  C   UNL     1     -12.241   0.835 -36.781  1.00  0.00     0.004 C 
BRANCH   2   3
ATOM      3  C   UNL     1     -11.358   2.074 -37.028  1.00  0.00     0.000 C 
BRANCH   3   4
ATOM      4  C   UNL     1     -12.099   3.306 -37.587  1.00  0.00     0.000 C 
BRANCH   4   5
ATOM      5  C   UNL     1     -13.514   3.023 -38.126  1.00  0.00     0.000 C 
BRANCH   5   6
ATOM      6  C   UNL     1     -14.475   4.202 -37.922  1.00  0.00     0.006 C 
BRANCH   6   7
ATOM      7  C   UNL     1     -14.397   4.735 -36.488  1.00  0.00     0.053 C 
BRANCH   7   8
ATOM      8  C   UNL     1     -14.314   6.228 -36.489  1.00  0.00     0.041 C 
ATOM      9  O   UNL     1     -14.628   6.880 -35.460  1.00  0.00    -0.550 OA
ATOM     10  O   UNL     1     -13.841   6.897 -37.611  1.00  0.00    -0.550 OA
ENDBRANCH   7   8
ENDBRANCH   6   7
ENDBRANCH   5   6
ENDBRANCH   4   5
ENDBRANCH   3   4
ENDBRANCH   2   3
ENDBRANCH   1   2
BRANCH   1  11
ATOM     11  C   UNL     1     -13.987   0.424 -35.018  1.00  0.00    -0.031 C 
ATOM     12  C   UNL     1     -14.904   0.960 -35.838  1.00  0.00    -0.027 C 
BRANCH  12  13
ATOM     13  C   UNL     1     -16.376   0.854 -35.554  1.00  0.00     0.054 C 
BRANCH  13  14
ATOM     14  C   UNL     1     -17.000   2.221 -35.458  1.00  0.00    -0.027 C 
ATOM     15  C   UNL     1     -17.274   2.847 -34.299  1.00  0.00    -0.031 C 
BRANCH  15  16
ATOM     16  C   UNL     1     -16.996   2.247 -32.941  1.00  0.00     0.027 C 
BRANCH  16  17
ATOM     17  C   UNL     1     -15.532   2.434 -32.497  1.00  0.00     0.004 C 
BRANCH  17  18
ATOM     18  C   UNL     1     -14.860   3.692 -33.085  1.00  0.00     0.000 C 
BRANCH  18  19
ATOM     19  C   UNL     1     -13.327   3.621 -33.182  1.00  0.00    -0.003 C 
ATOM     20  C   UNL     1     -12.666   4.999 -33.156  1.00  0.00     0.004 C 
ENDBRANCH  18  19
ENDBRANCH  17  18
ENDBRANCH  16  17
ENDBRANCH  15  16
ENDBRANCH  13  14
ENDBRANCH  12  13
ENDBRANCH   1  11
TORSDOF 14
ENDMDL
MODEL 8
REMARK VINA RESULT:    -5.580      1.074      3.782
REMARK INTER + INTRA:         -13.062
REMARK INTER:                 -10.907
REMARK INTRA:                  -2.155
REMARK UNBOUND:                -2.915
REMARK SMILES CCCCCC=CCC=CCCCCCCCC(=O)[O-]
REMARK SMILES IDX 11 1 12 2 13 3 14 4 15 5 16 6 17 7 18 8 19 9 20 10 10 11
REMARK SMILES IDX 9 12 8 13 7 14 6 15 5 16 4 17 3 18 2 19 1 20
REMARK H PARENT
REMARK Flexibility Score: inf
ROOT
ATOM      1  C   UNL     1     -17.271   2.625 -32.944  1.00  0.00     0.027 C 
ENDROOT
BRANCH   1   2
ATOM      2  C   UNL     1     -17.028   1.151 -33.301  1.00  0.00     0.004 C 
BRANCH   2   3
ATOM      3  C   UNL     1     -15.810   0.910 -34.214  1.00  0.00     0.000 C 
BRANCH   3   4
ATOM      4  C   UNL     1     -16.134   0.767 -35.715  1.00  0.00     0.000 C 
BRANCH   4   5
ATOM      5  C   UNL     1     -15.846   2.019 -36.564  1.00  0.00     0.000 C 
BRANCH   5   6
ATOM      6  C   UNL     1     -15.110   1.696 -37.872  1.00  0.00     0.006 C 
BRANCH   6   7
ATOM      7  C   UNL     1     -14.792   2.974 -38.654  1.00  0.00     0.053 C 
BRANCH   7   8
ATOM      8  C   UNL     1     -15.867   3.255 -39.655  1.00  0.00     0.041 C 
ATOM      9  O   UNL     1     -16.969   3.734 -39.282  1.00  0.00    -0.550 OA
ATOM     10  O   UNL     1     -15.633   3.035 -41.006  1.00  0.00    -0.550 OA
ENDBRANCH   7   8
ENDBRANCH   6   7
ENDBRANCH   5   6
ENDBRANCH   4   5
ENDBRANCH   3   4
ENDBRANCH   2   3
ENDBRANCH   1   2
BRANCH   1  11
ATOM     11  C   UNL     1     -16.069   3.475 -33.252  1.00  0.00    -0.031 C 
ATOM     12  C   UNL     1     -16.146   4.535 -34.071  1.00  0.00    -0.027 C 
BRANCH  12  13
ATOM     13  C   UNL     1     -14.943   5.381 -34.384  1.00  0.00     0.054 C 
BRANCH  13  14
ATOM     14  C   UNL     1     -13.844   5.134 -33.385  1.00  0.00    -0.027 C 
ATOM     15  C   UNL     1     -12.814   4.291 -33.587  1.00  0.00    -0.031 C 
BRANCH  15  16
ATOM     16  C   UNL     1     -12.639   3.475 -34.844  1.00  0.00     0.027 C 
BRANCH  16  17
ATOM     17  C   UNL     1     -11.780   2.215 -34.621  1.00  0.00     0.004 C 
BRANCH  17  18
ATOM     18  C   UNL     1     -12.484   0.903 -35.027  1.00  0.00     0.000 C 
BRANCH  18  19
ATOM     19  C   UNL     1     -11.992   0.285 -36.346  1.00  0.00    -0.003 C 
ATOM     20  C   UNL     1     -11.306   1.302 -37.259  1.00  0.00     0.004 C 
ENDBRANCH  18  19
ENDBRANCH  17  18
ENDBRANCH  16  17
ENDBRANCH  15  16
ENDBRANCH  13  14
ENDBRANCH  12  13
ENDBRANCH   1  11
TORSDOF 14
ENDMDL
MODEL 9
REMARK VINA RESULT:    -5.513      2.746      4.758
REMARK INTER + INTRA:         -12.940
REMARK INTER:                 -10.104
REMARK INTRA:                  -2.836
REMARK UNBOUND:                -2.915
REMARK SMILES CCCCCC=CCC=CCCCCCCCC(=O)[O-]
REMARK SMILES IDX 11 1 12 2 13 3 14 4 15 5 16 6 17 7 18 8 19 9 20 10 10 11
REMARK SMILES IDX 9 12 8 13 7 14 6 15 5 16 4 17 3 18 2 19 1 20
REMARK H PARENT
REMARK Flexibility Score: inf
ROOT
ATOM      1  C   UNL     1     -13.523   1.768 -37.641  1.00  0.00     0.027 C 
ENDROOT
BRANCH   1   2
ATOM      2  C   UNL     1     -12.575   0.723 -37.035  1.00  0.00     0.004 C 
BRANCH   2   3
ATOM      3  C   UNL     1     -11.363   1.319 -36.291  1.00  0.00     0.000 C 
BRANCH   3   4
ATOM      4  C   UNL     1     -11.700   2.427 -35.272  1.00  0.00     0.000 C 
BRANCH   4   5
ATOM      5  C   UNL     1     -12.572   1.975 -34.086  1.00  0.00     0.000 C 
BRANCH   5   6
ATOM      6  C   UNL     1     -13.124   3.152 -33.269  1.00  0.00     0.006 C 
BRANCH   6   7
ATOM      7  C   UNL     1     -12.376   4.448 -33.596  1.00  0.00     0.053 C 
BRANCH   7   8
ATOM      8  C   UNL     1     -12.633   5.480 -32.545  1.00  0.00     0.041 C 
ATOM      9  O   UNL     1     -12.499   5.191 -31.328  1.00  0.00    -0.550 OA
ATOM     10  O   UNL     1     -12.973   6.776 -32.913  1.00  0.00    -0.550 OA
ENDBRANCH   7   8
ENDBRANCH   6   7
ENDBRANCH   5   6
ENDBRANCH   4   5
ENDBRANCH   3   4
ENDBRANCH   2   3
ENDBRANCH   1   2
BRANCH   1  11
ATOM     11  C   UNL     1     -14.918   1.636 -37.091  1.00  0.00    -0.031 C 
ATOM     12  C   UNL     1     -15.164   0.998 -35.937  1.00  0.00    -0.027 C 
BRANCH  12  13
ATOM     13  C   UNL     1     -16.557   0.861 -35.391  1.00  0.00     0.054 C 
BRANCH  13  14
ATOM     14  C   UNL     1     -16.576   1.121 -33.908  1.00  0.00    -0.027 C 
ATOM     15  C   UNL     1     -16.839   2.318 -33.354  1.00  0.00    -0.031 C 
BRANCH  15  16
ATOM     16  C   UNL     1     -17.140   3.561 -34.157  1.00  0.00     0.027 C 
BRANCH  16  17
ATOM     17  C   UNL     1     -16.289   4.770 -33.722  1.00  0.00     0.004 C 
BRANCH  17  18
ATOM     18  C   UNL     1     -15.767   5.618 -34.901  1.00  0.00     0.000 C 
BRANCH  18  19
ATOM     19  C   UNL     1     -14.981   4.833 -35.965  1.00  0.00    -0.003 C 
ATOM     20  C   UNL     1     -13.997   5.708 -36.741  1.00  0.00     0.004 C 
ENDBRANCH  18  19
ENDBRANCH  17  18
ENDBRANCH  16  17
ENDBRANCH  15  16
ENDBRANCH  13  14
ENDBRANCH  12  13
ENDBRANCH   1  11
TORSDOF 14
ENDMDL
