MODEL 1
REMARK VINA RESULT:    -4.835      0.000      0.000
REMARK INTER + INTRA:          -6.652
REMARK INTER:                  -5.965
REMARK INTRA:                  -0.687
REMARK UNBOUND:                -0.687
REMARK SMILES CC(C)=CCC[C@H](C)c1ccc(C)cc1
REMARK SMILES IDX 6 1 7 2 8 3 9 4 13 5 12 6 11 7 14 8 10 9 15 10 5 11 4 12
REMARK SMILES IDX 2 13 1 14 3 15
REMARK H PARENT
REMARK Flexibility Score: inf
ROOT
ATOM      1  C   UNL     1      39.238  40.869  55.309  1.00  0.00     0.012 C 
ENDROOT
BRANCH   1   2
ATOM      2  C   UNL     1      38.342  41.410  56.446  1.00  0.00     0.016 C 
ATOM      3  C   UNL     1      38.752  40.874  57.828  1.00  0.00     0.013 C 
BRANCH   2   4
ATOM      4  C   UNL     1      36.863  41.232  56.127  1.00  0.00    -0.045 A 
ATOM      5  C   UNL     1      32.624  40.757  55.428  1.00  0.00     0.044 C 
ATOM      6  C   UNL     1      34.089  40.945  55.690  1.00  0.00    -0.051 A 
ATOM      7  C   UNL     1      34.847  41.799  54.878  1.00  0.00     0.004 A 
ATOM      8  C   UNL     1      34.723  40.222  56.709  1.00  0.00     0.004 A 
ATOM      9  C   UNL     1      36.219  41.951  55.100  1.00  0.00     0.004 A 
ATOM     10  C   UNL     1      36.094  40.372  56.933  1.00  0.00     0.004 A 
ENDBRANCH   2   4
ENDBRANCH   1   2
BRANCH   1  11
ATOM     11  C   UNL     1      40.603  41.570  55.193  1.00  0.00     0.028 C 
BRANCH  11  12
ATOM     12  C   UNL     1      41.688  40.735  55.826  1.00  0.00    -0.028 C 
ATOM     13  C   UNL     1      42.352  41.083  56.952  1.00  0.00    -0.080 C 
ATOM     14  C   UNL     1      43.390  40.135  57.494  1.00  0.00     0.039 C 
ATOM     15  C   UNL     1      42.094  42.393  57.661  1.00  0.00     0.039 C 
ENDBRANCH  11  12
ENDBRANCH   1  11
TORSDOF 4
ENDMDL
MODEL 2
REMARK VINA RESULT:    -4.525      8.975     10.151
REMARK INTER + INTRA:          -6.270
REMARK INTER:                  -5.457
REMARK INTRA:                  -0.812
REMARK UNBOUND:                -0.687
REMARK SMILES CC(C)=CCC[C@H](C)c1ccc(C)cc1
REMARK SMILES IDX 6 1 7 2 8 3 9 4 13 5 12 6 11 7 14 8 10 9 15 10 5 11 4 12
REMARK SMILES IDX 2 13 1 14 3 15
REMARK H PARENT
REMARK Flexibility Score: inf
ROOT
ATOM      1  C   UNL     1      36.707  49.946  54.940  1.00  0.00     0.012 C 
ENDROOT
BRANCH   1   2
ATOM      2  C   UNL     1      36.738  49.102  56.235  1.00  0.00     0.016 C 
ATOM      3  C   UNL     1      37.417  47.736  56.033  1.00  0.00     0.013 C 
BRANCH   2   4
ATOM      4  C   UNL     1      35.363  49.019  56.884  1.00  0.00    -0.045 A 
ATOM      5  C   UNL     1      31.472  48.991  58.765  1.00  0.00     0.044 C 
ATOM      6  C   UNL     1      32.815  49.028  58.098  1.00  0.00    -0.051 A 
ATOM      7  C   UNL     1      33.002  48.412  56.854  1.00  0.00     0.004 A 
ATOM      8  C   UNL     1      33.908  49.623  58.743  1.00  0.00     0.004 A 
ATOM      9  C   UNL     1      34.261  48.417  56.245  1.00  0.00     0.004 A 
ATOM     10  C   UNL     1      35.166  49.628  58.137  1.00  0.00     0.004 A 
ENDBRANCH   2   4
ENDBRANCH   1   2
BRANCH   1  11
ATOM     11  C   UNL     1      35.800  51.188  55.018  1.00  0.00     0.028 C 
BRANCH  11  12
ATOM     12  C   UNL     1      36.612  52.450  54.877  1.00  0.00    -0.028 C 
ATOM     13  C   UNL     1      36.898  53.285  55.902  1.00  0.00    -0.080 C 
ATOM     14  C   UNL     1      37.751  54.496  55.624  1.00  0.00     0.039 C 
ATOM     15  C   UNL     1      36.373  53.047  57.300  1.00  0.00     0.039 C 
ENDBRANCH  11  12
ENDBRANCH   1  11
TORSDOF 4
ENDMDL
MODEL 3
REMARK VINA RESULT:    -4.505      7.092      7.848
REMARK INTER + INTRA:          -6.245
REMARK INTER:                  -5.807
REMARK INTRA:                  -0.438
REMARK UNBOUND:                -0.687
REMARK SMILES CC(C)=CCC[C@H](C)c1ccc(C)cc1
REMARK SMILES IDX 6 1 7 2 8 3 9 4 13 5 12 6 11 7 14 8 10 9 15 10 5 11 4 12
REMARK SMILES IDX 2 13 1 14 3 15
REMARK H PARENT
REMARK Flexibility Score: inf
ROOT
ATOM      1  C   UNL     1      37.309  47.960  56.308  1.00  0.00     0.012 C 
ENDROOT
BRANCH   1   2
ATOM      2  C   UNL     1      36.084  48.605  55.622  1.00  0.00     0.016 C 
ATOM      3  C   UNL     1      36.439  49.902  54.875  1.00  0.00     0.013 C 
BRANCH   2   4
ATOM      4  C   UNL     1      34.913  48.748  56.585  1.00  0.00    -0.045 A 
ATOM      5  C   UNL     1      31.651  49.352  59.357  1.00  0.00     0.044 C 
ATOM      6  C   UNL     1      32.778  49.171  58.384  1.00  0.00    -0.051 A 
ATOM      7  C   UNL     1      32.537  48.617  57.120  1.00  0.00     0.004 A 
ATOM      8  C   UNL     1      34.090  49.497  58.754  1.00  0.00     0.004 A 
ATOM      9  C   UNL     1      33.591  48.417  56.224  1.00  0.00     0.004 A 
ATOM     10  C   UNL     1      35.145  49.298  57.859  1.00  0.00     0.004 A 
ENDBRANCH   2   4
ENDBRANCH   1   2
BRANCH   1  11
ATOM     11  C   UNL     1      38.648  48.239  55.601  1.00  0.00     0.028 C 
BRANCH  11  12
ATOM     12  C   UNL     1      39.564  47.046  55.703  1.00  0.00    -0.028 C 
ATOM     13  C   UNL     1      40.890  47.128  55.959  1.00  0.00    -0.080 C 
ATOM     14  C   UNL     1      41.680  45.850  56.068  1.00  0.00     0.039 C 
ATOM     15  C   UNL     1      41.594  48.457  56.118  1.00  0.00     0.039 C 
ENDBRANCH  11  12
ENDBRANCH   1  11
TORSDOF 4
ENDMDL
MODEL 4
REMARK VINA RESULT:    -4.377     11.465     13.308
REMARK INTER + INTRA:          -6.087
REMARK INTER:                  -5.465
REMARK INTRA:                  -0.622
REMARK UNBOUND:                -0.687
REMARK SMILES CC(C)=CCC[C@H](C)c1ccc(C)cc1
REMARK SMILES IDX 6 1 7 2 8 3 9 4 13 5 12 6 11 7 14 8 10 9 15 10 5 11 4 12
REMARK SMILES IDX 2 13 1 14 3 15
REMARK H PARENT
REMARK Flexibility Score: inf
ROOT
ATOM      1  C   UNL     1      36.160  52.068  57.441  1.00  0.00     0.012 C 
ENDROOT
BRANCH   1   2
ATOM      2  C   UNL     1      36.127  52.695  56.029  1.00  0.00     0.016 C 
ATOM      3  C   UNL     1      36.541  51.700  54.932  1.00  0.00     0.013 C 
BRANCH   2   4
ATOM      4  C   UNL     1      36.883  54.016  55.984  1.00  0.00    -0.045 A 
ATOM      5  C   UNL     1      38.990  57.775  55.648  1.00  0.00     0.044 C 
ATOM      6  C   UNL     1      38.237  56.481  55.745  1.00  0.00    -0.051 A 
ATOM      7  C   UNL     1      37.270  56.301  56.742  1.00  0.00     0.004 A 
ATOM      8  C   UNL     1      38.539  55.421  54.879  1.00  0.00     0.004 A 
ATOM      9  C   UNL     1      36.590  55.085  56.855  1.00  0.00     0.004 A 
ATOM     10  C   UNL     1      37.860  54.205  54.990  1.00  0.00     0.004 A 
ENDBRANCH   2   4
ENDBRANCH   1   2
BRANCH   1  11
ATOM     11  C   UNL     1      36.053  50.533  57.454  1.00  0.00     0.028 C 
BRANCH  11  12
ATOM     12  C   UNL     1      34.631  50.099  57.705  1.00  0.00    -0.028 C 
ATOM     13  C   UNL     1      34.042  49.044  57.096  1.00  0.00    -0.080 C 
ATOM     14  C   UNL     1      32.622  48.702  57.468  1.00  0.00     0.039 C 
ATOM     15  C   UNL     1      34.758  48.221  56.049  1.00  0.00     0.039 C 
ENDBRANCH  11  12
ENDBRANCH   1  11
TORSDOF 4
ENDMDL
MODEL 5
REMARK VINA RESULT:    -4.070     11.425     12.870
REMARK INTER + INTRA:          -5.709
REMARK INTER:                  -5.351
REMARK INTRA:                  -0.358
REMARK UNBOUND:                -0.687
REMARK SMILES CC(C)=CCC[C@H](C)c1ccc(C)cc1
REMARK SMILES IDX 6 1 7 2 8 3 9 4 13 5 12 6 11 7 14 8 10 9 15 10 5 11 4 12
REMARK SMILES IDX 2 13 1 14 3 15
REMARK H PARENT
REMARK Flexibility Score: inf
ROOT
ATOM      1  C   UNL     1      35.532  52.087  55.388  1.00  0.00     0.012 C 
ENDROOT
BRANCH   1   2
ATOM      2  C   UNL     1      36.592  52.520  56.426  1.00  0.00     0.016 C 
ATOM      3  C   UNL     1      36.103  52.352  57.874  1.00  0.00     0.013 C 
BRANCH   2   4
ATOM      4  C   UNL     1      37.146  53.905  56.118  1.00  0.00    -0.045 A 
ATOM      5  C   UNL     1      38.765  57.856  55.448  1.00  0.00     0.044 C 
ATOM      6  C   UNL     1      38.227  56.480  55.699  1.00  0.00    -0.051 A 
ATOM      7  C   UNL     1      38.606  55.412  54.876  1.00  0.00     0.004 A 
ATOM      8  C   UNL     1      37.292  56.262  56.721  1.00  0.00     0.004 A 
ATOM      9  C   UNL     1      38.081  54.134  55.088  1.00  0.00     0.004 A 
ATOM     10  C   UNL     1      36.766  54.985  56.935  1.00  0.00     0.004 A 
ENDBRANCH   2   4
ENDBRANCH   1   2
BRANCH   1  11
ATOM     11  C   UNL     1      34.967  50.674  55.614  1.00  0.00     0.028 C 
BRANCH  11  12
ATOM     12  C   UNL     1      36.067  49.644  55.563  1.00  0.00    -0.028 C 
ATOM     13  C   UNL     1      36.503  48.947  56.637  1.00  0.00    -0.080 C 
ATOM     14  C   UNL     1      37.588  47.922  56.434  1.00  0.00     0.039 C 
ATOM     15  C   UNL     1      35.948  49.182  58.023  1.00  0.00     0.039 C 
ENDBRANCH  11  12
ENDBRANCH   1  11
TORSDOF 4
ENDMDL
MODEL 6
REMARK VINA RESULT:    -3.671      1.622      3.319
REMARK INTER + INTRA:          -5.216
REMARK INTER:                  -4.502
REMARK INTRA:                  -0.715
REMARK UNBOUND:                -0.687
REMARK SMILES CC(C)=CCC[C@H](C)c1ccc(C)cc1
REMARK SMILES IDX 6 1 7 2 8 3 9 4 13 5 12 6 11 7 14 8 10 9 15 10 5 11 4 12
REMARK SMILES IDX 2 13 1 14 3 15
REMARK H PARENT
REMARK Flexibility Score: inf
ROOT
ATOM      1  C   UNL     1      42.394  41.419  55.468  1.00  0.00     0.012 C 
ENDROOT
BRANCH   1   2
ATOM      2  C   UNL     1      41.328  42.535  55.392  1.00  0.00     0.016 C 
ATOM      3  C   UNL     1      41.714  43.777  56.213  1.00  0.00     0.013 C 
BRANCH   2   4
ATOM      4  C   UNL     1      39.934  42.003  55.696  1.00  0.00    -0.045 A 
ATOM      5  C   UNL     1      35.997  40.566  56.754  1.00  0.00     0.044 C 
ATOM      6  C   UNL     1      37.358  41.091  56.403  1.00  0.00    -0.051 A 
ATOM      7  C   UNL     1      37.549  41.822  55.223  1.00  0.00     0.004 A 
ATOM      8  C   UNL     1      38.460  40.800  57.219  1.00  0.00     0.004 A 
ATOM      9  C   UNL     1      38.822  42.285  54.877  1.00  0.00     0.004 A 
ATOM     10  C   UNL     1      39.733  41.262  56.874  1.00  0.00     0.004 A 
ENDBRANCH   2   4
ENDBRANCH   1   2
BRANCH   1  11
ATOM     11  C   UNL     1      43.476  41.650  56.537  1.00  0.00     0.028 C 
BRANCH  11  12
ATOM     12  C   UNL     1      43.301  40.694  57.690  1.00  0.00    -0.028 C 
ATOM     13  C   UNL     1      43.889  39.478  57.761  1.00  0.00    -0.080 C 
ATOM     14  C   UNL     1      43.654  38.638  58.990  1.00  0.00     0.039 C 
ATOM     15  C   UNL     1      44.752  38.938  56.643  1.00  0.00     0.039 C 
ENDBRANCH  11  12
ENDBRANCH   1  11
TORSDOF 4
ENDMDL
MODEL 7
REMARK VINA RESULT:    -3.602      6.456      7.205
REMARK INTER + INTRA:          -5.131
REMARK INTER:                  -4.714
REMARK INTRA:                  -0.417
REMARK UNBOUND:                -0.687
REMARK SMILES CC(C)=CCC[C@H](C)c1ccc(C)cc1
REMARK SMILES IDX 6 1 7 2 8 3 9 4 13 5 12 6 11 7 14 8 10 9 15 10 5 11 4 12
REMARK SMILES IDX 2 13 1 14 3 15
REMARK H PARENT
REMARK Flexibility Score: inf
ROOT
ATOM      1  C   UNL     1      38.847  47.888  56.865  1.00  0.00     0.012 C 
ENDROOT
BRANCH   1   2
ATOM      2  C   UNL     1      37.728  48.265  55.867  1.00  0.00     0.016 C 
ATOM      3  C   UNL     1      38.164  49.356  54.875  1.00  0.00     0.013 C 
BRANCH   2   4
ATOM      4  C   UNL     1      36.417  48.566  56.581  1.00  0.00    -0.045 A 
ATOM      5  C   UNL     1      32.629  49.228  58.555  1.00  0.00     0.044 C 
ATOM      6  C   UNL     1      33.944  48.970  57.881  1.00  0.00    -0.051 A 
ATOM      7  C   UNL     1      35.145  49.253  58.545  1.00  0.00     0.004 A 
ATOM      8  C   UNL     1      33.981  48.501  56.561  1.00  0.00     0.004 A 
ATOM      9  C   UNL     1      36.371  49.043  57.907  1.00  0.00     0.004 A 
ATOM     10  C   UNL     1      35.206  48.290  55.922  1.00  0.00     0.004 A 
ENDBRANCH   2   4
ENDBRANCH   1   2
BRANCH   1  11
ATOM     11  C   UNL     1      40.203  47.578  56.206  1.00  0.00     0.028 C 
BRANCH  11  12
ATOM     12  C   UNL     1      40.909  46.465  56.937  1.00  0.00    -0.028 C 
ATOM     13  C   UNL     1      41.779  45.609  56.355  1.00  0.00    -0.080 C 
ATOM     14  C   UNL     1      42.440  44.562  57.214  1.00  0.00     0.039 C 
ATOM     15  C   UNL     1      42.087  45.663  54.875  1.00  0.00     0.039 C 
ENDBRANCH  11  12
ENDBRANCH   1  11
TORSDOF 4
ENDMDL
MODEL 8
REMARK VINA RESULT:    -3.283      7.539      9.602
REMARK INTER + INTRA:          -4.737
REMARK INTER:                  -3.977
REMARK INTRA:                  -0.760
REMARK UNBOUND:                -0.687
REMARK SMILES CC(C)=CCC[C@H](C)c1ccc(C)cc1
REMARK SMILES IDX 6 1 7 2 8 3 9 4 13 5 12 6 11 7 14 8 10 9 15 10 5 11 4 12
REMARK SMILES IDX 2 13 1 14 3 15
REMARK H PARENT
REMARK Flexibility Score: inf
ROOT
ATOM      1  C   UNL     1      35.003  51.150  55.421  1.00  0.00     0.012 C 
ENDROOT
BRANCH   1   2
ATOM      2  C   UNL     1      34.762  49.721  54.881  1.00  0.00     0.016 C 
ATOM      3  C   UNL     1      33.525  49.056  55.507  1.00  0.00     0.013 C 
BRANCH   2   4
ATOM      4  C   UNL     1      36.024  48.873  54.955  1.00  0.00    -0.045 A 
ATOM      5  C   UNL     1      39.685  46.601  55.306  1.00  0.00     0.044 C 
ATOM      6  C   UNL     1      38.415  47.394  55.215  1.00  0.00    -0.051 A 
ATOM      7  C   UNL     1      37.173  46.748  55.290  1.00  0.00     0.004 A 
ATOM      8  C   UNL     1      38.459  48.777  54.992  1.00  0.00     0.004 A 
ATOM      9  C   UNL     1      35.988  47.481  55.172  1.00  0.00     0.004 A 
ATOM     10  C   UNL     1      37.276  49.510  54.875  1.00  0.00     0.004 A 
ENDBRANCH   2   4
ENDBRANCH   1   2
BRANCH   1  11
ATOM     11  C   UNL     1      34.712  51.315  56.923  1.00  0.00     0.028 C 
BRANCH  11  12
ATOM     12  C   UNL     1      35.678  50.502  57.747  1.00  0.00    -0.028 C 
ATOM     13  C   UNL     1      35.311  49.481  58.555  1.00  0.00    -0.080 C 
ATOM     14  C   UNL     1      36.387  48.731  59.296  1.00  0.00     0.039 C 
ATOM     15  C   UNL     1      33.863  49.091  58.746  1.00  0.00     0.039 C 
ENDBRANCH  11  12
ENDBRANCH   1  11
TORSDOF 4
ENDMDL
MODEL 9
REMARK VINA RESULT:    -3.100      9.540     13.029
REMARK INTER + INTRA:          -4.512
REMARK INTER:                  -4.090
REMARK INTRA:                  -0.422
REMARK UNBOUND:                -0.687
REMARK SMILES CC(C)=CCC[C@H](C)c1ccc(C)cc1
REMARK SMILES IDX 6 1 7 2 8 3 9 4 13 5 12 6 11 7 14 8 10 9 15 10 5 11 4 12
REMARK SMILES IDX 2 13 1 14 3 15
REMARK H PARENT
REMARK Flexibility Score: inf
ROOT
ATOM      1  C   UNL     1      42.990  50.443  55.668  1.00  0.00     0.012 C 
ENDROOT
BRANCH   1   2
ATOM      2  C   UNL     1      44.370  50.824  55.086  1.00  0.00     0.016 C 
ATOM      3  C   UNL     1      45.280  49.602  54.875  1.00  0.00     0.013 C 
BRANCH   2   4
ATOM      4  C   UNL     1      45.021  51.950  55.878  1.00  0.00    -0.045 A 
ATOM      5  C   UNL     1      47.031  55.016  58.168  1.00  0.00     0.044 C 
ATOM      6  C   UNL     1      46.361  53.944  57.362  1.00  0.00    -0.051 A 
ATOM      7  C   UNL     1      45.856  54.232  56.087  1.00  0.00     0.004 A 
ATOM      8  C   UNL     1      46.179  52.663  57.901  1.00  0.00     0.004 A 
ATOM      9  C   UNL     1      45.202  53.243  55.346  1.00  0.00     0.004 A 
ATOM     10  C   UNL     1      45.526  51.673  57.161  1.00  0.00     0.004 A 
ENDBRANCH   2   4
ENDBRANCH   1   2
BRANCH   1  11
ATOM     11  C   UNL     1      42.379  49.168  55.060  1.00  0.00     0.028 C 
BRANCH  11  12
ATOM     12  C   UNL     1      40.986  48.938  55.591  1.00  0.00    -0.028 C 
ATOM     13  C   UNL     1      40.484  47.721  55.900  1.00  0.00    -0.080 C 
ATOM     14  C   UNL     1      39.086  47.642  56.455  1.00  0.00     0.039 C 
ATOM     15  C   UNL     1      41.276  46.451  55.688  1.00  0.00     0.039 C 
ENDBRANCH  11  12
ENDBRANCH   1  11
TORSDOF 4
ENDMDL
