MODEL 1
REMARK VINA RESULT:    -5.701      0.000      0.000
REMARK INTER + INTRA:         -19.550
REMARK INTER:                 -15.032
REMARK INTRA:                  -4.518
REMARK UNBOUND:                -4.518
REMARK SMILES CCCCCCCCCCCCCCCCCCCCCCCCCCCCCC(=O)[O-]
REMARK SMILES IDX 16 1 17 2 18 3 19 4 20 5 21 6 22 7 23 8 24 9 25 10 26 11
REMARK SMILES IDX 27 12 28 13 29 14 30 15 31 16 32 17 15 18 14 19 13 20 12 21
REMARK SMILES IDX 11 22 10 23 9 24 8 25 7 26 6 27 5 28 4 29 3 30 2 31 1 32
REMARK H PARENT
REMARK Flexibility Score: inf
ROOT
ATOM      1  C   UNL     1      10.159 -13.160  29.645  1.00  0.00     0.000 C 
ENDROOT
BRANCH   1   2
ATOM      2  C   UNL     1       9.967 -12.790  28.159  1.00  0.00     0.000 C 
BRANCH   2   3
ATOM      3  C   UNL     1       8.654 -13.314  27.543  1.00  0.00     0.000 C 
BRANCH   3   4
ATOM      4  C   UNL     1       8.353 -12.823  26.115  1.00  0.00     0.000 C 
BRANCH   4   5
ATOM      5  C   UNL     1       8.906 -11.425  25.772  1.00  0.00     0.000 C 
BRANCH   5   6
ATOM      6  C   UNL     1       9.735 -11.353  24.475  1.00  0.00     0.000 C 
BRANCH   6   7
ATOM      7  C   UNL     1      10.081 -12.717  23.846  1.00  0.00     0.000 C 
BRANCH   7   8
ATOM      8  C   UNL     1      11.574 -13.091  23.889  1.00  0.00     0.000 C 
BRANCH   8   9
ATOM      9  C   UNL     1      12.241 -12.722  25.222  1.00  0.00     0.000 C 
BRANCH   9  10
ATOM     10  C   UNL     1      13.465 -11.828  24.996  1.00  0.00     0.000 C 
BRANCH  10  11
ATOM     11  C   UNL     1      14.232 -12.256  23.737  1.00  0.00     0.000 C 
BRANCH  11  12
ATOM     12  C   UNL     1      15.691 -11.765  23.723  1.00  0.00     0.000 C 
BRANCH  12  13
ATOM     13  C   UNL     1      16.359 -11.668  25.106  1.00  0.00     0.006 C 
BRANCH  13  14
ATOM     14  C   UNL     1      17.475 -10.617  25.163  1.00  0.00     0.053 C 
BRANCH  14  15
ATOM     15  C   UNL     1      18.087 -10.563  26.529  1.00  0.00     0.041 C 
ATOM     16  O   UNL     1      19.210 -10.018  26.699  1.00  0.00    -0.550 OA
ATOM     17  O   UNL     1      17.413 -11.105  27.616  1.00  0.00    -0.550 OA
ENDBRANCH  14  15
ENDBRANCH  13  14
ENDBRANCH  12  13
ENDBRANCH  11  12
ENDBRANCH  10  11
ENDBRANCH   9  10
ENDBRANCH   8   9
ENDBRANCH   7   8
ENDBRANCH   6   7
ENDBRANCH   5   6
ENDBRANCH   4   5
ENDBRANCH   3   4
ENDBRANCH   2   3
ENDBRANCH   1   2
BRANCH   1  18
ATOM     18  C   UNL     1      11.591 -13.628  29.968  1.00  0.00     0.000 C 
BRANCH  18  19
ATOM     19  C   UNL     1      12.459 -13.783  28.709  1.00  0.00     0.000 C 
BRANCH  19  20
ATOM     20  C   UNL     1      13.927 -13.388  28.945  1.00  0.00     0.000 C 
BRANCH  20  21
ATOM     21  C   UNL     1      14.844 -13.767  27.768  1.00  0.00     0.000 C 
BRANCH  21  22
ATOM     22  C   UNL     1      14.476 -15.080  27.048  1.00  0.00     0.000 C 
BRANCH  22  23
ATOM     23  C   UNL     1      15.095 -15.251  25.649  1.00  0.00     0.000 C 
BRANCH  23  24
ATOM     24  C   UNL     1      16.633 -15.294  25.679  1.00  0.00    -0.000 C 
BRANCH  24  25
ATOM     25  C   UNL     1      17.241 -15.340  24.268  1.00  0.00    -0.000 C 
BRANCH  25  26
ATOM     26  C   UNL     1      18.596 -16.068  24.240  1.00  0.00    -0.000 C 
BRANCH  26  27
ATOM     27  C   UNL     1      19.787 -15.108  24.072  1.00  0.00    -0.000 C 
BRANCH  27  28
ATOM     28  C   UNL     1      19.467 -13.622  24.321  1.00  0.00    -0.000 C 
BRANCH  28  29
ATOM     29  C   UNL     1      20.721 -12.765  24.542  1.00  0.00    -0.000 C 
BRANCH  29  30
ATOM     30  C   UNL     1      21.621 -12.769  23.301  1.00  0.00    -0.000 C 
BRANCH  30  31
ATOM     31  C   UNL     1      20.906 -12.136  22.102  1.00  0.00    -0.003 C 
ATOM     32  C   UNL     1      20.636 -10.653  22.339  1.00  0.00     0.004 C 
ENDBRANCH  30  31
ENDBRANCH  29  30
ENDBRANCH  28  29
ENDBRANCH  27  28
ENDBRANCH  26  27
ENDBRANCH  25  26
ENDBRANCH  24  25
ENDBRANCH  23  24
ENDBRANCH  22  23
ENDBRANCH  21  22
ENDBRANCH  20  21
ENDBRANCH  19  20
ENDBRANCH  18  19
ENDBRANCH   1  18
TORSDOF 28
ENDMDL
MODEL 2
REMARK VINA RESULT:    -5.653      2.116      3.469
REMARK INTER + INTRA:         -19.424
REMARK INTER:                 -16.221
REMARK INTRA:                  -3.203
REMARK UNBOUND:                -4.518
REMARK SMILES CCCCCCCCCCCCCCCCCCCCCCCCCCCCCC(=O)[O-]
REMARK SMILES IDX 16 1 17 2 18 3 19 4 20 5 21 6 22 7 23 8 24 9 25 10 26 11
REMARK SMILES IDX 27 12 28 13 29 14 30 15 31 16 32 17 15 18 14 19 13 20 12 21
REMARK SMILES IDX 11 22 10 23 9 24 8 25 7 26 6 27 5 28 4 29 3 30 2 31 1 32
REMARK H PARENT
REMARK Flexibility Score: inf
ROOT
ATOM      1  C   UNL     1       9.411 -12.636  29.644  1.00  0.00     0.000 C 
ENDROOT
BRANCH   1   2
ATOM      2  C   UNL     1       8.410 -12.245  28.537  1.00  0.00     0.000 C 
BRANCH   2   3
ATOM      3  C   UNL     1       8.108 -13.374  27.531  1.00  0.00     0.000 C 
BRANCH   3   4
ATOM      4  C   UNL     1       8.546 -13.100  26.081  1.00  0.00     0.000 C 
BRANCH   4   5
ATOM      5  C   UNL     1       8.723 -11.611  25.719  1.00  0.00     0.000 C 
BRANCH   5   6
ATOM      6  C   UNL     1      10.037 -11.271  24.989  1.00  0.00     0.000 C 
BRANCH   6   7
ATOM      7  C   UNL     1      11.099 -12.388  25.002  1.00  0.00     0.000 C 
BRANCH   7   8
ATOM      8  C   UNL     1      12.551 -11.906  24.837  1.00  0.00     0.000 C 
BRANCH   8   9
ATOM      9  C   UNL     1      13.564 -13.059  24.842  1.00  0.00     0.000 C 
BRANCH   9  10
ATOM     10  C   UNL     1      14.582 -12.906  23.707  1.00  0.00     0.000 C 
BRANCH  10  11
ATOM     11  C   UNL     1      15.401 -14.192  23.527  1.00  0.00     0.000 C 
BRANCH  11  12
ATOM     12  C   UNL     1      15.424 -15.074  24.789  1.00  0.00     0.000 C 
BRANCH  12  13
ATOM     13  C   UNL     1      16.820 -15.308  25.394  1.00  0.00     0.006 C 
BRANCH  13  14
ATOM     14  C   UNL     1      17.657 -14.026  25.489  1.00  0.00     0.053 C 
BRANCH  14  15
ATOM     15  C   UNL     1      18.800 -14.064  24.522  1.00  0.00     0.041 C 
ATOM     16  O   UNL     1      19.443 -15.132  24.343  1.00  0.00    -0.550 OA
ATOM     17  O   UNL     1      19.151 -12.922  23.813  1.00  0.00    -0.550 OA
ENDBRANCH  14  15
ENDBRANCH  13  14
ENDBRANCH  12  13
ENDBRANCH  11  12
ENDBRANCH  10  11
ENDBRANCH   9  10
ENDBRANCH   8   9
ENDBRANCH   7   8
ENDBRANCH   6   7
ENDBRANCH   5   6
ENDBRANCH   4   5
ENDBRANCH   3   4
ENDBRANCH   2   3
ENDBRANCH   1   2
BRANCH   1  18
ATOM     18  C   UNL     1      10.640 -13.392  29.104  1.00  0.00     0.000 C 
BRANCH  18  19
ATOM     19  C   UNL     1      11.621 -13.797  30.216  1.00  0.00     0.000 C 
BRANCH  19  20
ATOM     20  C   UNL     1      13.078 -13.429  29.888  1.00  0.00     0.000 C 
BRANCH  20  21
ATOM     21  C   UNL     1      13.442 -13.689  28.414  1.00  0.00     0.000 C 
BRANCH  21  22
ATOM     22  C   UNL     1      14.934 -13.505  28.066  1.00  0.00     0.000 C 
BRANCH  22  23
ATOM     23  C   UNL     1      15.737 -12.663  29.075  1.00  0.00     0.000 C 
BRANCH  23  24
ATOM     24  C   UNL     1      16.278 -11.359  28.465  1.00  0.00    -0.000 C 
BRANCH  24  25
ATOM     25  C   UNL     1      17.665 -10.990  29.017  1.00  0.00    -0.000 C 
BRANCH  25  26
ATOM     26  C   UNL     1      18.772 -11.135  27.958  1.00  0.00    -0.000 C 
BRANCH  26  27
ATOM     27  C   UNL     1      20.131 -10.594  28.436  1.00  0.00    -0.000 C 
BRANCH  27  28
ATOM     28  C   UNL     1      21.316 -10.887  27.497  1.00  0.00    -0.000 C 
BRANCH  28  29
ATOM     29  C   UNL     1      22.361 -11.823  28.120  1.00  0.00    -0.000 C 
BRANCH  29  30
ATOM     30  C   UNL     1      22.892 -12.825  27.089  1.00  0.00    -0.000 C 
BRANCH  30  31
ATOM     31  C   UNL     1      22.078 -12.763  25.792  1.00  0.00    -0.003 C 
ATOM     32  C   UNL     1      22.980 -12.544  24.581  1.00  0.00     0.004 C 
ENDBRANCH  30  31
ENDBRANCH  29  30
ENDBRANCH  28  29
ENDBRANCH  27  28
ENDBRANCH  26  27
ENDBRANCH  25  26
ENDBRANCH  24  25
ENDBRANCH  23  24
ENDBRANCH  22  23
ENDBRANCH  21  22
ENDBRANCH  20  21
ENDBRANCH  19  20
ENDBRANCH  18  19
ENDBRANCH   1  18
TORSDOF 28
ENDMDL
MODEL 3
REMARK VINA RESULT:    -5.637      2.053      7.879
REMARK INTER + INTRA:         -19.383
REMARK INTER:                 -15.363
REMARK INTRA:                  -4.020
REMARK UNBOUND:                -4.518
REMARK SMILES CCCCCCCCCCCCCCCCCCCCCCCCCCCCCC(=O)[O-]
REMARK SMILES IDX 16 1 17 2 18 3 19 4 20 5 21 6 22 7 23 8 24 9 25 10 26 11
REMARK SMILES IDX 27 12 28 13 29 14 30 15 31 16 32 17 15 18 14 19 13 20 12 21
REMARK SMILES IDX 11 22 10 23 9 24 8 25 7 26 6 27 5 28 4 29 3 30 2 31 1 32
REMARK H PARENT
REMARK Flexibility Score: inf
ROOT
ATOM      1  C   UNL     1      16.873 -15.440  25.469  1.00  0.00     0.000 C 
ENDROOT
BRANCH   1   2
ATOM      2  C   UNL     1      15.548 -15.327  24.685  1.00  0.00     0.000 C 
BRANCH   2   3
ATOM      3  C   UNL     1      14.308 -15.104  25.573  1.00  0.00     0.000 C 
BRANCH   3   4
ATOM      4  C   UNL     1      14.597 -14.895  27.071  1.00  0.00     0.000 C 
BRANCH   4   5
ATOM      5  C   UNL     1      14.527 -13.431  27.553  1.00  0.00     0.000 C 
BRANCH   5   6
ATOM      6  C   UNL     1      15.888 -12.794  27.896  1.00  0.00     0.000 C 
BRANCH   6   7
ATOM      7  C   UNL     1      16.069 -12.397  29.374  1.00  0.00     0.000 C 
BRANCH   7   8
ATOM      8  C   UNL     1      17.436 -11.778  29.718  1.00  0.00     0.000 C 
BRANCH   8   9
ATOM      9  C   UNL     1      17.361 -10.261  29.944  1.00  0.00     0.000 C 
BRANCH   9  10
ATOM     10  C   UNL     1      18.311  -9.516  29.000  1.00  0.00     0.000 C 
BRANCH  10  11
ATOM     11  C   UNL     1      18.684 -10.391  27.795  1.00  0.00     0.000 C 
BRANCH  11  12
ATOM     12  C   UNL     1      20.165 -10.811  27.789  1.00  0.00     0.000 C 
BRANCH  12  13
ATOM     13  C   UNL     1      20.694 -11.313  26.433  1.00  0.00     0.006 C 
BRANCH  13  14
ATOM     14  C   UNL     1      22.023 -12.069  26.549  1.00  0.00     0.053 C 
BRANCH  14  15
ATOM     15  C   UNL     1      22.918 -11.421  27.560  1.00  0.00     0.041 C 
ATOM     16  O   UNL     1      23.650 -10.450  27.228  1.00  0.00    -0.550 OA
ATOM     17  O   UNL     1      22.939 -11.882  28.870  1.00  0.00    -0.550 OA
ENDBRANCH  14  15
ENDBRANCH  13  14
ENDBRANCH  12  13
ENDBRANCH  11  12
ENDBRANCH  10  11
ENDBRANCH   9  10
ENDBRANCH   8   9
ENDBRANCH   7   8
ENDBRANCH   6   7
ENDBRANCH   5   6
ENDBRANCH   4   5
ENDBRANCH   3   4
ENDBRANCH   2   3
ENDBRANCH   1   2
BRANCH   1  18
ATOM     18  C   UNL     1      18.113 -15.182  24.592  1.00  0.00     0.000 C 
BRANCH  18  19
ATOM     19  C   UNL     1      18.026 -13.855  23.822  1.00  0.00     0.000 C 
BRANCH  19  20
ATOM     20  C   UNL     1      17.955 -12.630  24.752  1.00  0.00     0.000 C 
BRANCH  20  21
ATOM     21  C   UNL     1      17.036 -11.521  24.209  1.00  0.00     0.000 C 
BRANCH  21  22
ATOM     22  C   UNL     1      15.528 -11.745  24.449  1.00  0.00     0.000 C 
BRANCH  22  23
ATOM     23  C   UNL     1      14.670 -11.817  23.173  1.00  0.00     0.000 C 
BRANCH  23  24
ATOM     24  C   UNL     1      13.226 -12.268  23.450  1.00  0.00    -0.000 C 
BRANCH  24  25
ATOM     25  C   UNL     1      12.750 -11.862  24.855  1.00  0.00    -0.000 C 
BRANCH  25  26
ATOM     26  C   UNL     1      11.384 -12.476  25.208  1.00  0.00    -0.000 C 
BRANCH  26  27
ATOM     27  C   UNL     1      10.203 -11.561  24.835  1.00  0.00    -0.000 C 
BRANCH  27  28
ATOM     28  C   UNL     1       8.994 -11.638  25.785  1.00  0.00    -0.000 C 
BRANCH  28  29
ATOM     29  C   UNL     1       8.447 -13.064  25.949  1.00  0.00    -0.000 C 
BRANCH  29  30
ATOM     30  C   UNL     1       8.246 -13.414  27.428  1.00  0.00    -0.000 C 
BRANCH  30  31
ATOM     31  C   UNL     1       8.971 -12.411  28.333  1.00  0.00    -0.003 C 
ATOM     32  C   UNL     1      10.151 -13.063  29.047  1.00  0.00     0.004 C 
ENDBRANCH  30  31
ENDBRANCH  29  30
ENDBRANCH  28  29
ENDBRANCH  27  28
ENDBRANCH  26  27
ENDBRANCH  25  26
ENDBRANCH  24  25
ENDBRANCH  23  24
ENDBRANCH  22  23
ENDBRANCH  21  22
ENDBRANCH  20  21
ENDBRANCH  19  20
ENDBRANCH  18  19
ENDBRANCH   1  18
TORSDOF 28
ENDMDL
MODEL 4
REMARK VINA RESULT:    -5.582      2.669      7.246
REMARK INTER + INTRA:         -19.237
REMARK INTER:                 -13.772
REMARK INTRA:                  -5.465
REMARK UNBOUND:                -4.518
REMARK SMILES CCCCCCCCCCCCCCCCCCCCCCCCCCCCCC(=O)[O-]
REMARK SMILES IDX 16 1 17 2 18 3 19 4 20 5 21 6 22 7 23 8 24 9 25 10 26 11
REMARK SMILES IDX 27 12 28 13 29 14 30 15 31 16 32 17 15 18 14 19 13 20 12 21
REMARK SMILES IDX 11 22 10 23 9 24 8 25 7 26 6 27 5 28 4 29 3 30 2 31 1 32
REMARK H PARENT
REMARK Flexibility Score: inf
ROOT
ATOM      1  C   UNL     1      18.026 -16.384  25.046  1.00  0.00     0.000 C 
ENDROOT
BRANCH   1   2
ATOM      2  C   UNL     1      19.227 -16.327  24.077  1.00  0.00     0.000 C 
BRANCH   2   3
ATOM      3  C   UNL     1      19.249 -17.460  23.032  1.00  0.00     0.000 C 
BRANCH   3   4
ATOM      4  C   UNL     1      19.303 -17.002  21.563  1.00  0.00     0.000 C 
BRANCH   4   5
ATOM      5  C   UNL     1      18.642 -17.962  20.553  1.00  0.00     0.000 C 
BRANCH   5   6
ATOM      6  C   UNL     1      17.168 -17.648  20.227  1.00  0.00     0.000 C 
BRANCH   6   7
ATOM      7  C   UNL     1      16.932 -16.959  18.869  1.00  0.00     0.000 C 
BRANCH   7   8
ATOM      8  C   UNL     1      16.949 -15.421  18.910  1.00  0.00     0.000 C 
BRANCH   8   9
ATOM      9  C   UNL     1      15.811 -14.836  19.760  1.00  0.00     0.000 C 
BRANCH   9  10
ATOM     10  C   UNL     1      16.360 -14.096  20.984  1.00  0.00     0.000 C 
BRANCH  10  11
ATOM     11  C   UNL     1      17.827 -13.697  20.770  1.00  0.00     0.000 C 
BRANCH  11  12
ATOM     12  C   UNL     1      18.584 -13.447  22.087  1.00  0.00     0.000 C 
BRANCH  12  13
ATOM     13  C   UNL     1      20.116 -13.382  21.956  1.00  0.00     0.006 C 
BRANCH  13  14
ATOM     14  C   UNL     1      20.708 -12.063  22.469  1.00  0.00     0.053 C 
BRANCH  14  15
ATOM     15  C   UNL     1      21.472 -12.280  23.739  1.00  0.00     0.041 C 
ATOM     16  O   UNL     1      20.908 -12.118  24.854  1.00  0.00    -0.550 OA
ATOM     17  O   UNL     1      22.804 -12.670  23.692  1.00  0.00    -0.550 OA
ENDBRANCH  14  15
ENDBRANCH  13  14
ENDBRANCH  12  13
ENDBRANCH  11  12
ENDBRANCH  10  11
ENDBRANCH   9  10
ENDBRANCH   8   9
ENDBRANCH   7   8
ENDBRANCH   6   7
ENDBRANCH   5   6
ENDBRANCH   4   5
ENDBRANCH   3   4
ENDBRANCH   2   3
ENDBRANCH   1   2
BRANCH   1  18
ATOM     18  C   UNL     1      17.172 -15.102  25.021  1.00  0.00     0.000 C 
BRANCH  18  19
ATOM     19  C   UNL     1      15.786 -15.328  24.396  1.00  0.00     0.000 C 
BRANCH  19  20
ATOM     20  C   UNL     1      14.667 -15.428  25.448  1.00  0.00     0.000 C 
BRANCH  20  21
ATOM     21  C   UNL     1      15.135 -15.020  26.857  1.00  0.00     0.000 C 
BRANCH  21  22
ATOM     22  C   UNL     1      14.262 -13.955  27.553  1.00  0.00     0.000 C 
BRANCH  22  23
ATOM     23  C   UNL     1      14.991 -13.108  28.612  1.00  0.00     0.000 C 
BRANCH  23  24
ATOM     24  C   UNL     1      16.482 -12.907  28.291  1.00  0.00    -0.000 C 
BRANCH  24  25
ATOM     25  C   UNL     1      16.737 -11.615  27.496  1.00  0.00    -0.000 C 
BRANCH  25  26
ATOM     26  C   UNL     1      17.595 -11.861  26.243  1.00  0.00    -0.000 C 
BRANCH  26  27
ATOM     27  C   UNL     1      17.160 -11.002  25.042  1.00  0.00    -0.000 C 
BRANCH  27  28
ATOM     28  C   UNL     1      16.112 -11.654  24.121  1.00  0.00    -0.000 C 
BRANCH  28  29
ATOM     29  C   UNL     1      14.715 -11.724  24.754  1.00  0.00    -0.000 C 
BRANCH  29  30
ATOM     30  C   UNL     1      13.683 -12.266  23.758  1.00  0.00    -0.000 C 
BRANCH  30  31
ATOM     31  C   UNL     1      12.379 -12.644  24.469  1.00  0.00    -0.003 C 
ATOM     32  C   UNL     1      11.494 -13.511  23.578  1.00  0.00     0.004 C 
ENDBRANCH  30  31
ENDBRANCH  29  30
ENDBRANCH  28  29
ENDBRANCH  27  28
ENDBRANCH  26  27
ENDBRANCH  25  26
ENDBRANCH  24  25
ENDBRANCH  23  24
ENDBRANCH  22  23
ENDBRANCH  21  22
ENDBRANCH  20  21
ENDBRANCH  19  20
ENDBRANCH  18  19
ENDBRANCH   1  18
TORSDOF 28
ENDMDL
MODEL 5
REMARK VINA RESULT:    -5.537      1.482      7.807
REMARK INTER + INTRA:         -19.118
REMARK INTER:                 -14.636
REMARK INTRA:                  -4.482
REMARK UNBOUND:                -4.518
REMARK SMILES CCCCCCCCCCCCCCCCCCCCCCCCCCCCCC(=O)[O-]
REMARK SMILES IDX 16 1 17 2 18 3 19 4 20 5 21 6 22 7 23 8 24 9 25 10 26 11
REMARK SMILES IDX 27 12 28 13 29 14 30 15 31 16 32 17 15 18 14 19 13 20 12 21
REMARK SMILES IDX 11 22 10 23 9 24 8 25 7 26 6 27 5 28 4 29 3 30 2 31 1 32
REMARK H PARENT
REMARK Flexibility Score: inf
ROOT
ATOM      1  C   UNL     1      18.971 -14.474  23.302  1.00  0.00     0.000 C 
ENDROOT
BRANCH   1   2
ATOM      2  C   UNL     1      18.737 -15.964  23.630  1.00  0.00     0.000 C 
BRANCH   2   3
ATOM      3  C   UNL     1      18.005 -16.209  24.964  1.00  0.00     0.000 C 
BRANCH   3   4
ATOM      4  C   UNL     1      16.935 -15.164  25.332  1.00  0.00     0.000 C 
BRANCH   4   5
ATOM      5  C   UNL     1      15.630 -15.246  24.514  1.00  0.00     0.000 C 
BRANCH   5   6
ATOM      6  C   UNL     1      14.349 -15.431  25.351  1.00  0.00     0.000 C 
BRANCH   6   7
ATOM      7  C   UNL     1      14.500 -15.123  26.853  1.00  0.00     0.000 C 
BRANCH   7   8
ATOM      8  C   UNL     1      14.012 -13.727  27.282  1.00  0.00     0.000 C 
BRANCH   8   9
ATOM      9  C   UNL     1      14.605 -13.277  28.625  1.00  0.00     0.000 C 
BRANCH   9  10
ATOM     10  C   UNL     1      16.137 -13.310  28.590  1.00  0.00     0.000 C 
BRANCH  10  11
ATOM     11  C   UNL     1      16.729 -12.267  29.549  1.00  0.00     0.000 C 
BRANCH  11  12
ATOM     12  C   UNL     1      16.296 -10.827  29.218  1.00  0.00     0.000 C 
BRANCH  12  13
ATOM     13  C   UNL     1      16.818 -10.283  27.876  1.00  0.00     0.006 C 
BRANCH  13  14
ATOM     14  C   UNL     1      17.915  -9.223  28.043  1.00  0.00     0.053 C 
BRANCH  14  15
ATOM     15  C   UNL     1      19.273  -9.852  28.007  1.00  0.00     0.041 C 
ATOM     16  O   UNL     1      20.067  -9.593  27.064  1.00  0.00    -0.550 OA
ATOM     17  O   UNL     1      19.666 -10.719  29.019  1.00  0.00    -0.550 OA
ENDBRANCH  14  15
ENDBRANCH  13  14
ENDBRANCH  12  13
ENDBRANCH  11  12
ENDBRANCH  10  11
ENDBRANCH   9  10
ENDBRANCH   8   9
ENDBRANCH   7   8
ENDBRANCH   6   7
ENDBRANCH   5   6
ENDBRANCH   4   5
ENDBRANCH   3   4
ENDBRANCH   2   3
ENDBRANCH   1   2
BRANCH   1  18
ATOM     18  C   UNL     1      19.971 -13.798  24.260  1.00  0.00     0.000 C 
BRANCH  18  19
ATOM     19  C   UNL     1      19.337 -12.648  25.059  1.00  0.00     0.000 C 
BRANCH  19  20
ATOM     20  C   UNL     1      19.181 -11.361  24.229  1.00  0.00     0.000 C 
BRANCH  20  21
ATOM     21  C   UNL     1      17.814 -10.682  24.432  1.00  0.00     0.000 C 
BRANCH  21  22
ATOM     22  C   UNL     1      16.597 -11.628  24.365  1.00  0.00     0.000 C 
BRANCH  22  23
ATOM     23  C   UNL     1      16.102 -11.950  22.942  1.00  0.00     0.000 C 
BRANCH  23  24
ATOM     24  C   UNL     1      14.572 -11.858  22.809  1.00  0.00    -0.000 C 
BRANCH  24  25
ATOM     25  C   UNL     1      13.867 -11.891  24.175  1.00  0.00    -0.000 C 
BRANCH  25  26
ATOM     26  C   UNL     1      12.453 -12.492  24.086  1.00  0.00    -0.000 C 
BRANCH  26  27
ATOM     27  C   UNL     1      11.491 -11.917  25.142  1.00  0.00    -0.000 C 
BRANCH  27  28
ATOM     28  C   UNL     1      10.016 -11.842  24.706  1.00  0.00    -0.000 C 
BRANCH  28  29
ATOM     29  C   UNL     1       9.040 -12.262  25.814  1.00  0.00    -0.000 C 
BRANCH  29  30
ATOM     30  C   UNL     1       9.785 -12.596  27.111  1.00  0.00    -0.000 C 
BRANCH  30  31
ATOM     31  C   UNL     1       8.946 -12.224  28.339  1.00  0.00    -0.003 C 
ATOM     32  C   UNL     1       7.983 -13.348  28.712  1.00  0.00     0.004 C 
ENDBRANCH  30  31
ENDBRANCH  29  30
ENDBRANCH  28  29
ENDBRANCH  27  28
ENDBRANCH  26  27
ENDBRANCH  25  26
ENDBRANCH  24  25
ENDBRANCH  23  24
ENDBRANCH  22  23
ENDBRANCH  21  22
ENDBRANCH  20  21
ENDBRANCH  19  20
ENDBRANCH  18  19
ENDBRANCH   1  18
TORSDOF 28
ENDMDL
MODEL 6
REMARK VINA RESULT:    -5.523      1.551      3.882
REMARK INTER + INTRA:         -19.081
REMARK INTER:                 -14.394
REMARK INTRA:                  -4.687
REMARK UNBOUND:                -4.518
REMARK SMILES CCCCCCCCCCCCCCCCCCCCCCCCCCCCCC(=O)[O-]
REMARK SMILES IDX 16 1 17 2 18 3 19 4 20 5 21 6 22 7 23 8 24 9 25 10 26 11
REMARK SMILES IDX 27 12 28 13 29 14 30 15 31 16 32 17 15 18 14 19 13 20 12 21
REMARK SMILES IDX 11 22 10 23 9 24 8 25 7 26 6 27 5 28 4 29 3 30 2 31 1 32
REMARK H PARENT
REMARK Flexibility Score: inf
ROOT
ATOM      1  C   UNL     1      10.107 -11.458  24.714  1.00  0.00     0.000 C 
ENDROOT
BRANCH   1   2
ATOM      2  C   UNL     1       8.852 -11.548  25.608  1.00  0.00     0.000 C 
BRANCH   2   3
ATOM      3  C   UNL     1       8.368 -12.987  25.872  1.00  0.00     0.000 C 
BRANCH   3   4
ATOM      4  C   UNL     1       8.185 -13.361  27.354  1.00  0.00     0.000 C 
BRANCH   4   5
ATOM      5  C   UNL     1       8.796 -12.366  28.361  1.00  0.00     0.000 C 
BRANCH   5   6
ATOM      6  C   UNL     1       9.790 -12.984  29.365  1.00  0.00     0.000 C 
BRANCH   6   7
ATOM      7  C   UNL     1      11.166 -13.353  28.777  1.00  0.00     0.000 C 
BRANCH   7   8
ATOM      8  C   UNL     1      12.212 -13.808  29.810  1.00  0.00     0.000 C 
BRANCH   8   9
ATOM      9  C   UNL     1      13.635 -13.353  29.454  1.00  0.00     0.000 C 
BRANCH   9  10
ATOM     10  C   UNL     1      13.935 -13.589  27.970  1.00  0.00     0.000 C 
BRANCH  10  11
ATOM     11  C   UNL     1      15.373 -14.091  27.775  1.00  0.00     0.000 C 
BRANCH  11  12
ATOM     12  C   UNL     1      16.435 -13.026  28.107  1.00  0.00     0.000 C 
BRANCH  12  13
ATOM     13  C   UNL     1      16.187 -11.642  27.481  1.00  0.00     0.006 C 
BRANCH  13  14
ATOM     14  C   UNL     1      16.111 -10.517  28.520  1.00  0.00     0.053 C 
BRANCH  14  15
ATOM     15  C   UNL     1      17.313 -10.534  29.413  1.00  0.00     0.041 C 
ATOM     16  O   UNL     1      17.179 -10.712  30.653  1.00  0.00    -0.550 OA
ATOM     17  O   UNL     1      18.582 -10.363  28.875  1.00  0.00    -0.550 OA
ENDBRANCH  14  15
ENDBRANCH  13  14
ENDBRANCH  12  13
ENDBRANCH  11  12
ENDBRANCH  10  11
ENDBRANCH   9  10
ENDBRANCH   8   9
ENDBRANCH   7   8
ENDBRANCH   6   7
ENDBRANCH   5   6
ENDBRANCH   4   5
ENDBRANCH   3   4
ENDBRANCH   2   3
ENDBRANCH   1   2
BRANCH   1  18
ATOM     18  C   UNL     1      10.698 -12.838  24.368  1.00  0.00     0.000 C 
BRANCH  18  19
ATOM     19  C   UNL     1      12.051 -13.090  25.053  1.00  0.00     0.000 C 
BRANCH  19  20
ATOM     20  C   UNL     1      13.007 -11.889  24.943  1.00  0.00     0.000 C 
BRANCH  20  21
ATOM     21  C   UNL     1      14.394 -12.278  24.401  1.00  0.00     0.000 C 
BRANCH  21  22
ATOM     22  C   UNL     1      14.384 -13.332  23.275  1.00  0.00     0.000 C 
BRANCH  22  23
ATOM     23  C   UNL     1      15.775 -13.818  22.826  1.00  0.00     0.000 C 
BRANCH  23  24
ATOM     24  C   UNL     1      16.206 -15.119  23.524  1.00  0.00    -0.000 C 
BRANCH  24  25
ATOM     25  C   UNL     1      16.962 -14.852  24.837  1.00  0.00    -0.000 C 
BRANCH  25  26
ATOM     26  C   UNL     1      18.398 -14.358  24.592  1.00  0.00    -0.000 C 
BRANCH  26  27
ATOM     27  C   UNL     1      18.609 -12.896  25.028  1.00  0.00    -0.000 C 
BRANCH  27  28
ATOM     28  C   UNL     1      18.706 -11.880  23.874  1.00  0.00    -0.000 C 
BRANCH  28  29
ATOM     29  C   UNL     1      17.590 -10.826  23.906  1.00  0.00    -0.000 C 
BRANCH  29  30
ATOM     30  C   UNL     1      18.161  -9.423  24.141  1.00  0.00    -0.000 C 
BRANCH  30  31
ATOM     31  C   UNL     1      17.935  -8.973  25.589  1.00  0.00    -0.003 C 
ATOM     32  C   UNL     1      19.130  -8.182  26.115  1.00  0.00     0.004 C 
ENDBRANCH  30  31
ENDBRANCH  29  30
ENDBRANCH  28  29
ENDBRANCH  27  28
ENDBRANCH  26  27
ENDBRANCH  25  26
ENDBRANCH  24  25
ENDBRANCH  23  24
ENDBRANCH  22  23
ENDBRANCH  21  22
ENDBRANCH  20  21
ENDBRANCH  19  20
ENDBRANCH  18  19
ENDBRANCH   1  18
TORSDOF 28
ENDMDL
MODEL 7
REMARK VINA RESULT:    -5.461      1.699      6.320
REMARK INTER + INTRA:         -18.919
REMARK INTER:                 -15.421
REMARK INTRA:                  -3.498
REMARK UNBOUND:                -4.518
REMARK SMILES CCCCCCCCCCCCCCCCCCCCCCCCCCCCCC(=O)[O-]
REMARK SMILES IDX 16 1 17 2 18 3 19 4 20 5 21 6 22 7 23 8 24 9 25 10 26 11
REMARK SMILES IDX 27 12 28 13 29 14 30 15 31 16 32 17 15 18 14 19 13 20 12 21
REMARK SMILES IDX 11 22 10 23 9 24 8 25 7 26 6 27 5 28 4 29 3 30 2 31 1 32
REMARK H PARENT
REMARK Flexibility Score: inf
ROOT
ATOM      1  C   UNL     1      11.530 -11.903  24.997  1.00  0.00     0.000 C 
ENDROOT
BRANCH   1   2
ATOM      2  C   UNL     1      12.698 -12.854  24.662  1.00  0.00     0.000 C 
BRANCH   2   3
ATOM      3  C   UNL     1      14.053 -12.145  24.468  1.00  0.00     0.000 C 
BRANCH   3   4
ATOM      4  C   UNL     1      15.074 -12.900  23.596  1.00  0.00     0.000 C 
BRANCH   4   5
ATOM      5  C   UNL     1      16.004 -13.863  24.362  1.00  0.00     0.000 C 
BRANCH   5   6
ATOM      6  C   UNL     1      16.548 -15.041  23.530  1.00  0.00     0.000 C 
BRANCH   6   7
ATOM      7  C   UNL     1      17.820 -15.705  24.092  1.00  0.00     0.000 C 
BRANCH   7   8
ATOM      8  C   UNL     1      19.094 -15.479  23.259  1.00  0.00     0.000 C 
BRANCH   8   9
ATOM      9  C   UNL     1      19.679 -14.071  23.439  1.00  0.00     0.000 C 
BRANCH   9  10
ATOM     10  C   UNL     1      20.620 -14.015  24.648  1.00  0.00     0.000 C 
BRANCH  10  11
ATOM     11  C   UNL     1      21.281 -12.634  24.764  1.00  0.00     0.000 C 
BRANCH  11  12
ATOM     12  C   UNL     1      22.638 -12.674  25.491  1.00  0.00     0.000 C 
BRANCH  12  13
ATOM     13  C   UNL     1      22.558 -12.578  27.025  1.00  0.00     0.006 C 
BRANCH  13  14
ATOM     14  C   UNL     1      22.733 -11.146  27.548  1.00  0.00     0.053 C 
BRANCH  14  15
ATOM     15  C   UNL     1      21.444 -10.618  28.096  1.00  0.00     0.041 C 
ATOM     16  O   UNL     1      21.023 -11.012  29.216  1.00  0.00    -0.550 OA
ATOM     17  O   UNL     1      20.710  -9.684  27.375  1.00  0.00    -0.550 OA
ENDBRANCH  14  15
ENDBRANCH  13  14
ENDBRANCH  12  13
ENDBRANCH  11  12
ENDBRANCH  10  11
ENDBRANCH   9  10
ENDBRANCH   8   9
ENDBRANCH   7   8
ENDBRANCH   6   7
ENDBRANCH   5   6
ENDBRANCH   4   5
ENDBRANCH   3   4
ENDBRANCH   2   3
ENDBRANCH   1   2
BRANCH   1  18
ATOM     18  C   UNL     1      10.162 -12.446  24.540  1.00  0.00     0.000 C 
BRANCH  18  19
ATOM     19  C   UNL     1       8.991 -11.829  25.321  1.00  0.00     0.000 C 
BRANCH  19  20
ATOM     20  C   UNL     1       8.496 -12.732  26.464  1.00  0.00     0.000 C 
BRANCH  20  21
ATOM     21  C   UNL     1       8.972 -12.257  27.849  1.00  0.00     0.000 C 
BRANCH  21  22
ATOM     22  C   UNL     1       9.343 -13.384  28.835  1.00  0.00     0.000 C 
BRANCH  22  23
ATOM     23  C   UNL     1      10.410 -13.008  29.879  1.00  0.00     0.000 C 
BRANCH  23  24
ATOM     24  C   UNL     1      11.510 -14.074  30.017  1.00  0.00    -0.000 C 
BRANCH  24  25
ATOM     25  C   UNL     1      12.909 -13.508  29.716  1.00  0.00    -0.000 C 
BRANCH  25  26
ATOM     26  C   UNL     1      13.334 -13.747  28.257  1.00  0.00    -0.000 C 
BRANCH  26  27
ATOM     27  C   UNL     1      14.663 -13.058  27.901  1.00  0.00    -0.000 C 
BRANCH  27  28
ATOM     28  C   UNL     1      15.530 -12.652  29.108  1.00  0.00    -0.000 C 
BRANCH  28  29
ATOM     29  C   UNL     1      16.952 -12.230  28.713  1.00  0.00    -0.000 C 
BRANCH  29  30
ATOM     30  C   UNL     1      16.942 -11.373  27.442  1.00  0.00    -0.000 C 
BRANCH  30  31
ATOM     31  C   UNL     1      18.082 -11.774  26.499  1.00  0.00    -0.003 C 
ATOM     32  C   UNL     1      18.076 -10.927  25.230  1.00  0.00     0.004 C 
ENDBRANCH  30  31
ENDBRANCH  29  30
ENDBRANCH  28  29
ENDBRANCH  27  28
ENDBRANCH  26  27
ENDBRANCH  25  26
ENDBRANCH  24  25
ENDBRANCH  23  24
ENDBRANCH  22  23
ENDBRANCH  21  22
ENDBRANCH  20  21
ENDBRANCH  19  20
ENDBRANCH  18  19
ENDBRANCH   1  18
TORSDOF 28
ENDMDL
MODEL 8
REMARK VINA RESULT:    -5.423      2.401      6.808
REMARK INTER + INTRA:         -18.819
REMARK INTER:                 -13.558
REMARK INTRA:                  -5.262
REMARK UNBOUND:                -4.518
REMARK SMILES CCCCCCCCCCCCCCCCCCCCCCCCCCCCCC(=O)[O-]
REMARK SMILES IDX 16 1 17 2 18 3 19 4 20 5 21 6 22 7 23 8 24 9 25 10 26 11
REMARK SMILES IDX 27 12 28 13 29 14 30 15 31 16 32 17 15 18 14 19 13 20 12 21
REMARK SMILES IDX 11 22 10 23 9 24 8 25 7 26 6 27 5 28 4 29 3 30 2 31 1 32
REMARK H PARENT
REMARK Flexibility Score: inf
ROOT
ATOM      1  C   UNL     1      17.198 -14.937  24.147  1.00  0.00     0.000 C 
ENDROOT
BRANCH   1   2
ATOM      2  C   UNL     1      15.843 -14.755  24.862  1.00  0.00     0.000 C 
BRANCH   2   3
ATOM      3  C   UNL     1      15.822 -15.271  26.315  1.00  0.00     0.000 C 
BRANCH   3   4
ATOM      4  C   UNL     1      14.635 -14.790  27.170  1.00  0.00     0.000 C 
BRANCH   4   5
ATOM      5  C   UNL     1      14.629 -13.282  27.494  1.00  0.00     0.000 C 
BRANCH   5   6
ATOM      6  C   UNL     1      15.331 -12.898  28.812  1.00  0.00     0.000 C 
BRANCH   6   7
ATOM      7  C   UNL     1      16.853 -12.685  28.702  1.00  0.00     0.000 C 
BRANCH   7   8
ATOM      8  C   UNL     1      17.284 -11.557  27.748  1.00  0.00     0.000 C 
BRANCH   8   9
ATOM      9  C   UNL     1      17.822 -12.083  26.409  1.00  0.00     0.000 C 
BRANCH   9  10
ATOM     10  C   UNL     1      17.250 -11.284  25.233  1.00  0.00     0.000 C 
BRANCH  10  11
ATOM     11  C   UNL     1      18.163 -11.391  24.003  1.00  0.00     0.000 C 
BRANCH  11  12
ATOM     12  C   UNL     1      19.660 -11.352  24.358  1.00  0.00     0.000 C 
BRANCH  12  13
ATOM     13  C   UNL     1      20.478 -12.561  23.869  1.00  0.00     0.006 C 
BRANCH  13  14
ATOM     14  C   UNL     1      21.105 -13.365  25.014  1.00  0.00     0.053 C 
BRANCH  14  15
ATOM     15  C   UNL     1      22.353 -12.702  25.509  1.00  0.00     0.041 C 
ATOM     16  O   UNL     1      22.575 -12.612  26.746  1.00  0.00    -0.550 OA
ATOM     17  O   UNL     1      23.276 -12.190  24.606  1.00  0.00    -0.550 OA
ENDBRANCH  14  15
ENDBRANCH  13  14
ENDBRANCH  12  13
ENDBRANCH  11  12
ENDBRANCH  10  11
ENDBRANCH   9  10
ENDBRANCH   8   9
ENDBRANCH   7   8
ENDBRANCH   6   7
ENDBRANCH   5   6
ENDBRANCH   4   5
ENDBRANCH   3   4
ENDBRANCH   2   3
ENDBRANCH   1   2
BRANCH   1  18
ATOM     18  C   UNL     1      18.070 -16.037  24.782  1.00  0.00     0.000 C 
BRANCH  18  19
ATOM     19  C   UNL     1      19.343 -16.324  23.970  1.00  0.00     0.000 C 
BRANCH  19  20
ATOM     20  C   UNL     1      19.162 -17.476  22.966  1.00  0.00     0.000 C 
BRANCH  20  21
ATOM     21  C   UNL     1      19.405 -17.042  21.509  1.00  0.00     0.000 C 
BRANCH  21  22
ATOM     22  C   UNL     1      18.294 -17.438  20.515  1.00  0.00     0.000 C 
BRANCH  22  23
ATOM     23  C   UNL     1      16.881 -16.960  20.895  1.00  0.00     0.000 C 
BRANCH  23  24
ATOM     24  C   UNL     1      16.395 -15.788  20.025  1.00  0.00    -0.000 C 
BRANCH  24  25
ATOM     25  C   UNL     1      16.692 -14.423  20.669  1.00  0.00    -0.000 C 
BRANCH  25  26
ATOM     26  C   UNL     1      15.411 -13.694  21.108  1.00  0.00    -0.000 C 
BRANCH  26  27
ATOM     27  C   UNL     1      15.590 -12.167  21.191  1.00  0.00    -0.000 C 
BRANCH  27  28
ATOM     28  C   UNL     1      14.816 -11.482  22.332  1.00  0.00    -0.000 C 
BRANCH  28  29
ATOM     29  C   UNL     1      13.853 -12.431  23.061  1.00  0.00    -0.000 C 
BRANCH  29  30
ATOM     30  C   UNL     1      13.391 -11.833  24.395  1.00  0.00    -0.000 C 
BRANCH  30  31
ATOM     31  C   UNL     1      12.165 -12.577  24.935  1.00  0.00    -0.003 C 
ATOM     32  C   UNL     1      11.051 -12.637  23.894  1.00  0.00     0.004 C 
ENDBRANCH  30  31
ENDBRANCH  29  30
ENDBRANCH  28  29
ENDBRANCH  27  28
ENDBRANCH  26  27
ENDBRANCH  25  26
ENDBRANCH  24  25
ENDBRANCH  23  24
ENDBRANCH  22  23
ENDBRANCH  21  22
ENDBRANCH  20  21
ENDBRANCH  19  20
ENDBRANCH  18  19
ENDBRANCH   1  18
TORSDOF 28
ENDMDL
MODEL 9
REMARK VINA RESULT:    -5.404      2.747      6.697
REMARK INTER + INTRA:         -18.768
REMARK INTER:                 -12.993
REMARK INTRA:                  -5.775
REMARK UNBOUND:                -4.518
REMARK SMILES CCCCCCCCCCCCCCCCCCCCCCCCCCCCCC(=O)[O-]
REMARK SMILES IDX 16 1 17 2 18 3 19 4 20 5 21 6 22 7 23 8 24 9 25 10 26 11
REMARK SMILES IDX 27 12 28 13 29 14 30 15 31 16 32 17 15 18 14 19 13 20 12 21
REMARK SMILES IDX 11 22 10 23 9 24 8 25 7 26 6 27 5 28 4 29 3 30 2 31 1 32
REMARK H PARENT
REMARK Flexibility Score: inf
ROOT
ATOM      1  C   UNL     1      19.469 -16.923  21.935  1.00  0.00     0.000 C 
ENDROOT
BRANCH   1   2
ATOM      2  C   UNL     1      19.131 -17.182  23.419  1.00  0.00     0.000 C 
BRANCH   2   3
ATOM      3  C   UNL     1      18.985 -15.901  24.265  1.00  0.00     0.000 C 
BRANCH   3   4
ATOM      4  C   UNL     1      17.549 -15.559  24.702  1.00  0.00     0.000 C 
BRANCH   4   5
ATOM      5  C   UNL     1      16.826 -14.519  23.822  1.00  0.00     0.000 C 
BRANCH   5   6
ATOM      6  C   UNL     1      16.985 -13.056  24.281  1.00  0.00     0.000 C 
BRANCH   6   7
ATOM      7  C   UNL     1      16.040 -12.050  23.594  1.00  0.00     0.000 C 
BRANCH   7   8
ATOM      8  C   UNL     1      14.604 -12.557  23.371  1.00  0.00     0.000 C 
BRANCH   8   9
ATOM      9  C   UNL     1      13.694 -12.315  24.583  1.00  0.00     0.000 C 
BRANCH   9  10
ATOM     10  C   UNL     1      13.481 -13.607  25.380  1.00  0.00     0.000 C 
BRANCH  10  11
ATOM     11  C   UNL     1      13.966 -13.444  26.828  1.00  0.00     0.000 C 
BRANCH  11  12
ATOM     12  C   UNL     1      15.092 -14.424  27.201  1.00  0.00     0.000 C 
BRANCH  12  13
ATOM     13  C   UNL     1      16.210 -13.829  28.077  1.00  0.00     0.006 C 
BRANCH  13  14
ATOM     14  C   UNL     1      16.488 -12.351  27.774  1.00  0.00     0.053 C 
BRANCH  14  15
ATOM     15  C   UNL     1      16.760 -11.591  29.035  1.00  0.00     0.041 C 
ATOM     16  O   UNL     1      17.411 -12.127  29.971  1.00  0.00    -0.550 OA
ATOM     17  O   UNL     1      16.302 -10.287  29.175  1.00  0.00    -0.550 OA
ENDBRANCH  14  15
ENDBRANCH  13  14
ENDBRANCH  12  13
ENDBRANCH  11  12
ENDBRANCH  10  11
ENDBRANCH   9  10
ENDBRANCH   8   9
ENDBRANCH   7   8
ENDBRANCH   6   7
ENDBRANCH   5   6
ENDBRANCH   4   5
ENDBRANCH   3   4
ENDBRANCH   2   3
ENDBRANCH   1   2
BRANCH   1  18
ATOM     18  C   UNL     1      18.726 -17.873  20.976  1.00  0.00     0.000 C 
BRANCH  18  19
ATOM     19  C   UNL     1      17.757 -17.130  20.042  1.00  0.00     0.000 C 
BRANCH  19  20
ATOM     20  C   UNL     1      16.544 -16.545  20.787  1.00  0.00     0.000 C 
BRANCH  20  21
ATOM     21  C   UNL     1      16.175 -15.129  20.307  1.00  0.00     0.000 C 
BRANCH  21  22
ATOM     22  C   UNL     1      17.357 -14.286  19.785  1.00  0.00     0.000 C 
BRANCH  22  23
ATOM     23  C   UNL     1      17.321 -12.800  20.183  1.00  0.00     0.000 C 
BRANCH  23  24
ATOM     24  C   UNL     1      18.617 -12.336  20.870  1.00  0.00    -0.000 C 
BRANCH  24  25
ATOM     25  C   UNL     1      19.610 -13.491  21.079  1.00  0.00    -0.000 C 
BRANCH  25  26
ATOM     26  C   UNL     1      20.464 -13.305  22.345  1.00  0.00    -0.000 C 
BRANCH  26  27
ATOM     27  C   UNL     1      20.205 -11.960  23.049  1.00  0.00    -0.000 C 
BRANCH  27  28
ATOM     28  C   UNL     1      20.489 -11.952  24.562  1.00  0.00    -0.000 C 
BRANCH  28  29
ATOM     29  C   UNL     1      21.325 -13.154  25.024  1.00  0.00    -0.000 C 
BRANCH  29  30
ATOM     30  C   UNL     1      22.653 -12.699  25.642  1.00  0.00    -0.000 C 
BRANCH  30  31
ATOM     31  C   UNL     1      22.460 -12.256  27.096  1.00  0.00    -0.003 C 
ATOM     32  C   UNL     1      23.202 -10.953  27.381  1.00  0.00     0.004 C 
ENDBRANCH  30  31
ENDBRANCH  29  30
ENDBRANCH  28  29
ENDBRANCH  27  28
ENDBRANCH  26  27
ENDBRANCH  25  26
ENDBRANCH  24  25
ENDBRANCH  23  24
ENDBRANCH  22  23
ENDBRANCH  21  22
ENDBRANCH  20  21
ENDBRANCH  19  20
ENDBRANCH  18  19
ENDBRANCH   1  18
TORSDOF 28
ENDMDL
