MODEL 1
REMARK VINA RESULT:    -3.630      0.000      0.000
REMARK INTER + INTRA:          -8.125
REMARK INTER:                  -6.601
REMARK INTRA:                  -1.525
REMARK UNBOUND:                -1.525
REMARK SMILES CCCCCCCCCCCCCCCC(=O)[O-]
REMARK SMILES IDX 9 1 10 2 11 3 12 4 13 5 14 6 15 7 16 8 17 9 18 10 8 11 7 12
REMARK SMILES IDX 6 13 5 14 4 15 3 16 2 17 1 18
REMARK H PARENT
REMARK Flexibility Score: inf
ROOT
ATOM      1  C   UNL     1     -43.873 -37.856  15.259  1.00  0.00     0.000 C 
ENDROOT
BRANCH   1   2
ATOM      2  C   UNL     1     -44.709 -38.107  13.993  1.00  0.00     0.000 C 
BRANCH   2   3
ATOM      3  C   UNL     1     -44.715 -36.896  13.042  1.00  0.00     0.000 C 
BRANCH   3   4
ATOM      4  C   UNL     1     -45.845 -35.904  13.356  1.00  0.00     0.000 C 
BRANCH   4   5
ATOM      5  C   UNL     1     -45.540 -34.483  12.850  1.00  0.00     0.000 C 
BRANCH   5   6
ATOM      6  C   UNL     1     -45.662 -33.423  13.957  1.00  0.00     0.006 C 
BRANCH   6   7
ATOM      7  C   UNL     1     -45.401 -33.998  15.355  1.00  0.00     0.053 C 
BRANCH   7   8
ATOM      8  C   UNL     1     -44.927 -32.922  16.280  1.00  0.00     0.041 C 
ATOM      9  O   UNL     1     -43.907 -32.243  15.993  1.00  0.00    -0.550 OA
ATOM     10  O   UNL     1     -45.646 -32.631  17.434  1.00  0.00    -0.550 OA
ENDBRANCH   7   8
ENDBRANCH   6   7
ENDBRANCH   5   6
ENDBRANCH   4   5
ENDBRANCH   3   4
ENDBRANCH   2   3
ENDBRANCH   1   2
BRANCH   1  11
ATOM     11  C   UNL     1     -44.616 -38.256  16.545  1.00  0.00     0.000 C 
BRANCH  11  12
ATOM     12  C   UNL     1     -45.909 -37.451  16.753  1.00  0.00    -0.000 C 
BRANCH  12  13
ATOM     13  C   UNL     1     -45.965 -36.773  18.133  1.00  0.00    -0.000 C 
BRANCH  13  14
ATOM     14  C   UNL     1     -44.690 -35.977  18.452  1.00  0.00    -0.000 C 
BRANCH  14  15
ATOM     15  C   UNL     1     -43.962 -36.500  19.702  1.00  0.00    -0.000 C 
BRANCH  15  16
ATOM     16  C   UNL     1     -44.944 -37.023  20.772  1.00  0.00    -0.000 C 
BRANCH  16  17
ATOM     17  C   UNL     1     -45.587 -35.908  21.614  1.00  0.00    -0.003 C 
ATOM     18  C   UNL     1     -44.626 -34.761  21.923  1.00  0.00     0.004 C 
ENDBRANCH  16  17
ENDBRANCH  15  16
ENDBRANCH  14  15
ENDBRANCH  13  14
ENDBRANCH  12  13
ENDBRANCH  11  12
ENDBRANCH   1  11
TORSDOF 14
ENDMDL
MODEL 2
REMARK VINA RESULT:    -3.450      2.075      5.232
REMARK INTER + INTRA:          -7.798
REMARK INTER:                  -5.937
REMARK INTRA:                  -1.860
REMARK UNBOUND:                -1.525
REMARK SMILES CCCCCCCCCCCCCCCC(=O)[O-]
REMARK SMILES IDX 9 1 10 2 11 3 12 4 13 5 14 6 15 7 16 8 17 9 18 10 8 11 7 12
REMARK SMILES IDX 6 13 5 14 4 15 3 16 2 17 1 18
REMARK H PARENT
REMARK Flexibility Score: inf
ROOT
ATOM      1  C   UNL     1     -43.711 -37.719  15.089  1.00  0.00     0.000 C 
ENDROOT
BRANCH   1   2
ATOM      2  C   UNL     1     -44.228 -38.166  16.466  1.00  0.00     0.000 C 
BRANCH   2   3
ATOM      3  C   UNL     1     -45.747 -37.968  16.617  1.00  0.00     0.000 C 
BRANCH   3   4
ATOM      4  C   UNL     1     -46.125 -37.292  17.944  1.00  0.00     0.000 C 
BRANCH   4   5
ATOM      5  C   UNL     1     -45.013 -37.405  19.002  1.00  0.00     0.000 C 
BRANCH   5   6
ATOM      6  C   UNL     1     -44.435 -36.037  19.400  1.00  0.00     0.006 C 
BRANCH   6   7
ATOM      7  C   UNL     1     -45.468 -35.138  20.090  1.00  0.00     0.053 C 
BRANCH   7   8
ATOM      8  C   UNL     1     -45.285 -35.179  21.574  1.00  0.00     0.041 C 
ATOM      9  O   UNL     1     -44.754 -34.208  22.175  1.00  0.00    -0.550 OA
ATOM     10  O   UNL     1     -45.751 -36.267  22.302  1.00  0.00    -0.550 OA
ENDBRANCH   7   8
ENDBRANCH   6   7
ENDBRANCH   5   6
ENDBRANCH   4   5
ENDBRANCH   3   4
ENDBRANCH   2   3
ENDBRANCH   1   2
BRANCH   1  11
ATOM     11  C   UNL     1     -44.478 -38.379  13.929  1.00  0.00     0.000 C 
BRANCH  11  12
ATOM     12  C   UNL     1     -44.870 -37.373  12.835  1.00  0.00    -0.000 C 
BRANCH  12  13
ATOM     13  C   UNL     1     -45.876 -36.321  13.337  1.00  0.00    -0.000 C 
BRANCH  13  14
ATOM     14  C   UNL     1     -45.490 -34.892  12.924  1.00  0.00    -0.000 C 
BRANCH  14  15
ATOM     15  C   UNL     1     -45.614 -33.888  14.083  1.00  0.00    -0.000 C 
BRANCH  15  16
ATOM     16  C   UNL     1     -45.510 -34.574  15.462  1.00  0.00    -0.000 C 
BRANCH  16  17
ATOM     17  C   UNL     1     -44.681 -33.778  16.484  1.00  0.00    -0.003 C 
ATOM     18  C   UNL     1     -44.345 -32.365  16.014  1.00  0.00     0.004 C 
ENDBRANCH  16  17
ENDBRANCH  15  16
ENDBRANCH  14  15
ENDBRANCH  13  14
ENDBRANCH  12  13
ENDBRANCH  11  12
ENDBRANCH   1  11
TORSDOF 14
ENDMDL
MODEL 3
REMARK VINA RESULT:    -3.334      2.337      3.668
REMARK INTER + INTRA:          -7.587
REMARK INTER:                  -6.207
REMARK INTRA:                  -1.380
REMARK UNBOUND:                -1.525
REMARK SMILES CCCCCCCCCCCCCCCC(=O)[O-]
REMARK SMILES IDX 9 1 10 2 11 3 12 4 13 5 14 6 15 7 16 8 17 9 18 10 8 11 7 12
REMARK SMILES IDX 6 13 5 14 4 15 3 16 2 17 1 18
REMARK H PARENT
REMARK Flexibility Score: inf
ROOT
ATOM      1  C   UNL     1     -44.430 -33.965  16.734  1.00  0.00     0.000 C 
ENDROOT
BRANCH   1   2
ATOM      2  C   UNL     1     -44.924 -32.619  16.179  1.00  0.00     0.000 C 
BRANCH   2   3
ATOM      3  C   UNL     1     -45.111 -32.646  14.651  1.00  0.00     0.000 C 
BRANCH   3   4
ATOM      4  C   UNL     1     -45.991 -33.816  14.185  1.00  0.00     0.000 C 
BRANCH   4   5
ATOM      5  C   UNL     1     -45.657 -34.271  12.753  1.00  0.00     0.000 C 
BRANCH   5   6
ATOM      6  C   UNL     1     -45.477 -35.794  12.645  1.00  0.00     0.006 C 
BRANCH   6   7
ATOM      7  C   UNL     1     -45.303 -36.466  14.013  1.00  0.00     0.053 C 
BRANCH   7   8
ATOM      8  C   UNL     1     -44.405 -37.657  13.898  1.00  0.00     0.041 C 
ATOM      9  O   UNL     1     -44.199 -38.190  12.776  1.00  0.00    -0.550 OA
ATOM     10  O   UNL     1     -43.751 -38.146  15.022  1.00  0.00    -0.550 OA
ENDBRANCH   7   8
ENDBRANCH   6   7
ENDBRANCH   5   6
ENDBRANCH   4   5
ENDBRANCH   3   4
ENDBRANCH   2   3
ENDBRANCH   1   2
BRANCH   1  11
ATOM     11  C   UNL     1     -45.360 -34.531  17.822  1.00  0.00     0.000 C 
BRANCH  11  12
ATOM     12  C   UNL     1     -45.805 -35.971  17.525  1.00  0.00    -0.000 C 
BRANCH  12  13
ATOM     13  C   UNL     1     -45.029 -37.010  18.354  1.00  0.00    -0.000 C 
BRANCH  13  14
ATOM     14  C   UNL     1     -45.765 -37.408  19.642  1.00  0.00    -0.000 C 
BRANCH  14  15
ATOM     15  C   UNL     1     -45.007 -36.985  20.912  1.00  0.00    -0.000 C 
BRANCH  15  16
ATOM     16  C   UNL     1     -45.940 -36.342  21.960  1.00  0.00    -0.000 C 
BRANCH  16  17
ATOM     17  C   UNL     1     -45.538 -34.908  22.344  1.00  0.00    -0.003 C 
ATOM     18  C   UNL     1     -45.872 -33.882  21.262  1.00  0.00     0.004 C 
ENDBRANCH  16  17
ENDBRANCH  15  16
ENDBRANCH  14  15
ENDBRANCH  13  14
ENDBRANCH  12  13
ENDBRANCH  11  12
ENDBRANCH   1  11
TORSDOF 14
ENDMDL
MODEL 4
REMARK VINA RESULT:    -3.300      1.222      2.049
REMARK INTER + INTRA:          -7.526
REMARK INTER:                  -6.628
REMARK INTRA:                  -0.898
REMARK UNBOUND:                -1.525
REMARK SMILES CCCCCCCCCCCCCCCC(=O)[O-]
REMARK SMILES IDX 9 1 10 2 11 3 12 4 13 5 14 6 15 7 16 8 17 9 18 10 8 11 7 12
REMARK SMILES IDX 6 13 5 14 4 15 3 16 2 17 1 18
REMARK H PARENT
REMARK Flexibility Score: inf
ROOT
ATOM      1  C   UNL     1     -44.504 -37.362  16.301  1.00  0.00     0.000 C 
ENDROOT
BRANCH   1   2
ATOM      2  C   UNL     1     -43.884 -38.209  15.178  1.00  0.00     0.000 C 
BRANCH   2   3
ATOM      3  C   UNL     1     -44.316 -37.738  13.778  1.00  0.00     0.000 C 
BRANCH   3   4
ATOM      4  C   UNL     1     -45.306 -36.564  13.830  1.00  0.00     0.000 C 
BRANCH   4   5
ATOM      5  C   UNL     1     -45.295 -35.725  12.540  1.00  0.00     0.000 C 
BRANCH   5   6
ATOM      6  C   UNL     1     -45.919 -34.334  12.735  1.00  0.00     0.006 C 
BRANCH   6   7
ATOM      7  C   UNL     1     -45.816 -33.839  14.183  1.00  0.00     0.053 C 
BRANCH   7   8
ATOM      8  C   UNL     1     -45.067 -32.544  14.239  1.00  0.00     0.041 C 
ATOM      9  O   UNL     1     -44.736 -32.050  15.348  1.00  0.00    -0.550 OA
ATOM     10  O   UNL     1     -44.687 -31.910  13.062  1.00  0.00    -0.550 OA
ENDBRANCH   7   8
ENDBRANCH   6   7
ENDBRANCH   5   6
ENDBRANCH   4   5
ENDBRANCH   3   4
ENDBRANCH   2   3
ENDBRANCH   1   2
BRANCH   1  11
ATOM     11  C   UNL     1     -45.345 -38.202  17.278  1.00  0.00     0.000 C 
BRANCH  11  12
ATOM     12  C   UNL     1     -45.485 -37.537  18.657  1.00  0.00    -0.000 C 
BRANCH  12  13
ATOM     13  C   UNL     1     -44.167 -36.911  19.145  1.00  0.00    -0.000 C 
BRANCH  13  14
ATOM     14  C   UNL     1     -44.241 -36.444  20.607  1.00  0.00    -0.000 C 
BRANCH  14  15
ATOM     15  C   UNL     1     -45.606 -35.831  20.965  1.00  0.00    -0.000 C 
BRANCH  15  16
ATOM     16  C   UNL     1     -45.490 -34.344  21.363  1.00  0.00    -0.000 C 
BRANCH  16  17
ATOM     17  C   UNL     1     -44.405 -34.072  22.417  1.00  0.00    -0.003 C 
ATOM     18  C   UNL     1     -44.649 -32.790  23.211  1.00  0.00     0.004 C 
ENDBRANCH  16  17
ENDBRANCH  15  16
ENDBRANCH  14  15
ENDBRANCH  13  14
ENDBRANCH  12  13
ENDBRANCH  11  12
ENDBRANCH   1  11
TORSDOF 14
ENDMDL
MODEL 5
REMARK VINA RESULT:    -3.260      5.685      9.853
REMARK INTER + INTRA:          -7.453
REMARK INTER:                  -6.413
REMARK INTRA:                  -1.040
REMARK UNBOUND:                -1.525
REMARK SMILES CCCCCCCCCCCCCCCC(=O)[O-]
REMARK SMILES IDX 9 1 10 2 11 3 12 4 13 5 14 6 15 7 16 8 17 9 18 10 8 11 7 12
REMARK SMILES IDX 6 13 5 14 4 15 3 16 2 17 1 18
REMARK H PARENT
REMARK Flexibility Score: inf
ROOT
ATOM      1  C   UNL     1     -42.358 -32.521  26.253  1.00  0.00     0.000 C 
ENDROOT
BRANCH   1   2
ATOM      2  C   UNL     1     -43.443 -33.058  25.306  1.00  0.00     0.000 C 
BRANCH   2   3
ATOM      3  C   UNL     1     -43.138 -32.753  23.828  1.00  0.00     0.000 C 
BRANCH   3   4
ATOM      4  C   UNL     1     -44.395 -32.799  22.945  1.00  0.00     0.000 C 
BRANCH   4   5
ATOM      5  C   UNL     1     -44.984 -34.216  22.829  1.00  0.00     0.000 C 
BRANCH   5   6
ATOM      6  C   UNL     1     -45.203 -34.647  21.371  1.00  0.00     0.006 C 
BRANCH   6   7
ATOM      7  C   UNL     1     -44.855 -36.122  21.133  1.00  0.00     0.053 C 
BRANCH   7   8
ATOM      8  C   UNL     1     -44.222 -36.298  19.788  1.00  0.00     0.041 C 
ATOM      9  O   UNL     1     -43.288 -37.127  19.630  1.00  0.00    -0.550 OA
ATOM     10  O   UNL     1     -44.701 -35.584  18.696  1.00  0.00    -0.550 OA
ENDBRANCH   7   8
ENDBRANCH   6   7
ENDBRANCH   5   6
ENDBRANCH   4   5
ENDBRANCH   3   4
ENDBRANCH   2   3
ENDBRANCH   1   2
BRANCH   1  11
ATOM     11  C   UNL     1     -42.070 -33.478  27.424  1.00  0.00     0.000 C 
BRANCH  11  12
ATOM     12  C   UNL     1     -41.237 -32.817  28.533  1.00  0.00    -0.000 C 
BRANCH  12  13
ATOM     13  C   UNL     1     -39.850 -32.369  28.040  1.00  0.00    -0.000 C 
BRANCH  13  14
ATOM     14  C   UNL     1     -38.740 -33.363  28.416  1.00  0.00    -0.000 C 
BRANCH  14  15
ATOM     15  C   UNL     1     -37.625 -33.434  27.358  1.00  0.00    -0.000 C 
BRANCH  15  16
ATOM     16  C   UNL     1     -38.108 -34.088  26.046  1.00  0.00    -0.000 C 
BRANCH  16  17
ATOM     17  C   UNL     1     -37.947 -33.184  24.812  1.00  0.00    -0.003 C 
ATOM     18  C   UNL     1     -39.255 -32.530  24.374  1.00  0.00     0.004 C 
ENDBRANCH  16  17
ENDBRANCH  15  16
ENDBRANCH  14  15
ENDBRANCH  13  14
ENDBRANCH  12  13
ENDBRANCH  11  12
ENDBRANCH   1  11
TORSDOF 14
ENDMDL
MODEL 6
REMARK VINA RESULT:    -3.225      2.962      5.419
REMARK INTER + INTRA:          -7.390
REMARK INTER:                  -6.352
REMARK INTRA:                  -1.038
REMARK UNBOUND:                -1.525
REMARK SMILES CCCCCCCCCCCCCCCC(=O)[O-]
REMARK SMILES IDX 9 1 10 2 11 3 12 4 13 5 14 6 15 7 16 8 17 9 18 10 8 11 7 12
REMARK SMILES IDX 6 13 5 14 4 15 3 16 2 17 1 18
REMARK H PARENT
REMARK Flexibility Score: inf
ROOT
ATOM      1  C   UNL     1     -44.129 -36.562  20.042  1.00  0.00     0.000 C 
ENDROOT
BRANCH   1   2
ATOM      2  C   UNL     1     -45.504 -37.246  19.980  1.00  0.00     0.000 C 
BRANCH   2   3
ATOM      3  C   UNL     1     -46.110 -37.220  18.565  1.00  0.00     0.000 C 
BRANCH   3   4
ATOM      4  C   UNL     1     -45.740 -38.464  17.743  1.00  0.00     0.000 C 
BRANCH   4   5
ATOM      5  C   UNL     1     -45.686 -38.178  16.232  1.00  0.00     0.000 C 
BRANCH   5   6
ATOM      6  C   UNL     1     -44.333 -37.601  15.788  1.00  0.00     0.006 C 
BRANCH   6   7
ATOM      7  C   UNL     1     -43.777 -38.294  14.538  1.00  0.00     0.053 C 
BRANCH   7   8
ATOM      8  C   UNL     1     -44.570 -37.903  13.330  1.00  0.00     0.041 C 
ATOM      9  O   UNL     1     -44.417 -36.766  12.812  1.00  0.00    -0.550 OA
ATOM     10  O   UNL     1     -45.438 -38.816  12.744  1.00  0.00    -0.550 OA
ENDBRANCH   7   8
ENDBRANCH   6   7
ENDBRANCH   5   6
ENDBRANCH   4   5
ENDBRANCH   3   4
ENDBRANCH   2   3
ENDBRANCH   1   2
BRANCH   1  11
ATOM     11  C   UNL     1     -43.995 -35.615  21.248  1.00  0.00     0.000 C 
BRANCH  11  12
ATOM     12  C   UNL     1     -45.355 -35.245  21.860  1.00  0.00    -0.000 C 
BRANCH  12  13
ATOM     13  C   UNL     1     -45.828 -33.843  21.438  1.00  0.00    -0.000 C 
BRANCH  13  14
ATOM     14  C   UNL     1     -45.386 -32.749  22.422  1.00  0.00    -0.000 C 
BRANCH  14  15
ATOM     15  C   UNL     1     -45.464 -33.205  23.889  1.00  0.00    -0.000 C 
BRANCH  15  16
ATOM     16  C   UNL     1     -44.139 -32.968  24.644  1.00  0.00    -0.000 C 
BRANCH  16  17
ATOM     17  C   UNL     1     -42.973 -32.561  23.728  1.00  0.00    -0.003 C 
ATOM     18  C   UNL     1     -41.736 -32.105  24.499  1.00  0.00     0.004 C 
ENDBRANCH  16  17
ENDBRANCH  15  16
ENDBRANCH  14  15
ENDBRANCH  13  14
ENDBRANCH  12  13
ENDBRANCH  11  12
ENDBRANCH   1  11
TORSDOF 14
ENDMDL
MODEL 7
REMARK VINA RESULT:    -3.159      2.775      6.946
REMARK INTER + INTRA:          -7.270
REMARK INTER:                  -6.251
REMARK INTRA:                  -1.018
REMARK UNBOUND:                -1.525
REMARK SMILES CCCCCCCCCCCCCCCC(=O)[O-]
REMARK SMILES IDX 9 1 10 2 11 3 12 4 13 5 14 6 15 7 16 8 17 9 18 10 8 11 7 12
REMARK SMILES IDX 6 13 5 14 4 15 3 16 2 17 1 18
REMARK H PARENT
REMARK Flexibility Score: inf
ROOT
ATOM      1  C   UNL     1     -44.830 -36.561  18.736  1.00  0.00     0.000 C 
ENDROOT
BRANCH   1   2
ATOM      2  C   UNL     1     -43.845 -36.814  19.889  1.00  0.00     0.000 C 
BRANCH   2   3
ATOM      3  C   UNL     1     -43.915 -35.723  20.972  1.00  0.00     0.000 C 
BRANCH   3   4
ATOM      4  C   UNL     1     -45.317 -35.593  21.589  1.00  0.00     0.000 C 
BRANCH   4   5
ATOM      5  C   UNL     1     -45.969 -34.232  21.290  1.00  0.00     0.000 C 
BRANCH   5   6
ATOM      6  C   UNL     1     -45.361 -33.091  22.121  1.00  0.00     0.006 C 
BRANCH   6   7
ATOM      7  C   UNL     1     -45.407 -33.370  23.628  1.00  0.00     0.053 C 
BRANCH   7   8
ATOM      8  C   UNL     1     -44.040 -33.243  24.223  1.00  0.00     0.041 C 
ATOM      9  O   UNL     1     -43.893 -33.198  25.473  1.00  0.00    -0.550 OA
ATOM     10  O   UNL     1     -42.922 -33.231  23.398  1.00  0.00    -0.550 OA
ENDBRANCH   7   8
ENDBRANCH   6   7
ENDBRANCH   5   6
ENDBRANCH   4   5
ENDBRANCH   3   4
ENDBRANCH   2   3
ENDBRANCH   1   2
BRANCH   1  11
ATOM     11  C   UNL     1     -45.704 -37.790  18.427  1.00  0.00     0.000 C 
BRANCH  11  12
ATOM     12  C   UNL     1     -45.419 -38.381  17.037  1.00  0.00    -0.000 C 
BRANCH  12  13
ATOM     13  C   UNL     1     -44.101 -37.863  16.436  1.00  0.00    -0.000 C 
BRANCH  13  14
ATOM     14  C   UNL     1     -43.917 -38.279  14.969  1.00  0.00    -0.000 C 
BRANCH  14  15
ATOM     15  C   UNL     1     -45.100 -37.857  14.080  1.00  0.00    -0.000 C 
BRANCH  15  16
ATOM     16  C   UNL     1     -44.634 -37.189  12.770  1.00  0.00    -0.000 C 
BRANCH  16  17
ATOM     17  C   UNL     1     -45.109 -35.734  12.618  1.00  0.00    -0.003 C 
ATOM     18  C   UNL     1     -45.808 -35.199  13.867  1.00  0.00     0.004 C 
ENDBRANCH  16  17
ENDBRANCH  15  16
ENDBRANCH  14  15
ENDBRANCH  13  14
ENDBRANCH  12  13
ENDBRANCH  11  12
ENDBRANCH   1  11
TORSDOF 14
ENDMDL
MODEL 8
REMARK VINA RESULT:    -3.156      2.045      3.834
REMARK INTER + INTRA:          -7.263
REMARK INTER:                  -6.627
REMARK INTRA:                  -0.636
REMARK UNBOUND:                -1.525
REMARK SMILES CCCCCCCCCCCCCCCC(=O)[O-]
REMARK SMILES IDX 9 1 10 2 11 3 12 4 13 5 14 6 15 7 16 8 17 9 18 10 8 11 7 12
REMARK SMILES IDX 6 13 5 14 4 15 3 16 2 17 1 18
REMARK H PARENT
REMARK Flexibility Score: inf
ROOT
ATOM      1  C   UNL     1     -44.786 -36.954  18.261  1.00  0.00     0.000 C 
ENDROOT
BRANCH   1   2
ATOM      2  C   UNL     1     -44.682 -38.181  17.341  1.00  0.00     0.000 C 
BRANCH   2   3
ATOM      3  C   UNL     1     -45.105 -37.868  15.894  1.00  0.00     0.000 C 
BRANCH   3   4
ATOM      4  C   UNL     1     -43.982 -38.136  14.880  1.00  0.00     0.000 C 
BRANCH   4   5
ATOM      5  C   UNL     1     -44.393 -37.789  13.438  1.00  0.00     0.000 C 
BRANCH   5   6
ATOM      6  C   UNL     1     -45.706 -36.992  13.374  1.00  0.00     0.006 C 
BRANCH   6   7
ATOM      7  C   UNL     1     -45.592 -35.738  12.499  1.00  0.00     0.053 C 
BRANCH   7   8
ATOM      8  C   UNL     1     -45.552 -34.509  13.353  1.00  0.00     0.041 C 
ATOM      9  O   UNL     1     -45.289 -33.389  12.842  1.00  0.00    -0.550 OA
ATOM     10  O   UNL     1     -45.860 -34.593  14.706  1.00  0.00    -0.550 OA
ENDBRANCH   7   8
ENDBRANCH   6   7
ENDBRANCH   5   6
ENDBRANCH   4   5
ENDBRANCH   3   4
ENDBRANCH   2   3
ENDBRANCH   1   2
BRANCH   1  11
ATOM     11  C   UNL     1     -43.901 -37.080  19.514  1.00  0.00     0.000 C 
BRANCH  11  12
ATOM     12  C   UNL     1     -44.637 -36.667  20.799  1.00  0.00    -0.000 C 
BRANCH  12  13
ATOM     13  C   UNL     1     -44.284 -35.238  21.245  1.00  0.00    -0.000 C 
BRANCH  13  14
ATOM     14  C   UNL     1     -45.428 -34.561  22.017  1.00  0.00    -0.000 C 
BRANCH  14  15
ATOM     15  C   UNL     1     -44.980 -33.277  22.737  1.00  0.00    -0.000 C 
BRANCH  15  16
ATOM     16  C   UNL     1     -43.622 -33.454  23.450  1.00  0.00    -0.000 C 
BRANCH  16  17
ATOM     17  C   UNL     1     -43.162 -32.202  24.215  1.00  0.00    -0.003 C 
ATOM     18  C   UNL     1     -41.643 -32.048  24.253  1.00  0.00     0.004 C 
ENDBRANCH  16  17
ENDBRANCH  15  16
ENDBRANCH  14  15
ENDBRANCH  13  14
ENDBRANCH  12  13
ENDBRANCH  11  12
ENDBRANCH   1  11
TORSDOF 14
ENDMDL
MODEL 9
REMARK VINA RESULT:    -3.072      2.525      6.497
REMARK INTER + INTRA:          -7.110
REMARK INTER:                  -6.338
REMARK INTRA:                  -0.772
REMARK UNBOUND:                -1.525
REMARK SMILES CCCCCCCCCCCCCCCC(=O)[O-]
REMARK SMILES IDX 9 1 10 2 11 3 12 4 13 5 14 6 15 7 16 8 17 9 18 10 8 11 7 12
REMARK SMILES IDX 6 13 5 14 4 15 3 16 2 17 1 18
REMARK H PARENT
REMARK Flexibility Score: inf
ROOT
ATOM      1  C   UNL     1     -44.905 -38.250  17.068  1.00  0.00     0.000 C 
ENDROOT
BRANCH   1   2
ATOM      2  C   UNL     1     -44.953 -36.983  17.938  1.00  0.00     0.000 C 
BRANCH   2   3
ATOM      3  C   UNL     1     -46.000 -37.079  19.062  1.00  0.00     0.000 C 
BRANCH   3   4
ATOM      4  C   UNL     1     -45.389 -37.518  20.402  1.00  0.00     0.000 C 
BRANCH   4   5
ATOM      5  C   UNL     1     -45.576 -36.465  21.508  1.00  0.00     0.000 C 
BRANCH   5   6
ATOM      6  C   UNL     1     -44.578 -35.303  21.392  1.00  0.00     0.006 C 
BRANCH   6   7
ATOM      7  C   UNL     1     -45.160 -33.974  21.892  1.00  0.00     0.053 C 
BRANCH   7   8
ATOM      8  C   UNL     1     -44.501 -33.565  23.171  1.00  0.00     0.041 C 
ATOM      9  O   UNL     1     -45.186 -33.410  24.217  1.00  0.00    -0.550 OA
ATOM     10  O   UNL     1     -43.121 -33.409  23.223  1.00  0.00    -0.550 OA
ENDBRANCH   7   8
ENDBRANCH   6   7
ENDBRANCH   5   6
ENDBRANCH   4   5
ENDBRANCH   3   4
ENDBRANCH   2   3
ENDBRANCH   1   2
BRANCH   1  11
ATOM     11  C   UNL     1     -44.247 -38.001  15.699  1.00  0.00     0.000 C 
BRANCH  11  12
ATOM     12  C   UNL     1     -45.279 -37.802  14.578  1.00  0.00    -0.000 C 
BRANCH  12  13
ATOM     13  C   UNL     1     -44.623 -37.455  13.230  1.00  0.00    -0.000 C 
BRANCH  13  14
ATOM     14  C   UNL     1     -45.152 -36.140  12.636  1.00  0.00    -0.000 C 
BRANCH  14  15
ATOM     15  C   UNL     1     -46.105 -35.401  13.591  1.00  0.00    -0.000 C 
BRANCH  15  16
ATOM     16  C   UNL     1     -45.383 -34.302  14.399  1.00  0.00    -0.000 C 
BRANCH  16  17
ATOM     17  C   UNL     1     -45.909 -32.885  14.117  1.00  0.00    -0.003 C 
ATOM     18  C   UNL     1     -45.009 -32.088  13.175  1.00  0.00     0.004 C 
ENDBRANCH  16  17
ENDBRANCH  15  16
ENDBRANCH  14  15
ENDBRANCH  13  14
ENDBRANCH  12  13
ENDBRANCH  11  12
ENDBRANCH   1  11
TORSDOF 14
ENDMDL
