MODEL 1
REMARK VINA RESULT:    -7.016      0.000      0.000
REMARK INTER + INTRA:          -7.016
REMARK INTER:                  -7.016
REMARK INTRA:                   0.000
REMARK UNBOUND:                 0.000
REMARK SMILES O=c1ccc2ccccc2o1
REMARK SMILES IDX 7 1 8 2 9 3 10 4 5 5 6 6 4 7 3 8 2 9 1 10 11 11
REMARK H PARENT
REMARK Flexibility Score: inf
ROOT
ATOM      1  C   UNL     1      13.881 -14.682  27.494  1.00  0.00     0.001 A 
ATOM      2  C   UNL     1      14.674 -14.265  28.568  1.00  0.00     0.004 A 
ATOM      3  C   UNL     1      14.336 -13.113  29.287  1.00  0.00     0.048 A 
ATOM      4  C   UNL     1      13.201 -12.375  28.934  1.00  0.00     0.138 A 
ATOM      5  C   UNL     1      12.400 -12.796  27.849  1.00  0.00     0.018 A 
ATOM      6  C   UNL     1      12.745 -13.952  27.132  1.00  0.00     0.012 A 
ATOM      7  C   UNL     1      11.272 -12.039  27.520  1.00  0.00     0.019 A 
ATOM      8  C   UNL     1      10.973 -10.897  28.264  1.00  0.00     0.094 A 
ATOM      9  C   UNL     1      11.813 -10.540  29.325  1.00  0.00     0.336 A 
ATOM     10  O   UNL     1      11.559  -9.514  30.008  1.00  0.00    -0.246 OA
ATOM     11  O   UNL     1      12.880 -11.279  29.618  1.00  0.00    -0.423 OA
ENDROOT
TORSDOF 0
ENDMDL
MODEL 2
REMARK VINA RESULT:    -6.883      1.131      2.109
REMARK INTER + INTRA:          -6.883
REMARK INTER:                  -6.883
REMARK INTRA:                   0.000
REMARK UNBOUND:                 0.000
REMARK SMILES O=c1ccc2ccccc2o1
REMARK SMILES IDX 7 1 8 2 9 3 10 4 5 5 6 6 4 7 3 8 2 9 1 10 11 11
REMARK H PARENT
REMARK Flexibility Score: inf
ROOT
ATOM      1  C   UNL     1      14.625 -14.267  28.075  1.00  0.00     0.001 A 
ATOM      2  C   UNL     1      13.614 -14.509  27.139  1.00  0.00     0.004 A 
ATOM      3  C   UNL     1      12.445 -13.741  27.151  1.00  0.00     0.048 A 
ATOM      4  C   UNL     1      12.283 -12.727  28.102  1.00  0.00     0.138 A 
ATOM      5  C   UNL     1      13.304 -12.483  29.048  1.00  0.00     0.018 A 
ATOM      6  C   UNL     1      14.474 -13.257  29.030  1.00  0.00     0.012 A 
ATOM      7  C   UNL     1      13.114 -11.463  29.985  1.00  0.00     0.019 A 
ATOM      8  C   UNL     1      11.933 -10.723  29.961  1.00  0.00     0.094 A 
ATOM      9  C   UNL     1      10.965 -11.020  28.995  1.00  0.00     0.336 A 
ATOM     10  O   UNL     1       9.892 -10.363  28.957  1.00  0.00    -0.246 OA
ATOM     11  O   UNL     1      11.171 -11.996  28.114  1.00  0.00    -0.423 OA
ENDROOT
TORSDOF 0
ENDMDL
MODEL 3
REMARK VINA RESULT:    -6.615      1.732      3.818
REMARK INTER + INTRA:          -6.615
REMARK INTER:                  -6.615
REMARK INTRA:                   0.000
REMARK UNBOUND:                 0.000
REMARK SMILES O=c1ccc2ccccc2o1
REMARK SMILES IDX 7 1 8 2 9 3 10 4 5 5 6 6 4 7 3 8 2 9 1 10 11 11
REMARK H PARENT
REMARK Flexibility Score: inf
ROOT
ATOM      1  C   UNL     1      10.923 -10.358  29.353  1.00  0.00     0.001 A 
ATOM      2  C   UNL     1      12.076 -10.352  30.145  1.00  0.00     0.004 A 
ATOM      3  C   UNL     1      13.087 -11.293  29.925  1.00  0.00     0.048 A 
ATOM      4  C   UNL     1      12.947 -12.246  28.910  1.00  0.00     0.138 A 
ATOM      5  C   UNL     1      11.783 -12.253  28.109  1.00  0.00     0.018 A 
ATOM      6  C   UNL     1      10.773 -11.306  28.335  1.00  0.00     0.012 A 
ATOM      7  C   UNL     1      11.672 -13.216  27.102  1.00  0.00     0.019 A 
ATOM      8  C   UNL     1      12.704 -14.136  26.919  1.00  0.00     0.094 A 
ATOM      9  C   UNL     1      13.828 -14.069  27.749  1.00  0.00     0.336 A 
ATOM     10  O   UNL     1      14.770 -14.891  27.599  1.00  0.00    -0.246 OA
ATOM     11  O   UNL     1      13.909 -13.142  28.700  1.00  0.00    -0.423 OA
ENDROOT
TORSDOF 0
ENDMDL
MODEL 4
REMARK VINA RESULT:    -6.585      2.379      4.452
REMARK INTER + INTRA:          -6.585
REMARK INTER:                  -6.585
REMARK INTRA:                   0.000
REMARK UNBOUND:                 0.000
REMARK SMILES O=c1ccc2ccccc2o1
REMARK SMILES IDX 7 1 8 2 9 3 10 4 5 5 6 6 4 7 3 8 2 9 1 10 11 11
REMARK H PARENT
REMARK Flexibility Score: inf
ROOT
ATOM      1  C   UNL     1      11.253 -11.405  28.106  1.00  0.00     0.001 A 
ATOM      2  C   UNL     1      10.864 -12.296  27.100  1.00  0.00     0.004 A 
ATOM      3  C   UNL     1      11.602 -13.461  26.866  1.00  0.00     0.048 A 
ATOM      4  C   UNL     1      12.735 -13.739  27.639  1.00  0.00     0.138 A 
ATOM      5  C   UNL     1      13.129 -12.840  28.655  1.00  0.00     0.018 A 
ATOM      6  C   UNL     1      12.383 -11.674  28.884  1.00  0.00     0.012 A 
ATOM      7  C   UNL     1      14.265 -13.144  29.411  1.00  0.00     0.019 A 
ATOM      8  C   UNL     1      14.971 -14.316  29.143  1.00  0.00     0.094 A 
ATOM      9  C   UNL     1      14.522 -15.161  28.121  1.00  0.00     0.336 A 
ATOM     10  O   UNL     1      15.147 -16.223  27.864  1.00  0.00    -0.246 OA
ATOM     11  O   UNL     1      13.438 -14.847  27.416  1.00  0.00    -0.423 OA
ENDROOT
TORSDOF 0
ENDMDL
MODEL 5
REMARK VINA RESULT:    -6.467      1.143      2.228
REMARK INTER + INTRA:          -6.467
REMARK INTER:                  -6.467
REMARK INTRA:                   0.000
REMARK UNBOUND:                 0.000
REMARK SMILES O=c1ccc2ccccc2o1
REMARK SMILES IDX 7 1 8 2 9 3 10 4 5 5 6 6 4 7 3 8 2 9 1 10 11 11
REMARK H PARENT
REMARK Flexibility Score: inf
ROOT
ATOM      1  C   UNL     1      13.310 -14.354  27.106  1.00  0.00     0.001 A 
ATOM      2  C   UNL     1      12.064 -14.115  26.515  1.00  0.00     0.004 A 
ATOM      3  C   UNL     1      11.248 -13.081  26.987  1.00  0.00     0.048 A 
ATOM      4  C   UNL     1      11.676 -12.282  28.052  1.00  0.00     0.138 A 
ATOM      5  C   UNL     1      12.933 -12.523  28.650  1.00  0.00     0.018 A 
ATOM      6  C   UNL     1      13.747 -13.561  28.172  1.00  0.00     0.012 A 
ATOM      7  C   UNL     1      13.334 -11.709  29.713  1.00  0.00     0.019 A 
ATOM      8  C   UNL     1      12.487 -10.690  30.151  1.00  0.00     0.094 A 
ATOM      9  C   UNL     1      11.256 -10.509  29.512  1.00  0.00     0.336 A 
ATOM     10  O   UNL     1      10.478  -9.596  29.893  1.00  0.00    -0.246 OA
ATOM     11  O   UNL     1      10.899 -11.299  28.502  1.00  0.00    -0.423 OA
ENDROOT
TORSDOF 0
ENDMDL
MODEL 6
REMARK VINA RESULT:    -5.898      1.960      4.194
REMARK INTER + INTRA:          -5.898
REMARK INTER:                  -5.898
REMARK INTRA:                   0.000
REMARK UNBOUND:                 0.000
REMARK SMILES O=c1ccc2ccccc2o1
REMARK SMILES IDX 7 1 8 2 9 3 10 4 5 5 6 6 4 7 3 8 2 9 1 10 11 11
REMARK H PARENT
REMARK Flexibility Score: inf
ROOT
ATOM      1  C   UNL     1      12.281 -10.213  30.469  1.00  0.00     0.001 A 
ATOM      2  C   UNL     1      11.159  -9.962  29.673  1.00  0.00     0.004 A 
ATOM      3  C   UNL     1      10.871 -10.788  28.581  1.00  0.00     0.048 A 
ATOM      4  C   UNL     1      11.706 -11.870  28.282  1.00  0.00     0.138 A 
ATOM      5  C   UNL     1      12.841 -12.124  29.085  1.00  0.00     0.018 A 
ATOM      6  C   UNL     1      13.123 -11.292  30.178  1.00  0.00     0.012 A 
ATOM      7  C   UNL     1      13.657 -13.212  28.762  1.00  0.00     0.019 A 
ATOM      8  C   UNL     1      13.332 -14.008  27.664  1.00  0.00     0.094 A 
ATOM      9  C   UNL     1      12.193 -13.697  26.913  1.00  0.00     0.336 A 
ATOM     10  O   UNL     1      11.884 -14.404  25.918  1.00  0.00    -0.246 OA
ATOM     11  O   UNL     1      11.433 -12.655  27.242  1.00  0.00    -0.423 OA
ENDROOT
TORSDOF 0
ENDMDL
MODEL 7
REMARK VINA RESULT:    -5.426      2.526      4.322
REMARK INTER + INTRA:          -5.426
REMARK INTER:                  -5.426
REMARK INTRA:                   0.000
REMARK UNBOUND:                 0.000
REMARK SMILES O=c1ccc2ccccc2o1
REMARK SMILES IDX 7 1 8 2 9 3 10 4 5 5 6 6 4 7 3 8 2 9 1 10 11 11
REMARK H PARENT
REMARK Flexibility Score: inf
ROOT
ATOM      1  C   UNL     1      12.748 -10.792  29.125  1.00  0.00     0.001 A 
ATOM      2  C   UNL     1      12.300 -11.651  30.134  1.00  0.00     0.004 A 
ATOM      3  C   UNL     1      12.693 -12.993  30.143  1.00  0.00     0.048 A 
ATOM      4  C   UNL     1      13.538 -13.482  29.141  1.00  0.00     0.138 A 
ATOM      5  C   UNL     1      13.990 -12.616  28.120  1.00  0.00     0.018 A 
ATOM      6  C   UNL     1      13.592 -11.271  28.118  1.00  0.00     0.012 A 
ATOM      7  C   UNL     1      14.834 -13.132  27.132  1.00  0.00     0.019 A 
ATOM      8  C   UNL     1      15.200 -14.477  27.180  1.00  0.00     0.094 A 
ATOM      9  C   UNL     1      14.713 -15.277  28.221  1.00  0.00     0.336 A 
ATOM     10  O   UNL     1      15.032 -16.493  28.280  1.00  0.00    -0.246 OA
ATOM     11  O   UNL     1      13.912 -14.760  29.149  1.00  0.00    -0.423 OA
ENDROOT
TORSDOF 0
ENDMDL
MODEL 8
REMARK VINA RESULT:    -4.866      2.089      3.421
REMARK INTER + INTRA:          -4.866
REMARK INTER:                  -4.866
REMARK INTRA:                   0.000
REMARK UNBOUND:                 0.000
REMARK SMILES O=c1ccc2ccccc2o1
REMARK SMILES IDX 7 1 8 2 9 3 10 4 5 5 6 6 4 7 3 8 2 9 1 10 11 11
REMARK H PARENT
REMARK Flexibility Score: inf
ROOT
ATOM      1  C   UNL     1      13.269 -10.923  30.639  1.00  0.00     0.001 A 
ATOM      2  C   UNL     1      14.336 -11.789  30.374  1.00  0.00     0.004 A 
ATOM      3  C   UNL     1      14.264 -12.688  29.304  1.00  0.00     0.048 A 
ATOM      4  C   UNL     1      13.123 -12.722  28.494  1.00  0.00     0.138 A 
ATOM      5  C   UNL     1      12.046 -11.848  28.762  1.00  0.00     0.018 A 
ATOM      6  C   UNL     1      12.125 -10.950  29.836  1.00  0.00     0.012 A 
ATOM      7  C   UNL     1      10.920 -11.906  27.935  1.00  0.00     0.019 A 
ATOM      8  C   UNL     1      10.891 -12.818  26.880  1.00  0.00     0.094 A 
ATOM      9  C   UNL     1      11.995 -13.653  26.675  1.00  0.00     0.336 A 
ATOM     10  O   UNL     1      11.988 -14.483  25.729  1.00  0.00    -0.246 OA
ATOM     11  O   UNL     1      13.055 -13.578  27.477  1.00  0.00    -0.423 OA
ENDROOT
TORSDOF 0
ENDMDL
