MODEL 1
REMARK VINA RESULT:    -1.244      0.000      0.000
REMARK INTER + INTRA:          -4.651
REMARK INTER:                  -2.263
REMARK INTRA:                  -2.388
REMARK UNBOUND:                -2.388
REMARK SMILES CCCCCCCCCCCCCC[C@@H](C)C(=O)[O-]
REMARK SMILES IDX 9 1 10 2 11 3 12 4 13 5 14 6 15 7 16 8 17 9 18 10 19 11 8 12
REMARK SMILES IDX 7 13 6 14 5 15 4 16 3 17 2 18 1 19
REMARK H PARENT
REMARK Flexibility Score: inf
ROOT
ATOM      1  C   UNL     1      28.402  -7.300  14.980  1.00  0.00     0.000 C 
ENDROOT
BRANCH   1   2
ATOM      2  C   UNL     1      29.658  -7.258  15.869  1.00  0.00     0.000 C 
BRANCH   2   3
ATOM      3  C   UNL     1      29.476  -8.040  17.180  1.00  0.00     0.000 C 
BRANCH   3   4
ATOM      4  C   UNL     1      30.801  -8.621  17.707  1.00  0.00     0.000 C 
BRANCH   4   5
ATOM      5  C   UNL     1      30.625 -10.003  18.358  1.00  0.00     0.001 C 
BRANCH   5   6
ATOM      6  C   UNL     1      29.322 -10.698  17.926  1.00  0.00     0.009 C 
BRANCH   6   7
ATOM      7  C   UNL     1      28.435 -11.096  19.126  1.00  0.00     0.032 C 
ATOM      8  C   UNL     1      28.956 -10.525  20.452  1.00  0.00     0.014 C 
BRANCH   7   9
ATOM      9  C   UNL     1      27.026 -10.620  18.896  1.00  0.00     0.044 C 
ATOM     10  O   UNL     1      26.523 -10.666  17.744  1.00  0.00    -0.550 OA
ATOM     11  O   UNL     1      26.270 -10.127  19.954  1.00  0.00    -0.550 OA
ENDBRANCH   7   9
ENDBRANCH   6   7
ENDBRANCH   5   6
ENDBRANCH   4   5
ENDBRANCH   3   4
ENDBRANCH   2   3
ENDBRANCH   1   2
BRANCH   1  12
ATOM     12  C   UNL     1      27.529  -8.536  15.249  1.00  0.00     0.000 C 
BRANCH  12  13
ATOM     13  C   UNL     1      26.782  -9.016  13.996  1.00  0.00    -0.000 C 
BRANCH  13  14
ATOM     14  C   UNL     1      27.194  -8.199  12.765  1.00  0.00    -0.000 C 
BRANCH  14  15
ATOM     15  C   UNL     1      27.914  -9.083  11.735  1.00  0.00    -0.000 C 
BRANCH  15  16
ATOM     16  C   UNL     1      29.420  -9.211  12.013  1.00  0.00    -0.000 C 
BRANCH  16  17
ATOM     17  C   UNL     1      29.847 -10.661  12.302  1.00  0.00    -0.000 C 
BRANCH  17  18
ATOM     18  C   UNL     1      29.877 -10.977  13.807  1.00  0.00    -0.003 C 
ATOM     19  C   UNL     1      31.124 -10.430  14.502  1.00  0.00     0.004 C 
ENDBRANCH  17  18
ENDBRANCH  16  17
ENDBRANCH  15  16
ENDBRANCH  14  15
ENDBRANCH  13  14
ENDBRANCH  12  13
ENDBRANCH   1  12
TORSDOF 14
ENDMDL
MODEL 2
REMARK VINA RESULT:    -1.207      3.250      6.129
REMARK INTER + INTRA:          -4.583
REMARK INTER:                  -1.726
REMARK INTRA:                  -2.858
REMARK UNBOUND:                -2.388
REMARK SMILES CCCCCCCCCCCCCC[C@@H](C)C(=O)[O-]
REMARK SMILES IDX 9 1 10 2 11 3 12 4 13 5 14 6 15 7 16 8 17 9 18 10 19 11 8 12
REMARK SMILES IDX 7 13 6 14 5 15 4 16 3 17 2 18 1 19
REMARK H PARENT
REMARK Flexibility Score: inf
ROOT
ATOM      1  C   UNL     1      27.233  -7.606  17.567  1.00  0.00     0.000 C 
ENDROOT
BRANCH   1   2
ATOM      2  C   UNL     1      26.645  -8.753  16.727  1.00  0.00     0.000 C 
BRANCH   2   3
ATOM      3  C   UNL     1      27.218  -8.791  15.301  1.00  0.00     0.000 C 
BRANCH   3   4
ATOM      4  C   UNL     1      27.766 -10.179  14.924  1.00  0.00     0.000 C 
BRANCH   4   5
ATOM      5  C   UNL     1      28.746 -10.129  13.740  1.00  0.00     0.001 C 
BRANCH   5   6
ATOM      6  C   UNL     1      28.572  -8.863  12.883  1.00  0.00     0.009 C 
BRANCH   6   7
ATOM      7  C   UNL     1      29.921  -8.239  12.463  1.00  0.00     0.032 C 
ATOM      8  C   UNL     1      31.120  -8.966  13.086  1.00  0.00     0.014 C 
BRANCH   7   9
ATOM      9  C   UNL     1      30.046  -8.262  10.964  1.00  0.00     0.044 C 
ATOM     10  O   UNL     1      30.896  -7.533  10.388  1.00  0.00    -0.550 OA
ATOM     11  O   UNL     1      29.227  -9.089  10.204  1.00  0.00    -0.550 OA
ENDBRANCH   7   9
ENDBRANCH   6   7
ENDBRANCH   5   6
ENDBRANCH   4   5
ENDBRANCH   3   4
ENDBRANCH   2   3
ENDBRANCH   1   2
BRANCH   1  12
ATOM     12  C   UNL     1      28.480  -6.980  16.921  1.00  0.00     0.000 C 
BRANCH  12  13
ATOM     13  C   UNL     1      29.757  -7.234  17.735  1.00  0.00    -0.000 C 
BRANCH  13  14
ATOM     14  C   UNL     1      30.901  -7.706  16.830  1.00  0.00    -0.000 C 
BRANCH  14  15
ATOM     15  C   UNL     1      30.916  -9.239  16.716  1.00  0.00    -0.000 C 
BRANCH  15  16
ATOM     16  C   UNL     1      30.537  -9.935  18.034  1.00  0.00    -0.000 C 
BRANCH  16  17
ATOM     17  C   UNL     1      29.573 -11.115  17.824  1.00  0.00    -0.000 C 
BRANCH  17  18
ATOM     18  C   UNL     1      28.420 -11.121  18.841  1.00  0.00    -0.003 C 
ATOM     19  C   UNL     1      28.635 -10.132  19.987  1.00  0.00     0.004 C 
ENDBRANCH  17  18
ENDBRANCH  16  17
ENDBRANCH  15  16
ENDBRANCH  14  15
ENDBRANCH  13  14
ENDBRANCH  12  13
ENDBRANCH   1  12
TORSDOF 14
ENDMDL
MODEL 3
REMARK VINA RESULT:    -1.150     13.298     15.588
REMARK INTER + INTRA:          -4.479
REMARK INTER:                  -1.560
REMARK INTRA:                  -2.919
REMARK UNBOUND:                -2.388
REMARK SMILES CCCCCCCCCCCCCC[C@@H](C)C(=O)[O-]
REMARK SMILES IDX 9 1 10 2 11 3 12 4 13 5 14 6 15 7 16 8 17 9 18 10 19 11 8 12
REMARK SMILES IDX 7 13 6 14 5 15 4 16 3 17 2 18 1 19
REMARK H PARENT
REMARK Flexibility Score: inf
ROOT
ATOM      1  C   UNL     1      14.499  -7.095  18.818  1.00  0.00     0.000 C 
ENDROOT
BRANCH   1   2
ATOM      2  C   UNL     1      14.510  -8.590  19.185  1.00  0.00     0.000 C 
BRANCH   2   3
ATOM      3  C   UNL     1      15.412  -9.417  18.254  1.00  0.00     0.000 C 
BRANCH   3   4
ATOM      4  C   UNL     1      15.945  -8.594  17.067  1.00  0.00     0.000 C 
BRANCH   4   5
ATOM      5  C   UNL     1      15.377  -9.064  15.717  1.00  0.00     0.001 C 
BRANCH   5   6
ATOM      6  C   UNL     1      15.731 -10.528  15.405  1.00  0.00     0.009 C 
BRANCH   6   7
ATOM      7  C   UNL     1      15.158 -11.004  14.052  1.00  0.00     0.032 C 
ATOM      8  C   UNL     1      13.985 -10.134  13.578  1.00  0.00     0.014 C 
BRANCH   7   9
ATOM      9  C   UNL     1      16.241 -10.993  13.009  1.00  0.00     0.044 C 
ATOM     10  O   UNL     1      17.446 -10.866  13.349  1.00  0.00    -0.550 OA
ATOM     11  O   UNL     1      15.921 -11.125  11.662  1.00  0.00    -0.550 OA
ENDBRANCH   7   9
ENDBRANCH   6   7
ENDBRANCH   5   6
ENDBRANCH   4   5
ENDBRANCH   3   4
ENDBRANCH   2   3
ENDBRANCH   1   2
BRANCH   1  12
ATOM     12  C   UNL     1      13.171  -6.409  19.176  1.00  0.00     0.000 C 
BRANCH  12  13
ATOM     13  C   UNL     1      12.030  -6.800  18.225  1.00  0.00    -0.000 C 
BRANCH  13  14
ATOM     14  C   UNL     1      12.478  -6.703  16.761  1.00  0.00    -0.000 C 
BRANCH  14  15
ATOM     15  C   UNL     1      12.028  -7.939  15.966  1.00  0.00    -0.000 C 
BRANCH  15  16
ATOM     16  C   UNL     1      11.365  -9.006  16.852  1.00  0.00    -0.000 C 
BRANCH  16  17
ATOM     17  C   UNL     1      12.061 -10.374  16.751  1.00  0.00    -0.000 C 
BRANCH  17  18
ATOM     18  C   UNL     1      12.080 -11.125  18.093  1.00  0.00    -0.003 C 
ATOM     19  C   UNL     1      11.267 -10.420  19.179  1.00  0.00     0.004 C 
ENDBRANCH  17  18
ENDBRANCH  16  17
ENDBRANCH  15  16
ENDBRANCH  14  15
ENDBRANCH  13  14
ENDBRANCH  12  13
ENDBRANCH   1  12
TORSDOF 14
ENDMDL
MODEL 4
REMARK VINA RESULT:    -1.126      2.522      5.101
REMARK INTER + INTRA:          -4.435
REMARK INTER:                  -1.488
REMARK INTRA:                  -2.947
REMARK UNBOUND:                -2.388
REMARK SMILES CCCCCCCCCCCCCC[C@@H](C)C(=O)[O-]
REMARK SMILES IDX 9 1 10 2 11 3 12 4 13 5 14 6 15 7 16 8 17 9 18 10 19 11 8 12
REMARK SMILES IDX 7 13 6 14 5 15 4 16 3 17 2 18 1 19
REMARK H PARENT
REMARK Flexibility Score: inf
ROOT
ATOM      1  C   UNL     1      27.519  -7.012  16.096  1.00  0.00     0.000 C 
ENDROOT
BRANCH   1   2
ATOM      2  C   UNL     1      27.926  -7.817  14.849  1.00  0.00     0.000 C 
BRANCH   2   3
ATOM      3  C   UNL     1      29.442  -8.069  14.781  1.00  0.00     0.000 C 
BRANCH   3   4
ATOM      4  C   UNL     1      30.231  -7.176  15.755  1.00  0.00     0.000 C 
BRANCH   4   5
ATOM      5  C   UNL     1      31.085  -7.987  16.744  1.00  0.00     0.001 C 
BRANCH   5   6
ATOM      6  C   UNL     1      30.917  -9.505  16.562  1.00  0.00     0.009 C 
BRANCH   6   7
ATOM      7  C   UNL     1      30.738 -10.250  17.904  1.00  0.00     0.032 C 
ATOM      8  C   UNL     1      31.125  -9.381  19.109  1.00  0.00     0.014 C 
BRANCH   7   9
ATOM      9  C   UNL     1      29.310 -10.698  18.049  1.00  0.00     0.044 C 
ATOM     10  O   UNL     1      28.539 -10.691  17.054  1.00  0.00    -0.550 OA
ATOM     11  O   UNL     1      28.830 -11.125  19.283  1.00  0.00    -0.550 OA
ENDBRANCH   7   9
ENDBRANCH   6   7
ENDBRANCH   5   6
ENDBRANCH   4   5
ENDBRANCH   3   4
ENDBRANCH   2   3
ENDBRANCH   1   2
BRANCH   1  12
ATOM     12  C   UNL     1      26.622  -7.817  17.050  1.00  0.00     0.000 C 
BRANCH  12  13
ATOM     13  C   UNL     1      26.701  -7.314  18.499  1.00  0.00    -0.000 C 
BRANCH  13  14
ATOM     14  C   UNL     1      28.132  -7.426  19.042  1.00  0.00    -0.000 C 
BRANCH  14  15
ATOM     15  C   UNL     1      28.558  -6.125  19.741  1.00  0.00    -0.000 C 
BRANCH  15  16
ATOM     16  C   UNL     1      29.720  -5.419  19.023  1.00  0.00    -0.000 C 
BRANCH  16  17
ATOM     17  C   UNL     1      29.237  -4.363  18.014  1.00  0.00    -0.000 C 
BRANCH  17  18
ATOM     18  C   UNL     1      27.926  -3.689  18.450  1.00  0.00    -0.003 C 
ATOM     19  C   UNL     1      26.915  -3.565  17.309  1.00  0.00     0.004 C 
ENDBRANCH  17  18
ENDBRANCH  16  17
ENDBRANCH  15  16
ENDBRANCH  14  15
ENDBRANCH  13  14
ENDBRANCH  12  13
ENDBRANCH   1  12
TORSDOF 14
ENDMDL
MODEL 5
REMARK VINA RESULT:    -1.120      2.640      5.552
REMARK INTER + INTRA:          -4.424
REMARK INTER:                  -1.686
REMARK INTRA:                  -2.739
REMARK UNBOUND:                -2.388
REMARK SMILES CCCCCCCCCCCCCC[C@@H](C)C(=O)[O-]
REMARK SMILES IDX 9 1 10 2 11 3 12 4 13 5 14 6 15 7 16 8 17 9 18 10 19 11 8 12
REMARK SMILES IDX 7 13 6 14 5 15 4 16 3 17 2 18 1 19
REMARK H PARENT
REMARK Flexibility Score: inf
ROOT
ATOM      1  C   UNL     1      27.509  -7.325  17.518  1.00  0.00     0.000 C 
ENDROOT
BRANCH   1   2
ATOM      2  C   UNL     1      27.296  -6.015  16.738  1.00  0.00     0.000 C 
BRANCH   2   3
ATOM      3  C   UNL     1      28.450  -5.716  15.766  1.00  0.00     0.000 C 
BRANCH   3   4
ATOM      4  C   UNL     1      29.822  -6.106  16.345  1.00  0.00     0.000 C 
BRANCH   4   5
ATOM      5  C   UNL     1      30.573  -7.116  15.460  1.00  0.00     0.001 C 
BRANCH   5   6
ATOM      6  C   UNL     1      29.658  -7.788  14.422  1.00  0.00     0.009 C 
BRANCH   6   7
ATOM      7  C   UNL     1      29.293  -9.239  14.801  1.00  0.00     0.032 C 
ATOM      8  C   UNL     1      27.837  -9.584  14.456  1.00  0.00     0.014 C 
BRANCH   7   9
ATOM      9  C   UNL     1      30.214 -10.196  14.094  1.00  0.00     0.044 C 
ATOM     10  O   UNL     1      30.165 -10.312  12.842  1.00  0.00    -0.550 OA
ATOM     11  O   UNL     1      31.125 -10.957  14.818  1.00  0.00    -0.550 OA
ENDBRANCH   7   9
ENDBRANCH   6   7
ENDBRANCH   5   6
ENDBRANCH   4   5
ENDBRANCH   3   4
ENDBRANCH   2   3
ENDBRANCH   1   2
BRANCH   1  12
ATOM     12  C   UNL     1      26.792  -7.325  18.878  1.00  0.00     0.000 C 
BRANCH  12  13
ATOM     13  C   UNL     1      27.766  -7.443  20.059  1.00  0.00    -0.000 C 
BRANCH  13  14
ATOM     14  C   UNL     1      29.216  -7.264  19.594  1.00  0.00    -0.000 C 
BRANCH  14  15
ATOM     15  C   UNL     1      30.188  -8.000  20.531  1.00  0.00    -0.000 C 
BRANCH  15  16
ATOM     16  C   UNL     1      30.797  -9.255  19.886  1.00  0.00    -0.000 C 
BRANCH  16  17
ATOM     17  C   UNL     1      30.490  -9.356  18.382  1.00  0.00    -0.000 C 
BRANCH  17  18
ATOM     18  C   UNL     1      29.895 -10.720  17.993  1.00  0.00    -0.003 C 
ATOM     19  C   UNL     1      28.391 -10.806  18.254  1.00  0.00     0.004 C 
ENDBRANCH  17  18
ENDBRANCH  16  17
ENDBRANCH  15  16
ENDBRANCH  14  15
ENDBRANCH  13  14
ENDBRANCH  12  13
ENDBRANCH   1  12
TORSDOF 14
ENDMDL
MODEL 6
REMARK VINA RESULT:    -1.096      2.574      4.659
REMARK INTER + INTRA:          -4.381
REMARK INTER:                  -1.824
REMARK INTRA:                  -2.558
REMARK UNBOUND:                -2.388
REMARK SMILES CCCCCCCCCCCCCC[C@@H](C)C(=O)[O-]
REMARK SMILES IDX 9 1 10 2 11 3 12 4 13 5 14 6 15 7 16 8 17 9 18 10 19 11 8 12
REMARK SMILES IDX 7 13 6 14 5 15 4 16 3 17 2 18 1 19
REMARK H PARENT
REMARK Flexibility Score: inf
ROOT
ATOM      1  C   UNL     1      27.872  -7.175  16.249  1.00  0.00     0.000 C 
ENDROOT
BRANCH   1   2
ATOM      2  C   UNL     1      28.471  -7.722  14.941  1.00  0.00     0.000 C 
BRANCH   2   3
ATOM      3  C   UNL     1      29.885  -8.292  15.135  1.00  0.00     0.000 C 
BRANCH   3   4
ATOM      4  C   UNL     1      29.871  -9.784  15.512  1.00  0.00     0.000 C 
BRANCH   4   5
ATOM      5  C   UNL     1      30.844 -10.116  16.656  1.00  0.00     0.001 C 
BRANCH   5   6
ATOM      6  C   UNL     1      30.117 -10.484  17.962  1.00  0.00     0.009 C 
BRANCH   6   7
ATOM      7  C   UNL     1      30.526  -9.581  19.146  1.00  0.00     0.032 C 
ATOM      8  C   UNL     1      30.313  -8.091  18.845  1.00  0.00     0.014 C 
BRANCH   7   9
ATOM      9  C   UNL     1      29.739  -9.961  20.370  1.00  0.00     0.044 C 
ATOM     10  O   UNL     1      30.036  -9.471  21.491  1.00  0.00    -0.550 OA
ATOM     11  O   UNL     1      28.677 -10.854  20.273  1.00  0.00    -0.550 OA
ENDBRANCH   7   9
ENDBRANCH   6   7
ENDBRANCH   5   6
ENDBRANCH   4   5
ENDBRANCH   3   4
ENDBRANCH   2   3
ENDBRANCH   1   2
BRANCH   1  12
ATOM     12  C   UNL     1      26.565  -7.883  16.641  1.00  0.00     0.000 C 
BRANCH  12  13
ATOM     13  C   UNL     1      26.746  -8.844  17.825  1.00  0.00    -0.000 C 
BRANCH  13  14
ATOM     14  C   UNL     1      26.607 -10.303  17.374  1.00  0.00    -0.000 C 
BRANCH  14  15
ATOM     15  C   UNL     1      25.696 -10.413  16.141  1.00  0.00    -0.000 C 
BRANCH  15  16
ATOM     16  C   UNL     1      24.243 -10.758  16.507  1.00  0.00    -0.000 C 
BRANCH  16  17
ATOM     17  C   UNL     1      23.273  -9.595  16.238  1.00  0.00    -0.000 C 
BRANCH  17  18
ATOM     18  C   UNL     1      22.602  -9.079  17.522  1.00  0.00    -0.003 C 
ATOM     19  C   UNL     1      23.179  -9.712  18.788  1.00  0.00     0.004 C 
ENDBRANCH  17  18
ENDBRANCH  16  17
ENDBRANCH  15  16
ENDBRANCH  14  15
ENDBRANCH  13  14
ENDBRANCH  12  13
ENDBRANCH   1  12
TORSDOF 14
ENDMDL
MODEL 7
REMARK VINA RESULT:    -1.055      2.923      5.219
REMARK INTER + INTRA:          -4.306
REMARK INTER:                  -1.590
REMARK INTRA:                  -2.716
REMARK UNBOUND:                -2.388
REMARK SMILES CCCCCCCCCCCCCC[C@@H](C)C(=O)[O-]
REMARK SMILES IDX 9 1 10 2 11 3 12 4 13 5 14 6 15 7 16 8 17 9 18 10 19 11 8 12
REMARK SMILES IDX 7 13 6 14 5 15 4 16 3 17 2 18 1 19
REMARK H PARENT
REMARK Flexibility Score: inf
ROOT
ATOM      1  C   UNL     1      27.180  -7.031  16.150  1.00  0.00     0.000 C 
ENDROOT
BRANCH   1   2
ATOM      2  C   UNL     1      26.310  -7.897  17.079  1.00  0.00     0.000 C 
BRANCH   2   3
ATOM      3  C   UNL     1      26.569  -9.401  16.892  1.00  0.00     0.000 C 
BRANCH   3   4
ATOM      4  C   UNL     1      25.323 -10.155  16.393  1.00  0.00     0.000 C 
BRANCH   4   5
ATOM      5  C   UNL     1      25.508 -10.738  14.982  1.00  0.00     0.001 C 
BRANCH   5   6
ATOM      6  C   UNL     1      24.922  -9.832  13.886  1.00  0.00     0.009 C 
BRANCH   6   7
ATOM      7  C   UNL     1      23.838  -8.872  14.424  1.00  0.00     0.032 C 
ATOM      8  C   UNL     1      24.095  -7.415  14.015  1.00  0.00     0.014 C 
BRANCH   7   9
ATOM      9  C   UNL     1      22.486  -9.300  13.923  1.00  0.00     0.044 C 
ATOM     10  O   UNL     1      22.360 -10.375  13.282  1.00  0.00    -0.550 OA
ATOM     11  O   UNL     1      21.366  -8.513  14.167  1.00  0.00    -0.550 OA
ENDBRANCH   7   9
ENDBRANCH   6   7
ENDBRANCH   5   6
ENDBRANCH   4   5
ENDBRANCH   3   4
ENDBRANCH   2   3
ENDBRANCH   1   2
BRANCH   1  12
ATOM     12  C   UNL     1      27.859  -7.851  15.042  1.00  0.00     0.000 C 
BRANCH  12  13
ATOM     13  C   UNL     1      29.389  -7.721  15.065  1.00  0.00    -0.000 C 
BRANCH  13  14
ATOM     14  C   UNL     1      30.053  -8.921  14.378  1.00  0.00    -0.000 C 
BRANCH  14  15
ATOM     15  C   UNL     1      29.398 -10.239  14.821  1.00  0.00    -0.000 C 
BRANCH  15  16
ATOM     16  C   UNL     1      30.344 -11.121  15.652  1.00  0.00    -0.000 C 
BRANCH  16  17
ATOM     17  C   UNL     1      30.026 -11.074  17.157  1.00  0.00    -0.000 C 
BRANCH  17  18
ATOM     18  C   UNL     1      30.774  -9.942  17.881  1.00  0.00    -0.003 C 
ATOM     19  C   UNL     1      29.831  -8.952  18.565  1.00  0.00     0.004 C 
ENDBRANCH  17  18
ENDBRANCH  16  17
ENDBRANCH  15  16
ENDBRANCH  14  15
ENDBRANCH  13  14
ENDBRANCH  12  13
ENDBRANCH   1  12
TORSDOF 14
ENDMDL
MODEL 8
REMARK VINA RESULT:    -0.997      3.681      5.124
REMARK INTER + INTRA:          -4.200
REMARK INTER:                  -1.358
REMARK INTRA:                  -2.843
REMARK UNBOUND:                -2.388
REMARK SMILES CCCCCCCCCCCCCC[C@@H](C)C(=O)[O-]
REMARK SMILES IDX 9 1 10 2 11 3 12 4 13 5 14 6 15 7 16 8 17 9 18 10 19 11 8 12
REMARK SMILES IDX 7 13 6 14 5 15 4 16 3 17 2 18 1 19
REMARK H PARENT
REMARK Flexibility Score: inf
ROOT
ATOM      1  C   UNL     1      26.963  -6.667  19.074  1.00  0.00     0.000 C 
ENDROOT
BRANCH   1   2
ATOM      2  C   UNL     1      28.316  -6.844  18.362  1.00  0.00     0.000 C 
BRANCH   2   3
ATOM      3  C   UNL     1      29.418  -5.958  18.966  1.00  0.00     0.000 C 
BRANCH   3   4
ATOM      4  C   UNL     1      30.599  -6.779  19.514  1.00  0.00     0.000 C 
BRANCH   4   5
ATOM      5  C   UNL     1      30.509  -7.008  21.032  1.00  0.00     0.001 C 
BRANCH   5   6
ATOM      6  C   UNL     1      30.577  -8.498  21.410  1.00  0.00     0.009 C 
BRANCH   6   7
ATOM      7  C   UNL     1      30.141  -8.763  22.867  1.00  0.00     0.032 C 
ATOM      8  C   UNL     1      28.965  -7.875  23.295  1.00  0.00     0.014 C 
BRANCH   7   9
ATOM      9  C   UNL     1      29.759 -10.210  23.028  1.00  0.00     0.044 C 
ATOM     10  O   UNL     1      30.411 -11.106  22.432  1.00  0.00    -0.550 OA
ATOM     11  O   UNL     1      28.686 -10.566  23.837  1.00  0.00    -0.550 OA
ENDBRANCH   7   9
ENDBRANCH   6   7
ENDBRANCH   5   6
ENDBRANCH   4   5
ENDBRANCH   3   4
ENDBRANCH   2   3
ENDBRANCH   1   2
BRANCH   1  12
ATOM     12  C   UNL     1      26.876  -7.466  20.384  1.00  0.00     0.000 C 
BRANCH  12  13
ATOM     13  C   UNL     1      25.978  -8.706  20.261  1.00  0.00    -0.000 C 
BRANCH  13  14
ATOM     14  C   UNL     1      26.714  -9.966  20.731  1.00  0.00    -0.000 C 
BRANCH  14  15
ATOM     15  C   UNL     1      27.926 -10.261  19.834  1.00  0.00    -0.000 C 
BRANCH  15  16
ATOM     16  C   UNL     1      27.528 -10.583  18.384  1.00  0.00    -0.000 C 
BRANCH  16  17
ATOM     17  C   UNL     1      28.678 -10.351  17.389  1.00  0.00    -0.000 C 
BRANCH  17  18
ATOM     18  C   UNL     1      30.056 -10.355  18.071  1.00  0.00    -0.003 C 
ATOM     19  C   UNL     1      31.125  -9.632  17.252  1.00  0.00     0.004 C 
ENDBRANCH  17  18
ENDBRANCH  16  17
ENDBRANCH  15  16
ENDBRANCH  14  15
ENDBRANCH  13  14
ENDBRANCH  12  13
ENDBRANCH   1  12
TORSDOF 14
ENDMDL
