MODEL 1
REMARK VINA RESULT:    -7.207      0.000      0.000
REMARK INTER + INTRA:          -7.839
REMARK INTER:                  -7.839
REMARK INTRA:                   0.000
REMARK UNBOUND:                 0.000
REMARK SMILES Cc1cc(O)c2c(c1)C(=O)c1cc(O)cc(O)c1C2=O
REMARK SMILES IDX 1 1 2 2 8 3 7 4 6 5 4 6 3 7 19 8 20 9 18 10 11 11 9 12 10 13
REMARK SMILES IDX 12 14 13 15 15 16 16 17 5 18 17 20 14 22
REMARK H PARENT 5 19 17 21 14 23
REMARK Flexibility Score: inf
ROOT
ATOM      1  C   UNL     1     134.243 130.708 142.930  1.00  0.00     0.044 C 
ATOM      2  C   UNL     1     134.081 131.499 144.194  1.00  0.00    -0.047 A 
ATOM      3  C   UNL     1     134.614 132.790 144.291  1.00  0.00     0.016 A 
ATOM      4  C   UNL     1     134.443 133.549 145.460  1.00  0.00     0.038 A 
ATOM      5  C   UNL     1     133.728 133.008 146.551  1.00  0.00     0.076 A 
ATOM      6  C   UNL     1     133.118 131.735 146.416  1.00  0.00     0.127 A 
ATOM      7  C   UNL     1     133.319 130.990 145.250  1.00  0.00     0.050 A 
ATOM      8  C   UNL     1     133.695 133.779 147.821  1.00  0.00     0.201 C 
ATOM      9  O   UNL     1     133.606 133.171 148.921  1.00  0.00    -0.288 OA
ATOM     10  C   UNL     1     133.955 135.242 147.804  1.00  0.00     0.076 A 
ATOM     11  C   UNL     1     134.670 135.780 146.709  1.00  0.00     0.041 A 
ATOM     12  C   UNL     1     135.006 134.918 145.551  1.00  0.00     0.194 C 
ATOM     13  O   UNL     1     135.751 135.357 144.632  1.00  0.00    -0.289 OA
ATOM     14  C   UNL     1     135.055 137.131 146.722  1.00  0.00     0.059 A 
ATOM     15  C   UNL     1     134.722 137.953 147.802  1.00  0.00     0.120 A 
ATOM     16  C   UNL     1     133.983 137.437 148.864  1.00  0.00     0.093 A 
ATOM     17  C   UNL     1     133.570 136.100 148.867  1.00  0.00     0.131 A 
ENDROOT
BRANCH   6  18
ATOM     18  O   UNL     1     132.280 131.192 147.392  1.00  0.00    -0.507 OA
ATOM     19  H   UNL     1     132.108 130.201 147.493  1.00  0.00     0.293 HD
ENDBRANCH   6  18
BRANCH  17  20
ATOM     20  O   UNL     1     132.756 135.679 149.920  1.00  0.00    -0.507 OA
ATOM     21  H   UNL     1     131.867 135.217 149.790  1.00  0.00     0.293 HD
ENDBRANCH  17  20
BRANCH  15  22
ATOM     22  O   UNL     1     135.113 139.291 147.823  1.00  0.00    -0.508 OA
ATOM     23  H   UNL     1     135.642 139.701 147.062  1.00  0.00     0.293 HD
ENDBRANCH  15  22
TORSDOF 3
ENDMDL
MODEL 2
REMARK VINA RESULT:    -6.936      1.684      6.232
REMARK INTER + INTRA:          -7.544
REMARK INTER:                  -7.544
REMARK INTRA:                   0.000
REMARK UNBOUND:                 0.000
REMARK SMILES Cc1cc(O)c2c(c1)C(=O)c1cc(O)cc(O)c1C2=O
REMARK SMILES IDX 1 1 2 2 8 3 7 4 6 5 4 6 3 7 19 8 20 9 18 10 11 11 9 12 10 13
REMARK SMILES IDX 12 14 13 15 15 16 16 17 5 18 17 20 14 22
REMARK H PARENT 5 19 17 21 14 23
REMARK Flexibility Score: inf
ROOT
ATOM      1  C   UNL     1     134.467 138.205 148.487  1.00  0.00     0.044 C 
ATOM      2  C   UNL     1     134.559 136.900 147.753  1.00  0.00    -0.047 A 
ATOM      3  C   UNL     1     134.057 135.729 148.332  1.00  0.00     0.016 A 
ATOM      4  C   UNL     1     134.114 134.508 147.641  1.00  0.00     0.038 A 
ATOM      5  C   UNL     1     134.681 134.456 146.349  1.00  0.00     0.076 A 
ATOM      6  C   UNL     1     135.109 135.660 145.733  1.00  0.00     0.127 A 
ATOM      7  C   UNL     1     135.062 136.861 146.448  1.00  0.00     0.050 A 
ATOM      8  C   UNL     1     134.858 133.126 145.711  1.00  0.00     0.201 C 
ATOM      9  O   UNL     1     135.806 132.939 144.903  1.00  0.00    -0.288 OA
ATOM     10  C   UNL     1     134.037 131.974 146.167  1.00  0.00     0.076 A 
ATOM     11  C   UNL     1     133.469 132.030 147.461  1.00  0.00     0.041 A 
ATOM     12  C   UNL     1     133.574 133.273 148.260  1.00  0.00     0.194 C 
ATOM     13  O   UNL     1     133.181 133.287 149.460  1.00  0.00    -0.289 OA
ATOM     14  C   UNL     1     132.803 130.906 147.980  1.00  0.00     0.059 A 
ATOM     15  C   UNL     1     132.684 129.739 147.222  1.00  0.00     0.120 A 
ATOM     16  C   UNL     1     133.208 129.693 145.931  1.00  0.00     0.093 A 
ATOM     17  C   UNL     1     133.857 130.804 145.383  1.00  0.00     0.131 A 
ENDROOT
BRANCH   6  18
ATOM     18  O   UNL     1     135.552 135.715 144.410  1.00  0.00    -0.507 OA
ATOM     19  H   UNL     1     135.717 136.578 143.911  1.00  0.00     0.293 HD
ENDBRANCH   6  18
BRANCH  17  20
ATOM     20  O   UNL     1     134.275 130.716 144.053  1.00  0.00    -0.507 OA
ATOM     21  H   UNL     1     134.634 129.869 143.635  1.00  0.00     0.293 HD
ENDBRANCH  17  20
BRANCH  15  22
ATOM     22  O   UNL     1     132.036 128.619 147.739  1.00  0.00    -0.508 OA
ATOM     23  H   UNL     1     131.737 127.856 147.143  1.00  0.00     0.293 HD
ENDBRANCH  15  22
TORSDOF 3
ENDMDL
MODEL 3
REMARK VINA RESULT:    -6.777      2.462      6.200
REMARK INTER + INTRA:          -7.371
REMARK INTER:                  -7.371
REMARK INTRA:                   0.000
REMARK UNBOUND:                 0.000
REMARK SMILES Cc1cc(O)c2c(c1)C(=O)c1cc(O)cc(O)c1C2=O
REMARK SMILES IDX 1 1 2 2 8 3 7 4 6 5 4 6 3 7 19 8 20 9 18 10 11 11 9 12 10 13
REMARK SMILES IDX 12 14 13 15 15 16 16 17 5 18 17 20 14 22
REMARK H PARENT 5 19 17 21 14 23
REMARK Flexibility Score: inf
ROOT
ATOM      1  C   UNL     1     132.456 136.148 149.879  1.00  0.00     0.044 C 
ATOM      2  C   UNL     1     133.515 136.310 148.828  1.00  0.00    -0.047 A 
ATOM      3  C   UNL     1     134.010 135.192 148.148  1.00  0.00     0.016 A 
ATOM      4  C   UNL     1     134.981 135.337 147.143  1.00  0.00     0.038 A 
ATOM      5  C   UNL     1     135.465 136.622 146.814  1.00  0.00     0.076 A 
ATOM      6  C   UNL     1     134.899 137.758 147.446  1.00  0.00     0.127 A 
ATOM      7  C   UNL     1     133.948 137.588 148.458  1.00  0.00     0.050 A 
ATOM      8  C   UNL     1     136.595 136.723 145.854  1.00  0.00     0.201 C 
ATOM      9  O   UNL     1     137.412 137.677 145.945  1.00  0.00    -0.288 OA
ATOM     10  C   UNL     1     136.866 135.604 144.913  1.00  0.00     0.076 A 
ATOM     11  C   UNL     1     136.378 134.319 145.246  1.00  0.00     0.041 A 
ATOM     12  C   UNL     1     135.494 134.147 146.423  1.00  0.00     0.194 C 
ATOM     13  O   UNL     1     135.159 132.989 146.797  1.00  0.00    -0.289 OA
ATOM     14  C   UNL     1     136.730 133.212 144.455  1.00  0.00     0.059 A 
ATOM     15  C   UNL     1     137.546 133.373 143.332  1.00  0.00     0.120 A 
ATOM     16  C   UNL     1     137.996 134.644 142.978  1.00  0.00     0.093 A 
ATOM     17  C   UNL     1     137.644 135.765 143.737  1.00  0.00     0.131 A 
ENDROOT
BRANCH   6  18
ATOM     18  O   UNL     1     135.222 139.066 147.079  1.00  0.00    -0.507 OA
ATOM     19  H   UNL     1     134.696 139.877 147.377  1.00  0.00     0.293 HD
ENDBRANCH   6  18
BRANCH  17  20
ATOM     20  O   UNL     1     138.057 137.015 143.270  1.00  0.00    -0.507 OA
ATOM     21  H   UNL     1     139.025 137.297 143.208  1.00  0.00     0.293 HD
ENDBRANCH  17  20
BRANCH  15  22
ATOM     22  O   UNL     1     137.906 132.275 142.553  1.00  0.00    -0.508 OA
ATOM     23  H   UNL     1     137.212 131.640 142.179  1.00  0.00     0.293 HD
ENDBRANCH  15  22
TORSDOF 3
ENDMDL
MODEL 4
REMARK VINA RESULT:    -6.716      1.266      1.479
REMARK INTER + INTRA:          -7.305
REMARK INTER:                  -7.305
REMARK INTRA:                   0.000
REMARK UNBOUND:                 0.000
REMARK SMILES Cc1cc(O)c2c(c1)C(=O)c1cc(O)cc(O)c1C2=O
REMARK SMILES IDX 1 1 2 2 8 3 7 4 6 5 4 6 3 7 19 8 20 9 18 10 11 11 9 12 10 13
REMARK SMILES IDX 12 14 13 15 15 16 16 17 5 18 17 20 14 22
REMARK H PARENT 5 19 17 21 14 23
REMARK Flexibility Score: inf
ROOT
ATOM      1  C   UNL     1     134.492 130.107 143.007  1.00  0.00     0.044 C 
ATOM      2  C   UNL     1     134.354 131.211 144.013  1.00  0.00    -0.047 A 
ATOM      3  C   UNL     1     135.238 132.295 143.995  1.00  0.00     0.016 A 
ATOM      4  C   UNL     1     135.100 133.347 144.916  1.00  0.00     0.038 A 
ATOM      5  C   UNL     1     134.060 133.314 145.871  1.00  0.00     0.076 A 
ATOM      6  C   UNL     1     133.116 132.255 145.829  1.00  0.00     0.127 A 
ATOM      7  C   UNL     1     133.286 131.209 144.918  1.00  0.00     0.050 A 
ATOM      8  C   UNL     1     134.034 134.366 146.919  1.00  0.00     0.201 C 
ATOM      9  O   UNL     1     133.555 134.108 148.055  1.00  0.00    -0.288 OA
ATOM     10  C   UNL     1     134.740 135.654 146.690  1.00  0.00     0.076 A 
ATOM     11  C   UNL     1     135.780 135.684 145.731  1.00  0.00     0.041 A 
ATOM     12  C   UNL     1     136.037 134.496 144.884  1.00  0.00     0.194 C 
ATOM     13  O   UNL     1     137.040 134.472 144.118  1.00  0.00    -0.289 OA
ATOM     14  C   UNL     1     136.560 136.843 145.585  1.00  0.00     0.059 A 
ATOM     15  C   UNL     1     136.308 137.973 146.367  1.00  0.00     0.120 A 
ATOM     16  C   UNL     1     135.259 137.961 147.284  1.00  0.00     0.093 A 
ATOM     17  C   UNL     1     134.453 136.827 147.436  1.00  0.00     0.131 A 
ENDROOT
BRANCH   6  18
ATOM     18  O   UNL     1     131.984 132.222 146.645  1.00  0.00    -0.507 OA
ATOM     19  H   UNL     1     131.054 132.451 146.321  1.00  0.00     0.293 HD
ENDBRANCH   6  18
BRANCH  17  20
ATOM     20  O   UNL     1     133.366 136.920 148.308  1.00  0.00    -0.507 OA
ATOM     21  H   UNL     1     132.929 136.121 148.745  1.00  0.00     0.293 HD
ENDBRANCH  17  20
BRANCH  15  22
ATOM     22  O   UNL     1     137.089 139.119 146.232  1.00  0.00    -0.508 OA
ATOM     23  H   UNL     1     136.834 139.862 145.591  1.00  0.00     0.293 HD
ENDBRANCH  15  22
TORSDOF 3
ENDMDL
MODEL 5
REMARK VINA RESULT:    -6.656      1.764      6.528
REMARK INTER + INTRA:          -7.239
REMARK INTER:                  -7.239
REMARK INTRA:                   0.000
REMARK UNBOUND:                 0.000
REMARK SMILES Cc1cc(O)c2c(c1)C(=O)c1cc(O)cc(O)c1C2=O
REMARK SMILES IDX 1 1 2 2 8 3 7 4 6 5 4 6 3 7 19 8 20 9 18 10 11 11 9 12 10 13
REMARK SMILES IDX 12 14 13 15 15 16 16 17 5 18 17 20 14 22
REMARK H PARENT 5 19 17 21 14 23
REMARK Flexibility Score: inf
ROOT
ATOM      1  C   UNL     1     134.360 138.006 148.495  1.00  0.00     0.044 C 
ATOM      2  C   UNL     1     134.854 137.005 147.493  1.00  0.00    -0.047 A 
ATOM      3  C   UNL     1     134.251 135.746 147.398  1.00  0.00     0.016 A 
ATOM      4  C   UNL     1     134.689 134.812 146.445  1.00  0.00     0.038 A 
ATOM      5  C   UNL     1     135.748 135.143 145.571  1.00  0.00     0.076 A 
ATOM      6  C   UNL     1     136.298 136.450 145.615  1.00  0.00     0.127 A 
ATOM      7  C   UNL     1     135.860 137.355 146.586  1.00  0.00     0.050 A 
ATOM      8  C   UNL     1     136.281 134.081 144.678  1.00  0.00     0.201 C 
ATOM      9  O   UNL     1     137.492 134.103 144.333  1.00  0.00    -0.288 OA
ATOM     10  C   UNL     1     135.439 132.901 144.351  1.00  0.00     0.076 A 
ATOM     11  C   UNL     1     134.378 132.574 145.227  1.00  0.00     0.041 A 
ATOM     12  C   UNL     1     134.039 133.483 146.347  1.00  0.00     0.194 C 
ATOM     13  O   UNL     1     133.179 133.135 147.204  1.00  0.00    -0.289 OA
ATOM     14  C   UNL     1     133.648 131.390 145.027  1.00  0.00     0.059 A 
ATOM     15  C   UNL     1     133.951 130.541 143.960  1.00  0.00     0.120 A 
ATOM     16  C   UNL     1     134.969 130.880 143.071  1.00  0.00     0.093 A 
ATOM     17  C   UNL     1     135.699 132.062 143.235  1.00  0.00     0.131 A 
ENDROOT
BRANCH   6  18
ATOM     18  O   UNL     1     137.249 136.899 144.696  1.00  0.00    -0.507 OA
ATOM     19  H   UNL     1     137.013 137.354 143.825  1.00  0.00     0.293 HD
ENDBRANCH   6  18
BRANCH  17  20
ATOM     20  O   UNL     1     136.641 132.381 142.255  1.00  0.00    -0.507 OA
ATOM     21  H   UNL     1     137.618 132.548 142.451  1.00  0.00     0.293 HD
ENDBRANCH  17  20
BRANCH  15  22
ATOM     22  O   UNL     1     133.236 129.360 143.767  1.00  0.00    -0.508 OA
ATOM     23  H   UNL     1     132.419 129.327 143.169  1.00  0.00     0.293 HD
ENDBRANCH  15  22
TORSDOF 3
ENDMDL
MODEL 6
REMARK VINA RESULT:    -6.607      1.701      5.431
REMARK INTER + INTRA:          -7.186
REMARK INTER:                  -7.186
REMARK INTRA:                   0.000
REMARK UNBOUND:                 0.000
REMARK SMILES Cc1cc(O)c2c(c1)C(=O)c1cc(O)cc(O)c1C2=O
REMARK SMILES IDX 1 1 2 2 8 3 7 4 6 5 4 6 3 7 19 8 20 9 18 10 11 11 9 12 10 13
REMARK SMILES IDX 12 14 13 15 15 16 16 17 5 18 17 20 14 22
REMARK H PARENT 5 19 17 21 14 23
REMARK Flexibility Score: inf
ROOT
ATOM      1  C   UNL     1     138.124 138.945 145.123  1.00  0.00     0.044 C 
ATOM      2  C   UNL     1     137.188 137.989 145.800  1.00  0.00    -0.047 A 
ATOM      3  C   UNL     1     136.796 136.810 145.156  1.00  0.00     0.016 A 
ATOM      4  C   UNL     1     135.941 135.896 145.794  1.00  0.00     0.038 A 
ATOM      5  C   UNL     1     135.470 136.166 147.098  1.00  0.00     0.076 A 
ATOM      6  C   UNL     1     135.937 137.319 147.778  1.00  0.00     0.127 A 
ATOM      7  C   UNL     1     136.771 138.225 147.115  1.00  0.00     0.050 A 
ATOM      8  C   UNL     1     134.453 135.252 147.681  1.00  0.00     0.201 C 
ATOM      9  O   UNL     1     133.611 135.696 148.505  1.00  0.00    -0.288 OA
ATOM     10  C   UNL     1     134.313 133.870 147.152  1.00  0.00     0.076 A 
ATOM     11  C   UNL     1     134.788 133.604 145.846  1.00  0.00     0.041 A 
ATOM     12  C   UNL     1     135.537 134.646 145.106  1.00  0.00     0.194 C 
ATOM     13  O   UNL     1     135.852 134.459 143.898  1.00  0.00    -0.289 OA
ATOM     14  C   UNL     1     134.550 132.349 145.260  1.00  0.00     0.059 A 
ATOM     15  C   UNL     1     133.862 131.356 145.962  1.00  0.00     0.120 A 
ATOM     16  C   UNL     1     133.428 131.601 147.263  1.00  0.00     0.093 A 
ATOM     17  C   UNL     1     133.669 132.835 147.878  1.00  0.00     0.131 A 
ENDROOT
BRANCH   6  18
ATOM     18  O   UNL     1     135.630 137.584 149.114  1.00  0.00    -0.507 OA
ATOM     19  H   UNL     1     135.627 138.513 149.513  1.00  0.00     0.293 HD
ENDBRANCH   6  18
BRANCH  17  20
ATOM     20  O   UNL     1     133.285 132.976 149.214  1.00  0.00    -0.507 OA
ATOM     21  H   UNL     1     133.882 132.742 149.995  1.00  0.00     0.293 HD
ENDBRANCH  17  20
BRANCH  15  22
ATOM     22  O   UNL     1     133.615 130.115 145.378  1.00  0.00    -0.508 OA
ATOM     23  H   UNL     1     133.277 130.035 144.426  1.00  0.00     0.293 HD
ENDBRANCH  15  22
TORSDOF 3
ENDMDL
MODEL 7
REMARK VINA RESULT:    -6.522      2.713      5.296
REMARK INTER + INTRA:          -7.093
REMARK INTER:                  -7.093
REMARK INTRA:                   0.000
REMARK UNBOUND:                 0.000
REMARK SMILES Cc1cc(O)c2c(c1)C(=O)c1cc(O)cc(O)c1C2=O
REMARK SMILES IDX 1 1 2 2 8 3 7 4 6 5 4 6 3 7 19 8 20 9 18 10 11 11 9 12 10 13
REMARK SMILES IDX 12 14 13 15 15 16 16 17 5 18 17 20 14 22
REMARK H PARENT 5 19 17 21 14 23
REMARK Flexibility Score: inf
ROOT
ATOM      1  C   UNL     1     136.216 133.303 139.788  1.00  0.00     0.044 C 
ATOM      2  C   UNL     1     135.742 133.407 141.207  1.00  0.00    -0.047 A 
ATOM      3  C   UNL     1     135.045 132.346 141.796  1.00  0.00     0.016 A 
ATOM      4  C   UNL     1     134.621 132.422 143.133  1.00  0.00     0.038 A 
ATOM      5  C   UNL     1     134.898 133.579 143.894  1.00  0.00     0.076 A 
ATOM      6  C   UNL     1     135.678 134.615 143.318  1.00  0.00     0.127 A 
ATOM      7  C   UNL     1     136.071 134.526 141.979  1.00  0.00     0.050 A 
ATOM      8  C   UNL     1     134.308 133.685 145.253  1.00  0.00     0.201 C 
ATOM      9  O   UNL     1     134.024 134.817 145.727  1.00  0.00    -0.288 OA
ATOM     10  C   UNL     1     133.881 132.455 145.971  1.00  0.00     0.076 A 
ATOM     11  C   UNL     1     133.607 131.298 145.206  1.00  0.00     0.041 A 
ATOM     12  C   UNL     1     133.890 131.290 143.751  1.00  0.00     0.194 C 
ATOM     13  O   UNL     1     133.531 130.308 143.044  1.00  0.00    -0.289 OA
ATOM     14  C   UNL     1     133.070 130.160 145.831  1.00  0.00     0.059 A 
ATOM     15  C   UNL     1     132.820 130.156 147.206  1.00  0.00     0.120 A 
ATOM     16  C   UNL     1     133.127 131.280 147.969  1.00  0.00     0.093 A 
ATOM     17  C   UNL     1     133.681 132.420 147.375  1.00  0.00     0.131 A 
ENDROOT
BRANCH   6  18
ATOM     18  O   UNL     1     136.112 135.726 144.045  1.00  0.00    -0.507 OA
ATOM     19  H   UNL     1     136.417 135.680 145.007  1.00  0.00     0.293 HD
ENDBRANCH   6  18
BRANCH  17  20
ATOM     20  O   UNL     1     134.046 133.473 148.217  1.00  0.00    -0.507 OA
ATOM     21  H   UNL     1     134.960 133.903 148.210  1.00  0.00     0.293 HD
ENDBRANCH  17  20
BRANCH  15  22
ATOM     22  O   UNL     1     132.277 129.032 147.826  1.00  0.00    -0.508 OA
ATOM     23  H   UNL     1     131.310 128.765 147.684  1.00  0.00     0.293 HD
ENDBRANCH  15  22
TORSDOF 3
ENDMDL
MODEL 8
REMARK VINA RESULT:    -6.520      1.645      3.476
REMARK INTER + INTRA:          -7.092
REMARK INTER:                  -7.092
REMARK INTRA:                   0.000
REMARK UNBOUND:                 0.000
REMARK SMILES Cc1cc(O)c2c(c1)C(=O)c1cc(O)cc(O)c1C2=O
REMARK SMILES IDX 1 1 2 2 8 3 7 4 6 5 4 6 3 7 19 8 20 9 18 10 11 11 9 12 10 13
REMARK SMILES IDX 12 14 13 15 15 16 16 17 5 18 17 20 14 22
REMARK H PARENT 5 19 17 21 14 23
REMARK Flexibility Score: inf
ROOT
ATOM      1  C   UNL     1     132.129 128.606 147.001  1.00  0.00     0.044 C 
ATOM      2  C   UNL     1     132.701 129.888 146.473  1.00  0.00    -0.047 A 
ATOM      3  C   UNL     1     132.867 130.988 147.322  1.00  0.00     0.016 A 
ATOM      4  C   UNL     1     133.427 132.184 146.843  1.00  0.00     0.038 A 
ATOM      5  C   UNL     1     133.827 132.282 145.492  1.00  0.00     0.076 A 
ATOM      6  C   UNL     1     133.736 131.138 144.659  1.00  0.00     0.127 A 
ATOM      7  C   UNL     1     133.156 129.965 145.152  1.00  0.00     0.050 A 
ATOM      8  C   UNL     1     134.277 133.605 144.986  1.00  0.00     0.201 C 
ATOM      9  O   UNL     1     134.098 133.907 143.777  1.00  0.00    -0.288 OA
ATOM     10  C   UNL     1     134.761 134.635 145.942  1.00  0.00     0.076 A 
ATOM     11  C   UNL     1     134.359 134.533 147.294  1.00  0.00     0.041 A 
ATOM     12  C   UNL     1     133.605 133.342 147.752  1.00  0.00     0.194 C 
ATOM     13  O   UNL     1     133.136 133.304 148.924  1.00  0.00    -0.289 OA
ATOM     14  C   UNL     1     134.681 135.560 148.197  1.00  0.00     0.059 A 
ATOM     15  C   UNL     1     135.410 136.675 147.774  1.00  0.00     0.120 A 
ATOM     16  C   UNL     1     135.842 136.760 146.452  1.00  0.00     0.093 A 
ATOM     17  C   UNL     1     135.552 135.742 145.537  1.00  0.00     0.131 A 
ENDROOT
BRANCH   6  18
ATOM     18  O   UNL     1     134.237 131.111 143.356  1.00  0.00    -0.507 OA
ATOM     19  H   UNL     1     133.971 131.774 142.641  1.00  0.00     0.293 HD
ENDBRANCH   6  18
BRANCH  17  20
ATOM     20  O   UNL     1     136.095 135.853 144.255  1.00  0.00    -0.507 OA
ATOM     21  H   UNL     1     135.578 135.658 143.410  1.00  0.00     0.293 HD
ENDBRANCH  17  20
BRANCH  15  22
ATOM     22  O   UNL     1     135.720 137.700 148.666  1.00  0.00    -0.508 OA
ATOM     23  H   UNL     1     136.680 137.939 148.885  1.00  0.00     0.293 HD
ENDBRANCH  15  22
TORSDOF 3
ENDMDL
MODEL 9
REMARK VINA RESULT:    -6.330      2.902      6.901
REMARK INTER + INTRA:          -6.885
REMARK INTER:                  -6.885
REMARK INTRA:                   0.000
REMARK UNBOUND:                 0.000
REMARK SMILES Cc1cc(O)c2c(c1)C(=O)c1cc(O)cc(O)c1C2=O
REMARK SMILES IDX 1 1 2 2 8 3 7 4 6 5 4 6 3 7 19 8 20 9 18 10 11 11 9 12 10 13
REMARK SMILES IDX 12 14 13 15 15 16 16 17 5 18 17 20 14 22
REMARK H PARENT 5 19 17 21 14 23
REMARK Flexibility Score: inf
ROOT
ATOM      1  C   UNL     1     133.505 132.016 148.872  1.00  0.00     0.044 C 
ATOM      2  C   UNL     1     133.601 132.399 147.425  1.00  0.00    -0.047 A 
ATOM      3  C   UNL     1     133.393 131.440 146.427  1.00  0.00     0.016 A 
ATOM      4  C   UNL     1     133.453 131.795 145.069  1.00  0.00     0.038 A 
ATOM      5  C   UNL     1     133.726 133.131 144.703  1.00  0.00     0.076 A 
ATOM      6  C   UNL     1     133.850 134.115 145.718  1.00  0.00     0.127 A 
ATOM      7  C   UNL     1     133.807 133.734 147.063  1.00  0.00     0.050 A 
ATOM      8  C   UNL     1     133.928 133.439 143.263  1.00  0.00     0.201 C 
ATOM      9  O   UNL     1     134.691 134.381 142.925  1.00  0.00    -0.288 OA
ATOM     10  C   UNL     1     133.382 132.522 142.229  1.00  0.00     0.076 A 
ATOM     11  C   UNL     1     133.109 131.185 142.600  1.00  0.00     0.041 A 
ATOM     12  C   UNL     1     133.225 130.773 144.019  1.00  0.00     0.194 C 
ATOM     13  O   UNL     1     133.106 129.557 144.335  1.00  0.00    -0.289 OA
ATOM     14  C   UNL     1     132.723 130.253 141.621  1.00  0.00     0.059 A 
ATOM     15  C   UNL     1     132.592 130.642 140.285  1.00  0.00     0.120 A 
ATOM     16  C   UNL     1     132.821 131.968 139.922  1.00  0.00     0.093 A 
ATOM     17  C   UNL     1     133.187 132.919 140.881  1.00  0.00     0.131 A 
ENDROOT
BRANCH   6  18
ATOM     18  O   UNL     1     133.981 135.476 145.437  1.00  0.00    -0.507 OA
ATOM     19  H   UNL     1     133.459 135.951 144.713  1.00  0.00     0.293 HD
ENDBRANCH   6  18
BRANCH  17  20
ATOM     20  O   UNL     1     133.311 134.245 140.459  1.00  0.00    -0.507 OA
ATOM     21  H   UNL     1     134.069 134.851 140.737  1.00  0.00     0.293 HD
ENDBRANCH  17  20
BRANCH  15  22
ATOM     22  O   UNL     1     132.222 129.717 139.310  1.00  0.00    -0.508 OA
ATOM     23  H   UNL     1     132.549 129.795 138.354  1.00  0.00     0.293 HD
ENDBRANCH  15  22
TORSDOF 3
ENDMDL
