MODEL 1
REMARK VINA RESULT:    10.073      0.000      0.000
REMARK INTER + INTRA:          17.041
REMARK INTER:                  14.783
REMARK INTRA:                   2.257
REMARK UNBOUND:                 2.257
REMARK SMILES Cc1cc2c(C(C)C)c(O)c(O)c(C=O)c2c(O)c1-c1c(C)cc2c(C(C)C)c(O)c(O)c(C=O)c2c1O
REMARK SMILES IDX 1 1 2 2 3 3 4 4 16 5 13 6 11 7 9 8 5 9 17 10 19 11 20 12
REMARK SMILES IDX 37 13 21 14 36 15 23 16 22 17 24 18 33 19 25 20 31 21 29 22
REMARK SMILES IDX 38 23 34 25 35 26 26 27 27 28 28 29 32 30 30 32 18 34 6 36
REMARK SMILES IDX 7 37 8 38 14 39 15 40 10 41 12 43
REMARK H PARENT 38 24 32 31 30 33 18 35 10 42 12 44
REMARK Flexibility Score: inf
ROOT
ATOM      1  C   UNL     1      -5.779  17.110 -10.846  1.00  0.00     0.045 C 
ATOM      2  C   UNL     1      -7.054  17.917 -10.897  1.00  0.00    -0.039 A 
ATOM      3  C   UNL     1      -7.831  17.894 -12.057  1.00  0.00     0.013 A 
ATOM      4  C   UNL     1      -9.012  18.660 -12.180  1.00  0.00    -0.006 A 
ATOM      5  C   UNL     1      -9.462  19.414 -11.054  1.00  0.00     0.039 A 
ATOM      6  C   UNL     1     -10.683  20.145 -11.159  1.00  0.00     0.072 A 
ATOM      7  C   UNL     1     -11.509  19.967 -12.285  1.00  0.00     0.169 A 
ATOM      8  C   UNL     1     -11.073  19.202 -13.370  1.00  0.00     0.162 A 
ATOM      9  C   UNL     1      -9.772  18.654 -13.391  1.00  0.00     0.008 A 
ATOM     10  C   UNL     1      -8.705  19.370  -9.844  1.00  0.00     0.132 A 
ATOM     11  C   UNL     1      -7.494  18.648  -9.783  1.00  0.00     0.031 A 
ENDROOT
BRANCH  11  12
ATOM     12  C   UNL     1      -6.699  18.628  -8.527  1.00  0.00     0.031 A 
ATOM     13  C   UNL     1      -6.509  17.417  -7.828  1.00  0.00     0.132 A 
ATOM     14  C   UNL     1      -6.152  19.818  -8.027  1.00  0.00    -0.039 A 
ATOM     15  C   UNL     1      -5.724  17.385  -6.636  1.00  0.00     0.039 A 
ATOM     16  C   UNL     1      -5.471  19.805  -6.808  1.00  0.00     0.013 A 
ATOM     17  C   UNL     1      -6.323  21.125  -8.766  1.00  0.00     0.045 C 
ATOM     18  C   UNL     1      -5.251  18.615  -6.083  1.00  0.00    -0.006 A 
ATOM     19  C   UNL     1      -5.432  16.164  -5.961  1.00  0.00     0.072 A 
ATOM     20  C   UNL     1      -4.581  18.625  -4.815  1.00  0.00     0.008 A 
ATOM     21  C   UNL     1      -4.831  16.192  -4.690  1.00  0.00     0.169 A 
ATOM     22  C   UNL     1      -4.437  17.404  -4.116  1.00  0.00     0.162 A 
BRANCH  13  23
ATOM     23  O   UNL     1      -7.138  16.255  -8.291  1.00  0.00    -0.507 OA
ATOM     24  H   UNL     1      -7.804  15.717  -7.749  1.00  0.00     0.293 HD
ENDBRANCH  13  23
BRANCH  19  25
ATOM     25  C   UNL     1      -5.667  14.843  -6.581  1.00  0.00     0.264 C 
ATOM     26  O   UNL     1      -5.364  14.642  -7.787  1.00  0.00    -0.298 OA
ENDBRANCH  19  25
BRANCH  20  27
ATOM     27  C   UNL     1      -4.031  19.900  -4.144  1.00  0.00     0.017 C 
ATOM     28  C   UNL     1      -4.760  20.225  -2.832  1.00  0.00     0.012 C 
ATOM     29  C   UNL     1      -3.918  21.111  -5.094  1.00  0.00     0.012 C 
ENDBRANCH  20  27
BRANCH  21  30
ATOM     30  O   UNL     1      -4.583  15.015  -3.971  1.00  0.00    -0.504 OA
ATOM     31  H   UNL     1      -3.740  14.841  -3.440  1.00  0.00     0.293 HD
ENDBRANCH  21  30
BRANCH  22  32
ATOM     32  O   UNL     1      -3.877  17.397  -2.833  1.00  0.00    -0.504 OA
ATOM     33  H   UNL     1      -4.173  16.760  -2.104  1.00  0.00     0.293 HD
ENDBRANCH  22  32
ENDBRANCH  11  12
BRANCH  10  34
ATOM     34  O   UNL     1      -9.176  20.010  -8.692  1.00  0.00    -0.507 OA
ATOM     35  H   UNL     1      -9.535  19.524  -7.881  1.00  0.00     0.293 HD
ENDBRANCH  10  34
BRANCH   9  36
ATOM     36  C   UNL     1      -9.224  18.040 -14.692  1.00  0.00     0.017 C 
ATOM     37  C   UNL     1      -7.713  18.266 -14.807  1.00  0.00     0.012 C 
ATOM     38  C   UNL     1      -9.582  16.554 -14.879  1.00  0.00     0.012 C 
ENDBRANCH   9  36
BRANCH   6  39
ATOM     39  C   UNL     1     -11.110  21.125 -10.140  1.00  0.00     0.264 C 
ATOM     40  O   UNL     1     -12.285  21.099  -9.685  1.00  0.00    -0.298 OA
ENDBRANCH   6  39
BRANCH   8  41
ATOM     41  O   UNL     1     -11.938  18.986 -14.445  1.00  0.00    -0.504 OA
ATOM     42  H   UNL     1     -12.758  19.554 -14.618  1.00  0.00     0.293 HD
ENDBRANCH   8  41
BRANCH   7  43
ATOM     43  O   UNL     1     -12.770  20.572 -12.372  1.00  0.00    -0.504 OA
ATOM     44  H   UNL     1     -13.103  21.076 -13.182  1.00  0.00     0.293 HD
ENDBRANCH   7  43
TORSDOF 11
ENDMDL
MODEL 2
REMARK VINA RESULT:    11.811      1.949      2.684
REMARK INTER + INTRA:          19.592
REMARK INTER:                  14.770
REMARK INTRA:                   4.822
REMARK UNBOUND:                 2.257
REMARK SMILES Cc1cc2c(C(C)C)c(O)c(O)c(C=O)c2c(O)c1-c1c(C)cc2c(C(C)C)c(O)c(O)c(C=O)c2c1O
REMARK SMILES IDX 1 1 2 2 3 3 4 4 16 5 13 6 11 7 9 8 5 9 17 10 19 11 20 12
REMARK SMILES IDX 37 13 21 14 36 15 23 16 22 17 24 18 33 19 25 20 31 21 29 22
REMARK SMILES IDX 38 23 34 25 35 26 26 27 27 28 28 29 32 30 30 32 18 34 6 36
REMARK SMILES IDX 7 37 8 38 14 39 15 40 10 41 12 43
REMARK H PARENT 38 24 32 31 30 33 18 35 10 42 12 44
REMARK Flexibility Score: inf
ROOT
ATOM      1  C   UNL     1      -9.089  17.014  -8.233  1.00  0.00     0.045 C 
ATOM      2  C   UNL     1      -8.539  17.780  -9.411  1.00  0.00    -0.039 A 
ATOM      3  C   UNL     1      -9.252  17.796 -10.610  1.00  0.00     0.013 A 
ATOM      4  C   UNL     1      -8.769  18.461 -11.759  1.00  0.00    -0.006 A 
ATOM      5  C   UNL     1      -7.555  19.205 -11.662  1.00  0.00     0.039 A 
ATOM      6  C   UNL     1      -7.093  19.922 -12.806  1.00  0.00     0.072 A 
ATOM      7  C   UNL     1      -7.921  20.037 -13.939  1.00  0.00     0.169 A 
ATOM      8  C   UNL     1      -9.124  19.329 -14.013  1.00  0.00     0.162 A 
ATOM      9  C   UNL     1      -9.496  18.430 -12.990  1.00  0.00     0.008 A 
ATOM     10  C   UNL     1      -6.869  19.252 -10.410  1.00  0.00     0.132 A 
ATOM     11  C   UNL     1      -7.349  18.517  -9.304  1.00  0.00     0.031 A 
ENDROOT
BRANCH  11  12
ATOM     12  C   UNL     1      -6.616  18.551  -8.011  1.00  0.00     0.031 A 
ATOM     13  C   UNL     1      -6.255  17.348  -7.369  1.00  0.00     0.132 A 
ATOM     14  C   UNL     1      -6.299  19.783  -7.419  1.00  0.00    -0.039 A 
ATOM     15  C   UNL     1      -5.528  17.373  -6.141  1.00  0.00     0.039 A 
ATOM     16  C   UNL     1      -5.680  19.807  -6.169  1.00  0.00     0.013 A 
ATOM     17  C   UNL     1      -6.657  21.086  -8.095  1.00  0.00     0.045 C 
ATOM     18  C   UNL     1      -5.294  18.628  -5.498  1.00  0.00    -0.006 A 
ATOM     19  C   UNL     1      -5.064  16.177  -5.517  1.00  0.00     0.072 A 
ATOM     20  C   UNL     1      -4.690  18.670  -4.198  1.00  0.00     0.008 A 
ATOM     21  C   UNL     1      -4.531  16.226  -4.217  1.00  0.00     0.169 A 
ATOM     22  C   UNL     1      -4.373  17.449  -3.558  1.00  0.00     0.162 A 
BRANCH  13  23
ATOM     23  O   UNL     1      -6.658  16.129  -7.926  1.00  0.00    -0.507 OA
ATOM     24  H   UNL     1      -7.269  15.468  -7.461  1.00  0.00     0.293 HD
ENDBRANCH  13  23
BRANCH  19  25
ATOM     25  C   UNL     1      -5.045  14.877  -6.220  1.00  0.00     0.264 C 
ATOM     26  O   UNL     1      -5.078  14.831  -7.478  1.00  0.00    -0.298 OA
ENDBRANCH  19  25
BRANCH  20  27
ATOM     27  C   UNL     1      -4.392  19.975  -3.431  1.00  0.00     0.017 C 
ATOM     28  C   UNL     1      -5.558  20.391  -2.521  1.00  0.00     0.012 C 
ATOM     29  C   UNL     1      -3.875  21.124  -4.322  1.00  0.00     0.012 C 
ENDBRANCH  20  27
BRANCH  21  30
ATOM     30  O   UNL     1      -4.119  15.065  -3.551  1.00  0.00    -0.504 OA
ATOM     31  H   UNL     1      -4.361  14.842  -2.595  1.00  0.00     0.293 HD
ENDBRANCH  21  30
BRANCH  22  32
ATOM     32  O   UNL     1      -3.875  17.455  -2.251  1.00  0.00    -0.504 OA
ATOM     33  H   UNL     1      -3.962  18.249  -1.629  1.00  0.00     0.293 HD
ENDBRANCH  22  32
ENDBRANCH  11  12
BRANCH  10  34
ATOM     34  O   UNL     1      -5.737  20.059 -10.253  1.00  0.00    -0.507 OA
ATOM     35  H   UNL     1      -5.270  20.534 -11.014  1.00  0.00     0.293 HD
ENDBRANCH  10  34
BRANCH   9  36
ATOM     36  C   UNL     1     -10.683  17.475 -13.209  1.00  0.00     0.017 C 
ATOM     37  C   UNL     1     -10.563  16.240 -12.311  1.00  0.00     0.012 C 
ATOM     38  C   UNL     1     -12.061  18.147 -13.053  1.00  0.00     0.012 C 
ENDBRANCH   9  36
BRANCH   6  39
ATOM     39  C   UNL     1      -5.748  20.528 -12.872  1.00  0.00     0.264 C 
ATOM     40  O   UNL     1      -5.070  20.458 -13.932  1.00  0.00    -0.298 OA
ENDBRANCH   6  39
BRANCH   8  41
ATOM     41  O   UNL     1      -9.958  19.513 -15.117  1.00  0.00    -0.504 OA
ATOM     42  H   UNL     1     -10.597  20.294 -15.204  1.00  0.00     0.293 HD
ENDBRANCH   8  41
BRANCH   7  43
ATOM     43  O   UNL     1      -7.557  20.831 -15.035  1.00  0.00    -0.504 OA
ATOM     44  H   UNL     1      -7.755  20.595 -15.997  1.00  0.00     0.293 HD
ENDBRANCH   7  43
TORSDOF 11
ENDMDL
