MODEL 1
REMARK VINA RESULT:    -4.955      0.000      0.000
REMARK INTER + INTRA:          -7.417
REMARK INTER:                  -6.982
REMARK INTRA:                  -0.434
REMARK UNBOUND:                -0.434
REMARK SMILES CCCCCCCCC(=O)[O-]
REMARK SMILES IDX 6 1 7 2 8 3 9 4 10 5 11 6 5 7 4 8 3 9 2 10 1 11
REMARK H PARENT
REMARK Flexibility Score: inf
ROOT
ATOM      1  C   UNL     1     -14.390   0.907  -9.252  1.00  0.00     0.000 C 
ENDROOT
BRANCH   1   2
ATOM      2  C   UNL     1     -14.023   2.392  -9.379  1.00  0.00     0.006 C 
BRANCH   2   3
ATOM      3  C   UNL     1     -12.505   2.620  -9.355  1.00  0.00     0.053 C 
BRANCH   3   4
ATOM      4  C   UNL     1     -12.146   3.881  -8.630  1.00  0.00     0.041 C 
ATOM      5  O   UNL     1     -10.983   4.039  -8.173  1.00  0.00    -0.550 OA
ATOM      6  O   UNL     1     -13.086   4.892  -8.487  1.00  0.00    -0.550 OA
ENDBRANCH   3   4
ENDBRANCH   2   3
ENDBRANCH   1   2
BRANCH   1   7
ATOM      7  C   UNL     1     -14.129   0.161 -10.567  1.00  0.00     0.000 C 
BRANCH   7   8
ATOM      8  C   UNL     1     -13.122  -0.981 -10.361  1.00  0.00    -0.000 C 
BRANCH   8   9
ATOM      9  C   UNL     1     -11.678  -0.576 -10.707  1.00  0.00    -0.000 C 
BRANCH   9  10
ATOM     10  C   UNL     1     -10.693  -0.616  -9.525  1.00  0.00    -0.003 C 
ATOM     11  C   UNL     1     -10.245  -2.033  -9.169  1.00  0.00     0.004 C 
ENDBRANCH   9  10
ENDBRANCH   8   9
ENDBRANCH   7   8
ENDBRANCH   1   7
TORSDOF 7
ENDMDL
MODEL 2
REMARK VINA RESULT:    -4.735      3.385      5.475
REMARK INTER + INTRA:          -7.108
REMARK INTER:                  -6.836
REMARK INTRA:                  -0.272
REMARK UNBOUND:                -0.434
REMARK SMILES CCCCCCCCC(=O)[O-]
REMARK SMILES IDX 6 1 7 2 8 3 9 4 10 5 11 6 5 7 4 8 3 9 2 10 1 11
REMARK H PARENT
REMARK Flexibility Score: inf
ROOT
ATOM      1  C   UNL     1     -12.788  -1.069 -10.844  1.00  0.00     0.000 C 
ENDROOT
BRANCH   1   2
ATOM      2  C   UNL     1     -12.048  -2.198 -10.112  1.00  0.00     0.006 C 
BRANCH   2   3
ATOM      3  C   UNL     1     -10.664  -1.759  -9.614  1.00  0.00     0.053 C 
BRANCH   3   4
ATOM      4  C   UNL     1      -9.942  -2.877  -8.928  1.00  0.00     0.041 C 
ATOM      5  O   UNL     1      -9.545  -3.874  -9.587  1.00  0.00    -0.550 OA
ATOM      6  O   UNL     1      -9.678  -2.802  -7.567  1.00  0.00    -0.550 OA
ENDBRANCH   3   4
ENDBRANCH   2   3
ENDBRANCH   1   2
BRANCH   1   7
ATOM      7  C   UNL     1     -12.665   0.255 -10.078  1.00  0.00     0.000 C 
BRANCH   7   8
ATOM      8  C   UNL     1     -14.044   0.897  -9.866  1.00  0.00    -0.000 C 
BRANCH   8   9
ATOM      9  C   UNL     1     -13.958   2.342  -9.343  1.00  0.00    -0.000 C 
BRANCH   9  10
ATOM     10  C   UNL     1     -12.540   2.940  -9.323  1.00  0.00    -0.003 C 
ATOM     11  C   UNL     1     -12.459   4.263  -8.561  1.00  0.00     0.004 C 
ENDBRANCH   9  10
ENDBRANCH   8   9
ENDBRANCH   7   8
ENDBRANCH   1   7
TORSDOF 7
ENDMDL
MODEL 3
REMARK VINA RESULT:    -4.730      3.924      5.827
REMARK INTER + INTRA:          -7.100
REMARK INTER:                  -6.668
REMARK INTRA:                  -0.432
REMARK UNBOUND:                -0.434
REMARK SMILES CCCCCCCCC(=O)[O-]
REMARK SMILES IDX 6 1 7 2 8 3 9 4 10 5 11 6 5 7 4 8 3 9 2 10 1 11
REMARK H PARENT
REMARK Flexibility Score: inf
ROOT
ATOM      1  C   UNL     1     -10.614  -1.171  -9.449  1.00  0.00     0.000 C 
ENDROOT
BRANCH   1   2
ATOM      2  C   UNL     1     -11.027  -2.640  -9.624  1.00  0.00     0.006 C 
BRANCH   2   3
ATOM      3  C   UNL     1      -9.830  -3.595  -9.530  1.00  0.00     0.053 C 
BRANCH   3   4
ATOM      4  C   UNL     1      -9.178  -3.537  -8.183  1.00  0.00     0.041 C 
ATOM      5  O   UNL     1      -7.954  -3.260  -8.082  1.00  0.00    -0.550 OA
ATOM      6  O   UNL     1      -9.931  -3.758  -7.037  1.00  0.00    -0.550 OA
ENDBRANCH   3   4
ENDBRANCH   2   3
ENDBRANCH   1   2
BRANCH   1   7
ATOM      7  C   UNL     1     -11.433  -0.256 -10.369  1.00  0.00     0.000 C 
BRANCH   7   8
ATOM      8  C   UNL     1     -12.716  -0.957 -10.839  1.00  0.00    -0.000 C 
BRANCH   8   9
ATOM      9  C   UNL     1     -13.996  -0.262 -10.340  1.00  0.00    -0.000 C 
BRANCH   9  10
ATOM     10  C   UNL     1     -13.781   1.143  -9.750  1.00  0.00    -0.003 C 
ATOM     11  C   UNL     1     -14.931   1.596  -8.851  1.00  0.00     0.004 C 
ENDBRANCH   9  10
ENDBRANCH   8   9
ENDBRANCH   7   8
ENDBRANCH   1   7
TORSDOF 7
ENDMDL
MODEL 4
REMARK VINA RESULT:    -4.643      3.763      5.624
REMARK INTER + INTRA:          -6.977
REMARK INTER:                  -6.567
REMARK INTRA:                  -0.410
REMARK UNBOUND:                -0.434
REMARK SMILES CCCCCCCCC(=O)[O-]
REMARK SMILES IDX 6 1 7 2 8 3 9 4 10 5 11 6 5 7 4 8 3 9 2 10 1 11
REMARK H PARENT
REMARK Flexibility Score: inf
ROOT
ATOM      1  C   UNL     1     -11.473  -0.396 -10.330  1.00  0.00     0.000 C 
ENDROOT
BRANCH   1   2
ATOM      2  C   UNL     1     -10.367  -1.233  -9.672  1.00  0.00     0.006 C 
BRANCH   2   3
ATOM      3  C   UNL     1     -10.815  -2.675  -9.397  1.00  0.00     0.053 C 
BRANCH   3   4
ATOM      4  C   UNL     1      -9.845  -3.398  -8.514  1.00  0.00     0.041 C 
ATOM      5  O   UNL     1     -10.258  -4.052  -7.521  1.00  0.00    -0.550 OA
ATOM      6  O   UNL     1      -8.488  -3.375  -8.807  1.00  0.00    -0.550 OA
ENDBRANCH   3   4
ENDBRANCH   2   3
ENDBRANCH   1   2
BRANCH   1   7
ATOM      7  C   UNL     1     -12.755  -1.221 -10.506  1.00  0.00     0.000 C 
BRANCH   7   8
ATOM      8  C   UNL     1     -13.976  -0.306 -10.688  1.00  0.00    -0.000 C 
BRANCH   8   9
ATOM      9  C   UNL     1     -14.287   0.534  -9.437  1.00  0.00    -0.000 C 
BRANCH   9  10
ATOM     10  C   UNL     1     -14.297   2.056  -9.665  1.00  0.00    -0.003 C 
ATOM     11  C   UNL     1     -12.951   2.715  -9.367  1.00  0.00     0.004 C 
ENDBRANCH   9  10
ENDBRANCH   8   9
ENDBRANCH   7   8
ENDBRANCH   1   7
TORSDOF 7
ENDMDL
MODEL 5
REMARK VINA RESULT:    -4.516      1.440      2.255
REMARK INTER + INTRA:          -6.798
REMARK INTER:                  -6.437
REMARK INTRA:                  -0.361
REMARK UNBOUND:                -0.434
REMARK SMILES CCCCCCCCC(=O)[O-]
REMARK SMILES IDX 6 1 7 2 8 3 9 4 10 5 11 6 5 7 4 8 3 9 2 10 1 11
REMARK H PARENT
REMARK Flexibility Score: inf
ROOT
ATOM      1  C   UNL     1     -14.262   0.818  -9.744  1.00  0.00     0.000 C 
ENDROOT
BRANCH   1   2
ATOM      2  C   UNL     1     -13.973   2.301  -9.468  1.00  0.00     0.006 C 
BRANCH   2   3
ATOM      3  C   UNL     1     -12.470   2.610  -9.471  1.00  0.00     0.053 C 
BRANCH   3   4
ATOM      4  C   UNL     1     -12.154   3.832  -8.665  1.00  0.00     0.041 C 
ATOM      5  O   UNL     1     -13.051   4.682  -8.425  1.00  0.00    -0.550 OA
ATOM      6  O   UNL     1     -10.877   4.016  -8.153  1.00  0.00    -0.550 OA
ENDBRANCH   3   4
ENDBRANCH   2   3
ENDBRANCH   1   2
BRANCH   1   7
ATOM      7  C   UNL     1     -12.963   0.044 -10.005  1.00  0.00     0.000 C 
BRANCH   7   8
ATOM      8  C   UNL     1     -13.154  -0.989 -11.125  1.00  0.00    -0.000 C 
BRANCH   8   9
ATOM      9  C   UNL     1     -14.524  -1.690 -11.066  1.00  0.00    -0.000 C 
BRANCH   9  10
ATOM     10  C   UNL     1     -14.652  -2.771  -9.979  1.00  0.00    -0.003 C 
ATOM     11  C   UNL     1     -13.391  -3.621  -9.829  1.00  0.00     0.004 C 
ENDBRANCH   9  10
ENDBRANCH   8   9
ENDBRANCH   7   8
ENDBRANCH   1   7
TORSDOF 7
ENDMDL
MODEL 6
REMARK VINA RESULT:    -4.507      4.295      6.390
REMARK INTER + INTRA:          -6.786
REMARK INTER:                  -6.425
REMARK INTRA:                  -0.362
REMARK UNBOUND:                -0.434
REMARK SMILES CCCCCCCCC(=O)[O-]
REMARK SMILES IDX 6 1 7 2 8 3 9 4 10 5 11 6 5 7 4 8 3 9 2 10 1 11
REMARK H PARENT
REMARK Flexibility Score: inf
ROOT
ATOM      1  C   UNL     1     -10.845  -2.194  -9.652  1.00  0.00     0.000 C 
ENDROOT
BRANCH   1   2
ATOM      2  C   UNL     1      -9.571  -3.015  -9.406  1.00  0.00     0.006 C 
BRANCH   2   3
ATOM      3  C   UNL     1      -9.305  -3.241  -7.911  1.00  0.00     0.053 C 
BRANCH   3   4
ATOM      4  C   UNL     1      -9.974  -4.484  -7.411  1.00  0.00     0.041 C 
ATOM      5  O   UNL     1     -10.259  -4.603  -6.190  1.00  0.00    -0.550 OA
ATOM      6  O   UNL     1     -10.312  -5.496  -8.299  1.00  0.00    -0.550 OA
ENDBRANCH   3   4
ENDBRANCH   2   3
ENDBRANCH   1   2
BRANCH   1   7
ATOM      7  C   UNL     1     -10.598  -0.703  -9.387  1.00  0.00     0.000 C 
BRANCH   7   8
ATOM      8  C   UNL     1     -11.659   0.162 -10.083  1.00  0.00    -0.000 C 
BRANCH   8   9
ATOM      9  C   UNL     1     -12.873  -0.653 -10.567  1.00  0.00    -0.000 C 
BRANCH   9  10
ATOM     10  C   UNL     1     -14.236  -0.144 -10.066  1.00  0.00    -0.003 C 
ATOM     11  C   UNL     1     -14.219   1.336  -9.685  1.00  0.00     0.004 C 
ENDBRANCH   9  10
ENDBRANCH   8   9
ENDBRANCH   7   8
ENDBRANCH   1   7
TORSDOF 7
ENDMDL
MODEL 7
REMARK VINA RESULT:    -4.216      2.251      3.899
REMARK INTER + INTRA:          -6.375
REMARK INTER:                  -6.069
REMARK INTRA:                  -0.306
REMARK UNBOUND:                -0.434
REMARK SMILES CCCCCCCCC(=O)[O-]
REMARK SMILES IDX 6 1 7 2 8 3 9 4 10 5 11 6 5 7 4 8 3 9 2 10 1 11
REMARK H PARENT
REMARK Flexibility Score: inf
ROOT
ATOM      1  C   UNL     1     -10.636  -1.039  -9.329  1.00  0.00     0.000 C 
ENDROOT
BRANCH   1   2
ATOM      2  C   UNL     1     -11.387  -0.274 -10.428  1.00  0.00     0.006 C 
BRANCH   2   3
ATOM      3  C   UNL     1     -12.868  -0.067 -10.084  1.00  0.00     0.053 C 
BRANCH   3   4
ATOM      4  C   UNL     1     -13.160   1.359  -9.728  1.00  0.00     0.041 C 
ATOM      5  O   UNL     1     -12.223   2.137  -9.410  1.00  0.00    -0.550 OA
ATOM      6  O   UNL     1     -14.463   1.834  -9.776  1.00  0.00    -0.550 OA
ENDBRANCH   3   4
ENDBRANCH   2   3
ENDBRANCH   1   2
BRANCH   1   7
ATOM      7  C   UNL     1     -10.670  -2.551  -9.589  1.00  0.00     0.000 C 
BRANCH   7   8
ATOM      8  C   UNL     1      -9.251  -3.137  -9.611  1.00  0.00    -0.000 C 
BRANCH   8   9
ATOM      9  C   UNL     1      -9.025  -4.199  -8.519  1.00  0.00    -0.000 C 
BRANCH   9  10
ATOM     10  C   UNL     1      -9.763  -3.933  -7.195  1.00  0.00    -0.003 C 
ATOM     11  C   UNL     1     -10.645  -5.103  -6.757  1.00  0.00     0.004 C 
ENDBRANCH   9  10
ENDBRANCH   8   9
ENDBRANCH   7   8
ENDBRANCH   1   7
TORSDOF 7
ENDMDL
MODEL 8
REMARK VINA RESULT:    -4.159      4.961      7.223
REMARK INTER + INTRA:          -6.296
REMARK INTER:                  -6.073
REMARK INTRA:                  -0.223
REMARK UNBOUND:                -0.434
REMARK SMILES CCCCCCCCC(=O)[O-]
REMARK SMILES IDX 6 1 7 2 8 3 9 4 10 5 11 6 5 7 4 8 3 9 2 10 1 11
REMARK H PARENT
REMARK Flexibility Score: inf
ROOT
ATOM      1  C   UNL     1      -9.888  -2.309  -8.185  1.00  0.00     0.000 C 
ENDROOT
BRANCH   1   2
ATOM      2  C   UNL     1      -9.118  -3.570  -7.768  1.00  0.00     0.006 C 
BRANCH   2   3
ATOM      3  C   UNL     1      -9.944  -4.476  -6.844  1.00  0.00     0.053 C 
BRANCH   3   4
ATOM      4  C   UNL     1      -9.883  -5.910  -7.274  1.00  0.00     0.041 C 
ATOM      5  O   UNL     1      -9.837  -6.828  -6.414  1.00  0.00    -0.550 OA
ATOM      6  O   UNL     1      -9.909  -6.231  -8.625  1.00  0.00    -0.550 OA
ENDBRANCH   3   4
ENDBRANCH   2   3
ENDBRANCH   1   2
BRANCH   1   7
ATOM      7  C   UNL     1     -10.172  -2.311  -9.693  1.00  0.00     0.000 C 
BRANCH   7   8
ATOM      8  C   UNL     1     -11.665  -2.085  -9.971  1.00  0.00    -0.000 C 
BRANCH   8   9
ATOM      9  C   UNL     1     -11.991  -0.627 -10.343  1.00  0.00    -0.000 C 
BRANCH   9  10
ATOM     10  C   UNL     1     -13.493  -0.295 -10.404  1.00  0.00    -0.003 C 
ATOM     11  C   UNL     1     -13.840   1.032  -9.730  1.00  0.00     0.004 C 
ENDBRANCH   9  10
ENDBRANCH   8   9
ENDBRANCH   7   8
ENDBRANCH   1   7
TORSDOF 7
ENDMDL
MODEL 9
REMARK VINA RESULT:    -4.136      4.840      7.145
REMARK INTER + INTRA:          -6.263
REMARK INTER:                  -5.647
REMARK INTRA:                  -0.616
REMARK UNBOUND:                -0.434
REMARK SMILES CCCCCCCCC(=O)[O-]
REMARK SMILES IDX 6 1 7 2 8 3 9 4 10 5 11 6 5 7 4 8 3 9 2 10 1 11
REMARK H PARENT
REMARK Flexibility Score: inf
ROOT
ATOM      1  C   UNL     1     -10.206  -5.901  -8.573  1.00  0.00     0.000 C 
ENDROOT
BRANCH   1   2
ATOM      2  C   UNL     1     -11.037  -4.614  -8.668  1.00  0.00     0.006 C 
BRANCH   2   3
ATOM      3  C   UNL     1     -10.469  -3.631  -9.702  1.00  0.00     0.053 C 
BRANCH   3   4
ATOM      4  C   UNL     1     -10.196  -2.288  -9.098  1.00  0.00     0.041 C 
ATOM      5  O   UNL     1      -9.737  -2.200  -7.929  1.00  0.00    -0.550 OA
ATOM      6  O   UNL     1     -10.419  -1.135  -9.839  1.00  0.00    -0.550 OA
ENDBRANCH   3   4
ENDBRANCH   2   3
ENDBRANCH   1   2
BRANCH   1   7
ATOM      7  C   UNL     1      -9.939  -6.276  -7.110  1.00  0.00     0.000 C 
BRANCH   7   8
ATOM      8  C   UNL     1     -10.392  -5.154  -6.164  1.00  0.00    -0.000 C 
BRANCH   8   9
ATOM      9  C   UNL     1     -11.438  -5.624  -5.136  1.00  0.00    -0.000 C 
BRANCH   9  10
ATOM     10  C   UNL     1     -12.278  -6.836  -5.574  1.00  0.00    -0.003 C 
ATOM     11  C   UNL     1     -13.664  -6.448  -6.088  1.00  0.00     0.004 C 
ENDBRANCH   9  10
ENDBRANCH   8   9
ENDBRANCH   7   8
ENDBRANCH   1   7
TORSDOF 7
ENDMDL
