MODEL 1
REMARK VINA RESULT:    -4.919      0.000      0.000
REMARK INTER + INTRA:         -10.249
REMARK INTER:                  -8.944
REMARK INTRA:                  -1.305
REMARK UNBOUND:                -1.305
REMARK SMILES CCCCCC=CCC=CCCCCCCCC(=O)[O-]
REMARK SMILES IDX 11 1 12 2 13 3 14 4 15 5 16 6 17 7 18 8 19 9 20 10 10 11
REMARK SMILES IDX 9 12 8 13 7 14 6 15 5 16 4 17 3 18 2 19 1 20
REMARK H PARENT
REMARK Flexibility Score: inf
ROOT
ATOM      1  C   UNL     1    -104.731  19.042  12.963  1.00  0.00     0.027 C 
ENDROOT
BRANCH   1   2
ATOM      2  C   UNL     1    -104.777  20.249  12.013  1.00  0.00     0.004 C 
BRANCH   2   3
ATOM      3  C   UNL     1    -104.760  21.584  12.773  1.00  0.00     0.000 C 
BRANCH   3   4
ATOM      4  C   UNL     1    -103.482  22.376  12.462  1.00  0.00     0.000 C 
BRANCH   4   5
ATOM      5  C   UNL     1    -103.130  23.388  13.564  1.00  0.00     0.000 C 
BRANCH   5   6
ATOM      6  C   UNL     1    -103.228  22.785  14.975  1.00  0.00     0.006 C 
BRANCH   6   7
ATOM      7  C   UNL     1    -102.500  23.663  15.997  1.00  0.00     0.053 C 
BRANCH   7   8
ATOM      8  C   UNL     1    -103.482  24.463  16.795  1.00  0.00     0.041 C 
ATOM      9  O   UNL     1    -103.322  25.704  16.935  1.00  0.00    -0.550 OA
ATOM     10  O   UNL     1    -104.545  23.830  17.424  1.00  0.00    -0.550 OA
ENDBRANCH   7   8
ENDBRANCH   6   7
ENDBRANCH   5   6
ENDBRANCH   4   5
ENDBRANCH   3   4
ENDBRANCH   2   3
ENDBRANCH   1   2
BRANCH   1  11
ATOM     11  C   UNL     1    -104.759  19.452  14.415  1.00  0.00    -0.031 C 
ATOM     12  C   UNL     1    -104.051  18.865  15.398  1.00  0.00    -0.027 C 
BRANCH  12  13
ATOM     13  C   UNL     1    -103.119  17.693  15.217  1.00  0.00     0.054 C 
BRANCH  13  14
ATOM     14  C   UNL     1    -103.184  16.793  16.416  1.00  0.00    -0.027 C 
ATOM     15  C   UNL     1    -104.311  16.145  16.742  1.00  0.00    -0.031 C 
BRANCH  15  16
ATOM     16  C   UNL     1    -104.381  15.239  17.940  1.00  0.00     0.027 C 
BRANCH  16  17
ATOM     17  C   UNL     1    -105.512  15.666  18.888  1.00  0.00     0.004 C 
BRANCH  17  18
ATOM     18  C   UNL     1    -105.664  17.192  18.975  1.00  0.00     0.000 C 
BRANCH  18  19
ATOM     19  C   UNL     1    -106.841  17.617  19.866  1.00  0.00    -0.003 C 
ATOM     20  C   UNL     1    -106.587  17.248  21.325  1.00  0.00     0.004 C 
ENDBRANCH  18  19
ENDBRANCH  17  18
ENDBRANCH  16  17
ENDBRANCH  15  16
ENDBRANCH  13  14
ENDBRANCH  12  13
ENDBRANCH   1  11
TORSDOF 14
ENDMDL
MODEL 2
REMARK VINA RESULT:    -4.781      1.535      2.521
REMARK INTER + INTRA:          -9.998
REMARK INTER:                  -8.551
REMARK INTRA:                  -1.447
REMARK UNBOUND:                -1.305
REMARK SMILES CCCCCC=CCC=CCCCCCCCC(=O)[O-]
REMARK SMILES IDX 11 1 12 2 13 3 14 4 15 5 16 6 17 7 18 8 19 9 20 10 10 11
REMARK SMILES IDX 9 12 8 13 7 14 6 15 5 16 4 17 3 18 2 19 1 20
REMARK H PARENT
REMARK Flexibility Score: inf
ROOT
ATOM      1  C   UNL     1    -104.936  18.823  13.088  1.00  0.00     0.027 C 
ENDROOT
BRANCH   1   2
ATOM      2  C   UNL     1    -104.597  19.880  12.025  1.00  0.00     0.004 C 
BRANCH   2   3
ATOM      3  C   UNL     1    -104.741  21.310  12.566  1.00  0.00     0.000 C 
BRANCH   3   4
ATOM      4  C   UNL     1    -103.498  22.149  12.236  1.00  0.00     0.000 C 
BRANCH   4   5
ATOM      5  C   UNL     1    -103.190  23.201  13.314  1.00  0.00     0.000 C 
BRANCH   5   6
ATOM      6  C   UNL     1    -103.441  22.680  14.738  1.00  0.00     0.006 C 
BRANCH   6   7
ATOM      7  C   UNL     1    -103.355  23.817  15.761  1.00  0.00     0.053 C 
BRANCH   7   8
ATOM      8  C   UNL     1    -101.968  23.922  16.312  1.00  0.00     0.041 C 
ATOM      9  O   UNL     1    -101.554  23.079  17.151  1.00  0.00    -0.550 OA
ATOM     10  O   UNL     1    -101.149  24.978  15.936  1.00  0.00    -0.550 OA
ENDBRANCH   7   8
ENDBRANCH   6   7
ENDBRANCH   5   6
ENDBRANCH   4   5
ENDBRANCH   3   4
ENDBRANCH   2   3
ENDBRANCH   1   2
BRANCH   1  11
ATOM     11  C   UNL     1    -104.994  19.405  14.479  1.00  0.00    -0.031 C 
ATOM     12  C   UNL     1    -104.251  18.990  15.522  1.00  0.00    -0.027 C 
BRANCH  12  13
ATOM     13  C   UNL     1    -103.244  17.868  15.480  1.00  0.00     0.054 C 
BRANCH  13  14
ATOM     14  C   UNL     1    -103.689  16.743  16.369  1.00  0.00    -0.027 C 
ATOM     15  C   UNL     1    -104.493  16.960  17.420  1.00  0.00    -0.031 C 
BRANCH  15  16
ATOM     16  C   UNL     1    -104.945  15.836  18.311  1.00  0.00     0.027 C 
BRANCH  16  17
ATOM     17  C   UNL     1    -105.251  14.573  17.491  1.00  0.00     0.004 C 
BRANCH  17  18
ATOM     18  C   UNL     1    -104.900  13.281  18.246  1.00  0.00     0.000 C 
BRANCH  18  19
ATOM     19  C   UNL     1    -103.387  13.018  18.292  1.00  0.00    -0.003 C 
ATOM     20  C   UNL     1    -102.987  12.347  19.603  1.00  0.00     0.004 C 
ENDBRANCH  18  19
ENDBRANCH  17  18
ENDBRANCH  16  17
ENDBRANCH  15  16
ENDBRANCH  13  14
ENDBRANCH  12  13
ENDBRANCH   1  11
TORSDOF 14
ENDMDL
MODEL 3
REMARK VINA RESULT:    -4.689      1.355      1.926
REMARK INTER + INTRA:          -9.832
REMARK INTER:                  -7.912
REMARK INTRA:                  -1.920
REMARK UNBOUND:                -1.305
REMARK SMILES CCCCCC=CCC=CCCCCCCCC(=O)[O-]
REMARK SMILES IDX 11 1 12 2 13 3 14 4 15 5 16 6 17 7 18 8 19 9 20 10 10 11
REMARK SMILES IDX 9 12 8 13 7 14 6 15 5 16 4 17 3 18 2 19 1 20
REMARK H PARENT
REMARK Flexibility Score: inf
ROOT
ATOM      1  C   UNL     1    -104.743  18.935  13.073  1.00  0.00     0.027 C 
ENDROOT
BRANCH   1   2
ATOM      2  C   UNL     1    -104.582  20.044  12.021  1.00  0.00     0.004 C 
BRANCH   2   3
ATOM      3  C   UNL     1    -104.712  21.446  12.634  1.00  0.00     0.000 C 
BRANCH   3   4
ATOM      4  C   UNL     1    -103.480  22.303  12.310  1.00  0.00     0.000 C 
BRANCH   4   5
ATOM      5  C   UNL     1    -103.112  23.266  13.451  1.00  0.00     0.000 C 
BRANCH   5   6
ATOM      6  C   UNL     1    -103.660  22.808  14.812  1.00  0.00     0.006 C 
BRANCH   6   7
ATOM      7  C   UNL     1    -102.623  23.020  15.919  1.00  0.00     0.053 C 
BRANCH   7   8
ATOM      8  C   UNL     1    -102.920  24.271  16.683  1.00  0.00     0.041 C 
ATOM      9  O   UNL     1    -102.492  25.382  16.273  1.00  0.00    -0.550 OA
ATOM     10  O   UNL     1    -103.630  24.205  17.875  1.00  0.00    -0.550 OA
ENDBRANCH   7   8
ENDBRANCH   6   7
ENDBRANCH   5   6
ENDBRANCH   4   5
ENDBRANCH   3   4
ENDBRANCH   2   3
ENDBRANCH   1   2
BRANCH   1  11
ATOM     11  C   UNL     1    -104.842  19.484  14.476  1.00  0.00    -0.031 C 
ATOM     12  C   UNL     1    -104.236  18.958  15.556  1.00  0.00    -0.027 C 
BRANCH  12  13
ATOM     13  C   UNL     1    -103.364  17.728  15.551  1.00  0.00     0.054 C 
BRANCH  13  14
ATOM     14  C   UNL     1    -103.878  16.728  16.546  1.00  0.00    -0.027 C 
ATOM     15  C   UNL     1    -104.598  17.110  17.611  1.00  0.00    -0.031 C 
BRANCH  15  16
ATOM     16  C   UNL     1    -105.118  16.113  18.608  1.00  0.00     0.027 C 
BRANCH  16  17
ATOM     17  C   UNL     1    -105.899  14.990  17.908  1.00  0.00     0.004 C 
BRANCH  17  18
ATOM     18  C   UNL     1    -107.280  15.449  17.417  1.00  0.00     0.000 C 
BRANCH  18  19
ATOM     19  C   UNL     1    -107.369  15.512  15.885  1.00  0.00    -0.003 C 
ATOM     20  C   UNL     1    -107.524  16.952  15.403  1.00  0.00     0.004 C 
ENDBRANCH  18  19
ENDBRANCH  17  18
ENDBRANCH  16  17
ENDBRANCH  15  16
ENDBRANCH  13  14
ENDBRANCH  12  13
ENDBRANCH   1  11
TORSDOF 14
ENDMDL
MODEL 4
REMARK VINA RESULT:    -4.688      1.372      2.949
REMARK INTER + INTRA:          -9.829
REMARK INTER:                  -8.451
REMARK INTRA:                  -1.378
REMARK UNBOUND:                -1.305
REMARK SMILES CCCCCC=CCC=CCCCCCCCC(=O)[O-]
REMARK SMILES IDX 11 1 12 2 13 3 14 4 15 5 16 6 17 7 18 8 19 9 20 10 10 11
REMARK SMILES IDX 9 12 8 13 7 14 6 15 5 16 4 17 3 18 2 19 1 20
REMARK H PARENT
REMARK Flexibility Score: inf
ROOT
ATOM      1  C   UNL     1    -104.706  22.205  12.319  1.00  0.00     0.027 C 
ENDROOT
BRANCH   1   2
ATOM      2  C   UNL     1    -103.500  22.752  13.099  1.00  0.00     0.004 C 
BRANCH   2   3
ATOM      3  C   UNL     1    -103.910  23.348  14.453  1.00  0.00     0.000 C 
BRANCH   3   4
ATOM      4  C   UNL     1    -103.107  22.713  15.598  1.00  0.00     0.000 C 
BRANCH   4   5
ATOM      5  C   UNL     1    -102.814  23.703  16.737  1.00  0.00     0.000 C 
BRANCH   5   6
ATOM      6  C   UNL     1    -103.954  24.711  16.953  1.00  0.00     0.006 C 
BRANCH   6   7
ATOM      7  C   UNL     1    -103.485  26.140  16.662  1.00  0.00     0.053 C 
BRANCH   7   8
ATOM      8  C   UNL     1    -104.585  26.936  16.034  1.00  0.00     0.041 C 
ATOM      9  O   UNL     1    -104.320  27.988  15.394  1.00  0.00    -0.550 OA
ATOM     10  O   UNL     1    -105.907  26.543  16.197  1.00  0.00    -0.550 OA
ENDBRANCH   7   8
ENDBRANCH   6   7
ENDBRANCH   5   6
ENDBRANCH   4   5
ENDBRANCH   3   4
ENDBRANCH   2   3
ENDBRANCH   1   2
BRANCH   1  11
ATOM     11  C   UNL     1    -104.543  20.748  11.957  1.00  0.00    -0.031 C 
ATOM     12  C   UNL     1    -105.009  19.715  12.682  1.00  0.00    -0.027 C 
BRANCH  12  13
ATOM     13  C   UNL     1    -105.765  19.836  13.981  1.00  0.00     0.054 C 
BRANCH  13  14
ATOM     14  C   UNL     1    -105.174  18.914  15.009  1.00  0.00    -0.027 C 
ATOM     15  C   UNL     1    -103.881  18.561  14.967  1.00  0.00    -0.031 C 
BRANCH  15  16
ATOM     16  C   UNL     1    -103.283  17.642  15.996  1.00  0.00     0.027 C 
BRANCH  16  17
ATOM     17  C   UNL     1    -104.247  17.432  17.174  1.00  0.00     0.004 C 
BRANCH  17  18
ATOM     18  C   UNL     1    -104.373  15.955  17.577  1.00  0.00     0.000 C 
BRANCH  18  19
ATOM     19  C   UNL     1    -105.360  15.742  18.735  1.00  0.00    -0.003 C 
ATOM     20  C   UNL     1    -105.630  17.050  19.473  1.00  0.00     0.004 C 
ENDBRANCH  18  19
ENDBRANCH  17  18
ENDBRANCH  16  17
ENDBRANCH  15  16
ENDBRANCH  13  14
ENDBRANCH  12  13
ENDBRANCH   1  11
TORSDOF 14
ENDMDL
MODEL 5
REMARK VINA RESULT:    -4.651      4.390      7.062
REMARK INTER + INTRA:          -9.763
REMARK INTER:                  -7.493
REMARK INTRA:                  -2.269
REMARK UNBOUND:                -1.305
REMARK SMILES CCCCCC=CCC=CCCCCCCCC(=O)[O-]
REMARK SMILES IDX 11 1 12 2 13 3 14 4 15 5 16 6 17 7 18 8 19 9 20 10 10 11
REMARK SMILES IDX 9 12 8 13 7 14 6 15 5 16 4 17 3 18 2 19 1 20
REMARK H PARENT
REMARK Flexibility Score: inf
ROOT
ATOM      1  C   UNL     1    -103.886  24.718  17.526  1.00  0.00     0.027 C 
ENDROOT
BRANCH   1   2
ATOM      2  C   UNL     1    -105.213  24.363  16.835  1.00  0.00     0.004 C 
BRANCH   2   3
ATOM      3  C   UNL     1    -105.586  25.378  15.745  1.00  0.00     0.000 C 
BRANCH   3   4
ATOM      4  C   UNL     1    -105.541  26.812  16.291  1.00  0.00     0.000 C 
BRANCH   4   5
ATOM      5  C   UNL     1    -104.439  27.661  15.637  1.00  0.00     0.000 C 
BRANCH   5   6
ATOM      6  C   UNL     1    -104.410  27.516  14.108  1.00  0.00     0.006 C 
BRANCH   6   7
ATOM      7  C   UNL     1    -105.397  28.483  13.447  1.00  0.00     0.053 C 
BRANCH   7   8
ATOM      8  C   UNL     1    -104.684  29.700  12.947  1.00  0.00     0.041 C 
ATOM      9  O   UNL     1    -105.326  30.623  12.380  1.00  0.00    -0.550 OA
ATOM     10  O   UNL     1    -103.303  29.792  13.063  1.00  0.00    -0.550 OA
ENDBRANCH   7   8
ENDBRANCH   6   7
ENDBRANCH   5   6
ENDBRANCH   4   5
ENDBRANCH   3   4
ENDBRANCH   2   3
ENDBRANCH   1   2
BRANCH   1  11
ATOM     11  C   UNL     1    -102.798  23.716  17.228  1.00  0.00    -0.031 C 
ATOM     12  C   UNL     1    -101.856  23.858  16.278  1.00  0.00    -0.027 C 
BRANCH  12  13
ATOM     13  C   UNL     1    -101.734  25.037  15.344  1.00  0.00     0.054 C 
BRANCH  13  14
ATOM     14  C   UNL     1    -102.121  24.633  13.951  1.00  0.00    -0.027 C 
ATOM     15  C   UNL     1    -102.754  23.476  13.710  1.00  0.00    -0.031 C 
BRANCH  15  16
ATOM     16  C   UNL     1    -103.148  23.069  12.317  1.00  0.00     0.027 C 
BRANCH  16  17
ATOM     17  C   UNL     1    -104.295  22.047  12.346  1.00  0.00     0.004 C 
BRANCH  17  18
ATOM     18  C   UNL     1    -104.766  21.729  13.773  1.00  0.00     0.000 C 
BRANCH  18  19
ATOM     19  C   UNL     1    -104.953  20.223  14.009  1.00  0.00    -0.003 C 
ATOM     20  C   UNL     1    -104.821  19.441  12.705  1.00  0.00     0.004 C 
ENDBRANCH  18  19
ENDBRANCH  17  18
ENDBRANCH  16  17
ENDBRANCH  15  16
ENDBRANCH  13  14
ENDBRANCH  12  13
ENDBRANCH   1  11
TORSDOF 14
ENDMDL
MODEL 6
REMARK VINA RESULT:    -4.629      2.103      5.576
REMARK INTER + INTRA:          -9.723
REMARK INTER:                  -7.144
REMARK INTRA:                  -2.579
REMARK UNBOUND:                -1.305
REMARK SMILES CCCCCC=CCC=CCCCCCCCC(=O)[O-]
REMARK SMILES IDX 11 1 12 2 13 3 14 4 15 5 16 6 17 7 18 8 19 9 20 10 10 11
REMARK SMILES IDX 9 12 8 13 7 14 6 15 5 16 4 17 3 18 2 19 1 20
REMARK H PARENT
REMARK Flexibility Score: inf
ROOT
ATOM      1  C   UNL     1    -108.112  16.851  19.532  1.00  0.00     0.027 C 
ENDROOT
BRANCH   1   2
ATOM      2  C   UNL     1    -108.716  17.794  18.480  1.00  0.00     0.004 C 
BRANCH   2   3
ATOM      3  C   UNL     1    -108.132  17.551  17.081  1.00  0.00     0.000 C 
BRANCH   3   4
ATOM      4  C   UNL     1    -107.771  18.878  16.398  1.00  0.00     0.000 C 
BRANCH   4   5
ATOM      5  C   UNL     1    -106.818  19.739  17.243  1.00  0.00     0.000 C 
BRANCH   5   6
ATOM      6  C   UNL     1    -107.165  21.234  17.188  1.00  0.00     0.006 C 
BRANCH   6   7
ATOM      7  C   UNL     1    -106.693  21.859  15.872  1.00  0.00     0.053 C 
BRANCH   7   8
ATOM      8  C   UNL     1    -105.454  22.669  16.090  1.00  0.00     0.041 C 
ATOM      9  O   UNL     1    -104.359  22.300  15.589  1.00  0.00    -0.550 OA
ATOM     10  O   UNL     1    -105.499  23.805  16.887  1.00  0.00    -0.550 OA
ENDBRANCH   7   8
ENDBRANCH   6   7
ENDBRANCH   5   6
ENDBRANCH   4   5
ENDBRANCH   3   4
ENDBRANCH   2   3
ENDBRANCH   1   2
BRANCH   1  11
ATOM     11  C   UNL     1    -106.749  17.307  19.996  1.00  0.00    -0.031 C 
ATOM     12  C   UNL     1    -105.581  16.750  19.627  1.00  0.00    -0.027 C 
BRANCH  12  13
ATOM     13  C   UNL     1    -105.435  15.573  18.695  1.00  0.00     0.054 C 
BRANCH  13  14
ATOM     14  C   UNL     1    -104.496  15.915  17.575  1.00  0.00    -0.027 C 
ATOM     15  C   UNL     1    -104.343  17.179  17.155  1.00  0.00    -0.031 C 
BRANCH  15  16
ATOM     16  C   UNL     1    -103.400  17.528  16.036  1.00  0.00     0.027 C 
BRANCH  16  17
ATOM     17  C   UNL     1    -103.887  18.770  15.274  1.00  0.00     0.004 C 
BRANCH  17  18
ATOM     18  C   UNL     1    -104.716  18.412  14.031  1.00  0.00     0.000 C 
BRANCH  18  19
ATOM     19  C   UNL     1    -105.338  19.647  13.361  1.00  0.00    -0.003 C 
ATOM     20  C   UNL     1    -104.613  19.990  12.063  1.00  0.00     0.004 C 
ENDBRANCH  18  19
ENDBRANCH  17  18
ENDBRANCH  16  17
ENDBRANCH  15  16
ENDBRANCH  13  14
ENDBRANCH  12  13
ENDBRANCH   1  11
TORSDOF 14
ENDMDL
MODEL 7
REMARK VINA RESULT:    -4.600      1.498      2.452
REMARK INTER + INTRA:          -9.670
REMARK INTER:                  -7.976
REMARK INTRA:                  -1.694
REMARK UNBOUND:                -1.305
REMARK SMILES CCCCCC=CCC=CCCCCCCCC(=O)[O-]
REMARK SMILES IDX 11 1 12 2 13 3 14 4 15 5 16 6 17 7 18 8 19 9 20 10 10 11
REMARK SMILES IDX 9 12 8 13 7 14 6 15 5 16 4 17 3 18 2 19 1 20
REMARK H PARENT
REMARK Flexibility Score: inf
ROOT
ATOM      1  C   UNL     1    -105.045  18.540  14.342  1.00  0.00     0.027 C 
ENDROOT
BRANCH   1   2
ATOM      2  C   UNL     1    -104.691  18.531  12.846  1.00  0.00     0.004 C 
BRANCH   2   3
ATOM      3  C   UNL     1    -104.697  19.943  12.242  1.00  0.00     0.000 C 
BRANCH   3   4
ATOM      4  C   UNL     1    -105.840  20.785  12.826  1.00  0.00     0.000 C 
BRANCH   4   5
ATOM      5  C   UNL     1    -105.352  22.117  13.417  1.00  0.00     0.000 C 
BRANCH   5   6
ATOM      6  C   UNL     1    -103.851  22.104  13.748  1.00  0.00     0.006 C 
BRANCH   6   7
ATOM      7  C   UNL     1    -103.622  22.186  15.260  1.00  0.00     0.053 C 
BRANCH   7   8
ATOM      8  C   UNL     1    -102.788  23.381  15.600  1.00  0.00     0.041 C 
ATOM      9  O   UNL     1    -102.468  23.611  16.796  1.00  0.00    -0.550 OA
ATOM     10  O   UNL     1    -102.405  24.267  14.602  1.00  0.00    -0.550 OA
ENDBRANCH   7   8
ENDBRANCH   6   7
ENDBRANCH   5   6
ENDBRANCH   4   5
ENDBRANCH   3   4
ENDBRANCH   2   3
ENDBRANCH   1   2
BRANCH   1  11
ATOM     11  C   UNL     1    -103.820  18.489  15.222  1.00  0.00    -0.031 C 
ATOM     12  C   UNL     1    -103.543  17.511  16.104  1.00  0.00    -0.027 C 
BRANCH  12  13
ATOM     13  C   UNL     1    -104.412  16.307  16.369  1.00  0.00     0.054 C 
BRANCH  13  14
ATOM     14  C   UNL     1    -104.672  16.173  17.841  1.00  0.00    -0.027 C 
ATOM     15  C   UNL     1    -105.474  17.030  18.489  1.00  0.00    -0.031 C 
BRANCH  15  16
ATOM     16  C   UNL     1    -105.742  16.898  19.963  1.00  0.00     0.027 C 
BRANCH  16  17
ATOM     17  C   UNL     1    -107.216  17.187  20.283  1.00  0.00     0.004 C 
BRANCH  17  18
ATOM     18  C   UNL     1    -108.094  17.238  19.023  1.00  0.00     0.000 C 
BRANCH  18  19
ATOM     19  C   UNL     1    -109.081  16.064  18.944  1.00  0.00    -0.003 C 
ATOM     20  C   UNL     1    -108.504  14.917  18.117  1.00  0.00     0.004 C 
ENDBRANCH  18  19
ENDBRANCH  17  18
ENDBRANCH  16  17
ENDBRANCH  15  16
ENDBRANCH  13  14
ENDBRANCH  12  13
ENDBRANCH   1  11
TORSDOF 14
ENDMDL
MODEL 8
REMARK VINA RESULT:    -4.580      3.793      7.443
REMARK INTER + INTRA:          -9.634
REMARK INTER:                  -6.842
REMARK INTRA:                  -2.792
REMARK UNBOUND:                -1.305
REMARK SMILES CCCCCC=CCC=CCCCCCCCC(=O)[O-]
REMARK SMILES IDX 11 1 12 2 13 3 14 4 15 5 16 6 17 7 18 8 19 9 20 10 10 11
REMARK SMILES IDX 9 12 8 13 7 14 6 15 5 16 4 17 3 18 2 19 1 20
REMARK H PARENT
REMARK Flexibility Score: inf
ROOT
ATOM      1  C   UNL     1    -102.743  23.769  13.525  1.00  0.00     0.027 C 
ENDROOT
BRANCH   1   2
ATOM      2  C   UNL     1    -103.507  23.566  12.206  1.00  0.00     0.004 C 
BRANCH   2   3
ATOM      3  C   UNL     1    -103.854  22.091  11.960  1.00  0.00     0.000 C 
BRANCH   3   4
ATOM      4  C   UNL     1    -105.374  21.892  11.875  1.00  0.00     0.000 C 
BRANCH   4   5
ATOM      5  C   UNL     1    -105.875  20.756  12.781  1.00  0.00     0.000 C 
BRANCH   5   6
ATOM      6  C   UNL     1    -104.852  19.618  12.923  1.00  0.00     0.006 C 
BRANCH   6   7
ATOM      7  C   UNL     1    -104.659  19.235  14.394  1.00  0.00     0.053 C 
BRANCH   7   8
ATOM      8  C   UNL     1    -105.199  17.864  14.654  1.00  0.00     0.041 C 
ATOM      9  O   UNL     1    -104.822  17.216  15.665  1.00  0.00    -0.550 OA
ATOM     10  O   UNL     1    -106.082  17.284  13.754  1.00  0.00    -0.550 OA
ENDBRANCH   7   8
ENDBRANCH   6   7
ENDBRANCH   5   6
ENDBRANCH   4   5
ENDBRANCH   3   4
ENDBRANCH   2   3
ENDBRANCH   1   2
BRANCH   1  11
ATOM     11  C   UNL     1    -103.130  22.755  14.574  1.00  0.00    -0.031 C 
ATOM     12  C   UNL     1    -103.035  22.943  15.903  1.00  0.00    -0.027 C 
BRANCH  12  13
ATOM     13  C   UNL     1    -102.518  24.194  16.569  1.00  0.00     0.054 C 
BRANCH  13  14
ATOM     14  C   UNL     1    -103.640  25.171  16.771  1.00  0.00    -0.027 C 
ATOM     15  C   UNL     1    -103.759  26.265  16.004  1.00  0.00    -0.031 C 
BRANCH  15  16
ATOM     16  C   UNL     1    -104.882  27.245  16.199  1.00  0.00     0.027 C 
BRANCH  16  17
ATOM     17  C   UNL     1    -106.122  26.829  15.392  1.00  0.00     0.004 C 
BRANCH  17  18
ATOM     18  C   UNL     1    -105.760  26.198  14.039  1.00  0.00     0.000 C 
BRANCH  18  19
ATOM     19  C   UNL     1    -106.611  24.959  13.720  1.00  0.00    -0.003 C 
ATOM     20  C   UNL     1    -106.586  23.963  14.876  1.00  0.00     0.004 C 
ENDBRANCH  18  19
ENDBRANCH  17  18
ENDBRANCH  16  17
ENDBRANCH  15  16
ENDBRANCH  13  14
ENDBRANCH  12  13
ENDBRANCH   1  11
TORSDOF 14
ENDMDL
MODEL 9
REMARK VINA RESULT:    -4.571      3.441      6.591
REMARK INTER + INTRA:          -9.618
REMARK INTER:                  -7.535
REMARK INTRA:                  -2.082
REMARK UNBOUND:                -1.305
REMARK SMILES CCCCCC=CCC=CCCCCCCCC(=O)[O-]
REMARK SMILES IDX 11 1 12 2 13 3 14 4 15 5 16 6 17 7 18 8 19 9 20 10 10 11
REMARK SMILES IDX 9 12 8 13 7 14 6 15 5 16 4 17 3 18 2 19 1 20
REMARK H PARENT
REMARK Flexibility Score: inf
ROOT
ATOM      1  C   UNL     1    -103.018  22.997  11.875  1.00  0.00     0.027 C 
ENDROOT
BRANCH   1   2
ATOM      2  C   UNL     1    -104.095  21.947  12.191  1.00  0.00     0.004 C 
BRANCH   2   3
ATOM      3  C   UNL     1    -104.158  21.616  13.689  1.00  0.00     0.000 C 
BRANCH   3   4
ATOM      4  C   UNL     1    -105.136  20.462  13.956  1.00  0.00     0.000 C 
BRANCH   4   5
ATOM      5  C   UNL     1    -104.881  19.248  13.048  1.00  0.00     0.000 C 
BRANCH   5   6
ATOM      6  C   UNL     1    -104.972  17.913  13.805  1.00  0.00     0.006 C 
BRANCH   6   7
ATOM      7  C   UNL     1    -104.904  18.137  15.319  1.00  0.00     0.053 C 
BRANCH   7   8
ATOM      8  C   UNL     1    -103.779  17.352  15.915  1.00  0.00     0.041 C 
ATOM      9  O   UNL     1    -102.634  17.388  15.392  1.00  0.00    -0.550 OA
ATOM     10  O   UNL     1    -104.005  16.541  17.019  1.00  0.00    -0.550 OA
ENDBRANCH   7   8
ENDBRANCH   6   7
ENDBRANCH   5   6
ENDBRANCH   4   5
ENDBRANCH   3   4
ENDBRANCH   2   3
ENDBRANCH   1   2
BRANCH   1  11
ATOM     11  C   UNL     1    -103.453  24.394  12.248  1.00  0.00    -0.031 C 
ATOM     12  C   UNL     1    -102.830  25.184  13.141  1.00  0.00    -0.027 C 
BRANCH  12  13
ATOM     13  C   UNL     1    -101.599  24.806  13.927  1.00  0.00     0.054 C 
BRANCH  13  14
ATOM     14  C   UNL     1    -101.899  24.833  15.398  1.00  0.00    -0.027 C 
ATOM     15  C   UNL     1    -102.870  24.073  15.926  1.00  0.00    -0.031 C 
BRANCH  15  16
ATOM     16  C   UNL     1    -103.171  24.093  17.399  1.00  0.00     0.027 C 
BRANCH  16  17
ATOM     17  C   UNL     1    -104.687  24.109  17.651  1.00  0.00     0.004 C 
BRANCH  17  18
ATOM     18  C   UNL     1    -105.486  24.541  16.412  1.00  0.00     0.000 C 
BRANCH  18  19
ATOM     19  C   UNL     1    -106.550  23.510  16.008  1.00  0.00    -0.003 C 
ATOM     20  C   UNL     1    -106.520  22.297  16.934  1.00  0.00     0.004 C 
ENDBRANCH  18  19
ENDBRANCH  17  18
ENDBRANCH  16  17
ENDBRANCH  15  16
ENDBRANCH  13  14
ENDBRANCH  12  13
ENDBRANCH   1  11
TORSDOF 14
ENDMDL
