MODEL 1
REMARK VINA RESULT:    -5.826      0.000      0.000
REMARK INTER + INTRA:          -6.380
REMARK INTER:                  -6.336
REMARK INTRA:                  -0.044
REMARK UNBOUND:                -0.044
REMARK SMILES COc1cc2ccc(=O)oc2cc1O
REMARK SMILES IDX 3 1 13 2 12 3 11 4 5 5 4 6 6 7 7 8 8 9 9 10 10 11 2 12 1 13
REMARK SMILES IDX 14 14
REMARK H PARENT 14 15
REMARK Flexibility Score: inf
ROOT
ATOM      1  C   UNL     1       5.088   2.982  16.767  1.00  0.00     0.161 A 
ATOM      2  C   UNL     1       4.828   3.888  15.720  1.00  0.00     0.161 A 
ATOM      3  C   UNL     1       5.572   5.068  15.607  1.00  0.00     0.098 A 
ATOM      4  C   UNL     1       6.577   5.360  16.531  1.00  0.00     0.142 A 
ATOM      5  C   UNL     1       6.845   4.461  17.583  1.00  0.00     0.022 A 
ATOM      6  C   UNL     1       6.103   3.278  17.700  1.00  0.00     0.062 A 
ATOM      7  C   UNL     1       7.859   4.781  18.493  1.00  0.00     0.019 A 
ATOM      8  C   UNL     1       8.570   5.971  18.335  1.00  0.00     0.094 A 
ATOM      9  C   UNL     1       8.249   6.815  17.266  1.00  0.00     0.336 A 
ATOM     10  O   UNL     1       8.878   7.893  17.107  1.00  0.00    -0.246 OA
ATOM     11  O   UNL     1       7.280   6.486  16.416  1.00  0.00    -0.423 OA
ENDROOT
BRANCH   1  12
ATOM     12  O   UNL     1       4.323   1.807  16.849  1.00  0.00    -0.493 OA
ATOM     13  C   UNL     1       4.660   0.679  17.651  1.00  0.00     0.278 C 
ENDBRANCH   1  12
BRANCH   2  14
ATOM     14  O   UNL     1       3.832   3.631  14.778  1.00  0.00    -0.504 OA
ATOM     15  H   UNL     1       2.882   3.963  14.892  1.00  0.00     0.293 HD
ENDBRANCH   2  14
TORSDOF 2
ENDMDL
MODEL 2
REMARK VINA RESULT:    -5.745      0.288      0.288
REMARK INTER + INTRA:          -6.292
REMARK INTER:                  -6.248
REMARK INTRA:                  -0.044
REMARK UNBOUND:                -0.044
REMARK SMILES COc1cc2ccc(=O)oc2cc1O
REMARK SMILES IDX 3 1 13 2 12 3 11 4 5 5 4 6 6 7 7 8 8 9 9 10 10 11 2 12 1 13
REMARK SMILES IDX 14 14
REMARK H PARENT 14 15
REMARK Flexibility Score: inf
ROOT
ATOM      1  C   UNL     1       4.986   2.788  16.948  1.00  0.00     0.161 A 
ATOM      2  C   UNL     1       4.673   3.713  15.933  1.00  0.00     0.161 A 
ATOM      3  C   UNL     1       5.433   4.879  15.782  1.00  0.00     0.098 A 
ATOM      4  C   UNL     1       6.507   5.138  16.636  1.00  0.00     0.142 A 
ATOM      5  C   UNL     1       6.829   4.219  17.656  1.00  0.00     0.022 A 
ATOM      6  C   UNL     1       6.071   3.050  17.810  1.00  0.00     0.062 A 
ATOM      7  C   UNL     1       7.911   4.506  18.495  1.00  0.00     0.019 A 
ATOM      8  C   UNL     1       8.635   5.682  18.302  1.00  0.00     0.094 A 
ATOM      9  C   UNL     1       8.258   6.547  17.269  1.00  0.00     0.336 A 
ATOM     10  O   UNL     1       8.898   7.613  17.078  1.00  0.00    -0.246 OA
ATOM     11  O   UNL     1       7.224   6.250  16.485  1.00  0.00    -0.423 OA
ENDROOT
BRANCH   1  12
ATOM     12  O   UNL     1       4.204   1.629  17.070  1.00  0.00    -0.493 OA
ATOM     13  C   UNL     1       4.579   0.476  17.817  1.00  0.00     0.278 C 
ENDBRANCH   1  12
BRANCH   2  14
ATOM     14  O   UNL     1       3.608   3.490  15.061  1.00  0.00    -0.504 OA
ATOM     15  H   UNL     1       2.646   3.469  15.377  1.00  0.00     0.293 HD
ENDBRANCH   2  14
TORSDOF 2
ENDMDL
MODEL 3
REMARK VINA RESULT:    -5.236      2.101      2.116
REMARK INTER + INTRA:          -5.739
REMARK INTER:                  -5.694
REMARK INTRA:                  -0.045
REMARK UNBOUND:                -0.044
REMARK SMILES COc1cc2ccc(=O)oc2cc1O
REMARK SMILES IDX 3 1 13 2 12 3 11 4 5 5 4 6 6 7 7 8 8 9 9 10 10 11 2 12 1 13
REMARK SMILES IDX 14 14
REMARK H PARENT 14 15
REMARK Flexibility Score: inf
ROOT
ATOM      1  C   UNL     1       4.493   3.286  16.732  1.00  0.00     0.161 A 
ATOM      2  C   UNL     1       4.131   4.158  15.687  1.00  0.00     0.161 A 
ATOM      3  C   UNL     1       4.270   5.542  15.843  1.00  0.00     0.098 A 
ATOM      4  C   UNL     1       4.767   6.072  17.035  1.00  0.00     0.142 A 
ATOM      5  C   UNL     1       5.132   5.208  18.088  1.00  0.00     0.022 A 
ATOM      6  C   UNL     1       4.995   3.822  17.936  1.00  0.00     0.062 A 
ATOM      7  C   UNL     1       5.627   5.769  19.270  1.00  0.00     0.019 A 
ATOM      8  C   UNL     1       5.745   7.155  19.374  1.00  0.00     0.094 A 
ATOM      9  C   UNL     1       5.363   7.950  18.288  1.00  0.00     0.336 A 
ATOM     10  O   UNL     1       5.461   9.202  18.361  1.00  0.00    -0.246 OA
ATOM     11  O   UNL     1       4.895   7.390  17.175  1.00  0.00    -0.423 OA
ENDROOT
BRANCH   1  12
ATOM     12  O   UNL     1       4.342   1.903  16.541  1.00  0.00    -0.493 OA
ATOM     13  C   UNL     1       5.068   0.905  17.252  1.00  0.00     0.278 C 
ENDBRANCH   1  12
BRANCH   2  14
ATOM     14  O   UNL     1       3.631   3.667  14.481  1.00  0.00    -0.504 OA
ATOM     15  H   UNL     1       3.763   4.154  13.603  1.00  0.00     0.293 HD
ENDBRANCH   2  14
TORSDOF 2
ENDMDL
MODEL 4
REMARK VINA RESULT:    -5.188      3.331      5.841
REMARK INTER + INTRA:          -5.687
REMARK INTER:                  -5.643
REMARK INTRA:                  -0.044
REMARK UNBOUND:                -0.044
REMARK SMILES COc1cc2ccc(=O)oc2cc1O
REMARK SMILES IDX 3 1 13 2 12 3 11 4 5 5 4 6 6 7 7 8 8 9 9 10 10 11 2 12 1 13
REMARK SMILES IDX 14 14
REMARK H PARENT 14 15
REMARK Flexibility Score: inf
ROOT
ATOM      1  C   UNL     1       7.761   9.106  18.693  1.00  0.00     0.161 A 
ATOM      2  C   UNL     1       8.581   8.791  17.592  1.00  0.00     0.161 A 
ATOM      3  C   UNL     1       8.880   7.456  17.295  1.00  0.00     0.098 A 
ATOM      4  C   UNL     1       8.372   6.424  18.087  1.00  0.00     0.142 A 
ATOM      5  C   UNL     1       7.551   6.729  19.192  1.00  0.00     0.022 A 
ATOM      6  C   UNL     1       7.248   8.063  19.493  1.00  0.00     0.062 A 
ATOM      7  C   UNL     1       7.057   5.673  19.966  1.00  0.00     0.019 A 
ATOM      8  C   UNL     1       7.387   4.361  19.627  1.00  0.00     0.094 A 
ATOM      9  C   UNL     1       8.207   4.136  18.515  1.00  0.00     0.336 A 
ATOM     10  O   UNL     1       8.516   2.959  18.192  1.00  0.00    -0.246 OA
ATOM     11  O   UNL     1       8.664   5.158  17.796  1.00  0.00    -0.423 OA
ENDROOT
BRANCH   1  12
ATOM     12  O   UNL     1       7.479  10.455  18.962  1.00  0.00    -0.493 OA
ATOM     13  C   UNL     1       7.001  10.948  20.210  1.00  0.00     0.278 C 
ENDBRANCH   1  12
BRANCH   2  14
ATOM     14  O   UNL     1       9.107   9.793  16.778  1.00  0.00    -0.504 OA
ATOM     15  H   UNL     1       8.531  10.330  16.140  1.00  0.00     0.293 HD
ENDBRANCH   2  14
TORSDOF 2
ENDMDL
MODEL 5
REMARK VINA RESULT:    -5.156      2.160      2.951
REMARK INTER + INTRA:          -5.652
REMARK INTER:                  -5.606
REMARK INTRA:                  -0.046
REMARK UNBOUND:                -0.044
REMARK SMILES COc1cc2ccc(=O)oc2cc1O
REMARK SMILES IDX 3 1 13 2 12 3 11 4 5 5 4 6 6 7 7 8 8 9 9 10 10 11 2 12 1 13
REMARK SMILES IDX 14 14
REMARK H PARENT 14 15
REMARK Flexibility Score: inf
ROOT
ATOM      1  C   UNL     1       3.178   5.610  16.428  1.00  0.00     0.161 A 
ATOM      2  C   UNL     1       3.901   4.839  15.497  1.00  0.00     0.161 A 
ATOM      3  C   UNL     1       5.300   4.899  15.466  1.00  0.00     0.098 A 
ATOM      4  C   UNL     1       5.992   5.722  16.356  1.00  0.00     0.142 A 
ATOM      5  C   UNL     1       5.278   6.499  17.292  1.00  0.00     0.022 A 
ATOM      6  C   UNL     1       3.878   6.442  17.327  1.00  0.00     0.062 A 
ATOM      7  C   UNL     1       5.999   7.314  18.171  1.00  0.00     0.019 A 
ATOM      8  C   UNL     1       7.392   7.337  18.098  1.00  0.00     0.094 A 
ATOM      9  C   UNL     1       8.032   6.539  17.143  1.00  0.00     0.336 A 
ATOM     10  O   UNL     1       9.288   6.545  17.061  1.00  0.00    -0.246 OA
ATOM     11  O   UNL     1       7.322   5.773  16.320  1.00  0.00    -0.423 OA
ENDROOT
BRANCH   1  12
ATOM     12  O   UNL     1       1.777   5.526  16.432  1.00  0.00    -0.493 OA
ATOM     13  C   UNL     1       0.903   6.608  16.738  1.00  0.00     0.278 C 
ENDBRANCH   1  12
BRANCH   2  14
ATOM     14  O   UNL     1       3.246   4.005  14.592  1.00  0.00    -0.504 OA
ATOM     15  H   UNL     1       2.691   4.368  13.826  1.00  0.00     0.293 HD
ENDBRANCH   2  14
TORSDOF 2
ENDMDL
MODEL 6
REMARK VINA RESULT:    -5.153      2.843      5.513
REMARK INTER + INTRA:          -5.648
REMARK INTER:                  -5.585
REMARK INTRA:                  -0.063
REMARK UNBOUND:                -0.044
REMARK SMILES COc1cc2ccc(=O)oc2cc1O
REMARK SMILES IDX 3 1 13 2 12 3 11 4 5 5 4 6 6 7 7 8 8 9 9 10 10 11 2 12 1 13
REMARK SMILES IDX 14 14
REMARK H PARENT 14 15
REMARK Flexibility Score: inf
ROOT
ATOM      1  C   UNL     1       6.846   8.946  18.878  1.00  0.00     0.161 A 
ATOM      2  C   UNL     1       5.582   8.722  18.297  1.00  0.00     0.161 A 
ATOM      3  C   UNL     1       5.200   7.431  17.916  1.00  0.00     0.098 A 
ATOM      4  C   UNL     1       6.066   6.352  18.106  1.00  0.00     0.142 A 
ATOM      5  C   UNL     1       7.333   6.565  18.687  1.00  0.00     0.022 A 
ATOM      6  C   UNL     1       7.720   7.856  19.071  1.00  0.00     0.062 A 
ATOM      7  C   UNL     1       8.178   5.464  18.865  1.00  0.00     0.019 A 
ATOM      8  C   UNL     1       7.748   4.199  18.467  1.00  0.00     0.094 A 
ATOM      9  C   UNL     1       6.477   4.064  17.898  1.00  0.00     0.336 A 
ATOM     10  O   UNL     1       6.070   2.930  17.532  1.00  0.00    -0.246 OA
ATOM     11  O   UNL     1       5.694   5.127  17.740  1.00  0.00    -0.423 OA
ENDROOT
BRANCH   1  12
ATOM     12  O   UNL     1       7.197  10.254  19.251  1.00  0.00    -0.493 OA
ATOM     13  C   UNL     1       7.046  10.789  20.561  1.00  0.00     0.278 C 
ENDBRANCH   1  12
BRANCH   2  14
ATOM     14  O   UNL     1       4.690   9.774  18.091  1.00  0.00    -0.504 OA
ATOM     15  H   UNL     1       4.432  10.417  18.830  1.00  0.00     0.293 HD
ENDBRANCH   2  14
TORSDOF 2
ENDMDL
MODEL 7
REMARK VINA RESULT:    -5.131      1.944      5.151
REMARK INTER + INTRA:          -5.625
REMARK INTER:                  -5.580
REMARK INTRA:                  -0.045
REMARK UNBOUND:                -0.044
REMARK SMILES COc1cc2ccc(=O)oc2cc1O
REMARK SMILES IDX 3 1 13 2 12 3 11 4 5 5 4 6 6 7 7 8 8 9 9 10 10 11 2 12 1 13
REMARK SMILES IDX 14 14
REMARK H PARENT 14 15
REMARK Flexibility Score: inf
ROOT
ATOM      1  C   UNL     1       7.225   7.272  18.819  1.00  0.00     0.161 A 
ATOM      2  C   UNL     1       7.661   7.146  17.486  1.00  0.00     0.161 A 
ATOM      3  C   UNL     1       7.241   6.062  16.706  1.00  0.00     0.098 A 
ATOM      4  C   UNL     1       6.387   5.095  17.241  1.00  0.00     0.142 A 
ATOM      5  C   UNL     1       5.946   5.211  18.575  1.00  0.00     0.022 A 
ATOM      6  C   UNL     1       6.363   6.295  19.359  1.00  0.00     0.062 A 
ATOM      7  C   UNL     1       5.091   4.226  19.082  1.00  0.00     0.019 A 
ATOM      8  C   UNL     1       4.703   3.166  18.263  1.00  0.00     0.094 A 
ATOM      9  C   UNL     1       5.182   3.117  16.949  1.00  0.00     0.336 A 
ATOM     10  O   UNL     1       4.844   2.169  16.193  1.00  0.00    -0.246 OA
ATOM     11  O   UNL     1       5.994   4.067  16.492  1.00  0.00    -0.423 OA
ENDROOT
BRANCH   1  12
ATOM     12  O   UNL     1       7.664   8.372  19.573  1.00  0.00    -0.493 OA
ATOM     13  C   UNL     1       6.923   8.976  20.629  1.00  0.00     0.278 C 
ENDBRANCH   1  12
BRANCH   2  14
ATOM     14  O   UNL     1       8.513   8.091  16.916  1.00  0.00    -0.504 OA
ATOM     15  H   UNL     1       8.246   8.643  16.109  1.00  0.00     0.293 HD
ENDBRANCH   2  14
TORSDOF 2
ENDMDL
MODEL 8
REMARK VINA RESULT:    -5.088      2.058      4.678
REMARK INTER + INTRA:          -5.578
REMARK INTER:                  -5.519
REMARK INTRA:                  -0.059
REMARK UNBOUND:                -0.044
REMARK SMILES COc1cc2ccc(=O)oc2cc1O
REMARK SMILES IDX 3 1 13 2 12 3 11 4 5 5 4 6 6 7 7 8 8 9 9 10 10 11 2 12 1 13
REMARK SMILES IDX 14 14
REMARK H PARENT 14 15
REMARK Flexibility Score: inf
ROOT
ATOM      1  C   UNL     1       6.937   5.031  19.654  1.00  0.00     0.161 A 
ATOM      2  C   UNL     1       7.085   6.030  18.672  1.00  0.00     0.161 A 
ATOM      3  C   UNL     1       6.578   5.833  17.382  1.00  0.00     0.098 A 
ATOM      4  C   UNL     1       5.923   4.644  17.055  1.00  0.00     0.142 A 
ATOM      5  C   UNL     1       5.770   3.637  18.030  1.00  0.00     0.022 A 
ATOM      6  C   UNL     1       6.274   3.831  19.323  1.00  0.00     0.062 A 
ATOM      7  C   UNL     1       5.108   2.457  17.672  1.00  0.00     0.019 A 
ATOM      8  C   UNL     1       4.623   2.310  16.373  1.00  0.00     0.094 A 
ATOM      9  C   UNL     1       4.812   3.353  15.459  1.00  0.00     0.336 A 
ATOM     10  O   UNL     1       4.382   3.240  14.281  1.00  0.00    -0.246 OA
ATOM     11  O   UNL     1       5.445   4.464  15.825  1.00  0.00    -0.423 OA
ENDROOT
BRANCH   1  12
ATOM     12  O   UNL     1       7.455   5.263  20.938  1.00  0.00    -0.493 OA
ATOM     13  C   UNL     1       6.672   5.335  22.125  1.00  0.00     0.278 C 
ENDBRANCH   1  12
BRANCH   2  14
ATOM     14  O   UNL     1       7.733   7.231  18.960  1.00  0.00    -0.504 OA
ATOM     15  H   UNL     1       8.737   7.336  18.879  1.00  0.00     0.293 HD
ENDBRANCH   2  14
TORSDOF 2
ENDMDL
MODEL 9
REMARK VINA RESULT:    -5.086      2.346      3.105
REMARK INTER + INTRA:          -5.576
REMARK INTER:                  -5.518
REMARK INTRA:                  -0.059
REMARK UNBOUND:                -0.044
REMARK SMILES COc1cc2ccc(=O)oc2cc1O
REMARK SMILES IDX 3 1 13 2 12 3 11 4 5 5 4 6 6 7 7 8 8 9 9 10 10 11 2 12 1 13
REMARK SMILES IDX 14 14
REMARK H PARENT 14 15
REMARK Flexibility Score: inf
ROOT
ATOM      1  C   UNL     1       5.527   3.946  17.141  1.00  0.00     0.161 A 
ATOM      2  C   UNL     1       5.066   3.633  18.435  1.00  0.00     0.161 A 
ATOM      3  C   UNL     1       5.289   4.518  19.497  1.00  0.00     0.098 A 
ATOM      4  C   UNL     1       5.971   5.718  19.285  1.00  0.00     0.142 A 
ATOM      5  C   UNL     1       6.438   6.040  17.994  1.00  0.00     0.022 A 
ATOM      6  C   UNL     1       6.216   5.158  16.928  1.00  0.00     0.062 A 
ATOM      7  C   UNL     1       7.118   7.250  17.814  1.00  0.00     0.019 A 
ATOM      8  C   UNL     1       7.314   8.095  18.906  1.00  0.00     0.094 A 
ATOM      9  C   UNL     1       6.823   7.708  20.158  1.00  0.00     0.336 A 
ATOM     10  O   UNL     1       6.989   8.457  21.155  1.00  0.00    -0.246 OA
ATOM     11  O   UNL     1       6.179   6.553  20.301  1.00  0.00    -0.423 OA
ENDROOT
BRANCH   1  12
ATOM     12  O   UNL     1       5.285   3.037  16.099  1.00  0.00    -0.493 OA
ATOM     13  C   UNL     1       4.505   3.322  14.942  1.00  0.00     0.278 C 
ENDBRANCH   1  12
BRANCH   2  14
ATOM     14  O   UNL     1       4.380   2.445  18.686  1.00  0.00    -0.504 OA
ATOM     15  H   UNL     1       4.168   2.132  19.626  1.00  0.00     0.293 HD
ENDBRANCH   2  14
TORSDOF 2
ENDMDL
