MODEL 1
REMARK VINA RESULT:    -2.427      0.000      0.000
REMARK INTER + INTRA:          -2.427
REMARK INTER:                  -2.427
REMARK INTRA:                   0.000
REMARK UNBOUND:                 0.000
REMARK SMILES CC(=O)[O-]
REMARK SMILES IDX 1 1 2 2 3 3 4 4
REMARK H PARENT
REMARK Flexibility Score: inf
ROOT
ATOM      1  C   UNL     1      18.535  16.897   7.859  1.00  0.00     0.063 C 
ATOM      2  C   UNL     1      18.691  18.096   8.733  1.00  0.00     0.038 C 
ATOM      3  O   UNL     1      19.277  19.122   8.299  1.00  0.00    -0.550 OA
ATOM      4  O   UNL     1      18.237  18.064  10.045  1.00  0.00    -0.550 OA
ENDROOT
TORSDOF 0
ENDMDL
MODEL 2
REMARK VINA RESULT:    -2.336     12.194     12.478
REMARK INTER + INTRA:          -2.336
REMARK INTER:                  -2.336
REMARK INTRA:                   0.000
REMARK UNBOUND:                 0.000
REMARK SMILES CC(=O)[O-]
REMARK SMILES IDX 1 1 2 2 3 3 4 4
REMARK H PARENT
REMARK Flexibility Score: inf
ROOT
ATOM      1  C   UNL     1      26.248   7.059   5.168  1.00  0.00     0.063 C 
ATOM      2  C   UNL     1      25.288   8.012   5.797  1.00  0.00     0.038 C 
ATOM      3  O   UNL     1      24.063   7.956   5.511  1.00  0.00    -0.550 OA
ATOM      4  O   UNL     1      25.751   8.998   6.658  1.00  0.00    -0.550 OA
ENDROOT
TORSDOF 0
ENDMDL
MODEL 3
REMARK VINA RESULT:    -2.317     12.698     12.991
REMARK INTER + INTRA:          -2.317
REMARK INTER:                  -2.317
REMARK INTRA:                   0.000
REMARK UNBOUND:                 0.000
REMARK SMILES CC(=O)[O-]
REMARK SMILES IDX 1 1 2 2 3 3 4 4
REMARK H PARENT
REMARK Flexibility Score: inf
ROOT
ATOM      1  C   UNL     1      24.467   8.201   5.469  1.00  0.00     0.063 C 
ATOM      2  C   UNL     1      25.885   7.768   5.621  1.00  0.00     0.038 C 
ATOM      3  O   UNL     1      26.311   6.765   4.989  1.00  0.00    -0.550 OA
ATOM      4  O   UNL     1      26.726   8.436   6.501  1.00  0.00    -0.550 OA
ENDROOT
TORSDOF 0
ENDMDL
MODEL 4
REMARK VINA RESULT:    -2.316      1.585      2.230
REMARK INTER + INTRA:          -2.316
REMARK INTER:                  -2.316
REMARK INTRA:                   0.000
REMARK UNBOUND:                 0.000
REMARK SMILES CC(=O)[O-]
REMARK SMILES IDX 1 1 2 2 3 3 4 4
REMARK H PARENT
REMARK Flexibility Score: inf
ROOT
ATOM      1  C   UNL     1      18.315  18.315   9.622  1.00  0.00     0.063 C 
ATOM      2  C   UNL     1      18.860  17.783   8.340  1.00  0.00     0.038 C 
ATOM      3  O   UNL     1      18.201  16.941   7.675  1.00  0.00    -0.550 OA
ATOM      4  O   UNL     1      20.119  18.174   7.904  1.00  0.00    -0.550 OA
ENDROOT
TORSDOF 0
ENDMDL
MODEL 5
REMARK VINA RESULT:    -2.293     14.331     14.575
REMARK INTER + INTRA:          -2.293
REMARK INTER:                  -2.293
REMARK INTRA:                   0.000
REMARK UNBOUND:                 0.000
REMARK SMILES CC(=O)[O-]
REMARK SMILES IDX 1 1 2 2 3 3 4 4
REMARK H PARENT
REMARK Flexibility Score: inf
ROOT
ATOM      1  C   UNL     1      27.918   5.350   5.893  1.00  0.00     0.063 C 
ATOM      2  C   UNL     1      26.820   6.354   5.977  1.00  0.00     0.038 C 
ATOM      3  O   UNL     1      26.364   6.880   4.927  1.00  0.00    -0.550 OA
ATOM      4  O   UNL     1      26.334   6.753   7.215  1.00  0.00    -0.550 OA
ENDROOT
TORSDOF 0
ENDMDL
MODEL 6
REMARK VINA RESULT:    -2.216      2.780      2.990
REMARK INTER + INTRA:          -2.216
REMARK INTER:                  -2.216
REMARK INTRA:                   0.000
REMARK UNBOUND:                 0.000
REMARK SMILES CC(=O)[O-]
REMARK SMILES IDX 1 1 2 2 3 3 4 4
REMARK H PARENT
REMARK Flexibility Score: inf
ROOT
ATOM      1  C   UNL     1      18.553  17.262   7.951  1.00  0.00     0.063 C 
ATOM      2  C   UNL     1      19.255  16.244   7.118  1.00  0.00     0.038 C 
ATOM      3  O   UNL     1      19.853  16.592   6.067  1.00  0.00    -0.550 OA
ATOM      4  O   UNL     1      19.204  14.902   7.471  1.00  0.00    -0.550 OA
ENDROOT
TORSDOF 0
ENDMDL
MODEL 7
REMARK VINA RESULT:    -2.153     17.643     18.040
REMARK INTER + INTRA:          -2.153
REMARK INTER:                  -2.153
REMARK INTRA:                   0.000
REMARK UNBOUND:                 0.000
REMARK SMILES CC(=O)[O-]
REMARK SMILES IDX 1 1 2 2 3 3 4 4
REMARK H PARENT
REMARK Flexibility Score: inf
ROOT
ATOM      1  C   UNL     1      16.518   2.215  -1.630  1.00  0.00     0.063 C 
ATOM      2  C   UNL     1      15.859   3.532  -1.395  1.00  0.00     0.038 C 
ATOM      3  O   UNL     1      15.979   4.108  -0.281  1.00  0.00    -0.550 OA
ATOM      4  O   UNL     1      15.068   4.100  -2.384  1.00  0.00    -0.550 OA
ENDROOT
TORSDOF 0
ENDMDL
MODEL 8
REMARK VINA RESULT:    -2.149     17.803     18.163
REMARK INTER + INTRA:          -2.149
REMARK INTER:                  -2.149
REMARK INTRA:                   0.000
REMARK UNBOUND:                 0.000
REMARK SMILES CC(=O)[O-]
REMARK SMILES IDX 1 1 2 2 3 3 4 4
REMARK H PARENT
REMARK Flexibility Score: inf
ROOT
ATOM      1  C   UNL     1      15.810   3.929  -0.127  1.00  0.00     0.063 C 
ATOM      2  C   UNL     1      15.771   3.470  -1.545  1.00  0.00     0.038 C 
ATOM      3  O   UNL     1      15.055   4.076  -2.385  1.00  0.00    -0.550 OA
ATOM      4  O   UNL     1      16.480   2.340  -1.930  1.00  0.00    -0.550 OA
ENDROOT
TORSDOF 0
ENDMDL
MODEL 9
REMARK VINA RESULT:    -2.139     14.041     14.343
REMARK INTER + INTRA:          -2.139
REMARK INTER:                  -2.139
REMARK INTRA:                   0.000
REMARK UNBOUND:                 0.000
REMARK SMILES CC(=O)[O-]
REMARK SMILES IDX 1 1 2 2 3 3 4 4
REMARK H PARENT
REMARK Flexibility Score: inf
ROOT
ATOM      1  C   UNL     1      26.045   7.664   5.218  1.00  0.00     0.063 C 
ATOM      2  C   UNL     1      26.674   6.600   6.051  1.00  0.00     0.038 C 
ATOM      3  O   UNL     1      26.465   6.563   7.292  1.00  0.00    -0.550 OA
ATOM      4  O   UNL     1      27.536   5.679   5.470  1.00  0.00    -0.550 OA
ENDROOT
TORSDOF 0
ENDMDL
