MODEL 1
REMARK VINA RESULT:    -5.360      0.000      0.000
REMARK INTER + INTRA:          -6.075
REMARK INTER:                  -5.987
REMARK INTRA:                  -0.088
REMARK UNBOUND:                -0.088
REMARK SMILES CCc1ccc(O)cc1O
REMARK SMILES IDX 3 1 9 2 8 3 6 4 5 5 4 6 2 7 1 8 10 9 7 11
REMARK H PARENT 10 10 7 12
REMARK Flexibility Score: inf
ROOT
ATOM      1  C   UNL     1     -11.726  -5.091  -5.849  1.00  0.00    -0.006 A 
ATOM      2  C   UNL     1     -11.552  -3.883  -6.554  1.00  0.00     0.122 A 
ATOM      3  C   UNL     1     -10.951  -3.895  -7.822  1.00  0.00     0.092 A 
ATOM      4  C   UNL     1     -10.514  -5.096  -8.387  1.00  0.00     0.119 A 
ATOM      5  C   UNL     1     -10.675  -6.296  -7.682  1.00  0.00     0.047 A 
ATOM      6  C   UNL     1     -11.272  -6.293  -6.419  1.00  0.00     0.011 A 
ENDROOT
BRANCH   1   7
ATOM      7  C   UNL     1     -12.341  -5.104  -4.472  1.00  0.00     0.036 C 
ATOM      8  C   UNL     1     -13.338  -6.249  -4.335  1.00  0.00     0.009 C 
ENDBRANCH   1   7
BRANCH   2   9
ATOM      9  O   UNL     1     -11.971  -2.676  -5.994  1.00  0.00    -0.508 OA
ATOM     10  H   UNL     1     -12.924  -2.346  -6.096  1.00  0.00     0.293 HD
ENDBRANCH   2   9
BRANCH   4  11
ATOM     11  O   UNL     1      -9.921  -5.088  -9.648  1.00  0.00    -0.508 OA
ATOM     12  H   UNL     1      -8.922  -4.965  -9.762  1.00  0.00     0.293 HD
ENDBRANCH   4  11
TORSDOF 3
ENDMDL
MODEL 2
REMARK VINA RESULT:    -5.199      1.689      4.248
REMARK INTER + INTRA:          -5.895
REMARK INTER:                  -5.809
REMARK INTRA:                  -0.086
REMARK UNBOUND:                -0.088
REMARK SMILES CCc1ccc(O)cc1O
REMARK SMILES IDX 3 1 9 2 8 3 6 4 5 5 4 6 2 7 1 8 10 9 7 11
REMARK H PARENT 10 10 7 12
REMARK Flexibility Score: inf
ROOT
ATOM      1  C   UNL     1     -10.843  -4.934  -7.969  1.00  0.00    -0.006 A 
ATOM      2  C   UNL     1     -10.187  -5.682  -6.972  1.00  0.00     0.122 A 
ATOM      3  C   UNL     1     -10.611  -5.592  -5.638  1.00  0.00     0.092 A 
ATOM      4  C   UNL     1     -11.675  -4.755  -5.288  1.00  0.00     0.119 A 
ATOM      5  C   UNL     1     -12.319  -4.000  -6.276  1.00  0.00     0.047 A 
ATOM      6  C   UNL     1     -11.903  -4.084  -7.607  1.00  0.00     0.011 A 
ENDROOT
BRANCH   1   7
ATOM      7  C   UNL     1     -10.388  -4.988  -9.406  1.00  0.00     0.036 C 
ATOM      8  C   UNL     1     -11.236  -4.068 -10.277  1.00  0.00     0.009 C 
ENDBRANCH   1   7
BRANCH   2   9
ATOM      9  O   UNL     1      -9.115  -6.511  -7.307  1.00  0.00    -0.508 OA
ATOM     10  H   UNL     1      -9.219  -7.273  -7.966  1.00  0.00     0.293 HD
ENDBRANCH   2   9
BRANCH   4  11
ATOM     11  O   UNL     1     -12.082  -4.680  -3.958  1.00  0.00    -0.508 OA
ATOM     12  H   UNL     1     -12.054  -3.807  -3.444  1.00  0.00     0.293 HD
ENDBRANCH   4  11
TORSDOF 3
ENDMDL
MODEL 3
REMARK VINA RESULT:    -5.129      1.446      1.780
REMARK INTER + INTRA:          -5.816
REMARK INTER:                  -5.730
REMARK INTRA:                  -0.086
REMARK UNBOUND:                -0.088
REMARK SMILES CCc1ccc(O)cc1O
REMARK SMILES IDX 3 1 9 2 8 3 6 4 5 5 4 6 2 7 1 8 10 9 7 11
REMARK H PARENT 10 10 7 12
REMARK Flexibility Score: inf
ROOT
ATOM      1  C   UNL     1     -10.923  -5.107  -6.737  1.00  0.00    -0.006 A 
ATOM      2  C   UNL     1     -11.503  -3.870  -7.082  1.00  0.00     0.122 A 
ATOM      3  C   UNL     1     -11.612  -3.502  -8.432  1.00  0.00     0.092 A 
ATOM      4  C   UNL     1     -11.139  -4.350  -9.437  1.00  0.00     0.119 A 
ATOM      5  C   UNL     1     -10.550  -5.574  -9.094  1.00  0.00     0.047 A 
ATOM      6  C   UNL     1     -10.438  -5.948  -7.753  1.00  0.00     0.011 A 
ENDROOT
BRANCH   1   7
ATOM      7  C   UNL     1     -10.765  -5.513  -5.293  1.00  0.00     0.036 C 
ATOM      8  C   UNL     1      -9.690  -6.585  -5.147  1.00  0.00     0.009 C 
ENDBRANCH   1   7
BRANCH   2   9
ATOM      9  O   UNL     1     -11.966  -3.009  -6.087  1.00  0.00    -0.508 OA
ATOM     10  H   UNL     1     -11.415  -2.221  -5.767  1.00  0.00     0.293 HD
ENDBRANCH   2   9
BRANCH   4  11
ATOM     11  O   UNL     1     -11.257  -3.968 -10.771  1.00  0.00    -0.508 OA
ATOM     12  H   UNL     1     -11.496  -4.637 -11.495  1.00  0.00     0.293 HD
ENDBRANCH   4  11
TORSDOF 3
ENDMDL
MODEL 4
REMARK VINA RESULT:    -5.092      1.899      2.775
REMARK INTER + INTRA:          -5.775
REMARK INTER:                  -5.689
REMARK INTRA:                  -0.086
REMARK UNBOUND:                -0.088
REMARK SMILES CCc1ccc(O)cc1O
REMARK SMILES IDX 3 1 9 2 8 3 6 4 5 5 4 6 2 7 1 8 10 9 7 11
REMARK H PARENT 10 10 7 12
REMARK Flexibility Score: inf
ROOT
ATOM      1  C   UNL     1     -10.985  -5.647  -6.715  1.00  0.00    -0.006 A 
ATOM      2  C   UNL     1     -10.263  -5.634  -7.925  1.00  0.00     0.122 A 
ATOM      3  C   UNL     1     -10.556  -4.671  -8.902  1.00  0.00     0.092 A 
ATOM      4  C   UNL     1     -11.568  -3.730  -8.688  1.00  0.00     0.119 A 
ATOM      5  C   UNL     1     -12.295  -3.751  -7.491  1.00  0.00     0.047 A 
ATOM      6  C   UNL     1     -12.009  -4.706  -6.513  1.00  0.00     0.011 A 
ENDROOT
BRANCH   1   7
ATOM      7  C   UNL     1     -10.711  -6.690  -5.660  1.00  0.00     0.036 C 
ATOM      8  C   UNL     1     -11.515  -7.958  -5.931  1.00  0.00     0.009 C 
ENDBRANCH   1   7
BRANCH   2   9
ATOM      9  O   UNL     1      -9.261  -6.576  -8.155  1.00  0.00    -0.508 OA
ATOM     10  H   UNL     1      -8.960  -6.814  -9.093  1.00  0.00     0.293 HD
ENDBRANCH   2   9
BRANCH   4  11
ATOM     11  O   UNL     1     -11.844  -2.781  -9.669  1.00  0.00    -0.508 OA
ATOM     12  H   UNL     1     -11.110  -2.386 -10.246  1.00  0.00     0.293 HD
ENDBRANCH   4  11
TORSDOF 3
ENDMDL
MODEL 5
REMARK VINA RESULT:    -5.085      1.931      3.667
REMARK INTER + INTRA:          -5.767
REMARK INTER:                  -5.681
REMARK INTRA:                  -0.086
REMARK UNBOUND:                -0.088
REMARK SMILES CCc1ccc(O)cc1O
REMARK SMILES IDX 3 1 9 2 8 3 6 4 5 5 4 6 2 7 1 8 10 9 7 11
REMARK H PARENT 10 10 7 12
REMARK Flexibility Score: inf
ROOT
ATOM      1  C   UNL     1     -11.030  -4.482  -8.493  1.00  0.00    -0.006 A 
ATOM      2  C   UNL     1     -11.652  -4.153  -7.272  1.00  0.00     0.122 A 
ATOM      3  C   UNL     1     -11.303  -4.843  -6.102  1.00  0.00     0.092 A 
ATOM      4  C   UNL     1     -10.349  -5.864  -6.140  1.00  0.00     0.119 A 
ATOM      5  C   UNL     1      -9.740  -6.201  -7.356  1.00  0.00     0.047 A 
ATOM      6  C   UNL     1     -10.081  -5.518  -8.525  1.00  0.00     0.011 A 
ENDROOT
BRANCH   1   7
ATOM      7  C   UNL     1     -11.409  -3.777  -9.772  1.00  0.00     0.036 C 
ATOM      8  C   UNL     1     -11.052  -4.628 -10.985  1.00  0.00     0.009 C 
ENDBRANCH   1   7
BRANCH   2   9
ATOM      9  O   UNL     1     -12.616  -3.145  -7.224  1.00  0.00    -0.508 OA
ATOM     10  H   UNL     1     -13.185  -2.993  -6.400  1.00  0.00     0.293 HD
ENDBRANCH   2   9
BRANCH   4  11
ATOM     11  O   UNL     1     -10.014  -6.537  -4.968  1.00  0.00    -0.508 OA
ATOM     12  H   UNL     1     -10.612  -6.508  -4.150  1.00  0.00     0.293 HD
ENDBRANCH   4  11
TORSDOF 3
ENDMDL
MODEL 6
REMARK VINA RESULT:    -5.036      1.615      3.191
REMARK INTER + INTRA:          -5.712
REMARK INTER:                  -5.608
REMARK INTRA:                  -0.104
REMARK UNBOUND:                -0.088
REMARK SMILES CCc1ccc(O)cc1O
REMARK SMILES IDX 3 1 9 2 8 3 6 4 5 5 4 6 2 7 1 8 10 9 7 11
REMARK H PARENT 10 10 7 12
REMARK Flexibility Score: inf
ROOT
ATOM      1  C   UNL     1     -10.195  -6.160  -5.912  1.00  0.00    -0.006 A 
ATOM      2  C   UNL     1     -10.153  -5.838  -7.283  1.00  0.00     0.122 A 
ATOM      3  C   UNL     1     -10.990  -4.833  -7.791  1.00  0.00     0.092 A 
ATOM      4  C   UNL     1     -11.875  -4.155  -6.946  1.00  0.00     0.119 A 
ATOM      5  C   UNL     1     -11.927  -4.484  -5.586  1.00  0.00     0.047 A 
ATOM      6  C   UNL     1     -11.096  -5.483  -5.073  1.00  0.00     0.011 A 
ENDROOT
BRANCH   1   7
ATOM      7  C   UNL     1      -9.327  -7.257  -5.346  1.00  0.00     0.036 C 
ATOM      8  C   UNL     1     -10.057  -8.595  -5.381  1.00  0.00     0.009 C 
ENDBRANCH   1   7
BRANCH   2   9
ATOM      9  O   UNL     1      -9.284  -6.516  -8.138  1.00  0.00    -0.508 OA
ATOM     10  H   UNL     1      -8.381  -6.134  -8.391  1.00  0.00     0.293 HD
ENDBRANCH   2   9
BRANCH   4  11
ATOM     11  O   UNL     1     -12.698  -3.160  -7.468  1.00  0.00    -0.508 OA
ATOM     12  H   UNL     1     -13.532  -2.852  -6.981  1.00  0.00     0.293 HD
ENDBRANCH   4  11
TORSDOF 3
ENDMDL
MODEL 7
REMARK VINA RESULT:    -5.011     13.146     14.477
REMARK INTER + INTRA:          -5.685
REMARK INTER:                  -5.599
REMARK INTRA:                  -0.086
REMARK UNBOUND:                -0.088
REMARK SMILES CCc1ccc(O)cc1O
REMARK SMILES IDX 3 1 9 2 8 3 6 4 5 5 4 6 2 7 1 8 10 9 7 11
REMARK H PARENT 10 10 7 12
REMARK Flexibility Score: inf
ROOT
ATOM      1  C   UNL     1      -0.001 -13.269  -5.083  1.00  0.00    -0.006 A 
ATOM      2  C   UNL     1       0.226 -13.437  -3.703  1.00  0.00     0.122 A 
ATOM      3  C   UNL     1      -0.862 -13.566  -2.827  1.00  0.00     0.092 A 
ATOM      4  C   UNL     1      -2.172 -13.519  -3.313  1.00  0.00     0.119 A 
ATOM      5  C   UNL     1      -2.399 -13.338  -4.684  1.00  0.00     0.047 A 
ATOM      6  C   UNL     1      -1.321 -13.208  -5.563  1.00  0.00     0.011 A 
ENDROOT
BRANCH   1   7
ATOM      7  C   UNL     1       1.150 -13.096  -6.043  1.00  0.00     0.036 C 
ATOM      8  C   UNL     1       0.840 -13.754  -7.383  1.00  0.00     0.009 C 
ENDBRANCH   1   7
BRANCH   2   9
ATOM      9  O   UNL     1       1.528 -13.472  -3.204  1.00  0.00    -0.508 OA
ATOM     10  H   UNL     1       1.886 -14.281  -2.709  1.00  0.00     0.293 HD
ENDBRANCH   2   9
BRANCH   4  11
ATOM     11  O   UNL     1      -3.240 -13.650  -2.429  1.00  0.00    -0.508 OA
ATOM     12  H   UNL     1      -3.946 -14.367  -2.553  1.00  0.00     0.293 HD
ENDBRANCH   4  11
TORSDOF 3
ENDMDL
MODEL 8
REMARK VINA RESULT:    -4.896      1.777      3.741
REMARK INTER + INTRA:          -5.556
REMARK INTER:                  -5.469
REMARK INTRA:                  -0.087
REMARK UNBOUND:                -0.088
REMARK SMILES CCc1ccc(O)cc1O
REMARK SMILES IDX 3 1 9 2 8 3 6 4 5 5 4 6 2 7 1 8 10 9 7 11
REMARK H PARENT 10 10 7 12
REMARK Flexibility Score: inf
ROOT
ATOM      1  C   UNL     1     -11.173  -5.233  -7.570  1.00  0.00    -0.006 A 
ATOM      2  C   UNL     1     -12.168  -4.397  -7.026  1.00  0.00     0.122 A 
ATOM      3  C   UNL     1     -12.830  -4.774  -5.848  1.00  0.00     0.092 A 
ATOM      4  C   UNL     1     -12.517  -5.981  -5.215  1.00  0.00     0.119 A 
ATOM      5  C   UNL     1     -11.537  -6.820  -5.763  1.00  0.00     0.047 A 
ATOM      6  C   UNL     1     -10.873  -6.451  -6.935  1.00  0.00     0.011 A 
ENDROOT
BRANCH   1   7
ATOM      7  C   UNL     1     -10.466  -4.867  -8.852  1.00  0.00     0.036 C 
ATOM      8  C   UNL     1     -11.259  -5.347 -10.062  1.00  0.00     0.009 C 
ENDBRANCH   1   7
BRANCH   2   9
ATOM      9  O   UNL     1     -12.498  -3.197  -7.656  1.00  0.00    -0.508 OA
ATOM     10  H   UNL     1     -12.613  -3.139  -8.661  1.00  0.00     0.293 HD
ENDBRANCH   2   9
BRANCH   4  11
ATOM     11  O   UNL     1     -13.184  -6.338  -4.046  1.00  0.00    -0.508 OA
ATOM     12  H   UNL     1     -12.711  -6.354  -3.149  1.00  0.00     0.293 HD
ENDBRANCH   4  11
TORSDOF 3
ENDMDL
MODEL 9
REMARK VINA RESULT:    -4.701     12.430     13.516
REMARK INTER + INTRA:          -5.338
REMARK INTER:                  -5.238
REMARK INTRA:                  -0.100
REMARK UNBOUND:                -0.088
REMARK SMILES CCc1ccc(O)cc1O
REMARK SMILES IDX 3 1 9 2 8 3 6 4 5 5 4 6 2 7 1 8 10 9 7 11
REMARK H PARENT 10 10 7 12
REMARK Flexibility Score: inf
ROOT
ATOM      1  C   UNL     1      -1.954 -12.970  -4.980  1.00  0.00    -0.006 A 
ATOM      2  C   UNL     1      -1.975 -13.179  -3.586  1.00  0.00     0.122 A 
ATOM      3  C   UNL     1      -0.774 -13.386  -2.893  1.00  0.00     0.092 A 
ATOM      4  C   UNL     1       0.445 -13.398  -3.577  1.00  0.00     0.119 A 
ATOM      5  C   UNL     1       0.467 -13.204  -4.964  1.00  0.00     0.047 A 
ATOM      6  C   UNL     1      -0.726 -12.997  -5.662  1.00  0.00     0.011 A 
ENDROOT
BRANCH   1   7
ATOM      7  C   UNL     1      -3.234 -12.776  -5.755  1.00  0.00     0.036 C 
ATOM      8  C   UNL     1      -3.583 -11.295  -5.860  1.00  0.00     0.009 C 
ENDBRANCH   1   7
BRANCH   2   9
ATOM      9  O   UNL     1      -3.187 -13.183  -2.895  1.00  0.00    -0.508 OA
ATOM     10  H   UNL     1      -3.311 -13.717  -2.043  1.00  0.00     0.293 HD
ENDBRANCH   2   9
BRANCH   4  11
ATOM     11  O   UNL     1       1.628 -13.604  -2.871  1.00  0.00    -0.508 OA
ATOM     12  H   UNL     1       2.339 -14.245  -3.204  1.00  0.00     0.293 HD
ENDBRANCH   4  11
TORSDOF 3
ENDMDL
