MODEL 1
REMARK VINA RESULT:    -5.332      0.000      0.000
REMARK INTER + INTRA:         -17.783
REMARK INTER:                 -14.061
REMARK INTRA:                  -3.722
REMARK UNBOUND:                -3.722
REMARK SMILES CCCCCCCCCCCCCCCCCCCCCCCCCCCCCC(=O)[O-]
REMARK SMILES IDX 16 1 17 2 18 3 19 4 20 5 21 6 22 7 23 8 24 9 25 10 26 11
REMARK SMILES IDX 27 12 28 13 29 14 30 15 31 16 32 17 15 18 14 19 13 20 12 21
REMARK SMILES IDX 11 22 10 23 9 24 8 25 7 26 6 27 5 28 4 29 3 30 2 31 1 32
REMARK H PARENT
REMARK Flexibility Score: inf
ROOT
ATOM      1  C   UNL     1      45.407  26.708  19.585  1.00  0.00     0.000 C 
ENDROOT
BRANCH   1   2
ATOM      2  C   UNL     1      45.900  26.447  21.020  1.00  0.00     0.000 C 
BRANCH   2   3
ATOM      3  C   UNL     1      46.365  24.998  21.246  1.00  0.00     0.000 C 
BRANCH   3   4
ATOM      4  C   UNL     1      46.677  24.272  19.926  1.00  0.00     0.000 C 
BRANCH   4   5
ATOM      5  C   UNL     1      46.795  22.749  20.108  1.00  0.00     0.000 C 
BRANCH   5   6
ATOM      6  C   UNL     1      46.935  22.338  21.585  1.00  0.00     0.000 C 
BRANCH   6   7
ATOM      7  C   UNL     1      45.798  21.447  22.122  1.00  0.00     0.000 C 
BRANCH   7   8
ATOM      8  C   UNL     1      44.982  20.741  21.017  1.00  0.00     0.000 C 
BRANCH   8   9
ATOM      9  C   UNL     1      43.481  21.070  21.096  1.00  0.00     0.000 C 
BRANCH   9  10
ATOM     10  C   UNL     1      43.218  22.493  21.635  1.00  0.00     0.000 C 
BRANCH  10  11
ATOM     11  C   UNL     1      43.110  23.563  20.532  1.00  0.00     0.000 C 
BRANCH  11  12
ATOM     12  C   UNL     1      42.510  23.071  19.202  1.00  0.00     0.000 C 
BRANCH  12  13
ATOM     13  C   UNL     1      41.024  23.417  18.984  1.00  0.00     0.006 C 
BRANCH  13  14
ATOM     14  C   UNL     1      40.454  22.909  17.646  1.00  0.00     0.053 C 
BRANCH  14  15
ATOM     15  C   UNL     1      38.955  22.883  17.632  1.00  0.00     0.041 C 
ATOM     16  O   UNL     1      38.311  22.764  18.707  1.00  0.00    -0.550 OA
ATOM     17  O   UNL     1      38.270  22.949  16.425  1.00  0.00    -0.550 OA
ENDBRANCH  14  15
ENDBRANCH  13  14
ENDBRANCH  12  13
ENDBRANCH  11  12
ENDBRANCH  10  11
ENDBRANCH   9  10
ENDBRANCH   8   9
ENDBRANCH   7   8
ENDBRANCH   6   7
ENDBRANCH   5   6
ENDBRANCH   4   5
ENDBRANCH   3   4
ENDBRANCH   2   3
ENDBRANCH   1   2
BRANCH   1  18
ATOM     18  C   UNL     1      44.074  27.472  19.467  1.00  0.00     0.000 C 
BRANCH  18  19
ATOM     19  C   UNL     1      44.114  28.868  20.109  1.00  0.00     0.000 C 
BRANCH  19  20
ATOM     20  C   UNL     1      44.380  29.986  19.086  1.00  0.00     0.000 C 
BRANCH  20  21
ATOM     21  C   UNL     1      45.009  29.488  17.767  1.00  0.00     0.000 C 
BRANCH  21  22
ATOM     22  C   UNL     1      46.193  30.362  17.313  1.00  0.00     0.000 C 
BRANCH  22  23
ATOM     23  C   UNL     1      46.734  29.955  15.934  1.00  0.00     0.000 C 
BRANCH  23  24
ATOM     24  C   UNL     1      46.061  30.718  14.783  1.00  0.00    -0.000 C 
BRANCH  24  25
ATOM     25  C   UNL     1      44.759  30.025  14.355  1.00  0.00    -0.000 C 
BRANCH  25  26
ATOM     26  C   UNL     1      43.630  31.019  14.027  1.00  0.00    -0.000 C 
BRANCH  26  27
ATOM     27  C   UNL     1      42.963  31.680  15.250  1.00  0.00    -0.000 C 
BRANCH  27  28
ATOM     28  C   UNL     1      43.356  33.149  15.496  1.00  0.00    -0.000 C 
BRANCH  28  29
ATOM     29  C   UNL     1      44.180  33.339  16.778  1.00  0.00    -0.000 C 
BRANCH  29  30
ATOM     30  C   UNL     1      45.506  34.052  16.480  1.00  0.00    -0.000 C 
BRANCH  30  31
ATOM     31  C   UNL     1      46.128  34.612  17.764  1.00  0.00    -0.003 C 
ATOM     32  C   UNL     1      45.929  33.654  18.935  1.00  0.00     0.004 C 
ENDBRANCH  30  31
ENDBRANCH  29  30
ENDBRANCH  28  29
ENDBRANCH  27  28
ENDBRANCH  26  27
ENDBRANCH  25  26
ENDBRANCH  24  25
ENDBRANCH  23  24
ENDBRANCH  22  23
ENDBRANCH  21  22
ENDBRANCH  20  21
ENDBRANCH  19  20
ENDBRANCH  18  19
ENDBRANCH   1  18
TORSDOF 28
ENDMDL
MODEL 2
REMARK VINA RESULT:    -5.312      3.606      9.795
REMARK INTER + INTRA:         -17.728
REMARK INTER:                 -14.351
REMARK INTRA:                  -3.378
REMARK UNBOUND:                -3.722
REMARK SMILES CCCCCCCCCCCCCCCCCCCCCCCCCCCCCC(=O)[O-]
REMARK SMILES IDX 16 1 17 2 18 3 19 4 20 5 21 6 22 7 23 8 24 9 25 10 26 11
REMARK SMILES IDX 27 12 28 13 29 14 30 15 31 16 32 17 15 18 14 19 13 20 12 21
REMARK SMILES IDX 11 22 10 23 9 24 8 25 7 26 6 27 5 28 4 29 3 30 2 31 1 32
REMARK H PARENT
REMARK Flexibility Score: inf
ROOT
ATOM      1  C   UNL     1      43.315  26.694  19.961  1.00  0.00     0.000 C 
ENDROOT
BRANCH   1   2
ATOM      2  C   UNL     1      43.015  27.853  20.930  1.00  0.00     0.000 C 
BRANCH   2   3
ATOM      3  C   UNL     1      44.183  28.162  21.883  1.00  0.00     0.000 C 
BRANCH   3   4
ATOM      4  C   UNL     1      44.774  29.564  21.648  1.00  0.00     0.000 C 
BRANCH   4   5
ATOM      5  C   UNL     1      45.929  29.551  20.632  1.00  0.00     0.000 C 
BRANCH   5   6
ATOM      6  C   UNL     1      45.711  30.540  19.474  1.00  0.00     0.000 C 
BRANCH   6   7
ATOM      7  C   UNL     1      44.516  30.214  18.556  1.00  0.00     0.000 C 
BRANCH   7   8
ATOM      8  C   UNL     1      43.948  31.442  17.811  1.00  0.00     0.000 C 
BRANCH   8   9
ATOM      9  C   UNL     1      44.870  31.915  16.673  1.00  0.00     0.000 C 
BRANCH   9  10
ATOM     10  C   UNL     1      44.087  32.584  15.521  1.00  0.00     0.000 C 
BRANCH  10  11
ATOM     11  C   UNL     1      43.207  31.606  14.721  1.00  0.00     0.000 C 
BRANCH  11  12
ATOM     12  C   UNL     1      43.729  30.160  14.657  1.00  0.00     0.000 C 
BRANCH  12  13
ATOM     13  C   UNL     1      44.544  29.810  13.396  1.00  0.00     0.006 C 
BRANCH  13  14
ATOM     14  C   UNL     1      44.572  30.929  12.339  1.00  0.00     0.053 C 
BRANCH  14  15
ATOM     15  C   UNL     1      45.957  31.448  12.087  1.00  0.00     0.041 C 
ATOM     16  O   UNL     1      46.408  31.511  10.913  1.00  0.00    -0.550 OA
ATOM     17  O   UNL     1      46.764  31.823  13.154  1.00  0.00    -0.550 OA
ENDBRANCH  14  15
ENDBRANCH  13  14
ENDBRANCH  12  13
ENDBRANCH  11  12
ENDBRANCH  10  11
ENDBRANCH   9  10
ENDBRANCH   8   9
ENDBRANCH   7   8
ENDBRANCH   6   7
ENDBRANCH   5   6
ENDBRANCH   4   5
ENDBRANCH   3   4
ENDBRANCH   2   3
ENDBRANCH   1   2
BRANCH   1  18
ATOM     18  C   UNL     1      44.349  25.663  20.455  1.00  0.00     0.000 C 
BRANCH  18  19
ATOM     19  C   UNL     1      45.480  25.404  19.446  1.00  0.00     0.000 C 
BRANCH  19  20
ATOM     20  C   UNL     1      45.751  23.905  19.230  1.00  0.00     0.000 C 
BRANCH  20  21
ATOM     21  C   UNL     1      47.104  23.428  19.800  1.00  0.00     0.000 C 
BRANCH  21  22
ATOM     22  C   UNL     1      46.964  22.163  20.666  1.00  0.00     0.000 C 
BRANCH  22  23
ATOM     23  C   UNL     1      45.657  22.140  21.473  1.00  0.00     0.000 C 
BRANCH  23  24
ATOM     24  C   UNL     1      44.919  20.797  21.371  1.00  0.00    -0.000 C 
BRANCH  24  25
ATOM     25  C   UNL     1      43.439  21.012  21.025  1.00  0.00    -0.000 C 
BRANCH  25  26
ATOM     26  C   UNL     1      42.924  22.405  21.430  1.00  0.00    -0.000 C 
BRANCH  26  27
ATOM     27  C   UNL     1      41.902  23.035  20.463  1.00  0.00    -0.000 C 
BRANCH  27  28
ATOM     28  C   UNL     1      42.260  22.924  18.969  1.00  0.00    -0.000 C 
BRANCH  28  29
ATOM     29  C   UNL     1      41.025  22.954  18.056  1.00  0.00    -0.000 C 
BRANCH  29  30
ATOM     30  C   UNL     1      39.871  23.719  18.716  1.00  0.00    -0.000 C 
BRANCH  30  31
ATOM     31  C   UNL     1      38.743  23.983  17.711  1.00  0.00    -0.003 C 
ATOM     32  C   UNL     1      38.380  22.714  16.946  1.00  0.00     0.004 C 
ENDBRANCH  30  31
ENDBRANCH  29  30
ENDBRANCH  28  29
ENDBRANCH  27  28
ENDBRANCH  26  27
ENDBRANCH  25  26
ENDBRANCH  24  25
ENDBRANCH  23  24
ENDBRANCH  22  23
ENDBRANCH  21  22
ENDBRANCH  20  21
ENDBRANCH  19  20
ENDBRANCH  18  19
ENDBRANCH   1  18
TORSDOF 28
ENDMDL
MODEL 3
REMARK VINA RESULT:    -5.300      2.529      9.093
REMARK INTER + INTRA:         -17.697
REMARK INTER:                 -13.466
REMARK INTRA:                  -4.231
REMARK UNBOUND:                -3.722
REMARK SMILES CCCCCCCCCCCCCCCCCCCCCCCCCCCCCC(=O)[O-]
REMARK SMILES IDX 16 1 17 2 18 3 19 4 20 5 21 6 22 7 23 8 24 9 25 10 26 11
REMARK SMILES IDX 27 12 28 13 29 14 30 15 31 16 32 17 15 18 14 19 13 20 12 21
REMARK SMILES IDX 11 22 10 23 9 24 8 25 7 26 6 27 5 28 4 29 3 30 2 31 1 32
REMARK H PARENT
REMARK Flexibility Score: inf
ROOT
ATOM      1  C   UNL     1      44.263  26.562  19.584  1.00  0.00     0.000 C 
ENDROOT
BRANCH   1   2
ATOM      2  C   UNL     1      43.623  27.751  20.325  1.00  0.00     0.000 C 
BRANCH   2   3
ATOM      3  C   UNL     1      44.516  28.320  21.441  1.00  0.00     0.000 C 
BRANCH   3   4
ATOM      4  C   UNL     1      44.599  29.856  21.396  1.00  0.00     0.000 C 
BRANCH   4   5
ATOM      5  C   UNL     1      46.035  30.359  21.167  1.00  0.00     0.000 C 
BRANCH   5   6
ATOM      6  C   UNL     1      46.923  29.316  20.466  1.00  0.00     0.000 C 
BRANCH   6   7
ATOM      7  C   UNL     1      47.391  29.706  19.051  1.00  0.00     0.000 C 
BRANCH   7   8
ATOM      8  C   UNL     1      46.774  28.842  17.929  1.00  0.00     0.000 C 
BRANCH   8   9
ATOM      9  C   UNL     1      45.923  29.671  16.951  1.00  0.00     0.000 C 
BRANCH   9  10
ATOM     10  C   UNL     1      44.636  30.218  17.609  1.00  0.00     0.000 C 
BRANCH  10  11
ATOM     11  C   UNL     1      44.662  31.739  17.848  1.00  0.00     0.000 C 
BRANCH  11  12
ATOM     12  C   UNL     1      44.198  32.596  16.657  1.00  0.00     0.000 C 
BRANCH  12  13
ATOM     13  C   UNL     1      43.213  31.904  15.693  1.00  0.00     0.006 C 
BRANCH  13  14
ATOM     14  C   UNL     1      43.834  31.511  14.340  1.00  0.00     0.053 C 
BRANCH  14  15
ATOM     15  C   UNL     1      43.570  30.080  13.978  1.00  0.00     0.041 C 
ATOM     16  O   UNL     1      42.406  29.608  14.064  1.00  0.00    -0.550 OA
ATOM     17  O   UNL     1      44.618  29.257  13.586  1.00  0.00    -0.550 OA
ENDBRANCH  14  15
ENDBRANCH  13  14
ENDBRANCH  12  13
ENDBRANCH  11  12
ENDBRANCH  10  11
ENDBRANCH   9  10
ENDBRANCH   8   9
ENDBRANCH   7   8
ENDBRANCH   6   7
ENDBRANCH   5   6
ENDBRANCH   4   5
ENDBRANCH   3   4
ENDBRANCH   2   3
ENDBRANCH   1   2
BRANCH   1  18
ATOM     18  C   UNL     1      45.232  25.701  20.419  1.00  0.00     0.000 C 
BRANCH  18  19
ATOM     19  C   UNL     1      46.693  25.806  19.954  1.00  0.00     0.000 C 
BRANCH  19  20
ATOM     20  C   UNL     1      47.190  24.525  19.261  1.00  0.00     0.000 C 
BRANCH  20  21
ATOM     21  C   UNL     1      46.273  23.303  19.477  1.00  0.00     0.000 C 
BRANCH  21  22
ATOM     22  C   UNL     1      46.784  22.373  20.593  1.00  0.00     0.000 C 
BRANCH  22  23
ATOM     23  C   UNL     1      45.699  22.040  21.628  1.00  0.00     0.000 C 
BRANCH  23  24
ATOM     24  C   UNL     1      44.969  20.724  21.320  1.00  0.00    -0.000 C 
BRANCH  24  25
ATOM     25  C   UNL     1      43.479  20.977  21.045  1.00  0.00    -0.000 C 
BRANCH  25  26
ATOM     26  C   UNL     1      43.089  22.461  21.179  1.00  0.00    -0.000 C 
BRANCH  26  27
ATOM     27  C   UNL     1      42.473  23.094  19.916  1.00  0.00    -0.000 C 
BRANCH  27  28
ATOM     28  C   UNL     1      41.081  23.722  20.110  1.00  0.00    -0.000 C 
BRANCH  28  29
ATOM     29  C   UNL     1      40.295  23.850  18.797  1.00  0.00    -0.000 C 
BRANCH  29  30
ATOM     30  C   UNL     1      40.779  22.825  17.763  1.00  0.00    -0.000 C 
BRANCH  30  31
ATOM     31  C   UNL     1      39.621  21.942  17.283  1.00  0.00    -0.003 C 
ATOM     32  C   UNL     1      38.476  22.787  16.732  1.00  0.00     0.004 C 
ENDBRANCH  30  31
ENDBRANCH  29  30
ENDBRANCH  28  29
ENDBRANCH  27  28
ENDBRANCH  26  27
ENDBRANCH  25  26
ENDBRANCH  24  25
ENDBRANCH  23  24
ENDBRANCH  22  23
ENDBRANCH  21  22
ENDBRANCH  20  21
ENDBRANCH  19  20
ENDBRANCH  18  19
ENDBRANCH   1  18
TORSDOF 28
ENDMDL
MODEL 4
REMARK VINA RESULT:    -5.289      3.618      7.642
REMARK INTER + INTRA:         -17.667
REMARK INTER:                 -11.552
REMARK INTRA:                  -6.115
REMARK UNBOUND:                -3.722
REMARK SMILES CCCCCCCCCCCCCCCCCCCCCCCCCCCCCC(=O)[O-]
REMARK SMILES IDX 16 1 17 2 18 3 19 4 20 5 21 6 22 7 23 8 24 9 25 10 26 11
REMARK SMILES IDX 27 12 28 13 29 14 30 15 31 16 32 17 15 18 14 19 13 20 12 21
REMARK SMILES IDX 11 22 10 23 9 24 8 25 7 26 6 27 5 28 4 29 3 30 2 31 1 32
REMARK H PARENT
REMARK Flexibility Score: inf
ROOT
ATOM      1  C   UNL     1      48.785  29.471  17.812  1.00  0.00     0.000 C 
ENDROOT
BRANCH   1   2
ATOM      2  C   UNL     1      49.136  30.884  18.312  1.00  0.00     0.000 C 
BRANCH   2   3
ATOM      3  C   UNL     1      47.933  31.628  18.917  1.00  0.00     0.000 C 
BRANCH   3   4
ATOM      4  C   UNL     1      47.697  32.996  18.253  1.00  0.00     0.000 C 
BRANCH   4   5
ATOM      5  C   UNL     1      46.555  33.782  18.921  1.00  0.00     0.000 C 
BRANCH   5   6
ATOM      6  C   UNL     1      45.672  34.523  17.902  1.00  0.00     0.000 C 
BRANCH   6   7
ATOM      7  C   UNL     1      45.374  33.741  16.608  1.00  0.00     0.000 C 
BRANCH   7   8
ATOM      8  C   UNL     1      43.875  33.433  16.395  1.00  0.00     0.000 C 
BRANCH   8   9
ATOM      9  C   UNL     1      43.473  32.060  16.959  1.00  0.00     0.000 C 
BRANCH   9  10
ATOM     10  C   UNL     1      44.677  31.100  17.087  1.00  0.00     0.000 C 
BRANCH  10  11
ATOM     11  C   UNL     1      44.588  30.154  18.299  1.00  0.00     0.000 C 
BRANCH  11  12
ATOM     12  C   UNL     1      45.254  28.780  18.105  1.00  0.00     0.000 C 
BRANCH  12  13
ATOM     13  C   UNL     1      45.424  27.944  19.389  1.00  0.00     0.006 C 
BRANCH  13  14
ATOM     14  C   UNL     1      44.493  26.720  19.466  1.00  0.00     0.053 C 
BRANCH  14  15
ATOM     15  C   UNL     1      43.157  27.049  20.064  1.00  0.00     0.041 C 
ATOM     16  O   UNL     1      42.160  26.316  19.832  1.00  0.00    -0.550 OA
ATOM     17  O   UNL     1      43.006  28.188  20.843  1.00  0.00    -0.550 OA
ENDBRANCH  14  15
ENDBRANCH  13  14
ENDBRANCH  12  13
ENDBRANCH  11  12
ENDBRANCH  10  11
ENDBRANCH   9  10
ENDBRANCH   8   9
ENDBRANCH   7   8
ENDBRANCH   6   7
ENDBRANCH   5   6
ENDBRANCH   4   5
ENDBRANCH   3   4
ENDBRANCH   2   3
ENDBRANCH   1   2
BRANCH   1  18
ATOM     18  C   UNL     1      48.887  29.259  16.288  1.00  0.00     0.000 C 
BRANCH  18  19
ATOM     19  C   UNL     1      47.833  30.047  15.493  1.00  0.00     0.000 C 
BRANCH  19  20
ATOM     20  C   UNL     1      48.454  31.134  14.599  1.00  0.00     0.000 C 
BRANCH  20  21
ATOM     21  C   UNL     1      47.672  32.465  14.600  1.00  0.00     0.000 C 
BRANCH  21  22
ATOM     22  C   UNL     1      48.551  33.664  14.201  1.00  0.00     0.000 C 
BRANCH  22  23
ATOM     23  C   UNL     1      47.739  34.954  14.009  1.00  0.00     0.000 C 
BRANCH  23  24
ATOM     24  C   UNL     1      46.620  34.803  12.968  1.00  0.00    -0.000 C 
BRANCH  24  25
ATOM     25  C   UNL     1      47.188  34.857  11.542  1.00  0.00    -0.000 C 
BRANCH  25  26
ATOM     26  C   UNL     1      46.677  33.711  10.650  1.00  0.00    -0.000 C 
BRANCH  26  27
ATOM     27  C   UNL     1      47.386  32.356  10.850  1.00  0.00    -0.000 C 
BRANCH  27  28
ATOM     28  C   UNL     1      46.491  31.220  11.377  1.00  0.00    -0.000 C 
BRANCH  28  29
ATOM     29  C   UNL     1      45.042  31.667  11.623  1.00  0.00    -0.000 C 
BRANCH  29  30
ATOM     30  C   UNL     1      44.672  31.544  13.106  1.00  0.00    -0.000 C 
BRANCH  30  31
ATOM     31  C   UNL     1      44.599  30.073  13.533  1.00  0.00    -0.003 C 
ATOM     32  C   UNL     1      43.185  29.694  13.964  1.00  0.00     0.004 C 
ENDBRANCH  30  31
ENDBRANCH  29  30
ENDBRANCH  28  29
ENDBRANCH  27  28
ENDBRANCH  26  27
ENDBRANCH  25  26
ENDBRANCH  24  25
ENDBRANCH  23  24
ENDBRANCH  22  23
ENDBRANCH  21  22
ENDBRANCH  20  21
ENDBRANCH  19  20
ENDBRANCH  18  19
ENDBRANCH   1  18
TORSDOF 28
ENDMDL
MODEL 5
REMARK VINA RESULT:    -5.280      4.048     10.625
REMARK INTER + INTRA:         -17.646
REMARK INTER:                 -14.031
REMARK INTRA:                  -3.614
REMARK UNBOUND:                -3.722
REMARK SMILES CCCCCCCCCCCCCCCCCCCCCCCCCCCCCC(=O)[O-]
REMARK SMILES IDX 16 1 17 2 18 3 19 4 20 5 21 6 22 7 23 8 24 9 25 10 26 11
REMARK SMILES IDX 27 12 28 13 29 14 30 15 31 16 32 17 15 18 14 19 13 20 12 21
REMARK SMILES IDX 11 22 10 23 9 24 8 25 7 26 6 27 5 28 4 29 3 30 2 31 1 32
REMARK H PARENT
REMARK Flexibility Score: inf
ROOT
ATOM      1  C   UNL     1      46.412  28.709  18.383  1.00  0.00     0.000 C 
ENDROOT
BRANCH   1   2
ATOM      2  C   UNL     1      45.771  29.560  17.271  1.00  0.00     0.000 C 
BRANCH   2   3
ATOM      3  C   UNL     1      46.742  30.581  16.655  1.00  0.00     0.000 C 
BRANCH   3   4
ATOM      4  C   UNL     1      46.794  31.896  17.454  1.00  0.00     0.000 C 
BRANCH   4   5
ATOM      5  C   UNL     1      46.817  33.135  16.543  1.00  0.00     0.000 C 
BRANCH   5   6
ATOM      6  C   UNL     1      45.426  33.489  15.988  1.00  0.00     0.000 C 
BRANCH   6   7
ATOM      7  C   UNL     1      44.258  33.265  16.968  1.00  0.00     0.000 C 
BRANCH   7   8
ATOM      8  C   UNL     1      43.203  32.257  16.461  1.00  0.00     0.000 C 
BRANCH   8   9
ATOM      9  C   UNL     1      43.363  31.945  14.963  1.00  0.00     0.000 C 
BRANCH   9  10
ATOM     10  C   UNL     1      43.281  30.431  14.665  1.00  0.00     0.000 C 
BRANCH  10  11
ATOM     11  C   UNL     1      44.412  29.917  13.756  1.00  0.00     0.000 C 
BRANCH  11  12
ATOM     12  C   UNL     1      45.452  30.976  13.346  1.00  0.00     0.000 C 
BRANCH  12  13
ATOM     13  C   UNL     1      45.361  31.456  11.884  1.00  0.00     0.006 C 
BRANCH  13  14
ATOM     14  C   UNL     1      45.777  32.924  11.681  1.00  0.00     0.053 C 
BRANCH  14  15
ATOM     15  C   UNL     1      47.161  33.059  11.121  1.00  0.00     0.041 C 
ATOM     16  O   UNL     1      47.772  34.157  11.192  1.00  0.00    -0.550 OA
ATOM     17  O   UNL     1      47.761  31.980  10.483  1.00  0.00    -0.550 OA
ENDBRANCH  14  15
ENDBRANCH  13  14
ENDBRANCH  12  13
ENDBRANCH  11  12
ENDBRANCH  10  11
ENDBRANCH   9  10
ENDBRANCH   8   9
ENDBRANCH   7   8
ENDBRANCH   6   7
ENDBRANCH   5   6
ENDBRANCH   4   5
ENDBRANCH   3   4
ENDBRANCH   2   3
ENDBRANCH   1   2
BRANCH   1  18
ATOM     18  C   UNL     1      45.466  27.724  19.097  1.00  0.00     0.000 C 
BRANCH  18  19
ATOM     19  C   UNL     1      46.175  26.456  19.601  1.00  0.00     0.000 C 
BRANCH  19  20
ATOM     20  C   UNL     1      45.208  25.279  19.813  1.00  0.00     0.000 C 
BRANCH  20  21
ATOM     21  C   UNL     1      45.641  23.980  19.102  1.00  0.00     0.000 C 
BRANCH  21  22
ATOM     22  C   UNL     1      46.890  23.347  19.743  1.00  0.00     0.000 C 
BRANCH  22  23
ATOM     23  C   UNL     1      46.613  22.775  21.141  1.00  0.00     0.000 C 
BRANCH  23  24
ATOM     24  C   UNL     1      45.735  21.515  21.105  1.00  0.00    -0.000 C 
BRANCH  24  25
ATOM     25  C   UNL     1      44.420  21.743  21.865  1.00  0.00    -0.000 C 
BRANCH  25  26
ATOM     26  C   UNL     1      43.192  21.787  20.937  1.00  0.00    -0.000 C 
BRANCH  26  27
ATOM     27  C   UNL     1      42.323  23.055  21.058  1.00  0.00    -0.000 C 
BRANCH  27  28
ATOM     28  C   UNL     1      41.926  23.707  19.721  1.00  0.00    -0.000 C 
BRANCH  28  29
ATOM     29  C   UNL     1      41.969  22.724  18.542  1.00  0.00    -0.000 C 
BRANCH  29  30
ATOM     30  C   UNL     1      40.656  22.757  17.748  1.00  0.00    -0.000 C 
BRANCH  30  31
ATOM     31  C   UNL     1      39.517  23.335  18.596  1.00  0.00    -0.003 C 
ATOM     32  C   UNL     1      38.314  23.696  17.730  1.00  0.00     0.004 C 
ENDBRANCH  30  31
ENDBRANCH  29  30
ENDBRANCH  28  29
ENDBRANCH  27  28
ENDBRANCH  26  27
ENDBRANCH  25  26
ENDBRANCH  24  25
ENDBRANCH  23  24
ENDBRANCH  22  23
ENDBRANCH  21  22
ENDBRANCH  20  21
ENDBRANCH  19  20
ENDBRANCH  18  19
ENDBRANCH   1  18
TORSDOF 28
ENDMDL
MODEL 6
REMARK VINA RESULT:    -5.259      4.321      8.542
REMARK INTER + INTRA:         -17.590
REMARK INTER:                 -12.149
REMARK INTRA:                  -5.442
REMARK UNBOUND:                -3.722
REMARK SMILES CCCCCCCCCCCCCCCCCCCCCCCCCCCCCC(=O)[O-]
REMARK SMILES IDX 16 1 17 2 18 3 19 4 20 5 21 6 22 7 23 8 24 9 25 10 26 11
REMARK SMILES IDX 27 12 28 13 29 14 30 15 31 16 32 17 15 18 14 19 13 20 12 21
REMARK SMILES IDX 11 22 10 23 9 24 8 25 7 26 6 27 5 28 4 29 3 30 2 31 1 32
REMARK H PARENT
REMARK Flexibility Score: inf
ROOT
ATOM      1  C   UNL     1      44.093  32.783  17.503  1.00  0.00     0.000 C 
ENDROOT
BRANCH   1   2
ATOM      2  C   UNL     1      43.119  33.399  16.481  1.00  0.00     0.000 C 
BRANCH   2   3
ATOM      3  C   UNL     1      42.672  32.404  15.396  1.00  0.00     0.000 C 
BRANCH   3   4
ATOM      4  C   UNL     1      43.465  31.087  15.449  1.00  0.00     0.000 C 
BRANCH   4   5
ATOM      5  C   UNL     1      43.299  30.251  14.168  1.00  0.00     0.000 C 
BRANCH   5   6
ATOM      6  C   UNL     1      44.638  29.985  13.457  1.00  0.00     0.000 C 
BRANCH   6   7
ATOM      7  C   UNL     1      45.261  31.211  12.762  1.00  0.00     0.000 C 
BRANCH   7   8
ATOM      8  C   UNL     1      46.085  32.113  13.707  1.00  0.00     0.000 C 
BRANCH   8   9
ATOM      9  C   UNL     1      47.332  31.401  14.258  1.00  0.00     0.000 C 
BRANCH   9  10
ATOM     10  C   UNL     1      47.358  31.368  15.802  1.00  0.00     0.000 C 
BRANCH  10  11
ATOM     11  C   UNL     1      46.919  30.018  16.400  1.00  0.00     0.000 C 
BRANCH  11  12
ATOM     12  C   UNL     1      46.240  30.104  17.778  1.00  0.00     0.000 C 
BRANCH  12  13
ATOM     13  C   UNL     1      45.181  29.020  18.059  1.00  0.00     0.006 C 
BRANCH  13  14
ATOM     14  C   UNL     1      44.538  29.119  19.454  1.00  0.00     0.053 C 
BRANCH  14  15
ATOM     15  C   UNL     1      43.814  27.866  19.845  1.00  0.00     0.041 C 
ATOM     16  O   UNL     1      44.095  26.770  19.293  1.00  0.00    -0.550 OA
ATOM     17  O   UNL     1      42.798  27.916  20.791  1.00  0.00    -0.550 OA
ENDBRANCH  14  15
ENDBRANCH  13  14
ENDBRANCH  12  13
ENDBRANCH  11  12
ENDBRANCH  10  11
ENDBRANCH   9  10
ENDBRANCH   8   9
ENDBRANCH   7   8
ENDBRANCH   6   7
ENDBRANCH   5   6
ENDBRANCH   4   5
ENDBRANCH   3   4
ENDBRANCH   2   3
ENDBRANCH   1   2
BRANCH   1  18
ATOM     18  C   UNL     1      45.162  33.741  18.065  1.00  0.00     0.000 C 
BRANCH  18  19
ATOM     19  C   UNL     1      45.945  34.487  16.973  1.00  0.00     0.000 C 
BRANCH  19  20
ATOM     20  C   UNL     1      46.897  35.551  17.546  1.00  0.00     0.000 C 
BRANCH  20  21
ATOM     21  C   UNL     1      47.832  36.184  16.494  1.00  0.00     0.000 C 
BRANCH  21  22
ATOM     22  C   UNL     1      47.604  35.610  15.083  1.00  0.00     0.000 C 
BRANCH  22  23
ATOM     23  C   UNL     1      48.788  34.763  14.591  1.00  0.00     0.000 C 
BRANCH  23  24
ATOM     24  C   UNL     1      49.767  35.562  13.718  1.00  0.00    -0.000 C 
BRANCH  24  25
ATOM     25  C   UNL     1      50.743  34.624  12.992  1.00  0.00    -0.000 C 
BRANCH  25  26
ATOM     26  C   UNL     1      50.199  33.190  12.846  1.00  0.00    -0.000 C 
BRANCH  26  27
ATOM     27  C   UNL     1      50.300  32.591  11.429  1.00  0.00    -0.000 C 
BRANCH  27  28
ATOM     28  C   UNL     1      49.304  33.164  10.404  1.00  0.00    -0.000 C 
BRANCH  28  29
ATOM     29  C   UNL     1      47.909  32.529  10.508  1.00  0.00    -0.000 C 
BRANCH  29  30
ATOM     30  C   UNL     1      46.810  33.596  10.418  1.00  0.00    -0.000 C 
BRANCH  30  31
ATOM     31  C   UNL     1      47.210  34.861  11.186  1.00  0.00    -0.003 C 
ATOM     32  C   UNL     1      46.042  35.838  11.282  1.00  0.00     0.004 C 
ENDBRANCH  30  31
ENDBRANCH  29  30
ENDBRANCH  28  29
ENDBRANCH  27  28
ENDBRANCH  26  27
ENDBRANCH  25  26
ENDBRANCH  24  25
ENDBRANCH  23  24
ENDBRANCH  22  23
ENDBRANCH  21  22
ENDBRANCH  20  21
ENDBRANCH  19  20
ENDBRANCH  18  19
ENDBRANCH   1  18
TORSDOF 28
ENDMDL
MODEL 7
REMARK VINA RESULT:    -5.253      4.678      8.958
REMARK INTER + INTRA:         -17.573
REMARK INTER:                 -11.311
REMARK INTRA:                  -6.263
REMARK UNBOUND:                -3.722
REMARK SMILES CCCCCCCCCCCCCCCCCCCCCCCCCCCCCC(=O)[O-]
REMARK SMILES IDX 16 1 17 2 18 3 19 4 20 5 21 6 22 7 23 8 24 9 25 10 26 11
REMARK SMILES IDX 27 12 28 13 29 14 30 15 31 16 32 17 15 18 14 19 13 20 12 21
REMARK SMILES IDX 11 22 10 23 9 24 8 25 7 26 6 27 5 28 4 29 3 30 2 31 1 32
REMARK H PARENT
REMARK Flexibility Score: inf
ROOT
ATOM      1  C   UNL     1      47.088  33.869  10.501  1.00  0.00     0.000 C 
ENDROOT
BRANCH   1   2
ATOM      2  C   UNL     1      46.729  32.413  10.849  1.00  0.00     0.000 C 
BRANCH   2   3
ATOM      3  C   UNL     1      45.508  32.297  11.778  1.00  0.00     0.000 C 
BRANCH   3   4
ATOM      4  C   UNL     1      45.101  30.834  12.028  1.00  0.00     0.000 C 
BRANCH   4   5
ATOM      5  C   UNL     1      44.953  30.514  13.526  1.00  0.00     0.000 C 
BRANCH   5   6
ATOM      6  C   UNL     1      43.537  30.035  13.892  1.00  0.00     0.000 C 
BRANCH   6   7
ATOM      7  C   UNL     1      42.569  31.147  14.341  1.00  0.00     0.000 C 
BRANCH   7   8
ATOM      8  C   UNL     1      43.273  32.452  14.770  1.00  0.00     0.000 C 
BRANCH   8   9
ATOM      9  C   UNL     1      42.664  33.055  16.048  1.00  0.00     0.000 C 
BRANCH   9  10
ATOM     10  C   UNL     1      43.648  33.027  17.239  1.00  0.00     0.000 C 
BRANCH  10  11
ATOM     11  C   UNL     1      44.063  31.606  17.665  1.00  0.00     0.000 C 
BRANCH  11  12
ATOM     12  C   UNL     1      45.557  31.281  17.487  1.00  0.00     0.000 C 
BRANCH  12  13
ATOM     13  C   UNL     1      45.917  29.783  17.555  1.00  0.00     0.006 C 
BRANCH  13  14
ATOM     14  C   UNL     1      45.970  29.217  18.986  1.00  0.00     0.053 C 
BRANCH  14  15
ATOM     15  C   UNL     1      46.112  27.725  19.009  1.00  0.00     0.041 C 
ATOM     16  O   UNL     1      47.207  27.185  18.702  1.00  0.00    -0.550 OA
ATOM     17  O   UNL     1      45.020  26.928  19.331  1.00  0.00    -0.550 OA
ENDBRANCH  14  15
ENDBRANCH  13  14
ENDBRANCH  12  13
ENDBRANCH  11  12
ENDBRANCH  10  11
ENDBRANCH   9  10
ENDBRANCH   8   9
ENDBRANCH   7   8
ENDBRANCH   6   7
ENDBRANCH   5   6
ENDBRANCH   4   5
ENDBRANCH   3   4
ENDBRANCH   2   3
ENDBRANCH   1   2
BRANCH   1  18
ATOM     18  C   UNL     1      46.353  34.950  11.318  1.00  0.00     0.000 C 
BRANCH  18  19
ATOM     19  C   UNL     1      47.302  35.948  12.000  1.00  0.00     0.000 C 
BRANCH  19  20
ATOM     20  C   UNL     1      48.770  35.487  11.972  1.00  0.00     0.000 C 
BRANCH  20  21
ATOM     21  C   UNL     1      49.515  35.694  13.307  1.00  0.00     0.000 C 
BRANCH  21  22
ATOM     22  C   UNL     1      50.039  34.372  13.900  1.00  0.00     0.000 C 
BRANCH  22  23
ATOM     23  C   UNL     1      49.588  33.144  13.095  1.00  0.00     0.000 C 
BRANCH  23  24
ATOM     24  C   UNL     1      48.730  32.174  13.922  1.00  0.00    -0.000 C 
BRANCH  24  25
ATOM     25  C   UNL     1      48.113  32.887  15.134  1.00  0.00    -0.000 C 
BRANCH  25  26
ATOM     26  C   UNL     1      46.714  33.461  14.844  1.00  0.00    -0.000 C 
BRANCH  26  27
ATOM     27  C   UNL     1      46.455  34.875  15.402  1.00  0.00    -0.000 C 
BRANCH  27  28
ATOM     28  C   UNL     1      47.272  35.244  16.653  1.00  0.00    -0.000 C 
BRANCH  28  29
ATOM     29  C   UNL     1      46.442  35.195  17.945  1.00  0.00    -0.000 C 
BRANCH  29  30
ATOM     30  C   UNL     1      47.213  34.492  19.069  1.00  0.00    -0.000 C 
BRANCH  30  31
ATOM     31  C   UNL     1      46.253  33.931  20.125  1.00  0.00    -0.003 C 
ATOM     32  C   UNL     1      46.762  32.605  20.682  1.00  0.00     0.004 C 
ENDBRANCH  30  31
ENDBRANCH  29  30
ENDBRANCH  28  29
ENDBRANCH  27  28
ENDBRANCH  26  27
ENDBRANCH  25  26
ENDBRANCH  24  25
ENDBRANCH  23  24
ENDBRANCH  22  23
ENDBRANCH  21  22
ENDBRANCH  20  21
ENDBRANCH  19  20
ENDBRANCH  18  19
ENDBRANCH   1  18
TORSDOF 28
ENDMDL
MODEL 8
REMARK VINA RESULT:    -5.246      4.719      8.878
REMARK INTER + INTRA:         -17.555
REMARK INTER:                 -11.524
REMARK INTRA:                  -6.031
REMARK UNBOUND:                -3.722
REMARK SMILES CCCCCCCCCCCCCCCCCCCCCCCCCCCCCC(=O)[O-]
REMARK SMILES IDX 16 1 17 2 18 3 19 4 20 5 21 6 22 7 23 8 24 9 25 10 26 11
REMARK SMILES IDX 27 12 28 13 29 14 30 15 31 16 32 17 15 18 14 19 13 20 12 21
REMARK SMILES IDX 11 22 10 23 9 24 8 25 7 26 6 27 5 28 4 29 3 30 2 31 1 32
REMARK H PARENT
REMARK Flexibility Score: inf
ROOT
ATOM      1  C   UNL     1      46.707  31.026  14.542  1.00  0.00     0.000 C 
ENDROOT
BRANCH   1   2
ATOM      2  C   UNL     1      45.644  30.016  15.011  1.00  0.00     0.000 C 
BRANCH   2   3
ATOM      3  C   UNL     1      44.632  29.648  13.912  1.00  0.00     0.000 C 
BRANCH   3   4
ATOM      4  C   UNL     1      43.218  30.169  14.221  1.00  0.00     0.000 C 
BRANCH   4   5
ATOM      5  C   UNL     1      43.137  31.705  14.180  1.00  0.00     0.000 C 
BRANCH   5   6
ATOM      6  C   UNL     1      42.500  32.298  15.449  1.00  0.00     0.000 C 
BRANCH   6   7
ATOM      7  C   UNL     1      43.452  33.138  16.323  1.00  0.00     0.000 C 
BRANCH   7   8
ATOM      8  C   UNL     1      44.658  33.720  15.553  1.00  0.00     0.000 C 
BRANCH   8   9
ATOM      9  C   UNL     1      45.830  34.077  16.482  1.00  0.00     0.000 C 
BRANCH   9  10
ATOM     10  C   UNL     1      45.434  34.034  17.974  1.00  0.00     0.000 C 
BRANCH  10  11
ATOM     11  C   UNL     1      46.279  33.056  18.811  1.00  0.00     0.000 C 
BRANCH  11  12
ATOM     12  C   UNL     1      46.216  31.586  18.358  1.00  0.00     0.000 C 
BRANCH  12  13
ATOM     13  C   UNL     1      44.958  30.814  18.802  1.00  0.00     0.006 C 
BRANCH  13  14
ATOM     14  C   UNL     1      44.815  29.425  18.154  1.00  0.00     0.053 C 
BRANCH  14  15
ATOM     15  C   UNL     1      44.612  28.336  19.164  1.00  0.00     0.041 C 
ATOM     16  O   UNL     1      43.683  28.418  20.010  1.00  0.00    -0.550 OA
ATOM     17  O   UNL     1      45.477  27.249  19.198  1.00  0.00    -0.550 OA
ENDBRANCH  14  15
ENDBRANCH  13  14
ENDBRANCH  12  13
ENDBRANCH  11  12
ENDBRANCH  10  11
ENDBRANCH   9  10
ENDBRANCH   8   9
ENDBRANCH   7   8
ENDBRANCH   6   7
ENDBRANCH   5   6
ENDBRANCH   4   5
ENDBRANCH   3   4
ENDBRANCH   2   3
ENDBRANCH   1   2
BRANCH   1  18
ATOM     18  C   UNL     1      48.115  30.836  15.139  1.00  0.00     0.000 C 
BRANCH  18  19
ATOM     19  C   UNL     1      48.899  32.151  15.281  1.00  0.00     0.000 C 
BRANCH  19  20
ATOM     20  C   UNL     1      48.506  33.194  14.221  1.00  0.00     0.000 C 
BRANCH  20  21
ATOM     21  C   UNL     1      49.704  33.978  13.643  1.00  0.00     0.000 C 
BRANCH  21  22
ATOM     22  C   UNL     1      49.270  35.054  12.631  1.00  0.00     0.000 C 
BRANCH  22  23
ATOM     23  C   UNL     1      47.927  35.703  12.997  1.00  0.00     0.000 C 
BRANCH  23  24
ATOM     24  C   UNL     1      47.239  36.364  11.793  1.00  0.00    -0.000 C 
BRANCH  24  25
ATOM     25  C   UNL     1      46.182  35.430  11.186  1.00  0.00    -0.000 C 
BRANCH  25  26
ATOM     26  C   UNL     1      45.749  34.310  12.150  1.00  0.00    -0.000 C 
BRANCH  26  27
ATOM     27  C   UNL     1      45.858  32.879  11.585  1.00  0.00    -0.000 C 
BRANCH  27  28
ATOM     28  C   UNL     1      47.123  32.599  10.753  1.00  0.00    -0.000 C 
BRANCH  28  29
ATOM     29  C   UNL     1      47.597  31.142  10.860  1.00  0.00    -0.000 C 
BRANCH  29  30
ATOM     30  C   UNL     1      49.100  31.030  10.574  1.00  0.00    -0.000 C 
BRANCH  30  31
ATOM     31  C   UNL     1      49.886  30.777  11.866  1.00  0.00    -0.003 C 
ATOM     32  C   UNL     1      51.390  30.800  11.609  1.00  0.00     0.004 C 
ENDBRANCH  30  31
ENDBRANCH  29  30
ENDBRANCH  28  29
ENDBRANCH  27  28
ENDBRANCH  26  27
ENDBRANCH  25  26
ENDBRANCH  24  25
ENDBRANCH  23  24
ENDBRANCH  22  23
ENDBRANCH  21  22
ENDBRANCH  20  21
ENDBRANCH  19  20
ENDBRANCH  18  19
ENDBRANCH   1  18
TORSDOF 28
ENDMDL
MODEL 9
REMARK VINA RESULT:    -5.218      2.295      5.975
REMARK INTER + INTRA:         -17.481
REMARK INTER:                 -13.425
REMARK INTRA:                  -4.056
REMARK UNBOUND:                -3.722
REMARK SMILES CCCCCCCCCCCCCCCCCCCCCCCCCCCCCC(=O)[O-]
REMARK SMILES IDX 16 1 17 2 18 3 19 4 20 5 21 6 22 7 23 8 24 9 25 10 26 11
REMARK SMILES IDX 27 12 28 13 29 14 30 15 31 16 32 17 15 18 14 19 13 20 12 21
REMARK SMILES IDX 11 22 10 23 9 24 8 25 7 26 6 27 5 28 4 29 3 30 2 31 1 32
REMARK H PARENT
REMARK Flexibility Score: inf
ROOT
ATOM      1  C   UNL     1      43.817  30.925  13.478  1.00  0.00     0.000 C 
ENDROOT
BRANCH   1   2
ATOM      2  C   UNL     1      44.965  30.005  13.932  1.00  0.00     0.000 C 
BRANCH   2   3
ATOM      3  C   UNL     1      46.150  30.772  14.544  1.00  0.00     0.000 C 
BRANCH   3   4
ATOM      4  C   UNL     1      46.379  30.412  16.023  1.00  0.00     0.000 C 
BRANCH   4   5
ATOM      5  C   UNL     1      45.206  29.614  16.620  1.00  0.00     0.000 C 
BRANCH   5   6
ATOM      6  C   UNL     1      45.195  29.640  18.158  1.00  0.00     0.000 C 
BRANCH   6   7
ATOM      7  C   UNL     1      45.647  28.331  18.834  1.00  0.00     0.000 C 
BRANCH   7   8
ATOM      8  C   UNL     1      47.174  28.100  18.789  1.00  0.00     0.000 C 
BRANCH   8   9
ATOM      9  C   UNL     1      47.559  26.652  19.139  1.00  0.00     0.000 C 
BRANCH   9  10
ATOM     10  C   UNL     1      46.336  25.801  19.548  1.00  0.00     0.000 C 
BRANCH  10  11
ATOM     11  C   UNL     1      46.459  24.315  19.160  1.00  0.00     0.000 C 
BRANCH  11  12
ATOM     12  C   UNL     1      45.360  23.399  19.728  1.00  0.00     0.000 C 
BRANCH  12  13
ATOM     13  C   UNL     1      43.930  23.969  19.663  1.00  0.00     0.006 C 
BRANCH  13  14
ATOM     14  C   UNL     1      42.826  22.899  19.740  1.00  0.00     0.053 C 
BRANCH  14  15
ATOM     15  C   UNL     1      41.563  23.323  19.051  1.00  0.00     0.041 C 
ATOM     16  O   UNL     1      41.165  22.714  18.023  1.00  0.00    -0.550 OA
ATOM     17  O   UNL     1      40.849  24.418  19.520  1.00  0.00    -0.550 OA
ENDBRANCH  14  15
ENDBRANCH  13  14
ENDBRANCH  12  13
ENDBRANCH  11  12
ENDBRANCH  10  11
ENDBRANCH   9  10
ENDBRANCH   8   9
ENDBRANCH   7   8
ENDBRANCH   6   7
ENDBRANCH   5   6
ENDBRANCH   4   5
ENDBRANCH   3   4
ENDBRANCH   2   3
ENDBRANCH   1   2
BRANCH   1  18
ATOM     18  C   UNL     1      42.685  31.133  14.502  1.00  0.00     0.000 C 
BRANCH  18  19
ATOM     19  C   UNL     1      42.624  32.564  15.061  1.00  0.00     0.000 C 
BRANCH  19  20
ATOM     20  C   UNL     1      43.226  32.677  16.472  1.00  0.00     0.000 C 
BRANCH  20  21
ATOM     21  C   UNL     1      44.531  33.500  16.529  1.00  0.00     0.000 C 
BRANCH  21  22
ATOM     22  C   UNL     1      44.999  33.761  17.973  1.00  0.00     0.000 C 
BRANCH  22  23
ATOM     23  C   UNL     1      46.163  34.761  18.046  1.00  0.00     0.000 C 
BRANCH  23  24
ATOM     24  C   UNL     1      47.187  34.563  16.919  1.00  0.00    -0.000 C 
BRANCH  24  25
ATOM     25  C   UNL     1      47.341  35.845  16.087  1.00  0.00    -0.000 C 
BRANCH  25  26
ATOM     26  C   UNL     1      47.676  35.565  14.611  1.00  0.00    -0.000 C 
BRANCH  26  27
ATOM     27  C   UNL     1      47.210  34.195  14.080  1.00  0.00    -0.000 C 
BRANCH  27  28
ATOM     28  C   UNL     1      45.972  34.234  13.166  1.00  0.00    -0.000 C 
BRANCH  28  29
ATOM     29  C   UNL     1      46.263  34.860  11.793  1.00  0.00    -0.000 C 
BRANCH  29  30
ATOM     30  C   UNL     1      46.951  33.852  10.863  1.00  0.00    -0.000 C 
BRANCH  30  31
ATOM     31  C   UNL     1      46.336  32.456  11.016  1.00  0.00    -0.003 C 
ATOM     32  C   UNL     1      47.403  31.371  10.916  1.00  0.00     0.004 C 
ENDBRANCH  30  31
ENDBRANCH  29  30
ENDBRANCH  28  29
ENDBRANCH  27  28
ENDBRANCH  26  27
ENDBRANCH  25  26
ENDBRANCH  24  25
ENDBRANCH  23  24
ENDBRANCH  22  23
ENDBRANCH  21  22
ENDBRANCH  20  21
ENDBRANCH  19  20
ENDBRANCH  18  19
ENDBRANCH   1  18
TORSDOF 28
ENDMDL
