MODEL 1
REMARK VINA RESULT:    -5.371      0.000      0.000
REMARK INTER + INTRA:          -7.854
REMARK INTER:                  -7.569
REMARK INTRA:                  -0.285
REMARK UNBOUND:                -0.285
REMARK SMILES C=CCCCCCCC(=O)[O-]
REMARK SMILES IDX 6 1 7 2 8 3 9 4 10 5 11 6 5 7 4 8 3 9 2 10 1 11
REMARK H PARENT
REMARK Flexibility Score: inf
ROOT
ATOM      1  C   UNL     1      18.162 124.607  16.906  1.00  0.00     0.000 C 
ENDROOT
BRANCH   1   2
ATOM      2  C   UNL     1      18.065 123.347  16.034  1.00  0.00     0.006 C 
BRANCH   2   3
ATOM      3  C   UNL     1      17.822 122.080  16.865  1.00  0.00     0.053 C 
BRANCH   3   4
ATOM      4  C   UNL     1      17.116 121.022  16.073  1.00  0.00     0.041 C 
ATOM      5  O   UNL     1      16.819 121.228  14.867  1.00  0.00    -0.550 OA
ATOM      6  O   UNL     1      16.758 119.823  16.675  1.00  0.00    -0.550 OA
ENDBRANCH   3   4
ENDBRANCH   2   3
ENDBRANCH   1   2
BRANCH   1   7
ATOM      7  C   UNL     1      18.005 125.876  16.056  1.00  0.00     0.000 C 
BRANCH   7   8
ATOM      8  C   UNL     1      18.195 127.163  16.874  1.00  0.00     0.004 C 
BRANCH   8   9
ATOM      9  C   UNL     1      19.332 128.045  16.334  1.00  0.00     0.027 C 
BRANCH   9  10
ATOM     10  C   UNL     1      19.837 127.532  15.014  1.00  0.00    -0.035 C 
ATOM     11  C   UNL     1      21.042 127.869  14.542  1.00  0.00     0.004 C 
ENDBRANCH   9  10
ENDBRANCH   8   9
ENDBRANCH   7   8
ENDBRANCH   1   7
TORSDOF 7
ENDMDL
MODEL 2
REMARK VINA RESULT:    -5.315      3.471      6.530
REMARK INTER + INTRA:          -7.776
REMARK INTER:                  -7.557
REMARK INTRA:                  -0.219
REMARK UNBOUND:                -0.285
REMARK SMILES C=CCCCCCCC(=O)[O-]
REMARK SMILES IDX 6 1 7 2 8 3 9 4 10 5 11 6 5 7 4 8 3 9 2 10 1 11
REMARK H PARENT
REMARK Flexibility Score: inf
ROOT
ATOM      1  C   UNL     1      18.532 124.229  16.776  1.00  0.00     0.000 C 
ENDROOT
BRANCH   1   2
ATOM      2  C   UNL     1      17.775 125.530  16.474  1.00  0.00     0.006 C 
BRANCH   2   3
ATOM      3  C   UNL     1      18.420 126.327  15.332  1.00  0.00     0.053 C 
BRANCH   3   4
ATOM      4  C   UNL     1      19.515 127.221  15.829  1.00  0.00     0.041 C 
ATOM      5  O   UNL     1      20.640 127.217  15.263  1.00  0.00    -0.550 OA
ATOM      6  O   UNL     1      19.304 128.033  16.936  1.00  0.00    -0.550 OA
ENDBRANCH   3   4
ENDBRANCH   2   3
ENDBRANCH   1   2
BRANCH   1   7
ATOM      7  C   UNL     1      17.932 123.051  15.995  1.00  0.00     0.000 C 
BRANCH   7   8
ATOM      8  C   UNL     1      17.603 121.850  16.896  1.00  0.00     0.004 C 
BRANCH   8   9
ATOM      9  C   UNL     1      16.676 120.834  16.212  1.00  0.00     0.027 C 
BRANCH   9  10
ATOM     10  C   UNL     1      16.290 119.729  17.156  1.00  0.00    -0.035 C 
ATOM     11  C   UNL     1      16.705 119.713  18.427  1.00  0.00     0.004 C 
ENDBRANCH   9  10
ENDBRANCH   8   9
ENDBRANCH   7   8
ENDBRANCH   1   7
TORSDOF 7
ENDMDL
MODEL 3
REMARK VINA RESULT:    -5.305      1.419      2.194
REMARK INTER + INTRA:          -7.761
REMARK INTER:                  -7.561
REMARK INTRA:                  -0.200
REMARK UNBOUND:                -0.285
REMARK SMILES C=CCCCCCCC(=O)[O-]
REMARK SMILES IDX 6 1 7 2 8 3 9 4 10 5 11 6 5 7 4 8 3 9 2 10 1 11
REMARK H PARENT
REMARK Flexibility Score: inf
ROOT
ATOM      1  C   UNL     1      17.946 123.062  16.014  1.00  0.00     0.000 C 
ENDROOT
BRANCH   1   2
ATOM      2  C   UNL     1      17.615 121.851  16.899  1.00  0.00     0.006 C 
BRANCH   2   3
ATOM      3  C   UNL     1      16.897 120.740  16.120  1.00  0.00     0.053 C 
BRANCH   3   4
ATOM      4  C   UNL     1      16.280 119.729  17.038  1.00  0.00     0.041 C 
ATOM      5  O   UNL     1      16.717 119.589  18.210  1.00  0.00    -0.550 OA
ATOM      6  O   UNL     1      15.245 118.919  16.587  1.00  0.00    -0.550 OA
ENDBRANCH   3   4
ENDBRANCH   2   3
ENDBRANCH   1   2
BRANCH   1   7
ATOM      7  C   UNL     1      18.485 124.227  16.857  1.00  0.00     0.000 C 
BRANCH   7   8
ATOM      8  C   UNL     1      17.879 125.579  16.452  1.00  0.00     0.004 C 
BRANCH   8   9
ATOM      9  C   UNL     1      18.731 126.321  15.410  1.00  0.00     0.027 C 
BRANCH   9  10
ATOM     10  C   UNL     1      19.346 127.562  15.995  1.00  0.00    -0.035 C 
ATOM     11  C   UNL     1      19.020 128.001  17.215  1.00  0.00     0.004 C 
ENDBRANCH   9  10
ENDBRANCH   8   9
ENDBRANCH   7   8
ENDBRANCH   1   7
TORSDOF 7
ENDMDL
MODEL 4
REMARK VINA RESULT:    -5.169      1.882      2.693
REMARK INTER + INTRA:          -7.569
REMARK INTER:                  -7.258
REMARK INTRA:                  -0.311
REMARK UNBOUND:                -0.285
REMARK SMILES C=CCCCCCCC(=O)[O-]
REMARK SMILES IDX 6 1 7 2 8 3 9 4 10 5 11 6 5 7 4 8 3 9 2 10 1 11
REMARK H PARENT
REMARK Flexibility Score: inf
ROOT
ATOM      1  C   UNL     1      18.027 123.014  16.830  1.00  0.00     0.000 C 
ENDROOT
BRANCH   1   2
ATOM      2  C   UNL     1      17.700 122.249  15.539  1.00  0.00     0.006 C 
BRANCH   2   3
ATOM      3  C   UNL     1      18.489 122.776  14.333  1.00  0.00     0.053 C 
BRANCH   3   4
ATOM      4  C   UNL     1      18.690 121.716  13.294  1.00  0.00     0.041 C 
ATOM      5  O   UNL     1      19.848 121.443  12.883  1.00  0.00    -0.550 OA
ATOM      6  O   UNL     1      17.594 121.053  12.755  1.00  0.00    -0.550 OA
ENDBRANCH   3   4
ENDBRANCH   2   3
ENDBRANCH   1   2
BRANCH   1   7
ATOM      7  C   UNL     1      18.830 124.286  16.525  1.00  0.00     0.000 C 
BRANCH   7   8
ATOM      8  C   UNL     1      17.959 125.552  16.535  1.00  0.00     0.004 C 
BRANCH   8   9
ATOM      9  C   UNL     1      18.536 126.673  15.657  1.00  0.00     0.027 C 
BRANCH   9  10
ATOM     10  C   UNL     1      19.205 127.728  16.493  1.00  0.00    -0.035 C 
ATOM     11  C   UNL     1      18.899 127.902  17.783  1.00  0.00     0.004 C 
ENDBRANCH   9  10
ENDBRANCH   8   9
ENDBRANCH   7   8
ENDBRANCH   1   7
TORSDOF 7
ENDMDL
MODEL 5
REMARK VINA RESULT:    -4.983      3.518      5.909
REMARK INTER + INTRA:          -7.308
REMARK INTER:                  -7.099
REMARK INTRA:                  -0.209
REMARK UNBOUND:                -0.285
REMARK SMILES C=CCCCCCCC(=O)[O-]
REMARK SMILES IDX 6 1 7 2 8 3 9 4 10 5 11 6 5 7 4 8 3 9 2 10 1 11
REMARK H PARENT
REMARK Flexibility Score: inf
ROOT
ATOM      1  C   UNL     1      19.545 125.643  16.047  1.00  0.00     0.000 C 
ENDROOT
BRANCH   1   2
ATOM      2  C   UNL     1      18.668 126.902  16.011  1.00  0.00     0.006 C 
BRANCH   2   3
ATOM      3  C   UNL     1      19.143 127.972  17.005  1.00  0.00     0.053 C 
BRANCH   3   4
ATOM      4  C   UNL     1      18.500 127.808  18.348  1.00  0.00     0.041 C 
ATOM      5  O   UNL     1      18.297 128.812  19.079  1.00  0.00    -0.550 OA
ATOM      6  O   UNL     1      18.155 126.542  18.805  1.00  0.00    -0.550 OA
ENDBRANCH   3   4
ENDBRANCH   2   3
ENDBRANCH   1   2
BRANCH   1   7
ATOM      7  C   UNL     1      18.724 124.392  15.702  1.00  0.00     0.000 C 
BRANCH   7   8
ATOM      8  C   UNL     1      18.153 123.698  16.948  1.00  0.00     0.004 C 
BRANCH   8   9
ATOM      9  C   UNL     1      17.900 122.198  16.726  1.00  0.00     0.027 C 
BRANCH   9  10
ATOM     10  C   UNL     1      17.841 121.868  15.261  1.00  0.00    -0.035 C 
ATOM     11  C   UNL     1      16.753 121.325  14.705  1.00  0.00     0.004 C 
ENDBRANCH   9  10
ENDBRANCH   8   9
ENDBRANCH   7   8
ENDBRANCH   1   7
TORSDOF 7
ENDMDL
MODEL 6
REMARK VINA RESULT:    -4.963      9.204     13.400
REMARK INTER + INTRA:          -7.279
REMARK INTER:                  -7.025
REMARK INTRA:                  -0.254
REMARK UNBOUND:                -0.285
REMARK SMILES C=CCCCCCCC(=O)[O-]
REMARK SMILES IDX 6 1 7 2 8 3 9 4 10 5 11 6 5 7 4 8 3 9 2 10 1 11
REMARK H PARENT
REMARK Flexibility Score: inf
ROOT
ATOM      1  C   UNL     1      11.462 114.808  14.550  1.00  0.00     0.000 C 
ENDROOT
BRANCH   1   2
ATOM      2  C   UNL     1      11.873 116.233  14.945  1.00  0.00     0.006 C 
BRANCH   2   3
ATOM      3  C   UNL     1      12.147 116.365  16.449  1.00  0.00     0.053 C 
BRANCH   3   4
ATOM      4  C   UNL     1      13.082 117.497  16.747  1.00  0.00     0.041 C 
ATOM      5  O   UNL     1      13.960 117.830  15.908  1.00  0.00    -0.550 OA
ATOM      6  O   UNL     1      13.005 118.163  17.964  1.00  0.00    -0.550 OA
ENDBRANCH   3   4
ENDBRANCH   2   3
ENDBRANCH   1   2
BRANCH   1   7
ATOM      7  C   UNL     1      11.400 113.893  15.781  1.00  0.00     0.000 C 
BRANCH   7   8
ATOM      8  C   UNL     1      11.482 112.403  15.416  1.00  0.00     0.004 C 
BRANCH   8   9
ATOM      9  C   UNL     1      10.283 111.598  15.941  1.00  0.00     0.027 C 
BRANCH   9  10
ATOM     10  C   UNL     1      10.732 110.328  16.608  1.00  0.00    -0.035 C 
ATOM     11  C   UNL     1      11.096 110.300  17.895  1.00  0.00     0.004 C 
ENDBRANCH   9  10
ENDBRANCH   8   9
ENDBRANCH   7   8
ENDBRANCH   1   7
TORSDOF 7
ENDMDL
MODEL 7
REMARK VINA RESULT:    -4.930      3.197      6.972
REMARK INTER + INTRA:          -7.233
REMARK INTER:                  -6.949
REMARK INTRA:                  -0.284
REMARK UNBOUND:                -0.285
REMARK SMILES C=CCCCCCCC(=O)[O-]
REMARK SMILES IDX 6 1 7 2 8 3 9 4 10 5 11 6 5 7 4 8 3 9 2 10 1 11
REMARK H PARENT
REMARK Flexibility Score: inf
ROOT
ATOM      1  C   UNL     1      17.289 121.276  15.621  1.00  0.00     0.000 C 
ENDROOT
BRANCH   1   2
ATOM      2  C   UNL     1      18.018 122.612  15.422  1.00  0.00     0.006 C 
BRANCH   2   3
ATOM      3  C   UNL     1      18.239 123.358  16.746  1.00  0.00     0.053 C 
BRANCH   3   4
ATOM      4  C   UNL     1      18.535 124.809  16.523  1.00  0.00     0.041 C 
ATOM      5  O   UNL     1      19.706 125.181  16.244  1.00  0.00    -0.550 OA
ATOM      6  O   UNL     1      17.526 125.755  16.655  1.00  0.00    -0.550 OA
ENDBRANCH   3   4
ENDBRANCH   2   3
ENDBRANCH   1   2
BRANCH   1   7
ATOM      7  C   UNL     1      17.149 120.943  17.113  1.00  0.00     0.000 C 
BRANCH   7   8
ATOM      8  C   UNL     1      16.254 119.721  17.366  1.00  0.00     0.004 C 
BRANCH   8   9
ATOM      9  C   UNL     1      14.841 119.892  16.788  1.00  0.00     0.027 C 
BRANCH   9  10
ATOM     10  C   UNL     1      13.878 118.919  17.409  1.00  0.00    -0.035 C 
ATOM     11  C   UNL     1      13.506 119.017  18.690  1.00  0.00     0.004 C 
ENDBRANCH   9  10
ENDBRANCH   8   9
ENDBRANCH   7   8
ENDBRANCH   1   7
TORSDOF 7
ENDMDL
MODEL 8
REMARK VINA RESULT:    -4.776     10.732     13.997
REMARK INTER + INTRA:          -7.015
REMARK INTER:                  -6.796
REMARK INTRA:                  -0.219
REMARK UNBOUND:                -0.285
REMARK SMILES C=CCCCCCCC(=O)[O-]
REMARK SMILES IDX 6 1 7 2 8 3 9 4 10 5 11 6 5 7 4 8 3 9 2 10 1 11
REMARK H PARENT
REMARK Flexibility Score: inf
ROOT
ATOM      1  C   UNL     1      11.595 114.757  15.510  1.00  0.00     0.000 C 
ENDROOT
BRANCH   1   2
ATOM      2  C   UNL     1      11.518 115.417  14.127  1.00  0.00     0.006 C 
BRANCH   2   3
ATOM      3  C   UNL     1      11.621 116.947  14.205  1.00  0.00     0.053 C 
BRANCH   3   4
ATOM      4  C   UNL     1      10.643 117.617  13.288  1.00  0.00     0.041 C 
ATOM      5  O   UNL     1      10.774 118.837  13.007  1.00  0.00    -0.550 OA
ATOM      6  O   UNL     1       9.570 116.902  12.771  1.00  0.00    -0.550 OA
ENDBRANCH   3   4
ENDBRANCH   2   3
ENDBRANCH   1   2
BRANCH   1   7
ATOM      7  C   UNL     1      11.539 113.227  15.392  1.00  0.00     0.000 C 
BRANCH   7   8
ATOM      8  C   UNL     1      10.424 112.608  16.249  1.00  0.00     0.004 C 
BRANCH   8   9
ATOM      9  C   UNL     1      10.010 111.211  15.762  1.00  0.00     0.027 C 
BRANCH   9  10
ATOM     10  C   UNL     1      10.665 110.134  16.581  1.00  0.00    -0.035 C 
ATOM     11  C   UNL     1      11.146 110.375  17.805  1.00  0.00     0.004 C 
ENDBRANCH   9  10
ENDBRANCH   8   9
ENDBRANCH   7   8
ENDBRANCH   1   7
TORSDOF 7
ENDMDL
MODEL 9
REMARK VINA RESULT:    -4.752      3.305      5.288
REMARK INTER + INTRA:          -6.982
REMARK INTER:                  -6.763
REMARK INTRA:                  -0.219
REMARK UNBOUND:                -0.285
REMARK SMILES C=CCCCCCCC(=O)[O-]
REMARK SMILES IDX 6 1 7 2 8 3 9 4 10 5 11 6 5 7 4 8 3 9 2 10 1 11
REMARK H PARENT
REMARK Flexibility Score: inf
ROOT
ATOM      1  C   UNL     1      16.470 119.429  17.268  1.00  0.00     0.000 C 
ENDROOT
BRANCH   1   2
ATOM      2  C   UNL     1      16.442 119.715  18.776  1.00  0.00     0.006 C 
BRANCH   2   3
ATOM      3  C   UNL     1      15.087 119.367  19.409  1.00  0.00     0.053 C 
BRANCH   3   4
ATOM      4  C   UNL     1      15.158 119.367  20.906  1.00  0.00     0.041 C 
ATOM      5  O   UNL     1      15.589 120.379  21.519  1.00  0.00    -0.550 OA
ATOM      6  O   UNL     1      14.778 118.238  21.621  1.00  0.00    -0.550 OA
ENDBRANCH   3   4
ENDBRANCH   2   3
ENDBRANCH   1   2
BRANCH   1   7
ATOM      7  C   UNL     1      16.523 120.735  16.462  1.00  0.00     0.000 C 
BRANCH   7   8
ATOM      8  C   UNL     1      17.543 121.736  17.025  1.00  0.00     0.004 C 
BRANCH   8   9
ATOM      9  C   UNL     1      17.975 122.786  15.989  1.00  0.00     0.027 C 
BRANCH   9  10
ATOM     10  C   UNL     1      18.522 124.016  16.659  1.00  0.00    -0.035 C 
ATOM     11  C   UNL     1      17.929 125.208  16.536  1.00  0.00     0.004 C 
ENDBRANCH   9  10
ENDBRANCH   8   9
ENDBRANCH   7   8
ENDBRANCH   1   7
TORSDOF 7
ENDMDL
