MODEL 1
REMARK VINA RESULT:    -3.682      0.000      0.000
REMARK INTER + INTRA:          -5.017
REMARK INTER:                  -4.758
REMARK INTRA:                  -0.259
REMARK UNBOUND:                -0.259
REMARK SMILES CCCCCCC(=O)[O-]
REMARK SMILES IDX 5 1 6 2 7 3 8 4 9 5 4 6 3 7 2 8 1 9
REMARK H PARENT
REMARK Flexibility Score: inf
ROOT
ATOM      1  C   UNL     1      12.743  11.298 -20.245  1.00  0.00     0.006 C 
ENDROOT
BRANCH   1   2
ATOM      2  C   UNL     1      11.410  11.901 -19.783  1.00  0.00     0.053 C 
BRANCH   2   3
ATOM      3  C   UNL     1      11.589  12.628 -18.488  1.00  0.00     0.041 C 
ATOM      4  O   UNL     1      12.721  13.072 -18.161  1.00  0.00    -0.550 OA
ATOM      5  O   UNL     1      10.495  12.858 -17.662  1.00  0.00    -0.550 OA
ENDBRANCH   2   3
ENDBRANCH   1   2
BRANCH   1   6
ATOM      6  C   UNL     1      12.930  11.370 -21.769  1.00  0.00     0.000 C 
BRANCH   6   7
ATOM      7  C   UNL     1      14.217  12.108 -22.173  1.00  0.00    -0.000 C 
BRANCH   7   8
ATOM      8  C   UNL     1      14.873  12.837 -20.990  1.00  0.00    -0.003 C 
ATOM      9  C   UNL     1      16.375  12.569 -20.888  1.00  0.00     0.004 C 
ENDBRANCH   7   8
ENDBRANCH   6   7
ENDBRANCH   1   6
TORSDOF 5
ENDMDL
MODEL 2
REMARK VINA RESULT:    -3.649      3.334      4.960
REMARK INTER + INTRA:          -4.974
REMARK INTER:                  -4.816
REMARK INTRA:                  -0.158
REMARK UNBOUND:                -0.259
REMARK SMILES CCCCCCC(=O)[O-]
REMARK SMILES IDX 5 1 6 2 7 3 8 4 9 5 4 6 3 7 2 8 1 9
REMARK H PARENT
REMARK Flexibility Score: inf
ROOT
ATOM      1  C   UNL     1      15.837  13.570 -19.879  1.00  0.00     0.006 C 
ENDROOT
BRANCH   1   2
ATOM      2  C   UNL     1      15.999  12.519 -20.987  1.00  0.00     0.053 C 
BRANCH   2   3
ATOM      3  C   UNL     1      14.667  12.167 -21.569  1.00  0.00     0.041 C 
ATOM      4  O   UNL     1      13.982  11.236 -21.067  1.00  0.00    -0.550 OA
ATOM      5  O   UNL     1      14.158  12.898 -22.635  1.00  0.00    -0.550 OA
ENDBRANCH   2   3
ENDBRANCH   1   2
BRANCH   1   6
ATOM      6  C   UNL     1      17.173  14.209 -19.468  1.00  0.00     0.000 C 
BRANCH   6   7
ATOM      7  C   UNL     1      17.181  14.672 -18.001  1.00  0.00    -0.000 C 
BRANCH   7   8
ATOM      8  C   UNL     1      17.533  13.537 -17.027  1.00  0.00    -0.003 C 
ATOM      9  C   UNL     1      16.508  13.381 -15.903  1.00  0.00     0.004 C 
ENDBRANCH   7   8
ENDBRANCH   6   7
ENDBRANCH   1   6
TORSDOF 5
ENDMDL
MODEL 3
REMARK VINA RESULT:    -3.614      2.797      4.629
REMARK INTER + INTRA:          -4.930
REMARK INTER:                  -4.781
REMARK INTRA:                  -0.148
REMARK UNBOUND:                -0.259
REMARK SMILES CCCCCCC(=O)[O-]
REMARK SMILES IDX 5 1 6 2 7 3 8 4 9 5 4 6 3 7 2 8 1 9
REMARK H PARENT
REMARK Flexibility Score: inf
ROOT
ATOM      1  C   UNL     1      12.706  12.028 -20.170  1.00  0.00     0.006 C 
ENDROOT
BRANCH   1   2
ATOM      2  C   UNL     1      13.614  11.243 -21.128  1.00  0.00     0.053 C 
BRANCH   2   3
ATOM      3  C   UNL     1      14.518  12.176 -21.870  1.00  0.00     0.041 C 
ATOM      4  O   UNL     1      15.686  12.393 -21.452  1.00  0.00    -0.550 OA
ATOM      5  O   UNL     1      14.088  12.770 -23.050  1.00  0.00    -0.550 OA
ENDBRANCH   2   3
ENDBRANCH   1   2
BRANCH   1   6
ATOM      6  C   UNL     1      11.270  11.482 -20.133  1.00  0.00     0.000 C 
BRANCH   6   7
ATOM      7  C   UNL     1      10.294  12.434 -19.421  1.00  0.00    -0.000 C 
BRANCH   7   8
ATOM      8  C   UNL     1      10.760  12.804 -18.005  1.00  0.00    -0.003 C 
ATOM      9  C   UNL     1      10.441  14.254 -17.636  1.00  0.00     0.004 C 
ENDBRANCH   7   8
ENDBRANCH   6   7
ENDBRANCH   1   6
TORSDOF 5
ENDMDL
MODEL 4
REMARK VINA RESULT:    -3.612      2.977      4.625
REMARK INTER + INTRA:          -4.926
REMARK INTER:                  -4.802
REMARK INTRA:                  -0.125
REMARK UNBOUND:                -0.259
REMARK SMILES CCCCCCC(=O)[O-]
REMARK SMILES IDX 5 1 6 2 7 3 8 4 9 5 4 6 3 7 2 8 1 9
REMARK H PARENT
REMARK Flexibility Score: inf
ROOT
ATOM      1  C   UNL     1      15.741  13.542 -20.017  1.00  0.00     0.006 C 
ENDROOT
BRANCH   1   2
ATOM      2  C   UNL     1      17.191  13.543 -19.512  1.00  0.00     0.053 C 
BRANCH   2   3
ATOM      3  C   UNL     1      17.268  14.163 -18.153  1.00  0.00     0.041 C 
ATOM      4  O   UNL     1      16.912  15.359 -17.980  1.00  0.00    -0.550 OA
ATOM      5  O   UNL     1      17.688  13.406 -17.066  1.00  0.00    -0.550 OA
ENDBRANCH   2   3
ENDBRANCH   1   2
BRANCH   1   6
ATOM      6  C   UNL     1      15.494  12.490 -21.110  1.00  0.00     0.000 C 
BRANCH   6   7
ATOM      7  C   UNL     1      14.110  12.632 -21.765  1.00  0.00    -0.000 C 
BRANCH   7   8
ATOM      8  C   UNL     1      13.257  11.362 -21.619  1.00  0.00    -0.003 C 
ATOM      9  C   UNL     1      12.255  11.450 -20.467  1.00  0.00     0.004 C 
ENDBRANCH   7   8
ENDBRANCH   6   7
ENDBRANCH   1   6
TORSDOF 5
ENDMDL
MODEL 5
REMARK VINA RESULT:    -3.596      5.613      6.943
REMARK INTER + INTRA:          -4.906
REMARK INTER:                  -4.715
REMARK INTRA:                  -0.190
REMARK UNBOUND:                -0.259
REMARK SMILES CCCCCCC(=O)[O-]
REMARK SMILES IDX 5 1 6 2 7 3 8 4 9 5 4 6 3 7 2 8 1 9
REMARK H PARENT
REMARK Flexibility Score: inf
ROOT
ATOM      1  C   UNL     1      16.346  16.307 -16.526  1.00  0.00     0.006 C 
ENDROOT
BRANCH   1   2
ATOM      2  C   UNL     1      16.837  15.253 -17.527  1.00  0.00     0.053 C 
BRANCH   2   3
ATOM      3  C   UNL     1      17.010  13.931 -16.848  1.00  0.00     0.041 C 
ATOM      4  O   UNL     1      17.890  13.123 -17.247  1.00  0.00    -0.550 OA
ATOM      5  O   UNL     1      16.232  13.610 -15.742  1.00  0.00    -0.550 OA
ENDBRANCH   2   3
ENDBRANCH   1   2
BRANCH   1   6
ATOM      6  C   UNL     1      15.919  17.618 -17.206  1.00  0.00     0.000 C 
BRANCH   6   7
ATOM      7  C   UNL     1      14.424  17.925 -17.013  1.00  0.00    -0.000 C 
BRANCH   7   8
ATOM      8  C   UNL     1      13.905  17.478 -15.638  1.00  0.00    -0.003 C 
ATOM      9  C   UNL     1      12.625  16.646 -15.729  1.00  0.00     0.004 C 
ENDBRANCH   7   8
ENDBRANCH   6   7
ENDBRANCH   1   6
TORSDOF 5
ENDMDL
MODEL 6
REMARK VINA RESULT:    -3.587      5.853      7.077
REMARK INTER + INTRA:          -4.895
REMARK INTER:                  -4.594
REMARK INTRA:                  -0.301
REMARK UNBOUND:                -0.259
REMARK SMILES CCCCCCC(=O)[O-]
REMARK SMILES IDX 5 1 6 2 7 3 8 4 9 5 4 6 3 7 2 8 1 9
REMARK H PARENT
REMARK Flexibility Score: inf
ROOT
ATOM      1  C   UNL     1      16.383  16.642 -16.251  1.00  0.00     0.006 C 
ENDROOT
BRANCH   1   2
ATOM      2  C   UNL     1      16.036  15.208 -16.674  1.00  0.00     0.053 C 
BRANCH   2   3
ATOM      3  C   UNL     1      17.171  14.601 -17.436  1.00  0.00     0.041 C 
ATOM      4  O   UNL     1      17.853  13.673 -16.925  1.00  0.00    -0.550 OA
ATOM      5  O   UNL     1      17.446  15.026 -18.730  1.00  0.00    -0.550 OA
ENDBRANCH   2   3
ENDBRANCH   1   2
BRANCH   1   6
ATOM      6  C   UNL     1      15.719  17.702 -17.145  1.00  0.00     0.000 C 
BRANCH   6   7
ATOM      7  C   UNL     1      14.209  17.464 -17.321  1.00  0.00    -0.000 C 
BRANCH   7   8
ATOM      8  C   UNL     1      13.407  17.811 -16.057  1.00  0.00    -0.003 C 
ATOM      9  C   UNL     1      12.508  16.665 -15.593  1.00  0.00     0.004 C 
ENDBRANCH   7   8
ENDBRANCH   6   7
ENDBRANCH   1   6
TORSDOF 5
ENDMDL
MODEL 7
REMARK VINA RESULT:    -3.579      5.211      5.939
REMARK INTER + INTRA:          -4.884
REMARK INTER:                  -4.543
REMARK INTRA:                  -0.341
REMARK UNBOUND:                -0.259
REMARK SMILES CCCCCCC(=O)[O-]
REMARK SMILES IDX 5 1 6 2 7 3 8 4 9 5 4 6 3 7 2 8 1 9
REMARK H PARENT
REMARK Flexibility Score: inf
ROOT
ATOM      1  C   UNL     1      14.991  17.583 -16.945  1.00  0.00     0.006 C 
ENDROOT
BRANCH   1   2
ATOM      2  C   UNL     1      14.123  17.338 -15.703  1.00  0.00     0.053 C 
BRANCH   2   3
ATOM      3  C   UNL     1      13.022  16.376 -16.020  1.00  0.00     0.041 C 
ATOM      4  O   UNL     1      11.880  16.528 -15.509  1.00  0.00    -0.550 OA
ATOM      5  O   UNL     1      13.241  15.338 -16.918  1.00  0.00    -0.550 OA
ENDBRANCH   2   3
ENDBRANCH   1   2
BRANCH   1   6
ATOM      6  C   UNL     1      16.391  16.959 -16.822  1.00  0.00     0.000 C 
BRANCH   6   7
ATOM      7  C   UNL     1      16.668  15.907 -17.909  1.00  0.00    -0.000 C 
BRANCH   7   8
ATOM      8  C   UNL     1      17.274  14.616 -17.337  1.00  0.00    -0.003 C 
ATOM      9  C   UNL     1      16.415  13.995 -16.235  1.00  0.00     0.004 C 
ENDBRANCH   7   8
ENDBRANCH   6   7
ENDBRANCH   1   6
TORSDOF 5
ENDMDL
MODEL 8
REMARK VINA RESULT:    -3.470      3.200      4.206
REMARK INTER + INTRA:          -4.743
REMARK INTER:                  -4.371
REMARK INTRA:                  -0.372
REMARK UNBOUND:                -0.259
REMARK SMILES CCCCCCC(=O)[O-]
REMARK SMILES IDX 5 1 6 2 7 3 8 4 9 5 4 6 3 7 2 8 1 9
REMARK H PARENT
REMARK Flexibility Score: inf
ROOT
ATOM      1  C   UNL     1      14.206  14.898 -19.847  1.00  0.00     0.006 C 
ENDROOT
BRANCH   1   2
ATOM      2  C   UNL     1      15.155  14.329 -18.783  1.00  0.00     0.053 C 
BRANCH   2   3
ATOM      3  C   UNL     1      16.523  14.137 -19.356  1.00  0.00     0.041 C 
ATOM      4  O   UNL     1      17.451  14.939 -19.066  1.00  0.00    -0.550 OA
ATOM      5  O   UNL     1      16.788  13.044 -20.173  1.00  0.00    -0.550 OA
ENDBRANCH   2   3
ENDBRANCH   1   2
BRANCH   1   6
ATOM      6  C   UNL     1      13.289  13.825 -20.458  1.00  0.00     0.000 C 
BRANCH   6   7
ATOM      7  C   UNL     1      13.569  13.590 -21.952  1.00  0.00    -0.000 C 
BRANCH   7   8
ATOM      8  C   UNL     1      14.013  12.150 -22.248  1.00  0.00    -0.003 C 
ATOM      9  C   UNL     1      13.611  11.167 -21.147  1.00  0.00     0.004 C 
ENDBRANCH   7   8
ENDBRANCH   6   7
ENDBRANCH   1   6
TORSDOF 5
ENDMDL
MODEL 9
REMARK VINA RESULT:    -3.397      5.061      6.379
REMARK INTER + INTRA:          -4.649
REMARK INTER:                  -4.353
REMARK INTRA:                  -0.296
REMARK UNBOUND:                -0.259
REMARK SMILES CCCCCCC(=O)[O-]
REMARK SMILES IDX 5 1 6 2 7 3 8 4 9 5 4 6 3 7 2 8 1 9
REMARK H PARENT
REMARK Flexibility Score: inf
ROOT
ATOM      1  C   UNL     1      15.454  14.129 -16.120  1.00  0.00     0.006 C 
ENDROOT
BRANCH   1   2
ATOM      2  C   UNL     1      16.476  15.067 -16.776  1.00  0.00     0.053 C 
BRANCH   2   3
ATOM      3  C   UNL     1      17.300  14.320 -17.777  1.00  0.00     0.041 C 
ATOM      4  O   UNL     1      17.486  14.797 -18.928  1.00  0.00    -0.550 OA
ATOM      5  O   UNL     1      17.903  13.119 -17.424  1.00  0.00    -0.550 OA
ENDBRANCH   2   3
ENDBRANCH   1   2
BRANCH   1   6
ATOM      6  C   UNL     1      14.109  14.103 -16.865  1.00  0.00     0.000 C 
BRANCH   6   7
ATOM      7  C   UNL     1      13.544  15.512 -17.114  1.00  0.00    -0.000 C 
BRANCH   7   8
ATOM      8  C   UNL     1      13.107  16.209 -15.817  1.00  0.00    -0.003 C 
ATOM      9  C   UNL     1      13.649  17.634 -15.698  1.00  0.00     0.004 C 
ENDBRANCH   7   8
ENDBRANCH   6   7
ENDBRANCH   1   6
TORSDOF 5
ENDMDL
