MODEL 1
REMARK VINA RESULT:    -4.014      0.000      0.000
REMARK INTER + INTRA:          -5.967
REMARK INTER:                  -5.657
REMARK INTRA:                  -0.311
REMARK UNBOUND:                -0.311
REMARK SMILES C=CCCCCCCC(=O)[O-]
REMARK SMILES IDX 6 1 7 2 8 3 9 4 10 5 11 6 5 7 4 8 3 9 2 10 1 11
REMARK H PARENT
REMARK Flexibility Score: inf
ROOT
ATOM      1  C   UNL     1      72.941 -37.122  10.664  1.00  0.00     0.000 C 
ENDROOT
BRANCH   1   2
ATOM      2  C   UNL     1      74.409 -37.408  10.307  1.00  0.00     0.006 C 
BRANCH   2   3
ATOM      3  C   UNL     1      75.225 -37.890  11.514  1.00  0.00     0.053 C 
BRANCH   3   4
ATOM      4  C   UNL     1      76.528 -37.160  11.587  1.00  0.00     0.041 C 
ATOM      5  O   UNL     1      76.582 -35.931  11.319  1.00  0.00    -0.550 OA
ATOM      6  O   UNL     1      77.694 -37.846  11.905  1.00  0.00    -0.550 OA
ENDBRANCH   3   4
ENDBRANCH   2   3
ENDBRANCH   1   2
BRANCH   1   7
ATOM      7  C   UNL     1      72.378 -38.118  11.692  1.00  0.00     0.000 C 
BRANCH   7   8
ATOM      8  C   UNL     1      70.974 -38.618  11.320  1.00  0.00     0.004 C 
BRANCH   8   9
ATOM      9  C   UNL     1      70.347 -37.817  10.169  1.00  0.00     0.027 C 
BRANCH   9  10
ATOM     10  C   UNL     1      68.846 -37.902  10.201  1.00  0.00    -0.035 C 
ATOM     11  C   UNL     1      68.198 -39.017   9.852  1.00  0.00     0.004 C 
ENDBRANCH   9  10
ENDBRANCH   8   9
ENDBRANCH   7   8
ENDBRANCH   1   7
TORSDOF 7
ENDMDL
MODEL 2
REMARK VINA RESULT:    -3.882     11.703     13.691
REMARK INTER + INTRA:          -5.782
REMARK INTER:                  -5.425
REMARK INTRA:                  -0.357
REMARK UNBOUND:                -0.311
REMARK SMILES C=CCCCCCCC(=O)[O-]
REMARK SMILES IDX 6 1 7 2 8 3 9 4 10 5 11 6 5 7 4 8 3 9 2 10 1 11
REMARK H PARENT
REMARK Flexibility Score: inf
ROOT
ATOM      1  C   UNL     1      62.871 -30.354  13.616  1.00  0.00     0.000 C 
ENDROOT
BRANCH   1   2
ATOM      2  C   UNL     1      62.464 -31.772  13.182  1.00  0.00     0.006 C 
BRANCH   2   3
ATOM      3  C   UNL     1      62.386 -32.749  14.362  1.00  0.00     0.053 C 
BRANCH   3   4
ATOM      4  C   UNL     1      63.170 -33.988  14.065  1.00  0.00     0.041 C 
ATOM      5  O   UNL     1      63.551 -34.736  15.003  1.00  0.00    -0.550 OA
ATOM      6  O   UNL     1      63.523 -34.291  12.756  1.00  0.00    -0.550 OA
ENDBRANCH   3   4
ENDBRANCH   2   3
ENDBRANCH   1   2
BRANCH   1   7
ATOM      7  C   UNL     1      62.496 -30.053  15.077  1.00  0.00     0.000 C 
BRANCH   7   8
ATOM      8  C   UNL     1      62.963 -28.661  15.529  1.00  0.00     0.004 C 
BRANCH   8   9
ATOM      9  C   UNL     1      62.107 -27.530  14.940  1.00  0.00     0.027 C 
BRANCH   9  10
ATOM     10  C   UNL     1      62.917 -26.658  14.020  1.00  0.00    -0.035 C 
ATOM     11  C   UNL     1      62.483 -26.328  12.800  1.00  0.00     0.004 C 
ENDBRANCH   9  10
ENDBRANCH   8   9
ENDBRANCH   7   8
ENDBRANCH   1   7
TORSDOF 7
ENDMDL
MODEL 3
REMARK VINA RESULT:    -3.867     13.001     14.371
REMARK INTER + INTRA:          -5.760
REMARK INTER:                  -5.376
REMARK INTRA:                  -0.384
REMARK UNBOUND:                -0.311
REMARK SMILES C=CCCCCCCC(=O)[O-]
REMARK SMILES IDX 6 1 7 2 8 3 9 4 10 5 11 6 5 7 4 8 3 9 2 10 1 11
REMARK H PARENT
REMARK Flexibility Score: inf
ROOT
ATOM      1  C   UNL     1      62.716 -30.906  13.520  1.00  0.00     0.000 C 
ENDROOT
BRANCH   1   2
ATOM      2  C   UNL     1      62.049 -31.492  14.776  1.00  0.00     0.006 C 
BRANCH   2   3
ATOM      3  C   UNL     1      62.439 -32.956  15.021  1.00  0.00     0.053 C 
BRANCH   3   4
ATOM      4  C   UNL     1      61.890 -33.430  16.329  1.00  0.00     0.041 C 
ATOM      5  O   UNL     1      61.498 -34.619  16.458  1.00  0.00    -0.550 OA
ATOM      6  O   UNL     1      61.765 -32.545  17.393  1.00  0.00    -0.550 OA
ENDBRANCH   3   4
ENDBRANCH   2   3
ENDBRANCH   1   2
BRANCH   1   7
ATOM      7  C   UNL     1      63.466 -29.595  13.808  1.00  0.00     0.000 C 
BRANCH   7   8
ATOM      8  C   UNL     1      63.020 -28.937  15.123  1.00  0.00     0.004 C 
BRANCH   8   9
ATOM      9  C   UNL     1      62.390 -27.553  14.907  1.00  0.00     0.027 C 
BRANCH   9  10
ATOM     10  C   UNL     1      62.221 -27.255  13.443  1.00  0.00    -0.035 C 
ATOM     11  C   UNL     1      62.622 -26.097  12.910  1.00  0.00     0.004 C 
ENDBRANCH   9  10
ENDBRANCH   8   9
ENDBRANCH   7   8
ENDBRANCH   1   7
TORSDOF 7
ENDMDL
MODEL 4
REMARK VINA RESULT:    -3.843      4.012      4.657
REMARK INTER + INTRA:          -5.727
REMARK INTER:                  -5.414
REMARK INTRA:                  -0.313
REMARK UNBOUND:                -0.311
REMARK SMILES C=CCCCCCCC(=O)[O-]
REMARK SMILES IDX 6 1 7 2 8 3 9 4 10 5 11 6 5 7 4 8 3 9 2 10 1 11
REMARK H PARENT
REMARK Flexibility Score: inf
ROOT
ATOM      1  C   UNL     1      73.680 -36.256   6.559  1.00  0.00     0.000 C 
ENDROOT
BRANCH   1   2
ATOM      2  C   UNL     1      73.701 -36.376   8.092  1.00  0.00     0.006 C 
BRANCH   2   3
ATOM      3  C   UNL     1      75.075 -36.796   8.630  1.00  0.00     0.053 C 
BRANCH   3   4
ATOM      4  C   UNL     1      75.001 -37.054  10.102  1.00  0.00     0.041 C 
ATOM      5  O   UNL     1      73.966 -37.568  10.603  1.00  0.00    -0.550 OA
ATOM      6  O   UNL     1      76.055 -36.684  10.928  1.00  0.00    -0.550 OA
ENDBRANCH   3   4
ENDBRANCH   2   3
ENDBRANCH   1   2
BRANCH   1   7
ATOM      7  C   UNL     1      73.220 -34.868   6.082  1.00  0.00     0.000 C 
BRANCH   7   8
ATOM      8  C   UNL     1      72.219 -34.214   7.048  1.00  0.00     0.004 C 
BRANCH   8   9
ATOM      9  C   UNL     1      71.381 -33.116   6.376  1.00  0.00     0.027 C 
BRANCH   9  10
ATOM     10  C   UNL     1      69.945 -33.182   6.820  1.00  0.00    -0.035 C 
ATOM     11  C   UNL     1      69.373 -34.333   7.184  1.00  0.00     0.004 C 
ENDBRANCH   9  10
ENDBRANCH   8   9
ENDBRANCH   7   8
ENDBRANCH   1   7
TORSDOF 7
ENDMDL
MODEL 5
REMARK VINA RESULT:    -3.810      4.749      6.083
REMARK INTER + INTRA:          -5.679
REMARK INTER:                  -5.037
REMARK INTRA:                  -0.642
REMARK UNBOUND:                -0.311
REMARK SMILES C=CCCCCCCC(=O)[O-]
REMARK SMILES IDX 6 1 7 2 8 3 9 4 10 5 11 6 5 7 4 8 3 9 2 10 1 11
REMARK H PARENT
REMARK Flexibility Score: inf
ROOT
ATOM      1  C   UNL     1      69.800 -35.677   6.864  1.00  0.00     0.000 C 
ENDROOT
BRANCH   1   2
ATOM      2  C   UNL     1      70.567 -36.387   7.992  1.00  0.00     0.006 C 
BRANCH   2   3
ATOM      3  C   UNL     1      72.044 -35.976   8.050  1.00  0.00     0.053 C 
BRANCH   3   4
ATOM      4  C   UNL     1      72.706 -36.578   9.249  1.00  0.00     0.041 C 
ATOM      5  O   UNL     1      73.943 -36.810   9.240  1.00  0.00    -0.550 OA
ATOM      6  O   UNL     1      71.948 -36.929  10.359  1.00  0.00    -0.550 OA
ENDBRANCH   3   4
ENDBRANCH   2   3
ENDBRANCH   1   2
BRANCH   1   7
ATOM      7  C   UNL     1      69.185 -34.342   7.317  1.00  0.00     0.000 C 
BRANCH   7   8
ATOM      8  C   UNL     1      69.946 -33.126   6.767  1.00  0.00     0.004 C 
BRANCH   8   9
ATOM      9  C   UNL     1      70.733 -33.450   5.488  1.00  0.00     0.027 C 
BRANCH   9  10
ATOM     10  C   UNL     1      72.185 -33.087   5.636  1.00  0.00    -0.035 C 
ATOM     11  C   UNL     1      73.157 -33.869   5.160  1.00  0.00     0.004 C 
ENDBRANCH   9  10
ENDBRANCH   8   9
ENDBRANCH   7   8
ENDBRANCH   1   7
TORSDOF 7
ENDMDL
MODEL 6
REMARK VINA RESULT:    -3.781     13.017     14.977
REMARK INTER + INTRA:          -5.639
REMARK INTER:                  -5.188
REMARK INTRA:                  -0.451
REMARK UNBOUND:                -0.311
REMARK SMILES C=CCCCCCCC(=O)[O-]
REMARK SMILES IDX 6 1 7 2 8 3 9 4 10 5 11 6 5 7 4 8 3 9 2 10 1 11
REMARK H PARENT
REMARK Flexibility Score: inf
ROOT
ATOM      1  C   UNL     1      61.895 -29.312  16.942  1.00  0.00     0.000 C 
ENDROOT
BRANCH   1   2
ATOM      2  C   UNL     1      62.003 -30.720  16.335  1.00  0.00     0.006 C 
BRANCH   2   3
ATOM      3  C   UNL     1      61.769 -30.728  14.819  1.00  0.00     0.053 C 
BRANCH   3   4
ATOM      4  C   UNL     1      62.362 -31.957  14.206  1.00  0.00     0.041 C 
ATOM      5  O   UNL     1      62.601 -32.968  14.918  1.00  0.00    -0.550 OA
ATOM      6  O   UNL     1      62.698 -31.969  12.858  1.00  0.00    -0.550 OA
ENDBRANCH   3   4
ENDBRANCH   2   3
ENDBRANCH   1   2
BRANCH   1   7
ATOM      7  C   UNL     1      60.876 -28.427  16.204  1.00  0.00     0.000 C 
BRANCH   7   8
ATOM      8  C   UNL     1      61.474 -27.083  15.761  1.00  0.00     0.004 C 
BRANCH   8   9
ATOM      9  C   UNL     1      62.668 -27.252  14.809  1.00  0.00     0.027 C 
BRANCH   9  10
ATOM     10  C   UNL     1      62.225 -27.225  13.372  1.00  0.00    -0.035 C 
ATOM     11  C   UNL     1      62.481 -26.182  12.578  1.00  0.00     0.004 C 
ENDBRANCH   9  10
ENDBRANCH   8   9
ENDBRANCH   7   8
ENDBRANCH   1   7
TORSDOF 7
ENDMDL
MODEL 7
REMARK VINA RESULT:    -3.778     10.835     12.046
REMARK INTER + INTRA:          -5.635
REMARK INTER:                  -5.107
REMARK INTRA:                  -0.527
REMARK UNBOUND:                -0.311
REMARK SMILES C=CCCCCCCC(=O)[O-]
REMARK SMILES IDX 6 1 7 2 8 3 9 4 10 5 11 6 5 7 4 8 3 9 2 10 1 11
REMARK H PARENT
REMARK Flexibility Score: inf
ROOT
ATOM      1  C   UNL     1      72.841 -32.627  22.007  1.00  0.00     0.000 C 
ENDROOT
BRANCH   1   2
ATOM      2  C   UNL     1      71.967 -32.689  20.743  1.00  0.00     0.006 C 
BRANCH   2   3
ATOM      3  C   UNL     1      71.439 -31.311  20.324  1.00  0.00     0.053 C 
BRANCH   3   4
ATOM      4  C   UNL     1      71.914 -30.967  18.949  1.00  0.00     0.041 C 
ATOM      5  O   UNL     1      72.952 -31.508  18.483  1.00  0.00    -0.550 OA
ATOM      6  O   UNL     1      71.241 -30.011  18.198  1.00  0.00    -0.550 OA
ENDBRANCH   3   4
ENDBRANCH   2   3
ENDBRANCH   1   2
BRANCH   1   7
ATOM      7  C   UNL     1      74.334 -32.840  21.705  1.00  0.00     0.000 C 
BRANCH   7   8
ATOM      8  C   UNL     1      75.006 -33.798  22.701  1.00  0.00     0.004 C 
BRANCH   8   9
ATOM      9  C   UNL     1      75.062 -35.243  22.185  1.00  0.00     0.027 C 
BRANCH   9  10
ATOM     10  C   UNL     1      73.910 -36.054  22.712  1.00  0.00    -0.035 C 
ATOM     11  C   UNL     1      72.894 -36.425  21.927  1.00  0.00     0.004 C 
ENDBRANCH   9  10
ENDBRANCH   8   9
ENDBRANCH   7   8
ENDBRANCH   1   7
TORSDOF 7
ENDMDL
MODEL 8
REMARK VINA RESULT:    -3.711     10.458     11.541
REMARK INTER + INTRA:          -5.540
REMARK INTER:                  -5.238
REMARK INTRA:                  -0.302
REMARK UNBOUND:                -0.311
REMARK SMILES C=CCCCCCCC(=O)[O-]
REMARK SMILES IDX 6 1 7 2 8 3 9 4 10 5 11 6 5 7 4 8 3 9 2 10 1 11
REMARK H PARENT
REMARK Flexibility Score: inf
ROOT
ATOM      1  C   UNL     1      71.788 -32.366  20.751  1.00  0.00     0.000 C 
ENDROOT
BRANCH   1   2
ATOM      2  C   UNL     1      71.737 -31.334  19.613  1.00  0.00     0.006 C 
BRANCH   2   3
ATOM      3  C   UNL     1      72.927 -31.456  18.653  1.00  0.00     0.053 C 
BRANCH   3   4
ATOM      4  C   UNL     1      72.921 -30.329  17.669  1.00  0.00     0.041 C 
ATOM      5  O   UNL     1      73.768 -29.402  17.762  1.00  0.00    -0.550 OA
ATOM      6  O   UNL     1      71.948 -30.275  16.678  1.00  0.00    -0.550 OA
ENDBRANCH   3   4
ENDBRANCH   2   3
ENDBRANCH   1   2
BRANCH   1   7
ATOM      7  C   UNL     1      73.201 -32.531  21.336  1.00  0.00     0.000 C 
BRANCH   7   8
ATOM      8  C   UNL     1      73.262 -33.599  22.439  1.00  0.00     0.004 C 
BRANCH   8   9
ATOM      9  C   UNL     1      74.540 -34.448  22.370  1.00  0.00     0.027 C 
BRANCH   9  10
ATOM     10  C   UNL     1      74.216 -35.913  22.276  1.00  0.00    -0.035 C 
ATOM     11  C   UNL     1      73.031 -36.344  21.832  1.00  0.00     0.004 C 
ENDBRANCH   9  10
ENDBRANCH   8   9
ENDBRANCH   7   8
ENDBRANCH   1   7
TORSDOF 7
ENDMDL
MODEL 9
REMARK VINA RESULT:    -3.700      1.615      2.398
REMARK INTER + INTRA:          -5.525
REMARK INTER:                  -5.101
REMARK INTRA:                  -0.425
REMARK UNBOUND:                -0.311
REMARK SMILES C=CCCCCCCC(=O)[O-]
REMARK SMILES IDX 6 1 7 2 8 3 9 4 10 5 11 6 5 7 4 8 3 9 2 10 1 11
REMARK H PARENT
REMARK Flexibility Score: inf
ROOT
ATOM      1  C   UNL     1      71.738 -38.601  11.642  1.00  0.00     0.000 C 
ENDROOT
BRANCH   1   2
ATOM      2  C   UNL     1      72.740 -37.519  11.207  1.00  0.00     0.006 C 
BRANCH   2   3
ATOM      3  C   UNL     1      74.194 -37.910  11.502  1.00  0.00     0.053 C 
BRANCH   3   4
ATOM      4  C   UNL     1      75.126 -37.171  10.595  1.00  0.00     0.041 C 
ATOM      5  O   UNL     1      74.906 -37.131   9.356  1.00  0.00    -0.550 OA
ATOM      6  O   UNL     1      76.266 -36.567  11.111  1.00  0.00    -0.550 OA
ENDBRANCH   3   4
ENDBRANCH   2   3
ENDBRANCH   1   2
BRANCH   1   7
ATOM      7  C   UNL     1      70.665 -38.876  10.575  1.00  0.00     0.000 C 
BRANCH   7   8
ATOM      8  C   UNL     1      69.594 -37.775  10.519  1.00  0.00     0.004 C 
BRANCH   8   9
ATOM      9  C   UNL     1      69.276 -37.333   9.083  1.00  0.00     0.027 C 
BRANCH   9  10
ATOM     10  C   UNL     1      70.534 -37.053   8.308  1.00  0.00    -0.035 C 
ATOM     11  C   UNL     1      70.743 -35.876   7.710  1.00  0.00     0.004 C 
ENDBRANCH   9  10
ENDBRANCH   8   9
ENDBRANCH   7   8
ENDBRANCH   1   7
TORSDOF 7
ENDMDL
