MODEL 1
REMARK VINA RESULT:    -3.771      0.000      0.000
REMARK INTER + INTRA:          -3.903
REMARK INTER:                  -4.653
REMARK INTRA:                   0.749
REMARK UNBOUND:                 0.749
REMARK SMILES CC1=CC=CC(C)(C)CC1=O
REMARK SMILES IDX 1 1 2 2 3 3 10 4 11 5 9 6 4 8 5 9 6 10 7 11 8 12
REMARK H PARENT
REMARK Flexibility Score: 80.00
ROOT
ATOM      1  C   UNL     1     100.190 117.493 126.479  1.00  0.00     0.048 C 
ATOM      2  C   UNL     1     100.812 116.184 126.051  1.00  0.00    -0.008 C 
ATOM      3  C   UNL     1     101.739 115.636 126.866  1.00  0.00     0.007 C 
ENDROOT
BRANCH   2   4
ATOM      4  C   UNL     1     100.297 115.568 124.803  1.00  0.00     0.159 C 
ATOM      5  O   UNL     1      99.245 116.033 124.283  1.00  0.00    -0.295 OA
BRANCH   4   6
ATOM      6  C   UNL     1     100.967 114.422 124.110  1.00  0.00     0.091 CG0
ATOM      7  G   UNL     1     101.072 113.155 124.990  1.00  0.00     0.000 G0
ENDBRANCH   4   6
ENDBRANCH   2   4
BRANCH   3   8
ATOM      8  C   UNL     1     102.493 114.368 126.730  1.00  0.00    -0.003 C 
ATOM      9  C   UNL     1     102.227 113.305 125.960  1.00  0.00    -0.020 C 
BRANCH   9  10
ATOM     10  C   UNL     1     101.071 113.161 124.999  1.00  0.00    -0.010 CG0
ATOM     11  C   UNL     1     101.359 111.958 124.071  1.00  0.00     0.016 C 
ATOM     12  C   UNL     1      99.770 112.861 125.778  1.00  0.00     0.016 C 
ATOM     13  G   UNL     1     100.963 114.428 124.121  1.00  0.00     0.000 G0
ENDBRANCH   9  10
ENDBRANCH   3   8
TORSDOF 0
ENDMDL
MODEL 2
REMARK VINA RESULT:    -3.695      1.877      2.749
REMARK INTER + INTRA:          -3.810
REMARK INTER:                  -4.569
REMARK INTRA:                   0.759
REMARK UNBOUND:                 0.749
REMARK SMILES CC1=CC=CC(C)(C)CC1=O
REMARK SMILES IDX 1 1 2 2 3 3 10 4 11 5 9 6 4 8 5 9 6 10 7 11 8 12
REMARK H PARENT
REMARK Flexibility Score: 80.00
ROOT
ATOM      1  C   UNL     1     100.596 116.815 126.508  1.00  0.00     0.048 C 
ATOM      2  C   UNL     1     100.818 115.326 126.381  1.00  0.00    -0.008 C 
ATOM      3  C   UNL     1      99.860 114.602 125.764  1.00  0.00     0.007 C 
ENDROOT
BRANCH   2   4
ATOM      4  C   UNL     1     102.109 114.790 126.879  1.00  0.00     0.159 C 
ATOM      5  O   UNL     1     103.015 115.601 127.218  1.00  0.00    -0.295 OA
BRANCH   4   6
ATOM      6  C   UNL     1     102.399 113.327 127.016  1.00  0.00     0.091 CG0
ATOM      7  G   UNL     1     102.261 112.552 125.686  1.00  0.00     0.000 G0
ENDBRANCH   4   6
ENDBRANCH   2   4
BRANCH   3   8
ATOM      8  C   UNL     1      99.806 113.151 125.470  1.00  0.00    -0.003 C 
ATOM      9  C   UNL     1     100.806 112.261 125.422  1.00  0.00    -0.020 C 
BRANCH   9  10
ATOM     10  C   UNL     1     102.266 112.537 125.693  1.00  0.00    -0.010 CG0
ATOM     11  C   UNL     1     102.991 111.183 125.869  1.00  0.00     0.016 C 
ATOM     12  C   UNL     1     102.899 113.263 124.484  1.00  0.00     0.016 C 
ATOM     13  G   UNL     1     102.410 113.333 127.010  1.00  0.00     0.000 G0
ENDBRANCH   9  10
ENDBRANCH   3   8
TORSDOF 0
ENDMDL
MODEL 3
REMARK VINA RESULT:    -3.681      2.253      4.089
REMARK INTER + INTRA:          -3.792
REMARK INTER:                  -4.559
REMARK INTRA:                   0.766
REMARK UNBOUND:                 0.749
REMARK SMILES CC1=CC=CC(C)(C)CC1=O
REMARK SMILES IDX 1 1 2 2 3 3 10 4 11 5 9 6 4 8 5 9 6 10 7 11 8 12
REMARK H PARENT
REMARK Flexibility Score: 80.00
ROOT
ATOM      1  C   UNL     1     103.505 110.335 125.883  1.00  0.00     0.048 C 
ATOM      2  C   UNL     1     102.764 111.611 125.559  1.00  0.00    -0.008 C 
ATOM      3  C   UNL     1     102.441 111.836 124.267  1.00  0.00     0.007 C 
ENDROOT
BRANCH   2   4
ATOM      4  C   UNL     1     102.386 112.481 126.700  1.00  0.00     0.159 C 
ATOM      5  O   UNL     1     102.491 112.027 127.873  1.00  0.00    -0.295 OA
BRANCH   4   6
ATOM      6  C   UNL     1     101.892 113.886 126.540  1.00  0.00     0.091 CG0
ATOM      7  G   UNL     1     100.594 113.984 125.706  1.00  0.00     0.000 G0
ENDBRANCH   4   6
ENDBRANCH   2   4
BRANCH   3   8
ATOM      8  C   UNL     1     101.704 112.965 123.654  1.00  0.00    -0.003 C 
ATOM      9  C   UNL     1     100.910 113.872 124.238  1.00  0.00    -0.020 C 
BRANCH   9  10
ATOM     10  C   UNL     1     100.592 113.971 125.711  1.00  0.00    -0.010 CG0
ATOM     11  C   UNL     1      99.951 115.352 125.977  1.00  0.00     0.016 C 
ATOM     12  C   UNL     1      99.566 112.884 126.104  1.00  0.00     0.016 C 
ATOM     13  G   UNL     1     101.899 113.882 126.532  1.00  0.00     0.000 G0
ENDBRANCH   9  10
ENDBRANCH   3   8
TORSDOF 0
ENDMDL
MODEL 4
REMARK VINA RESULT:    -3.498      1.474      1.818
REMARK INTER + INTRA:          -3.567
REMARK INTER:                  -4.321
REMARK INTRA:                   0.754
REMARK UNBOUND:                 0.749
REMARK SMILES CC1=CC=CC(C)(C)CC1=O
REMARK SMILES IDX 1 1 2 2 3 3 10 4 11 5 9 6 4 8 5 9 6 10 7 11 8 12
REMARK H PARENT
REMARK Flexibility Score: 80.00
ROOT
ATOM      1  C   UNL     1      99.910 117.133 123.949  1.00  0.00     0.048 C 
ATOM      2  C   UNL     1     100.559 116.004 124.715  1.00  0.00    -0.008 C 
ATOM      3  C   UNL     1     100.086 115.733 125.950  1.00  0.00     0.007 C 
ENDROOT
BRANCH   2   4
ATOM      4  C   UNL     1     101.618 115.234 124.015  1.00  0.00     0.159 C 
ATOM      5  O   UNL     1     101.796 115.428 122.780  1.00  0.00    -0.295 OA
BRANCH   4   6
ATOM      6  C   UNL     1     102.504 114.239 124.698  1.00  0.00     0.091 CG0
ATOM      7  G   UNL     1     101.721 113.091 125.375  1.00  0.00     0.000 G0
ENDBRANCH   4   6
ENDBRANCH   2   4
BRANCH   3   8
ATOM      8  C   UNL     1     100.495 114.687 126.917  1.00  0.00    -0.003 C 
ATOM      9  C   UNL     1     101.179 113.557 126.698  1.00  0.00    -0.020 C 
BRANCH   9  10
ATOM     10  C   UNL     1     101.733 113.084 125.375  1.00  0.00    -0.010 CG0
ATOM     11  C   UNL     1     102.738 111.942 125.650  1.00  0.00     0.016 C 
ATOM     12  C   UNL     1     100.594 112.518 124.498  1.00  0.00     0.016 C 
ATOM     13  G   UNL     1     102.497 114.240 124.689  1.00  0.00     0.000 G0
ENDBRANCH   9  10
ENDBRANCH   3   8
TORSDOF 0
ENDMDL
MODEL 5
REMARK VINA RESULT:    -3.489      1.873      3.718
REMARK INTER + INTRA:          -3.556
REMARK INTER:                  -4.315
REMARK INTRA:                   0.760
REMARK UNBOUND:                 0.749
REMARK SMILES CC1=CC=CC(C)(C)CC1=O
REMARK SMILES IDX 1 1 2 2 3 3 10 4 11 5 9 6 4 8 5 9 6 10 7 11 8 12
REMARK H PARENT
REMARK Flexibility Score: 80.00
ROOT
ATOM      1  C   UNL     1     103.604 111.731 124.163  1.00  0.00     0.048 C 
ATOM      2  C   UNL     1     102.518 112.692 124.586  1.00  0.00    -0.008 C 
ATOM      3  C   UNL     1     101.464 112.186 125.262  1.00  0.00     0.007 C 
ENDROOT
BRANCH   2   4
ATOM      4  C   UNL     1     102.735 114.130 124.289  1.00  0.00     0.159 C 
ATOM      5  O   UNL     1     103.870 114.503 123.882  1.00  0.00    -0.295 OA
BRANCH   4   6
ATOM      6  C   UNL     1     101.670 115.173 124.435  1.00  0.00     0.091 CG0
ATOM      7  G   UNL     1     101.107 115.273 125.871  1.00  0.00     0.000 G0
ENDBRANCH   4   6
ENDBRANCH   2   4
BRANCH   3   8
ATOM      8  C   UNL     1     100.276 112.871 125.822  1.00  0.00    -0.003 C 
ATOM      9  C   UNL     1     100.102 114.171 126.096  1.00  0.00    -0.020 C 
BRANCH   9  10
ATOM     10  C   UNL     1     101.102 115.278 125.866  1.00  0.00    -0.010 CG0
ATOM     11  C   UNL     1     100.364 116.631 125.988  1.00  0.00     0.016 C 
ATOM     12  C   UNL     1     102.200 115.233 126.952  1.00  0.00     0.016 C 
ATOM     13  G   UNL     1     101.675 115.173 124.434  1.00  0.00     0.000 G0
ENDBRANCH   9  10
ENDBRANCH   3   8
TORSDOF 0
ENDMDL
MODEL 6
REMARK VINA RESULT:    -3.352      1.506      2.494
REMARK INTER + INTRA:          -3.387
REMARK INTER:                  -4.134
REMARK INTRA:                   0.747
REMARK UNBOUND:                 0.749
REMARK SMILES CC1=CC=CC(C)(C)CC1=O
REMARK SMILES IDX 1 1 2 2 3 3 10 4 11 5 9 6 4 8 5 9 6 10 7 11 8 12
REMARK H PARENT
REMARK Flexibility Score: 80.00
ROOT
ATOM      1  C   UNL     1     100.191 117.419 126.213  1.00  0.00     0.048 C 
ATOM      2  C   UNL     1     100.337 116.229 125.295  1.00  0.00    -0.008 C 
ATOM      3  C   UNL     1     100.244 116.448 123.966  1.00  0.00     0.007 C 
ENDROOT
BRANCH   2   4
ATOM      4  C   UNL     1     100.646 114.922 125.928  1.00  0.00     0.159 C 
ATOM      5  O   UNL     1     100.969 114.897 127.148  1.00  0.00    -0.295 OA
BRANCH   4   6
ATOM      6  C   UNL     1     100.583 113.615 125.198  1.00  0.00     0.091 CG0
ATOM      7  G   UNL     1     101.539 113.549 123.985  1.00  0.00     0.000 G0
ENDBRANCH   4   6
ENDBRANCH   2   4
BRANCH   3   8
ATOM      8  C   UNL     1     100.369 115.500 122.834  1.00  0.00    -0.003 C 
ATOM      9  C   UNL     1     100.917 114.278 122.813  1.00  0.00    -0.020 C 
BRANCH   9  10
ATOM     10  C   UNL     1     101.532 113.550 123.985  1.00  0.00    -0.010 CG0
ATOM     11  C   UNL     1     101.688 112.060 123.602  1.00  0.00     0.016 C 
ATOM     12  C   UNL     1     102.939 114.117 124.280  1.00  0.00     0.016 C 
ATOM     13  G   UNL     1     100.586 113.635 125.204  1.00  0.00     0.000 G0
ENDBRANCH   9  10
ENDBRANCH   3   8
TORSDOF 0
ENDMDL
MODEL 7
REMARK VINA RESULT:    -3.302      1.458      2.464
REMARK INTER + INTRA:          -3.325
REMARK INTER:                  -4.080
REMARK INTRA:                   0.755
REMARK UNBOUND:                 0.749
REMARK SMILES CC1=CC=CC(C)(C)CC1=O
REMARK SMILES IDX 1 1 2 2 3 3 10 4 11 5 9 6 4 8 5 9 6 10 7 11 8 12
REMARK H PARENT
REMARK Flexibility Score: 80.00
ROOT
ATOM      1  C   UNL     1      99.785 117.612 124.228  1.00  0.00     0.048 C 
ATOM      2  C   UNL     1     100.236 116.201 124.527  1.00  0.00    -0.008 C 
ATOM      3  C   UNL     1     100.756 115.481 123.510  1.00  0.00     0.007 C 
ENDROOT
BRANCH   2   4
ATOM      4  C   UNL     1     100.138 115.746 125.937  1.00  0.00     0.159 C 
ATOM      5  O   UNL     1      99.872 116.593 126.833  1.00  0.00    -0.295 OA
BRANCH   4   6
ATOM      6  C   UNL     1     100.327 114.322 126.359  1.00  0.00     0.091 CG0
ATOM      7  G   UNL     1     101.711 113.751 125.975  1.00  0.00     0.000 G0
ENDBRANCH   4   6
ENDBRANCH   2   4
BRANCH   3   8
ATOM      8  C   UNL     1     101.300 114.104 123.501  1.00  0.00    -0.003 C 
ATOM      9  C   UNL     1     101.721 113.355 124.528  1.00  0.00    -0.020 C 
BRANCH   9  10
ATOM     10  C   UNL     1     101.714 113.748 125.987  1.00  0.00    -0.010 CG0
ATOM     11  C   UNL     1     101.939 112.474 126.833  1.00  0.00     0.016 C 
ATOM     12  C   UNL     1     102.875 114.725 126.277  1.00  0.00     0.016 C 
ATOM     13  G   UNL     1     100.333 114.333 126.361  1.00  0.00     0.000 G0
ENDBRANCH   9  10
ENDBRANCH   3   8
TORSDOF 0
ENDMDL
MODEL 8
REMARK VINA RESULT:    -3.234      2.246      3.775
REMARK INTER + INTRA:          -3.241
REMARK INTER:                  -4.015
REMARK INTRA:                   0.775
REMARK UNBOUND:                 0.749
REMARK SMILES CC1=CC=CC(C)(C)CC1=O
REMARK SMILES IDX 1 1 2 2 3 3 10 4 11 5 9 6 4 8 5 9 6 10 7 11 8 12
REMARK H PARENT
REMARK Flexibility Score: 80.00
ROOT
ATOM      1  C   UNL     1     103.250 110.593 126.205  1.00  0.00     0.048 C 
ATOM      2  C   UNL     1     102.377 111.753 125.788  1.00  0.00    -0.008 C 
ATOM      3  C   UNL     1     101.922 112.575 126.758  1.00  0.00     0.007 C 
ENDROOT
BRANCH   2   4
ATOM      4  C   UNL     1     102.150 111.939 124.332  1.00  0.00     0.159 C 
ATOM      5  O   UNL     1     102.842 111.266 123.518  1.00  0.00    -0.295 OA
BRANCH   4   6
ATOM      6  C   UNL     1     101.130 112.878 123.768  1.00  0.00     0.091 CG0
ATOM      7  G   UNL     1     101.366 114.350 124.178  1.00  0.00     0.000 G0
ENDBRANCH   4   6
ENDBRANCH   2   4
BRANCH   3   8
ATOM      8  C   UNL     1     101.081 113.791 126.657  1.00  0.00    -0.003 C 
ATOM      9  C   UNL     1     100.839 114.564 125.591  1.00  0.00    -0.020 C 
BRANCH   9  10
ATOM     10  C   UNL     1     101.365 114.353 124.191  1.00  0.00    -0.010 CG0
ATOM     11  C   UNL     1     100.571 115.268 123.232  1.00  0.00     0.016 C 
ATOM     12  C   UNL     1     102.853 114.761 124.118  1.00  0.00     0.016 C 
ATOM     13  G   UNL     1     101.127 112.887 123.762  1.00  0.00     0.000 G0
ENDBRANCH   9  10
ENDBRANCH   3   8
TORSDOF 0
ENDMDL
MODEL 9
REMARK VINA RESULT:    -3.189      1.676      2.044
REMARK INTER + INTRA:          -3.185
REMARK INTER:                  -3.937
REMARK INTRA:                   0.752
REMARK UNBOUND:                 0.749
REMARK SMILES CC1=CC=CC(C)(C)CC1=O
REMARK SMILES IDX 1 1 2 2 3 3 10 4 11 5 9 6 4 8 5 9 6 10 7 11 8 12
REMARK H PARENT
REMARK Flexibility Score: 80.00
ROOT
ATOM      1  C   UNL     1      99.865 115.575 126.830  1.00  0.00     0.048 C 
ATOM      2  C   UNL     1     100.854 114.602 126.233  1.00  0.00    -0.008 C 
ATOM      3  C   UNL     1     100.903 113.358 126.757  1.00  0.00     0.007 C 
ENDROOT
BRANCH   2   4
ATOM      4  C   UNL     1     101.643 115.070 125.066  1.00  0.00     0.159 C 
ATOM      5  O   UNL     1     101.316 116.153 124.506  1.00  0.00    -0.295 OA
BRANCH   4   6
ATOM      6  C   UNL     1     102.824 114.332 124.517  1.00  0.00     0.091 CG0
ATOM      7  G   UNL     1     102.480 112.904 124.036  1.00  0.00     0.000 G0
ENDBRANCH   4   6
ENDBRANCH   2   4
BRANCH   3   8
ATOM      8  C   UNL     1     101.737 112.196 126.373  1.00  0.00    -0.003 C 
ATOM      9  C   UNL     1     102.400 111.973 125.231  1.00  0.00    -0.020 C 
BRANCH   9  10
ATOM     10  C   UNL     1     102.474 112.900 124.041  1.00  0.00    -0.010 CG0
ATOM     11  C   UNL     1     103.617 112.417 123.120  1.00  0.00     0.016 C 
ATOM     12  C   UNL     1     101.155 112.835 123.238  1.00  0.00     0.016 C 
ATOM     13  G   UNL     1     102.813 114.331 124.516  1.00  0.00     0.000 G0
ENDBRANCH   9  10
ENDBRANCH   3   8
TORSDOF 0
ENDMDL
