MODEL 1
REMARK VINA RESULT:    -4.824      0.000      0.000
REMARK INTER + INTRA:         -10.470
REMARK INTER:                  -8.490
REMARK INTRA:                  -1.980
REMARK UNBOUND:                -1.980
REMARK SMILES CCCCCCCCCCCCCCC(=O)[O-]
REMARK SMILES IDX 9 1 10 2 11 3 12 4 13 5 14 6 15 7 16 8 17 9 8 10 7 11 6 12
REMARK SMILES IDX 5 13 4 14 3 15 2 16 1 17
REMARK H PARENT
REMARK Flexibility Score: inf
ROOT
ATOM      1  C   UNL     1     158.805 162.367 151.404  1.00  0.00     0.000 C 
ENDROOT
BRANCH   1   2
ATOM      2  C   UNL     1     159.026 161.800 149.992  1.00  0.00     0.000 C 
BRANCH   2   3
ATOM      3  C   UNL     1     160.245 162.425 149.291  1.00  0.00     0.000 C 
BRANCH   3   4
ATOM      4  C   UNL     1     161.486 161.510 149.360  1.00  0.00     0.000 C 
BRANCH   4   5
ATOM      5  C   UNL     1     162.669 162.136 150.118  1.00  0.00     0.006 C 
BRANCH   5   6
ATOM      6  C   UNL     1     162.978 163.568 149.668  1.00  0.00     0.053 C 
BRANCH   6   7
ATOM      7  C   UNL     1     164.352 163.969 150.102  1.00  0.00     0.041 C 
ATOM      8  O   UNL     1     165.261 164.141 149.247  1.00  0.00    -0.550 OA
ATOM      9  O   UNL     1     164.618 164.201 151.445  1.00  0.00    -0.550 OA
ENDBRANCH   6   7
ENDBRANCH   5   6
ENDBRANCH   4   5
ENDBRANCH   3   4
ENDBRANCH   2   3
ENDBRANCH   1   2
BRANCH   1  10
ATOM     10  C   UNL     1     159.191 161.362 152.503  1.00  0.00     0.000 C 
BRANCH  10  11
ATOM     11  C   UNL     1     158.936 159.903 152.088  1.00  0.00    -0.000 C 
BRANCH  11  12
ATOM     12  C   UNL     1     160.234 159.090 151.946  1.00  0.00    -0.000 C 
BRANCH  12  13
ATOM     13  C   UNL     1     160.239 158.211 150.676  1.00  0.00    -0.000 C 
BRANCH  13  14
ATOM     14  C   UNL     1     158.831 157.862 150.160  1.00  0.00    -0.000 C 
BRANCH  14  15
ATOM     15  C   UNL     1     158.538 158.312 148.715  1.00  0.00    -0.000 C 
BRANCH  15  16
ATOM     16  C   UNL     1     159.782 158.454 147.819  1.00  0.00    -0.003 C 
ATOM     17  C   UNL     1     159.680 159.620 146.836  1.00  0.00     0.004 C 
ENDBRANCH  15  16
ENDBRANCH  14  15
ENDBRANCH  13  14
ENDBRANCH  12  13
ENDBRANCH  11  12
ENDBRANCH  10  11
ENDBRANCH   1  10
TORSDOF 13
ENDMDL
MODEL 2
REMARK VINA RESULT:    -4.823      1.095      3.142
REMARK INTER + INTRA:         -10.469
REMARK INTER:                  -8.579
REMARK INTRA:                  -1.890
REMARK UNBOUND:                -1.980
REMARK SMILES CCCCCCCCCCCCCCC(=O)[O-]
REMARK SMILES IDX 9 1 10 2 11 3 12 4 13 5 14 6 15 7 16 8 17 9 8 10 7 11 6 12
REMARK SMILES IDX 5 13 4 14 3 15 2 16 1 17
REMARK H PARENT
REMARK Flexibility Score: inf
ROOT
ATOM      1  C   UNL     1     159.490 160.442 147.668  1.00  0.00     0.000 C 
ENDROOT
BRANCH   1   2
ATOM      2  C   UNL     1     160.362 161.667 147.990  1.00  0.00     0.000 C 
BRANCH   2   3
ATOM      3  C   UNL     1     161.488 161.342 148.988  1.00  0.00     0.000 C 
BRANCH   3   4
ATOM      4  C   UNL     1     162.024 162.607 149.690  1.00  0.00     0.000 C 
BRANCH   4   5
ATOM      5  C   UNL     1     163.416 162.419 150.317  1.00  0.00     0.006 C 
BRANCH   5   6
ATOM      6  C   UNL     1     164.170 163.739 150.506  1.00  0.00     0.053 C 
BRANCH   6   7
ATOM      7  C   UNL     1     165.335 163.816 149.570  1.00  0.00     0.041 C 
ATOM      8  O   UNL     1     166.014 162.785 149.319  1.00  0.00    -0.550 OA
ATOM      9  O   UNL     1     165.641 165.013 148.937  1.00  0.00    -0.550 OA
ENDBRANCH   6   7
ENDBRANCH   5   6
ENDBRANCH   4   5
ENDBRANCH   3   4
ENDBRANCH   2   3
ENDBRANCH   1   2
BRANCH   1  10
ATOM     10  C   UNL     1     160.215 159.117 147.964  1.00  0.00     0.000 C 
BRANCH  10  11
ATOM     11  C   UNL     1     159.244 157.975 148.308  1.00  0.00    -0.000 C 
BRANCH  11  12
ATOM     12  C   UNL     1     159.084 157.767 149.823  1.00  0.00    -0.000 C 
BRANCH  12  13
ATOM     13  C   UNL     1     160.389 158.059 150.596  1.00  0.00    -0.000 C 
BRANCH  13  14
ATOM     14  C   UNL     1     160.258 159.198 151.625  1.00  0.00    -0.000 C 
BRANCH  14  15
ATOM     15  C   UNL     1     159.028 160.106 151.434  1.00  0.00    -0.000 C 
BRANCH  15  16
ATOM     16  C   UNL     1     159.175 161.522 152.021  1.00  0.00    -0.003 C 
ATOM     17  C   UNL     1     158.612 162.609 151.105  1.00  0.00     0.004 C 
ENDBRANCH  15  16
ENDBRANCH  14  15
ENDBRANCH  13  14
ENDBRANCH  12  13
ENDBRANCH  11  12
ENDBRANCH  10  11
ENDBRANCH   1  10
TORSDOF 13
ENDMDL
MODEL 3
REMARK VINA RESULT:    -4.737      2.961      5.727
REMARK INTER + INTRA:         -10.318
REMARK INTER:                  -8.628
REMARK INTRA:                  -1.690
REMARK UNBOUND:                -1.980
REMARK SMILES CCCCCCCCCCCCCCC(=O)[O-]
REMARK SMILES IDX 9 1 10 2 11 3 12 4 13 5 14 6 15 7 16 8 17 9 8 10 7 11 6 12
REMARK SMILES IDX 5 13 4 14 3 15 2 16 1 17
REMARK H PARENT
REMARK Flexibility Score: inf
ROOT
ATOM      1  C   UNL     1     158.907 157.241 150.149  1.00  0.00     0.000 C 
ENDROOT
BRANCH   1   2
ATOM      2  C   UNL     1     160.345 157.682 150.465  1.00  0.00     0.000 C 
BRANCH   2   3
ATOM      3  C   UNL     1     160.481 158.275 151.878  1.00  0.00     0.000 C 
BRANCH   3   4
ATOM      4  C   UNL     1     160.585 159.815 151.854  1.00  0.00     0.000 C 
BRANCH   4   5
ATOM      5  C   UNL     1     159.235 160.525 152.059  1.00  0.00     0.006 C 
BRANCH   5   6
ATOM      6  C   UNL     1     158.676 160.349 153.475  1.00  0.00     0.053 C 
BRANCH   6   7
ATOM      7  C   UNL     1     157.775 161.490 153.827  1.00  0.00     0.041 C 
ATOM      8  O   UNL     1     157.126 161.475 154.907  1.00  0.00    -0.550 OA
ATOM      9  O   UNL     1     157.690 162.594 152.988  1.00  0.00    -0.550 OA
ENDBRANCH   6   7
ENDBRANCH   5   6
ENDBRANCH   4   5
ENDBRANCH   3   4
ENDBRANCH   2   3
ENDBRANCH   1   2
BRANCH   1  10
ATOM     10  C   UNL     1     158.188 158.224 149.208  1.00  0.00     0.000 C 
BRANCH  10  11
ATOM     11  C   UNL     1     159.156 158.949 148.258  1.00  0.00    -0.000 C 
BRANCH  11  12
ATOM     12  C   UNL     1     159.048 160.480 148.354  1.00  0.00    -0.000 C 
BRANCH  12  13
ATOM     13  C   UNL     1     160.411 161.178 148.147  1.00  0.00    -0.000 C 
BRANCH  13  14
ATOM     14  C   UNL     1     160.404 162.672 148.519  1.00  0.00    -0.000 C 
BRANCH  14  15
ATOM     15  C   UNL     1     161.670 163.166 149.246  1.00  0.00    -0.000 C 
BRANCH  15  16
ATOM     16  C   UNL     1     162.553 162.051 149.835  1.00  0.00    -0.003 C 
ATOM     17  C   UNL     1     163.939 162.543 150.249  1.00  0.00     0.004 C 
ENDBRANCH  15  16
ENDBRANCH  14  15
ENDBRANCH  13  14
ENDBRANCH  12  13
ENDBRANCH  11  12
ENDBRANCH  10  11
ENDBRANCH   1  10
TORSDOF 13
ENDMDL
MODEL 4
REMARK VINA RESULT:    -4.730      5.196      7.842
REMARK INTER + INTRA:         -10.304
REMARK INTER:                  -8.450
REMARK INTRA:                  -1.854
REMARK UNBOUND:                -1.980
REMARK SMILES CCCCCCCCCCCCCCC(=O)[O-]
REMARK SMILES IDX 9 1 10 2 11 3 12 4 13 5 14 6 15 7 16 8 17 9 8 10 7 11 6 12
REMARK SMILES IDX 5 13 4 14 3 15 2 16 1 17
REMARK H PARENT
REMARK Flexibility Score: inf
ROOT
ATOM      1  C   UNL     1     159.570 158.132 147.866  1.00  0.00     0.000 C 
ENDROOT
BRANCH   1   2
ATOM      2  C   UNL     1     159.989 157.418 149.161  1.00  0.00     0.000 C 
BRANCH   2   3
ATOM      3  C   UNL     1     158.786 156.858 149.940  1.00  0.00     0.000 C 
BRANCH   3   4
ATOM      4  C   UNL     1     157.485 157.627 149.630  1.00  0.00     0.000 C 
BRANCH   4   5
ATOM      5  C   UNL     1     156.247 157.052 150.341  1.00  0.00     0.006 C 
BRANCH   5   6
ATOM      6  C   UNL     1     155.909 155.626 149.894  1.00  0.00     0.053 C 
BRANCH   6   7
ATOM      7  C   UNL     1     154.430 155.404 149.923  1.00  0.00     0.041 C 
ATOM      8  O   UNL     1     153.949 154.422 150.548  1.00  0.00    -0.550 OA
ATOM      9  O   UNL     1     153.578 156.310 149.304  1.00  0.00    -0.550 OA
ENDBRANCH   6   7
ENDBRANCH   5   6
ENDBRANCH   4   5
ENDBRANCH   3   4
ENDBRANCH   2   3
ENDBRANCH   1   2
BRANCH   1  10
ATOM     10  C   UNL     1     160.440 159.367 147.574  1.00  0.00     0.000 C 
BRANCH  10  11
ATOM     11  C   UNL     1     159.673 160.688 147.749  1.00  0.00    -0.000 C 
BRANCH  11  12
ATOM     12  C   UNL     1     160.529 161.792 148.393  1.00  0.00    -0.000 C 
BRANCH  12  13
ATOM     13  C   UNL     1     160.244 161.947 149.904  1.00  0.00    -0.000 C 
BRANCH  13  14
ATOM     14  C   UNL     1     158.952 161.247 150.365  1.00  0.00    -0.000 C 
BRANCH  14  15
ATOM     15  C   UNL     1     159.113 160.332 151.595  1.00  0.00    -0.000 C 
BRANCH  15  16
ATOM     16  C   UNL     1     160.557 159.880 151.878  1.00  0.00    -0.003 C 
ATOM     17  C   UNL     1     160.630 158.597 152.706  1.00  0.00     0.004 C 
ENDBRANCH  15  16
ENDBRANCH  14  15
ENDBRANCH  13  14
ENDBRANCH  12  13
ENDBRANCH  11  12
ENDBRANCH  10  11
ENDBRANCH   1  10
TORSDOF 13
ENDMDL
MODEL 5
REMARK VINA RESULT:    -4.692      3.995      6.243
REMARK INTER + INTRA:         -10.238
REMARK INTER:                  -8.186
REMARK INTRA:                  -2.051
REMARK UNBOUND:                -1.980
REMARK SMILES CCCCCCCCCCCCCCC(=O)[O-]
REMARK SMILES IDX 9 1 10 2 11 3 12 4 13 5 14 6 15 7 16 8 17 9 8 10 7 11 6 12
REMARK SMILES IDX 5 13 4 14 3 15 2 16 1 17
REMARK H PARENT
REMARK Flexibility Score: inf
ROOT
ATOM      1  C   UNL     1     160.818 159.197 152.354  1.00  0.00     0.000 C 
ENDROOT
BRANCH   1   2
ATOM      2  C   UNL     1     160.995 157.670 152.386  1.00  0.00     0.000 C 
BRANCH   2   3
ATOM      3  C   UNL     1     160.691 157.014 151.027  1.00  0.00     0.000 C 
BRANCH   3   4
ATOM      4  C   UNL     1     160.634 158.048 149.883  1.00  0.00     0.000 C 
BRANCH   4   5
ATOM      5  C   UNL     1     159.421 157.870 148.953  1.00  0.00     0.006 C 
BRANCH   5   6
ATOM      6  C   UNL     1     158.085 158.137 149.654  1.00  0.00     0.053 C 
BRANCH   6   7
ATOM      7  C   UNL     1     157.244 156.900 149.668  1.00  0.00     0.041 C 
ATOM      8  O   UNL     1     156.037 156.959 150.022  1.00  0.00    -0.550 OA
ATOM      9  O   UNL     1     157.778 155.691 149.241  1.00  0.00    -0.550 OA
ENDBRANCH   6   7
ENDBRANCH   5   6
ENDBRANCH   4   5
ENDBRANCH   3   4
ENDBRANCH   2   3
ENDBRANCH   1   2
BRANCH   1  10
ATOM     10  C   UNL     1     159.589 159.658 153.158  1.00  0.00     0.000 C 
BRANCH  10  11
ATOM     11  C   UNL     1     158.723 160.668 152.389  1.00  0.00    -0.000 C 
BRANCH  11  12
ATOM     12  C   UNL     1     159.550 161.583 151.470  1.00  0.00    -0.000 C 
BRANCH  12  13
ATOM     13  C   UNL     1     159.018 161.592 150.020  1.00  0.00    -0.000 C 
BRANCH  13  14
ATOM     14  C   UNL     1     160.112 161.823 148.961  1.00  0.00    -0.000 C 
BRANCH  14  15
ATOM     15  C   UNL     1     161.552 161.566 149.447  1.00  0.00    -0.000 C 
BRANCH  15  16
ATOM     16  C   UNL     1     162.419 162.830 149.592  1.00  0.00    -0.003 C 
ATOM     17  C   UNL     1     163.744 162.566 150.307  1.00  0.00     0.004 C 
ENDBRANCH  15  16
ENDBRANCH  14  15
ENDBRANCH  13  14
ENDBRANCH  12  13
ENDBRANCH  11  12
ENDBRANCH  10  11
ENDBRANCH   1  10
TORSDOF 13
ENDMDL
MODEL 6
REMARK VINA RESULT:    -4.692      3.203      4.688
REMARK INTER + INTRA:         -10.237
REMARK INTER:                  -8.446
REMARK INTRA:                  -1.791
REMARK UNBOUND:                -1.980
REMARK SMILES CCCCCCCCCCCCCCC(=O)[O-]
REMARK SMILES IDX 9 1 10 2 11 3 12 4 13 5 14 6 15 7 16 8 17 9 8 10 7 11 6 12
REMARK SMILES IDX 5 13 4 14 3 15 2 16 1 17
REMARK H PARENT
REMARK Flexibility Score: inf
ROOT
ATOM      1  C   UNL     1     159.921 162.884 149.751  1.00  0.00     0.000 C 
ENDROOT
BRANCH   1   2
ATOM      2  C   UNL     1     158.763 162.188 150.483  1.00  0.00     0.000 C 
BRANCH   2   3
ATOM      3  C   UNL     1     159.219 161.486 151.774  1.00  0.00     0.000 C 
BRANCH   3   4
ATOM      4  C   UNL     1     158.889 159.979 151.763  1.00  0.00     0.000 C 
BRANCH   4   5
ATOM      5  C   UNL     1     160.115 159.079 151.999  1.00  0.00     0.006 C 
BRANCH   5   6
ATOM      6  C   UNL     1     160.769 159.307 153.367  1.00  0.00     0.053 C 
BRANCH   6   7
ATOM      7  C   UNL     1     161.614 158.132 153.745  1.00  0.00     0.041 C 
ATOM      8  O   UNL     1     162.257 158.136 154.828  1.00  0.00    -0.550 OA
ATOM      9  O   UNL     1     161.654 157.011 152.925  1.00  0.00    -0.550 OA
ENDBRANCH   6   7
ENDBRANCH   5   6
ENDBRANCH   4   5
ENDBRANCH   3   4
ENDBRANCH   2   3
ENDBRANCH   1   2
BRANCH   1  10
ATOM     10  C   UNL     1     160.459 162.044 148.579  1.00  0.00     0.000 C 
BRANCH  10  11
ATOM     11  C   UNL     1     161.447 160.957 149.033  1.00  0.00    -0.000 C 
BRANCH  11  12
ATOM     12  C   UNL     1     161.063 159.555 148.529  1.00  0.00    -0.000 C 
BRANCH  12  13
ATOM     13  C   UNL     1     159.626 159.510 147.964  1.00  0.00    -0.000 C 
BRANCH  13  14
ATOM     14  C   UNL     1     159.145 158.090 147.610  1.00  0.00    -0.000 C 
BRANCH  14  15
ATOM     15  C   UNL     1     159.360 157.038 148.715  1.00  0.00    -0.000 C 
BRANCH  15  16
ATOM     16  C   UNL     1     158.077 156.338 149.198  1.00  0.00    -0.003 C 
ATOM     17  C   UNL     1     157.118 157.282 149.921  1.00  0.00     0.004 C 
ENDBRANCH  15  16
ENDBRANCH  14  15
ENDBRANCH  13  14
ENDBRANCH  12  13
ENDBRANCH  11  12
ENDBRANCH  10  11
ENDBRANCH   1  10
TORSDOF 13
ENDMDL
MODEL 7
REMARK VINA RESULT:    -4.689      2.469      5.731
REMARK INTER + INTRA:         -10.232
REMARK INTER:                  -8.631
REMARK INTRA:                  -1.601
REMARK UNBOUND:                -1.980
REMARK SMILES CCCCCCCCCCCCCCC(=O)[O-]
REMARK SMILES IDX 9 1 10 2 11 3 12 4 13 5 14 6 15 7 16 8 17 9 8 10 7 11 6 12
REMARK SMILES IDX 5 13 4 14 3 15 2 16 1 17
REMARK H PARENT
REMARK Flexibility Score: inf
ROOT
ATOM      1  C   UNL     1     159.071 158.530 148.117  1.00  0.00     0.000 C 
ENDROOT
BRANCH   1   2
ATOM      2  C   UNL     1     159.324 157.277 148.972  1.00  0.00     0.000 C 
BRANCH   2   3
ATOM      3  C   UNL     1     160.629 157.371 149.781  1.00  0.00     0.000 C 
BRANCH   3   4
ATOM      4  C   UNL     1     160.364 157.576 151.288  1.00  0.00     0.000 C 
BRANCH   4   5
ATOM      5  C   UNL     1     160.397 159.052 151.722  1.00  0.00     0.006 C 
BRANCH   5   6
ATOM      6  C   UNL     1     159.015 159.714 151.692  1.00  0.00     0.053 C 
BRANCH   6   7
ATOM      7  C   UNL     1     159.000 160.933 152.561  1.00  0.00     0.041 C 
ATOM      8  O   UNL     1     158.984 162.080 152.042  1.00  0.00    -0.550 OA
ATOM      9  O   UNL     1     158.954 160.801 153.943  1.00  0.00    -0.550 OA
ENDBRANCH   6   7
ENDBRANCH   5   6
ENDBRANCH   4   5
ENDBRANCH   3   4
ENDBRANCH   2   3
ENDBRANCH   1   2
BRANCH   1  10
ATOM     10  C   UNL     1     160.377 159.250 147.738  1.00  0.00     0.000 C 
BRANCH  10  11
ATOM     11  C   UNL     1     160.153 160.725 147.365  1.00  0.00    -0.000 C 
BRANCH  11  12
ATOM     12  C   UNL     1     159.883 161.614 148.591  1.00  0.00    -0.000 C 
BRANCH  12  13
ATOM     13  C   UNL     1     161.109 162.472 148.973  1.00  0.00    -0.000 C 
BRANCH  13  14
ATOM     14  C   UNL     1     162.027 161.811 150.018  1.00  0.00    -0.000 C 
BRANCH  14  15
ATOM     15  C   UNL     1     163.454 162.387 150.086  1.00  0.00    -0.000 C 
BRANCH  15  16
ATOM     16  C   UNL     1     163.547 163.908 149.869  1.00  0.00    -0.003 C 
ATOM     17  C   UNL     1     164.976 164.390 149.617  1.00  0.00     0.004 C 
ENDBRANCH  15  16
ENDBRANCH  14  15
ENDBRANCH  13  14
ENDBRANCH  12  13
ENDBRANCH  11  12
ENDBRANCH  10  11
ENDBRANCH   1  10
TORSDOF 13
ENDMDL
MODEL 8
REMARK VINA RESULT:    -4.681      5.050      7.300
REMARK INTER + INTRA:         -10.219
REMARK INTER:                  -8.294
REMARK INTRA:                  -1.926
REMARK UNBOUND:                -1.980
REMARK SMILES CCCCCCCCCCCCCCC(=O)[O-]
REMARK SMILES IDX 9 1 10 2 11 3 12 4 13 5 14 6 15 7 16 8 17 9 8 10 7 11 6 12
REMARK SMILES IDX 5 13 4 14 3 15 2 16 1 17
REMARK H PARENT
REMARK Flexibility Score: inf
ROOT
ATOM      1  C   UNL     1     159.796 157.934 151.386  1.00  0.00     0.000 C 
ENDROOT
BRANCH   1   2
ATOM      2  C   UNL     1     160.412 157.532 150.036  1.00  0.00     0.000 C 
BRANCH   2   3
ATOM      3  C   UNL     1     159.350 157.320 148.943  1.00  0.00     0.000 C 
BRANCH   3   4
ATOM      4  C   UNL     1     157.923 157.604 149.458  1.00  0.00     0.000 C 
BRANCH   4   5
ATOM      5  C   UNL     1     157.070 156.336 149.636  1.00  0.00     0.006 C 
BRANCH   5   6
ATOM      6  C   UNL     1     155.657 156.634 150.148  1.00  0.00     0.053 C 
BRANCH   6   7
ATOM      7  C   UNL     1     154.924 155.361 150.431  1.00  0.00     0.041 C 
ATOM      8  O   UNL     1     155.039 154.799 151.553  1.00  0.00    -0.550 OA
ATOM      9  O   UNL     1     154.074 154.820 149.475  1.00  0.00    -0.550 OA
ENDBRANCH   6   7
ENDBRANCH   5   6
ENDBRANCH   4   5
ENDBRANCH   3   4
ENDBRANCH   2   3
ENDBRANCH   1   2
BRANCH   1  10
ATOM     10  C   UNL     1     160.799 158.675 152.287  1.00  0.00     0.000 C 
BRANCH  10  11
ATOM     11  C   UNL     1     160.262 160.028 152.782  1.00  0.00    -0.000 C 
BRANCH  11  12
ATOM     12  C   UNL     1     158.949 160.436 152.092  1.00  0.00    -0.000 C 
BRANCH  12  13
ATOM     13  C   UNL     1     158.884 161.953 151.807  1.00  0.00    -0.000 C 
BRANCH  13  14
ATOM     14  C   UNL     1     158.809 162.299 150.308  1.00  0.00    -0.000 C 
BRANCH  14  15
ATOM     15  C   UNL     1     158.906 161.090 149.357  1.00  0.00    -0.000 C 
BRANCH  15  16
ATOM     16  C   UNL     1     160.175 161.055 148.486  1.00  0.00    -0.003 C 
ATOM     17  C   UNL     1     161.460 161.218 149.296  1.00  0.00     0.004 C 
ENDBRANCH  15  16
ENDBRANCH  14  15
ENDBRANCH  13  14
ENDBRANCH  12  13
ENDBRANCH  11  12
ENDBRANCH  10  11
ENDBRANCH   1  10
TORSDOF 13
ENDMDL
MODEL 9
REMARK VINA RESULT:    -4.633      3.292      5.115
REMARK INTER + INTRA:         -10.133
REMARK INTER:                  -8.621
REMARK INTRA:                  -1.512
REMARK UNBOUND:                -1.980
REMARK SMILES CCCCCCCCCCCCCCC(=O)[O-]
REMARK SMILES IDX 9 1 10 2 11 3 12 4 13 5 14 6 15 7 16 8 17 9 8 10 7 11 6 12
REMARK SMILES IDX 5 13 4 14 3 15 2 16 1 17
REMARK H PARENT
REMARK Flexibility Score: inf
ROOT
ATOM      1  C   UNL     1     159.887 160.707 147.567  1.00  0.00     0.000 C 
ENDROOT
BRANCH   1   2
ATOM      2  C   UNL     1     160.350 161.762 148.585  1.00  0.00     0.000 C 
BRANCH   2   3
ATOM      3  C   UNL     1     160.764 161.140 149.930  1.00  0.00     0.000 C 
BRANCH   3   4
ATOM      4  C   UNL     1     159.664 161.291 151.002  1.00  0.00     0.000 C 
BRANCH   4   5
ATOM      5  C   UNL     1     159.192 159.950 151.591  1.00  0.00     0.006 C 
BRANCH   5   6
ATOM      6  C   UNL     1     160.309 158.902 151.663  1.00  0.00     0.053 C 
BRANCH   6   7
ATOM      7  C   UNL     1     160.621 158.567 153.087  1.00  0.00     0.041 C 
ATOM      8  O   UNL     1     161.492 157.698 153.357  1.00  0.00    -0.550 OA
ATOM      9  O   UNL     1     159.988 159.251 154.117  1.00  0.00    -0.550 OA
ENDBRANCH   6   7
ENDBRANCH   5   6
ENDBRANCH   4   5
ENDBRANCH   3   4
ENDBRANCH   2   3
ENDBRANCH   1   2
BRANCH   1  10
ATOM     10  C   UNL     1     160.362 159.291 147.938  1.00  0.00     0.000 C 
BRANCH  10  11
ATOM     11  C   UNL     1     159.245 158.241 147.817  1.00  0.00    -0.000 C 
BRANCH  11  12
ATOM     12  C   UNL     1     159.464 157.032 148.743  1.00  0.00    -0.000 C 
BRANCH  12  13
ATOM     13  C   UNL     1     158.132 156.401 149.207  1.00  0.00    -0.000 C 
BRANCH  13  14
ATOM     14  C   UNL     1     157.182 157.398 149.898  1.00  0.00    -0.000 C 
BRANCH  14  15
ATOM     15  C   UNL     1     155.832 156.805 150.345  1.00  0.00    -0.000 C 
BRANCH  15  16
ATOM     16  C   UNL     1     155.621 155.326 149.970  1.00  0.00    -0.003 C 
ATOM     17  C   UNL     1     154.215 154.823 150.297  1.00  0.00     0.004 C 
ENDBRANCH  15  16
ENDBRANCH  14  15
ENDBRANCH  13  14
ENDBRANCH  12  13
ENDBRANCH  11  12
ENDBRANCH  10  11
ENDBRANCH   1  10
TORSDOF 13
ENDMDL
