MODEL 1
REMARK VINA RESULT:    -5.686      0.000      0.000
REMARK INTER + INTRA:          -5.686
REMARK INTER:                  -5.686
REMARK INTRA:                   0.000
REMARK UNBOUND:                 0.000
REMARK SMILES c1ccc2ccccc2c1
REMARK SMILES IDX 2 1 1 2 10 3 9 4 8 5 7 6 6 7 5 8 4 9 3 10
REMARK H PARENT
REMARK Flexibility Score: inf
ROOT
ATOM      1  C   UNL     1       4.665  18.893 -29.752  1.00  0.00     0.001 A 
ATOM      2  C   UNL     1       5.249  17.624 -29.748  1.00  0.00     0.001 A 
ATOM      3  C   UNL     1       4.658  16.578 -29.034  1.00  0.00     0.009 A 
ATOM      4  C   UNL     1       3.471  16.798 -28.317  1.00  0.00    -0.018 A 
ATOM      5  C   UNL     1       2.866  15.757 -27.597  1.00  0.00     0.009 A 
ATOM      6  C   UNL     1       1.684  15.988 -26.887  1.00  0.00     0.001 A 
ATOM      7  C   UNL     1       1.100  17.258 -26.890  1.00  0.00     0.001 A 
ATOM      8  C   UNL     1       1.691  18.304 -27.604  1.00  0.00     0.009 A 
ATOM      9  C   UNL     1       2.877  18.084 -28.321  1.00  0.00    -0.018 A 
ATOM     10  C   UNL     1       3.483  19.125 -29.042  1.00  0.00     0.009 A 
ENDROOT
TORSDOF 0
ENDMDL
MODEL 2
REMARK VINA RESULT:    -5.680      0.057      2.081
REMARK INTER + INTRA:          -5.680
REMARK INTER:                  -5.680
REMARK INTRA:                   0.000
REMARK UNBOUND:                 0.000
REMARK SMILES c1ccc2ccccc2c1
REMARK SMILES IDX 2 1 1 2 10 3 9 4 8 5 7 6 6 7 5 8 4 9 3 10
REMARK H PARENT
REMARK Flexibility Score: inf
ROOT
ATOM      1  C   UNL     1       5.252  17.566 -29.747  1.00  0.00     0.001 A 
ATOM      2  C   UNL     1       4.684  18.842 -29.786  1.00  0.00     0.001 A 
ATOM      3  C   UNL     1       3.501  19.109 -29.091  1.00  0.00     0.009 A 
ATOM      4  C   UNL     1       2.878  18.095 -28.347  1.00  0.00    -0.018 A 
ATOM      5  C   UNL     1       1.690  18.348 -27.644  1.00  0.00     0.009 A 
ATOM      6  C   UNL     1       1.079  17.329 -26.907  1.00  0.00     0.001 A 
ATOM      7  C   UNL     1       1.647  16.053 -26.869  1.00  0.00     0.001 A 
ATOM      8  C   UNL     1       2.830  15.786 -27.564  1.00  0.00     0.009 A 
ATOM      9  C   UNL     1       3.453  16.801 -28.307  1.00  0.00    -0.018 A 
ATOM     10  C   UNL     1       4.641  16.547 -29.010  1.00  0.00     0.009 A 
ENDROOT
TORSDOF 0
ENDMDL
MODEL 3
REMARK VINA RESULT:    -5.664      0.075      4.017
REMARK INTER + INTRA:          -5.664
REMARK INTER:                  -5.664
REMARK INTRA:                   0.000
REMARK UNBOUND:                 0.000
REMARK SMILES c1ccc2ccccc2c1
REMARK SMILES IDX 2 1 1 2 10 3 9 4 8 5 7 6 6 7 5 8 4 9 3 10
REMARK H PARENT
REMARK Flexibility Score: inf
ROOT
ATOM      1  C   UNL     1       1.652  16.026 -26.839  1.00  0.00     0.001 A 
ATOM      2  C   UNL     1       1.050  17.285 -26.912  1.00  0.00     0.001 A 
ATOM      3  C   UNL     1       1.636  18.303 -27.669  1.00  0.00     0.009 A 
ATOM      4  C   UNL     1       2.834  18.065 -28.361  1.00  0.00    -0.018 A 
ATOM      5  C   UNL     1       3.433  19.078 -29.126  1.00  0.00     0.009 A 
ATOM      6  C   UNL     1       4.626  18.828 -29.811  1.00  0.00     0.001 A 
ATOM      7  C   UNL     1       5.227  17.569 -29.738  1.00  0.00     0.001 A 
ATOM      8  C   UNL     1       4.641  16.550 -28.981  1.00  0.00     0.009 A 
ATOM      9  C   UNL     1       3.444  16.788 -28.288  1.00  0.00    -0.018 A 
ATOM     10  C   UNL     1       2.844  15.776 -27.524  1.00  0.00     0.009 A 
ENDROOT
TORSDOF 0
ENDMDL
MODEL 4
REMARK VINA RESULT:    -5.650      0.083      3.437
REMARK INTER + INTRA:          -5.650
REMARK INTER:                  -5.650
REMARK INTRA:                   0.000
REMARK UNBOUND:                 0.000
REMARK SMILES c1ccc2ccccc2c1
REMARK SMILES IDX 2 1 1 2 10 3 9 4 8 5 7 6 6 7 5 8 4 9 3 10
REMARK H PARENT
REMARK Flexibility Score: inf
ROOT
ATOM      1  C   UNL     1       1.066  17.277 -26.818  1.00  0.00     0.001 A 
ATOM      2  C   UNL     1       1.629  15.998 -26.811  1.00  0.00     0.001 A 
ATOM      3  C   UNL     1       2.796  15.737 -27.534  1.00  0.00     0.009 A 
ATOM      4  C   UNL     1       3.412  16.762 -28.270  1.00  0.00    -0.018 A 
ATOM      5  C   UNL     1       4.585  16.516 -28.999  1.00  0.00     0.009 A 
ATOM      6  C   UNL     1       5.188  17.545 -29.728  1.00  0.00     0.001 A 
ATOM      7  C   UNL     1       4.626  18.824 -29.735  1.00  0.00     0.001 A 
ATOM      8  C   UNL     1       3.458  19.085 -29.013  1.00  0.00     0.009 A 
ATOM      9  C   UNL     1       2.843  18.060 -28.277  1.00  0.00    -0.018 A 
ATOM     10  C   UNL     1       1.669  18.306 -27.547  1.00  0.00     0.009 A 
ENDROOT
TORSDOF 0
ENDMDL
MODEL 5
REMARK VINA RESULT:    -5.459      1.078      4.151
REMARK INTER + INTRA:          -5.459
REMARK INTER:                  -5.459
REMARK INTRA:                   0.000
REMARK UNBOUND:                 0.000
REMARK SMILES c1ccc2ccccc2c1
REMARK SMILES IDX 2 1 1 2 10 3 9 4 8 5 7 6 6 7 5 8 4 9 3 10
REMARK H PARENT
REMARK Flexibility Score: inf
ROOT
ATOM      1  C   UNL     1      -0.247  16.456 -27.000  1.00  0.00     0.001 A 
ATOM      2  C   UNL     1      -0.437  17.831 -27.162  1.00  0.00     0.001 A 
ATOM      3  C   UNL     1       0.607  18.637 -27.625  1.00  0.00     0.009 A 
ATOM      4  C   UNL     1       1.853  18.067 -27.931  1.00  0.00    -0.018 A 
ATOM      5  C   UNL     1       2.910  18.863 -28.398  1.00  0.00     0.009 A 
ATOM      6  C   UNL     1       4.146  18.284 -28.699  1.00  0.00     0.001 A 
ATOM      7  C   UNL     1       4.336  16.909 -28.536  1.00  0.00     0.001 A 
ATOM      8  C   UNL     1       3.292  16.103 -28.073  1.00  0.00     0.009 A 
ATOM      9  C   UNL     1       2.046  16.673 -27.767  1.00  0.00    -0.018 A 
ATOM     10  C   UNL     1       0.989  15.877 -27.301  1.00  0.00     0.009 A 
ENDROOT
TORSDOF 0
ENDMDL
MODEL 6
REMARK VINA RESULT:    -5.062      3.253      5.321
REMARK INTER + INTRA:          -5.062
REMARK INTER:                  -5.062
REMARK INTRA:                   0.000
REMARK UNBOUND:                 0.000
REMARK SMILES c1ccc2ccccc2c1
REMARK SMILES IDX 2 1 1 2 10 3 9 4 8 5 7 6 6 7 5 8 4 9 3 10
REMARK H PARENT
REMARK Flexibility Score: inf
ROOT
ATOM      1  C   UNL     1       0.057  15.637 -27.135  1.00  0.00     0.001 A 
ATOM      2  C   UNL     1       1.430  15.820 -27.317  1.00  0.00     0.001 A 
ATOM      3  C   UNL     1       2.339  14.885 -26.815  1.00  0.00     0.009 A 
ATOM      4  C   UNL     1       1.875  13.754 -26.125  1.00  0.00    -0.018 A 
ATOM      5  C   UNL     1       2.776  12.806 -25.616  1.00  0.00     0.009 A 
ATOM      6  C   UNL     1       2.301  11.683 -24.931  1.00  0.00     0.001 A 
ATOM      7  C   UNL     1       0.928  11.500 -24.749  1.00  0.00     0.001 A 
ATOM      8  C   UNL     1       0.019  12.435 -25.251  1.00  0.00     0.009 A 
ATOM      9  C   UNL     1       0.483  13.567 -25.941  1.00  0.00    -0.018 A 
ATOM     10  C   UNL     1      -0.418  14.515 -26.450  1.00  0.00     0.009 A 
ENDROOT
TORSDOF 0
ENDMDL
MODEL 7
REMARK VINA RESULT:    -5.053      3.263      5.942
REMARK INTER + INTRA:          -5.053
REMARK INTER:                  -5.053
REMARK INTRA:                   0.000
REMARK UNBOUND:                 0.000
REMARK SMILES c1ccc2ccccc2c1
REMARK SMILES IDX 2 1 1 2 10 3 9 4 8 5 7 6 6 7 5 8 4 9 3 10
REMARK H PARENT
REMARK Flexibility Score: inf
ROOT
ATOM      1  C   UNL     1       2.254  11.647 -24.886  1.00  0.00     0.001 A 
ATOM      2  C   UNL     1       0.877  11.493 -24.705  1.00  0.00     0.001 A 
ATOM      3  C   UNL     1      -0.013  12.442 -25.217  1.00  0.00     0.009 A 
ATOM      4  C   UNL     1       0.475  13.555 -25.919  1.00  0.00    -0.018 A 
ATOM      5  C   UNL     1      -0.406  14.516 -26.440  1.00  0.00     0.009 A 
ATOM      6  C   UNL     1       0.092  15.620 -27.138  1.00  0.00     0.001 A 
ATOM      7  C   UNL     1       1.469  15.774 -27.319  1.00  0.00     0.001 A 
ATOM      8  C   UNL     1       2.358  14.826 -26.807  1.00  0.00     0.009 A 
ATOM      9  C   UNL     1       1.870  13.712 -26.104  1.00  0.00    -0.018 A 
ATOM     10  C   UNL     1       2.751  12.752 -25.583  1.00  0.00     0.009 A 
ENDROOT
TORSDOF 0
ENDMDL
MODEL 8
REMARK VINA RESULT:    -5.052      3.250      5.442
REMARK INTER + INTRA:          -5.052
REMARK INTER:                  -5.052
REMARK INTRA:                   0.000
REMARK UNBOUND:                 0.000
REMARK SMILES c1ccc2ccccc2c1
REMARK SMILES IDX 2 1 1 2 10 3 9 4 8 5 7 6 6 7 5 8 4 9 3 10
REMARK H PARENT
REMARK Flexibility Score: inf
ROOT
ATOM      1  C   UNL     1       1.460  15.833 -27.274  1.00  0.00     0.001 A 
ATOM      2  C   UNL     1       0.083  15.647 -27.125  1.00  0.00     0.001 A 
ATOM      3  C   UNL     1      -0.409  14.518 -26.463  1.00  0.00     0.009 A 
ATOM      4  C   UNL     1       0.481  13.565 -25.942  1.00  0.00    -0.018 A 
ATOM      5  C   UNL     1       0.002  12.427 -25.274  1.00  0.00     0.009 A 
ATOM      6  C   UNL     1       0.899  11.486 -24.760  1.00  0.00     0.001 A 
ATOM      7  C   UNL     1       2.275  11.672 -24.909  1.00  0.00     0.001 A 
ATOM      8  C   UNL     1       2.767  12.801 -25.571  1.00  0.00     0.009 A 
ATOM      9  C   UNL     1       1.877  13.753 -26.092  1.00  0.00    -0.018 A 
ATOM     10  C   UNL     1       2.356  14.891 -26.759  1.00  0.00     0.009 A 
ENDROOT
TORSDOF 0
ENDMDL
MODEL 9
REMARK VINA RESULT:    -5.045      1.248      2.070
REMARK INTER + INTRA:          -5.045
REMARK INTER:                  -5.045
REMARK INTRA:                   0.000
REMARK UNBOUND:                 0.000
REMARK SMILES c1ccc2ccccc2c1
REMARK SMILES IDX 2 1 1 2 10 3 9 4 8 5 7 6 6 7 5 8 4 9 3 10
REMARK H PARENT
REMARK Flexibility Score: inf
ROOT
ATOM      1  C   UNL     1       2.459  19.125 -28.388  1.00  0.00     0.001 A 
ATOM      2  C   UNL     1       3.549  18.252 -28.448  1.00  0.00     0.001 A 
ATOM      3  C   UNL     1       3.400  16.912 -28.077  1.00  0.00     0.009 A 
ATOM      4  C   UNL     1       2.152  16.437 -27.644  1.00  0.00    -0.018 A 
ATOM      5  C   UNL     1       1.988  15.094 -27.270  1.00  0.00     0.009 A 
ATOM      6  C   UNL     1       0.740  14.633 -26.840  1.00  0.00     0.001 A 
ATOM      7  C   UNL     1      -0.350  15.506 -26.781  1.00  0.00     0.001 A 
ATOM      8  C   UNL     1      -0.201  16.845 -27.151  1.00  0.00     0.009 A 
ATOM      9  C   UNL     1       1.047  17.321 -27.584  1.00  0.00    -0.018 A 
ATOM     10  C   UNL     1       1.211  18.663 -27.959  1.00  0.00     0.009 A 
ENDROOT
TORSDOF 0
ENDMDL
