MODEL 1
REMARK VINA RESULT:    -2.788      0.000      0.000
REMARK INTER + INTRA:          -3.276
REMARK INTER:                  -3.196
REMARK INTRA:                  -0.080
REMARK UNBOUND:                -0.080
REMARK SMILES COc1cc(C(=O)[O-])ccc1O
REMARK SMILES IDX 5 1 9 2 4 3 10 4 3 5 11 6 6 7 7 8 8 9 2 10 1 11 12 12
REMARK H PARENT 12 13
REMARK Flexibility Score: inf
ROOT
ATOM      1  C   UNL     1      31.990  35.723  46.945  1.00  0.00     0.001 A 
ATOM      2  C   UNL     1      30.859  34.895  47.008  1.00  0.00     0.014 A 
ATOM      3  C   UNL     1      31.814  37.119  46.901  1.00  0.00     0.060 A 
ATOM      4  C   UNL     1      29.578  35.449  47.026  1.00  0.00     0.051 A 
ATOM      5  C   UNL     1      30.523  37.684  46.919  1.00  0.00     0.161 A 
ATOM      6  C   UNL     1      29.404  36.834  46.982  1.00  0.00     0.157 A 
ENDROOT
BRANCH   1   7
ATOM      7  C   UNL     1      33.346  35.131  46.926  1.00  0.00     0.072 C 
ATOM      8  O   UNL     1      34.368  35.868  46.896  1.00  0.00    -0.545 OA
ATOM      9  O   UNL     1      33.513  33.750  46.941  1.00  0.00    -0.545 OA
ENDBRANCH   1   7
BRANCH   5  10
ATOM     10  O   UNL     1      30.317  39.072  46.875  1.00  0.00    -0.493 OA
ATOM     11  C   UNL     1      31.354  40.046  46.946  1.00  0.00     0.278 C 
ENDBRANCH   5  10
BRANCH   6  12
ATOM     12  O   UNL     1      28.107  37.351  47.001  1.00  0.00    -0.504 OA
ATOM     13  H   UNL     1      27.919  38.331  47.174  1.00  0.00     0.293 HD
ENDBRANCH   6  12
TORSDOF 3
ENDMDL
MODEL 2
REMARK VINA RESULT:    -2.612      1.442      4.100
REMARK INTER + INTRA:          -3.074
REMARK INTER:                  -2.994
REMARK INTRA:                  -0.080
REMARK UNBOUND:                -0.080
REMARK SMILES COc1cc(C(=O)[O-])ccc1O
REMARK SMILES IDX 5 1 9 2 4 3 10 4 3 5 11 6 6 7 7 8 8 9 2 10 1 11 12 12
REMARK H PARENT 12 13
REMARK Flexibility Score: inf
ROOT
ATOM      1  C   UNL     1      30.806  38.260  47.040  1.00  0.00     0.001 A 
ATOM      2  C   UNL     1      29.512  37.715  47.032  1.00  0.00     0.014 A 
ATOM      3  C   UNL     1      31.913  37.392  46.991  1.00  0.00     0.060 A 
ATOM      4  C   UNL     1      29.328  36.333  46.977  1.00  0.00     0.051 A 
ATOM      5  C   UNL     1      31.732  35.995  46.935  1.00  0.00     0.161 A 
ATOM      6  C   UNL     1      30.427  35.472  46.928  1.00  0.00     0.157 A 
ENDROOT
BRANCH   1   7
ATOM      7  C   UNL     1      30.996  39.726  47.098  1.00  0.00     0.072 C 
ATOM      8  O   UNL     1      32.136  40.232  46.919  1.00  0.00    -0.545 OA
ATOM      9  O   UNL     1      29.918  40.567  47.351  1.00  0.00    -0.545 OA
ENDBRANCH   1   7
BRANCH   5  10
ATOM     10  O   UNL     1      32.818  35.106  46.886  1.00  0.00    -0.493 OA
ATOM     11  C   UNL     1      34.186  35.499  46.895  1.00  0.00     0.278 C 
ENDBRANCH   5  10
BRANCH   6  12
ATOM     12  O   UNL     1      30.202  34.096  46.875  1.00  0.00    -0.504 OA
ATOM     13  H   UNL     1      30.534  33.466  47.596  1.00  0.00     0.293 HD
ENDBRANCH   6  12
TORSDOF 3
ENDMDL
MODEL 3
REMARK VINA RESULT:    -2.509      1.003      2.566
REMARK INTER + INTRA:          -2.956
REMARK INTER:                  -2.875
REMARK INTRA:                  -0.081
REMARK UNBOUND:                -0.080
REMARK SMILES COc1cc(C(=O)[O-])ccc1O
REMARK SMILES IDX 5 1 9 2 4 3 10 4 3 5 11 6 6 7 7 8 8 9 2 10 1 11 12 12
REMARK H PARENT 12 13
REMARK Flexibility Score: inf
ROOT
ATOM      1  C   UNL     1      32.197  35.996  47.030  1.00  0.00     0.001 A 
ATOM      2  C   UNL     1      32.833  37.240  46.894  1.00  0.00     0.014 A 
ATOM      3  C   UNL     1      30.796  35.954  47.146  1.00  0.00     0.060 A 
ATOM      4  C   UNL     1      32.085  38.418  46.875  1.00  0.00     0.051 A 
ATOM      5  C   UNL     1      30.035  37.140  47.127  1.00  0.00     0.161 A 
ATOM      6  C   UNL     1      30.693  38.376  46.990  1.00  0.00     0.157 A 
ENDROOT
BRANCH   1   7
ATOM      7  C   UNL     1      32.996  34.750  47.049  1.00  0.00     0.072 C 
ATOM      8  O   UNL     1      34.243  34.784  46.875  1.00  0.00    -0.545 OA
ATOM      9  O   UNL     1      32.379  33.521  47.260  1.00  0.00    -0.545 OA
ENDBRANCH   1   7
BRANCH   5  10
ATOM     10  O   UNL     1      28.635  37.129  47.242  1.00  0.00    -0.493 OA
ATOM     11  C   UNL     1      27.828  35.958  47.171  1.00  0.00     0.278 C 
ENDBRANCH   5  10
BRANCH   6  12
ATOM     12  O   UNL     1      29.979  39.574  46.968  1.00  0.00    -0.504 OA
ATOM     13  H   UNL     1      29.528  39.918  46.129  1.00  0.00     0.293 HD
ENDBRANCH   6  12
TORSDOF 3
ENDMDL
MODEL 4
REMARK VINA RESULT:    -1.912      1.830      5.006
REMARK INTER + INTRA:          -2.272
REMARK INTER:                  -2.192
REMARK INTRA:                  -0.080
REMARK UNBOUND:                -0.080
REMARK SMILES COc1cc(C(=O)[O-])ccc1O
REMARK SMILES IDX 5 1 9 2 4 3 10 4 3 5 11 6 6 7 7 8 8 9 2 10 1 11 12 12
REMARK H PARENT 12 13
REMARK Flexibility Score: inf
ROOT
ATOM      1  C   UNL     1      30.684  39.683  47.131  1.00  0.00     0.001 A 
ATOM      2  C   UNL     1      32.048  39.406  46.947  1.00  0.00     0.014 A 
ATOM      3  C   UNL     1      29.778  38.612  47.242  1.00  0.00     0.060 A 
ATOM      4  C   UNL     1      32.498  38.086  46.875  1.00  0.00     0.051 A 
ATOM      5  C   UNL     1      30.227  37.277  47.170  1.00  0.00     0.161 A 
ATOM      6  C   UNL     1      31.598  37.024  46.985  1.00  0.00     0.157 A 
ENDROOT
BRANCH   1   7
ATOM      7  C   UNL     1      30.212  41.083  47.207  1.00  0.00     0.072 C 
ATOM      8  O   UNL     1      28.980  41.345  47.226  1.00  0.00    -0.545 OA
ATOM      9  O   UNL     1      31.124  42.132  47.259  1.00  0.00    -0.545 OA
ENDBRANCH   1   7
BRANCH   5  10
ATOM     10  O   UNL     1      29.346  36.189  47.277  1.00  0.00    -0.493 OA
ATOM     11  C   UNL     1      27.928  36.300  47.345  1.00  0.00     0.278 C 
ENDBRANCH   5  10
BRANCH   6  12
ATOM     12  O   UNL     1      32.085  35.718  46.907  1.00  0.00    -0.504 OA
ATOM     13  H   UNL     1      32.549  35.268  47.687  1.00  0.00     0.293 HD
ENDBRANCH   6  12
TORSDOF 3
ENDMDL
MODEL 5
REMARK VINA RESULT:    -1.470      1.171      4.955
REMARK INTER + INTRA:          -1.765
REMARK INTER:                  -1.666
REMARK INTRA:                  -0.100
REMARK UNBOUND:                -0.080
REMARK SMILES COc1cc(C(=O)[O-])ccc1O
REMARK SMILES IDX 5 1 9 2 4 3 10 4 3 5 11 6 6 7 7 8 8 9 2 10 1 11 12 12
REMARK H PARENT 12 13
REMARK Flexibility Score: inf
ROOT
ATOM      1  C   UNL     1      30.427  36.691  47.098  1.00  0.00     0.001 A 
ATOM      2  C   UNL     1      31.379  37.715  46.983  1.00  0.00     0.014 A 
ATOM      3  C   UNL     1      30.862  35.354  47.146  1.00  0.00     0.060 A 
ATOM      4  C   UNL     1      32.740  37.410  46.917  1.00  0.00     0.051 A 
ATOM      5  C   UNL     1      32.235  35.040  47.080  1.00  0.00     0.161 A 
ATOM      6  C   UNL     1      33.172  36.083  46.965  1.00  0.00     0.157 A 
ENDROOT
BRANCH   1   7
ATOM      7  C   UNL     1      28.985  37.019  47.168  1.00  0.00     0.072 C 
ATOM      8  O   UNL     1      28.115  36.137  46.942  1.00  0.00    -0.545 OA
ATOM      9  O   UNL     1      28.571  38.308  47.485  1.00  0.00    -0.545 OA
ENDBRANCH   1   7
BRANCH   5  10
ATOM     10  O   UNL     1      32.699  33.715  47.125  1.00  0.00    -0.493 OA
ATOM     11  C   UNL     1      32.637  32.875  48.273  1.00  0.00     0.278 C 
ENDBRANCH   5  10
BRANCH   6  12
ATOM     12  O   UNL     1      34.540  35.817  46.895  1.00  0.00    -0.504 OA
ATOM     13  H   UNL     1      35.232  36.556  46.846  1.00  0.00     0.293 HD
ENDBRANCH   6  12
TORSDOF 3
ENDMDL
MODEL 6
REMARK VINA RESULT:    -0.533      1.528      2.242
REMARK INTER + INTRA:          -0.691
REMARK INTER:                  -1.461
REMARK INTRA:                   0.770
REMARK UNBOUND:                -0.080
REMARK SMILES COc1cc(C(=O)[O-])ccc1O
REMARK SMILES IDX 5 1 9 2 4 3 10 4 3 5 11 6 6 7 7 8 8 9 2 10 1 11 12 12
REMARK H PARENT 12 13
REMARK Flexibility Score: inf
ROOT
ATOM      1  C   UNL     1      31.243  36.849  47.140  1.00  0.00     0.001 A 
ATOM      2  C   UNL     1      29.863  36.880  47.392  1.00  0.00     0.014 A 
ATOM      3  C   UNL     1      31.934  38.063  46.968  1.00  0.00     0.060 A 
ATOM      4  C   UNL     1      29.186  38.098  47.471  1.00  0.00     0.051 A 
ATOM      5  C   UNL     1      31.255  39.296  47.047  1.00  0.00     0.161 A 
ATOM      6  C   UNL     1      29.872  39.303  47.301  1.00  0.00     0.157 A 
ENDROOT
BRANCH   1   7
ATOM      7  C   UNL     1      31.957  35.555  47.058  1.00  0.00     0.072 C 
ATOM      8  O   UNL     1      31.320  34.482  46.879  1.00  0.00    -0.545 OA
ATOM      9  O   UNL     1      33.341  35.505  47.177  1.00  0.00    -0.545 OA
ENDBRANCH   1   7
BRANCH   5  10
ATOM     10  O   UNL     1      31.918  40.523  46.879  1.00  0.00    -0.493 OA
ATOM     11  C   UNL     1      31.419  41.780  47.324  1.00  0.00     0.278 C 
ENDBRANCH   5  10
BRANCH   6  12
ATOM     12  O   UNL     1      29.160  40.500  47.385  1.00  0.00    -0.504 OA
ATOM     13  H   UNL     1      29.392  41.219  48.061  1.00  0.00     0.293 HD
ENDBRANCH   6  12
TORSDOF 3
ENDMDL
