MODEL 1
REMARK VINA RESULT:    -6.986      0.000      0.000
REMARK INTER + INTRA:          -8.868
REMARK INTER:                  -8.619
REMARK INTRA:                  -0.249
REMARK UNBOUND:                -0.249
REMARK SMILES Oc1cc(O)c2cc(O)c(-c3cc(O)c(O)c(O)c3)[o+]c2c1
REMARK SMILES IDX 10 1 20 2 21 3 22 4 2 5 3 6 4 7 6 8 7 9 8 10 11 11 12 12
REMARK SMILES IDX 13 13 19 14 15 15 17 16 14 17 16 19 18 21 9 23 1 25 5 27
REMARK H PARENT 14 18 16 20 18 22 9 24 1 26 5 28
REMARK Flexibility Score: inf
ROOT
ATOM      1  C   UNL     1      27.688  13.111  65.523  1.00  0.00     0.402 A 
ATOM      2  O   UNL     1      27.098  13.767  64.525  1.00  0.00    -0.202 OA
ATOM      3  C   UNL     1      26.076  14.598  64.705  1.00  0.00     0.368 A 
ATOM      4  C   UNL     1      25.515  15.252  63.604  1.00  0.00     0.162 A 
ATOM      5  C   UNL     1      24.441  16.134  63.781  1.00  0.00     0.128 A 
ATOM      6  C   UNL     1      23.927  16.360  65.062  1.00  0.00     0.093 A 
ATOM      7  C   UNL     1      24.479  15.711  66.176  1.00  0.00     0.136 A 
ATOM      8  C   UNL     1      25.559  14.825  65.998  1.00  0.00     0.125 A 
ATOM      9  C   UNL     1      26.145  14.143  67.071  1.00  0.00     0.078 A 
ATOM     10  C   UNL     1      27.211  13.269  66.841  1.00  0.00     0.223 A 
ENDROOT
BRANCH   1  11
ATOM     11  C   UNL     1      28.824  12.218  65.199  1.00  0.00     0.091 A 
ATOM     12  C   UNL     1      28.622  11.130  64.337  1.00  0.00     0.068 A 
ATOM     13  C   UNL     1      29.684  10.281  63.998  1.00  0.00     0.162 A 
ATOM     14  C   UNL     1      30.116  12.470  65.693  1.00  0.00     0.068 A 
ATOM     15  C   UNL     1      30.970  10.527  64.512  1.00  0.00     0.200 A 
ATOM     16  C   UNL     1      31.182  11.629  65.357  1.00  0.00     0.162 A 
BRANCH  13  17
ATOM     17  O   UNL     1      29.467   9.195  63.151  1.00  0.00    -0.504 OA
ATOM     18  H   UNL     1      28.558   8.752  63.076  1.00  0.00     0.293 HD
ENDBRANCH  13  17
BRANCH  15  19
ATOM     19  O   UNL     1      32.038   9.690  64.187  1.00  0.00    -0.502 OA
ATOM     20  H   UNL     1      32.908  10.046  63.810  1.00  0.00     0.293 HD
ENDBRANCH  15  19
BRANCH  16  21
ATOM     21  O   UNL     1      32.448  11.907  65.871  1.00  0.00    -0.504 OA
ATOM     22  H   UNL     1      33.167  11.198  65.948  1.00  0.00     0.293 HD
ENDBRANCH  16  21
ENDBRANCH   1  11
BRANCH  10  23
ATOM     23  O   UNL     1      27.765  12.548  67.898  1.00  0.00    -0.500 OA
ATOM     24  H   UNL     1      27.551  12.770  68.863  1.00  0.00     0.294 HD
ENDBRANCH  10  23
BRANCH   5  25
ATOM     25  O   UNL     1      23.875  16.790  62.689  1.00  0.00    -0.507 OA
ATOM     26  H   UNL     1      23.125  16.372  62.150  1.00  0.00     0.293 HD
ENDBRANCH   5  25
BRANCH   7  27
ATOM     27  O   UNL     1      23.957  15.944  67.449  1.00  0.00    -0.507 OA
ATOM     28  H   UNL     1      24.304  16.694  68.036  1.00  0.00     0.293 HD
ENDBRANCH   7  27
TORSDOF 7
ENDMDL
MODEL 2
REMARK VINA RESULT:    -6.751      4.879      9.142
REMARK INTER + INTRA:          -8.578
REMARK INTER:                  -8.503
REMARK INTRA:                  -0.075
REMARK UNBOUND:                -0.249
REMARK SMILES Oc1cc(O)c2cc(O)c(-c3cc(O)c(O)c(O)c3)[o+]c2c1
REMARK SMILES IDX 10 1 20 2 21 3 22 4 2 5 3 6 4 7 6 8 7 9 8 10 11 11 12 12
REMARK SMILES IDX 13 13 19 14 15 15 17 16 14 17 16 19 18 21 9 23 1 25 5 27
REMARK H PARENT 14 18 16 20 18 22 9 24 1 26 5 28
REMARK Flexibility Score: inf
ROOT
ATOM      1  C   UNL     1      32.495   9.954  62.725  1.00  0.00     0.402 A 
ATOM      2  O   UNL     1      33.372  10.949  62.598  1.00  0.00    -0.202 OA
ATOM      3  C   UNL     1      34.323  10.966  61.670  1.00  0.00     0.368 A 
ATOM      4  C   UNL     1      35.203  12.050  61.600  1.00  0.00     0.162 A 
ATOM      5  C   UNL     1      36.207  12.082  60.624  1.00  0.00     0.128 A 
ATOM      6  C   UNL     1      36.331  11.025  59.717  1.00  0.00     0.093 A 
ATOM      7  C   UNL     1      35.457   9.930  59.774  1.00  0.00     0.136 A 
ATOM      8  C   UNL     1      34.448   9.898  60.756  1.00  0.00     0.125 A 
ATOM      9  C   UNL     1      33.553   8.828  60.866  1.00  0.00     0.078 A 
ATOM     10  C   UNL     1      32.572   8.842  61.862  1.00  0.00     0.223 A 
ENDROOT
BRANCH   1  11
ATOM     11  C   UNL     1      31.475  10.053  63.793  1.00  0.00     0.091 A 
ATOM     12  C   UNL     1      31.861  10.449  65.082  1.00  0.00     0.068 A 
ATOM     13  C   UNL     1      30.912  10.569  66.106  1.00  0.00     0.162 A 
ATOM     14  C   UNL     1      30.115   9.811  63.530  1.00  0.00     0.068 A 
ATOM     15  C   UNL     1      29.556  10.306  65.841  1.00  0.00     0.200 A 
ATOM     16  C   UNL     1      29.161   9.931  64.545  1.00  0.00     0.162 A 
BRANCH  13  17
ATOM     17  O   UNL     1      31.311  10.951  67.387  1.00  0.00    -0.504 OA
ATOM     18  H   UNL     1      31.454  11.924  67.630  1.00  0.00     0.293 HD
ENDBRANCH  13  17
BRANCH  15  19
ATOM     19  O   UNL     1      28.599  10.418  66.850  1.00  0.00    -0.502 OA
ATOM     20  H   UNL     1      28.845  10.653  67.804  1.00  0.00     0.293 HD
ENDBRANCH  15  19
BRANCH  16  21
ATOM     21  O   UNL     1      27.822   9.678  64.248  1.00  0.00    -0.504 OA
ATOM     22  H   UNL     1      27.107   9.644  64.964  1.00  0.00     0.293 HD
ENDBRANCH  16  21
ENDBRANCH   1  11
BRANCH  10  23
ATOM     23  O   UNL     1      31.710   7.756  62.009  1.00  0.00    -0.500 OA
ATOM     24  H   UNL     1      31.383   7.224  61.211  1.00  0.00     0.294 HD
ENDBRANCH  10  23
BRANCH   5  25
ATOM     25  O   UNL     1      37.087  13.159  60.547  1.00  0.00    -0.507 OA
ATOM     26  H   UNL     1      36.766  14.115  60.653  1.00  0.00     0.293 HD
ENDBRANCH   5  25
BRANCH   7  27
ATOM     27  O   UNL     1      35.593   8.881  58.864  1.00  0.00    -0.507 OA
ATOM     28  H   UNL     1      35.069   8.859  57.997  1.00  0.00     0.293 HD
ENDBRANCH   7  27
TORSDOF 7
ENDMDL
MODEL 3
REMARK VINA RESULT:    -6.745      6.842      8.821
REMARK INTER + INTRA:          -8.571
REMARK INTER:                  -8.201
REMARK INTRA:                  -0.370
REMARK UNBOUND:                -0.249
REMARK SMILES Oc1cc(O)c2cc(O)c(-c3cc(O)c(O)c(O)c3)[o+]c2c1
REMARK SMILES IDX 10 1 20 2 21 3 22 4 2 5 3 6 4 7 6 8 7 9 8 10 11 11 12 12
REMARK SMILES IDX 13 13 19 14 15 15 17 16 14 17 16 19 18 21 9 23 1 25 5 27
REMARK H PARENT 14 18 16 20 18 22 9 24 1 26 5 28
REMARK Flexibility Score: inf
ROOT
ATOM      1  C   UNL     1      34.294  12.244  63.554  1.00  0.00     0.402 A 
ATOM      2  O   UNL     1      35.374  12.875  63.097  1.00  0.00    -0.202 OA
ATOM      3  C   UNL     1      36.051  13.768  63.811  1.00  0.00     0.368 A 
ATOM      4  C   UNL     1      37.178  14.384  63.260  1.00  0.00     0.162 A 
ATOM      5  C   UNL     1      37.903  15.324  64.004  1.00  0.00     0.128 A 
ATOM      6  C   UNL     1      37.497  15.648  65.303  1.00  0.00     0.093 A 
ATOM      7  C   UNL     1      36.368  15.039  65.870  1.00  0.00     0.136 A 
ATOM      8  C   UNL     1      35.640  14.095  65.121  1.00  0.00     0.125 A 
ATOM      9  C   UNL     1      34.501  13.461  65.631  1.00  0.00     0.078 A 
ATOM     10  C   UNL     1      33.809  12.535  64.846  1.00  0.00     0.223 A 
ENDROOT
BRANCH   1  11
ATOM     11  C   UNL     1      33.629  11.262  62.666  1.00  0.00     0.091 A 
ATOM     12  C   UNL     1      33.902   9.895  62.822  1.00  0.00     0.068 A 
ATOM     13  C   UNL     1      33.272   8.944  62.008  1.00  0.00     0.162 A 
ATOM     14  C   UNL     1      32.685  11.667  61.706  1.00  0.00     0.068 A 
ATOM     15  C   UNL     1      32.344   9.357  61.036  1.00  0.00     0.200 A 
ATOM     16  C   UNL     1      32.049  10.724  60.892  1.00  0.00     0.162 A 
BRANCH  13  17
ATOM     17  O   UNL     1      33.563   7.589  62.163  1.00  0.00    -0.504 OA
ATOM     18  H   UNL     1      34.472   7.210  61.925  1.00  0.00     0.293 HD
ENDBRANCH  13  17
BRANCH  15  19
ATOM     19  O   UNL     1      31.710   8.424  60.215  1.00  0.00    -0.502 OA
ATOM     20  H   UNL     1      30.713   8.453  60.033  1.00  0.00     0.293 HD
ENDBRANCH  15  19
BRANCH  16  21
ATOM     21  O   UNL     1      31.123  11.164  59.946  1.00  0.00    -0.504 OA
ATOM     22  H   UNL     1      30.574  10.520  59.389  1.00  0.00     0.293 HD
ENDBRANCH  16  21
ENDBRANCH   1  11
BRANCH  10  23
ATOM     23  O   UNL     1      32.645  11.938  65.329  1.00  0.00    -0.500 OA
ATOM     24  H   UNL     1      32.208  12.246  66.189  1.00  0.00     0.294 HD
ENDBRANCH  10  23
BRANCH   5  25
ATOM     25  O   UNL     1      39.028  15.942  63.463  1.00  0.00    -0.507 OA
ATOM     26  H   UNL     1      39.795  15.403  63.076  1.00  0.00     0.293 HD
ENDBRANCH   5  25
BRANCH   7  27
ATOM     27  O   UNL     1      35.973  15.372  67.166  1.00  0.00    -0.507 OA
ATOM     28  H   UNL     1      36.068  14.718  67.934  1.00  0.00     0.293 HD
ENDBRANCH   7  27
TORSDOF 7
ENDMDL
MODEL 4
REMARK VINA RESULT:    -6.735      4.791      8.238
REMARK INTER + INTRA:          -8.559
REMARK INTER:                  -8.175
REMARK INTRA:                  -0.384
REMARK UNBOUND:                -0.249
REMARK SMILES Oc1cc(O)c2cc(O)c(-c3cc(O)c(O)c(O)c3)[o+]c2c1
REMARK SMILES IDX 10 1 20 2 21 3 22 4 2 5 3 6 4 7 6 8 7 9 8 10 11 11 12 12
REMARK SMILES IDX 13 13 19 14 15 15 17 16 14 17 16 19 18 21 9 23 1 25 5 27
REMARK H PARENT 14 18 16 20 18 22 9 24 1 26 5 28
REMARK Flexibility Score: inf
ROOT
ATOM      1  C   UNL     1      33.161  11.343  65.280  1.00  0.00     0.402 A 
ATOM      2  O   UNL     1      33.429  12.608  64.962  1.00  0.00    -0.202 OA
ATOM      3  C   UNL     1      34.607  13.181  65.188  1.00  0.00     0.368 A 
ATOM      4  C   UNL     1      34.810  14.514  64.821  1.00  0.00     0.162 A 
ATOM      5  C   UNL     1      36.048  15.128  65.050  1.00  0.00     0.128 A 
ATOM      6  C   UNL     1      37.084  14.406  65.649  1.00  0.00     0.093 A 
ATOM      7  C   UNL     1      36.896  13.068  66.024  1.00  0.00     0.136 A 
ATOM      8  C   UNL     1      35.652  12.451  65.794  1.00  0.00     0.125 A 
ATOM      9  C   UNL     1      35.403  11.121  66.155  1.00  0.00     0.078 A 
ATOM     10  C   UNL     1      34.148  10.557  65.910  1.00  0.00     0.223 A 
ENDROOT
BRANCH   1  11
ATOM     11  C   UNL     1      31.813  10.813  64.971  1.00  0.00     0.091 A 
ATOM     12  C   UNL     1      30.783  10.956  65.912  1.00  0.00     0.068 A 
ATOM     13  C   UNL     1      29.493  10.482  65.636  1.00  0.00     0.162 A 
ATOM     14  C   UNL     1      31.529  10.219  63.729  1.00  0.00     0.068 A 
ATOM     15  C   UNL     1      29.220   9.870  64.400  1.00  0.00     0.200 A 
ATOM     16  C   UNL     1      30.243   9.746  63.444  1.00  0.00     0.162 A 
BRANCH  13  17
ATOM     17  O   UNL     1      28.481  10.617  66.586  1.00  0.00    -0.504 OA
ATOM     18  H   UNL     1      28.689  10.760  67.567  1.00  0.00     0.293 HD
ENDBRANCH  13  17
BRANCH  15  19
ATOM     19  O   UNL     1      27.943   9.390  64.110  1.00  0.00    -0.502 OA
ATOM     20  H   UNL     1      27.260   9.941  63.604  1.00  0.00     0.293 HD
ENDBRANCH  15  19
BRANCH  16  21
ATOM     21  O   UNL     1      30.001   9.157  62.204  1.00  0.00    -0.504 OA
ATOM     22  H   UNL     1      30.117   9.663  61.334  1.00  0.00     0.293 HD
ENDBRANCH  16  21
ENDBRANCH   1  11
BRANCH  10  23
ATOM     23  O   UNL     1      33.879   9.250  66.312  1.00  0.00    -0.500 OA
ATOM     24  H   UNL     1      32.999   8.797  66.094  1.00  0.00     0.294 HD
ENDBRANCH  10  23
BRANCH   5  25
ATOM     25  O   UNL     1      36.259  16.457  64.686  1.00  0.00    -0.507 OA
ATOM     26  H   UNL     1      36.180  16.761  63.722  1.00  0.00     0.293 HD
ENDBRANCH   5  25
BRANCH   7  27
ATOM     27  O   UNL     1      37.938  12.358  66.623  1.00  0.00    -0.507 OA
ATOM     28  H   UNL     1      38.907  12.542  66.392  1.00  0.00     0.293 HD
ENDBRANCH   7  27
TORSDOF 7
ENDMDL
MODEL 5
REMARK VINA RESULT:    -6.715      2.808      7.790
REMARK INTER + INTRA:          -8.535
REMARK INTER:                  -8.162
REMARK INTRA:                  -0.373
REMARK UNBOUND:                -0.249
REMARK SMILES Oc1cc(O)c2cc(O)c(-c3cc(O)c(O)c(O)c3)[o+]c2c1
REMARK SMILES IDX 10 1 20 2 21 3 22 4 2 5 3 6 4 7 6 8 7 9 8 10 11 11 12 12
REMARK SMILES IDX 13 13 19 14 15 15 17 16 14 17 16 19 18 21 9 23 1 25 5 27
REMARK H PARENT 14 18 16 20 18 22 9 24 1 26 5 28
REMARK Flexibility Score: inf
ROOT
ATOM      1  C   UNL     1      30.298  10.870  64.106  1.00  0.00     0.402 A 
ATOM      2  O   UNL     1      31.517  11.368  63.899  1.00  0.00    -0.202 OA
ATOM      3  C   UNL     1      32.316  10.952  62.922  1.00  0.00     0.368 A 
ATOM      4  C   UNL     1      33.580  11.529  62.768  1.00  0.00     0.162 A 
ATOM      5  C   UNL     1      34.429  11.102  61.740  1.00  0.00     0.128 A 
ATOM      6  C   UNL     1      34.013  10.095  60.864  1.00  0.00     0.093 A 
ATOM      7  C   UNL     1      32.748   9.506  61.005  1.00  0.00     0.136 A 
ATOM      8  C   UNL     1      31.894   9.935  62.039  1.00  0.00     0.125 A 
ATOM      9  C   UNL     1      30.624   9.378  62.233  1.00  0.00     0.078 A 
ATOM     10  C   UNL     1      29.817   9.835  63.278  1.00  0.00     0.223 A 
ENDROOT
BRANCH   1  11
ATOM     11  C   UNL     1      29.498  11.422  65.223  1.00  0.00     0.091 A 
ATOM     12  C   UNL     1      29.779  11.021  66.537  1.00  0.00     0.068 A 
ATOM     13  C   UNL     1      29.050  11.542  67.614  1.00  0.00     0.162 A 
ATOM     14  C   UNL     1      28.496  12.383  65.000  1.00  0.00     0.068 A 
ATOM     15  C   UNL     1      28.036  12.488  67.383  1.00  0.00     0.200 A 
ATOM     16  C   UNL     1      27.766  12.911  66.070  1.00  0.00     0.162 A 
BRANCH  13  17
ATOM     17  O   UNL     1      29.330  11.125  68.915  1.00  0.00    -0.504 OA
ATOM     18  H   UNL     1      28.871  11.541  69.717  1.00  0.00     0.293 HD
ENDBRANCH  13  17
BRANCH  15  19
ATOM     19  O   UNL     1      27.298  13.015  68.443  1.00  0.00    -0.502 OA
ATOM     20  H   UNL     1      27.444  13.956  68.788  1.00  0.00     0.293 HD
ENDBRANCH  15  19
BRANCH  16  21
ATOM     21  O   UNL     1      26.776  13.858  65.809  1.00  0.00    -0.504 OA
ATOM     22  H   UNL     1      25.790  13.648  65.904  1.00  0.00     0.293 HD
ENDBRANCH  16  21
ENDBRANCH   1  11
BRANCH  10  23
ATOM     23  O   UNL     1      28.573   9.250  63.509  1.00  0.00    -0.500 OA
ATOM     24  H   UNL     1      27.999   8.904  62.748  1.00  0.00     0.294 HD
ENDBRANCH  10  23
BRANCH   5  25
ATOM     25  O   UNL     1      35.691  11.672  61.580  1.00  0.00    -0.507 OA
ATOM     26  H   UNL     1      36.146  12.171  62.335  1.00  0.00     0.293 HD
ENDBRANCH   5  25
BRANCH   7  27
ATOM     27  O   UNL     1      32.344   8.500  60.125  1.00  0.00    -0.507 OA
ATOM     28  H   UNL     1      32.790   7.590  60.119  1.00  0.00     0.293 HD
ENDBRANCH   7  27
TORSDOF 7
ENDMDL
MODEL 6
REMARK VINA RESULT:    -6.711      4.750      8.194
REMARK INTER + INTRA:          -8.529
REMARK INTER:                  -8.148
REMARK INTRA:                  -0.381
REMARK UNBOUND:                -0.249
REMARK SMILES Oc1cc(O)c2cc(O)c(-c3cc(O)c(O)c(O)c3)[o+]c2c1
REMARK SMILES IDX 10 1 20 2 21 3 22 4 2 5 3 6 4 7 6 8 7 9 8 10 11 11 12 12
REMARK SMILES IDX 13 13 19 14 15 15 17 16 14 17 16 19 18 21 9 23 1 25 5 27
REMARK H PARENT 14 18 16 20 18 22 9 24 1 26 5 28
REMARK Flexibility Score: inf
ROOT
ATOM      1  C   UNL     1      33.110  11.312  65.285  1.00  0.00     0.402 A 
ATOM      2  O   UNL     1      33.428  12.565  64.965  1.00  0.00    -0.202 OA
ATOM      3  C   UNL     1      34.638  13.080  65.156  1.00  0.00     0.368 A 
ATOM      4  C   UNL     1      34.892  14.405  64.788  1.00  0.00     0.162 A 
ATOM      5  C   UNL     1      36.165  14.958  64.980  1.00  0.00     0.128 A 
ATOM      6  C   UNL     1      37.184  14.183  65.542  1.00  0.00     0.093 A 
ATOM      7  C   UNL     1      36.945  12.853  65.917  1.00  0.00     0.136 A 
ATOM      8  C   UNL     1      35.666  12.297  65.724  1.00  0.00     0.125 A 
ATOM      9  C   UNL     1      35.366  10.979  66.086  1.00  0.00     0.078 A 
ATOM     10  C   UNL     1      34.078  10.476  65.879  1.00  0.00     0.223 A 
ENDROOT
BRANCH   1  11
ATOM     11  C   UNL     1      31.729  10.849  65.017  1.00  0.00     0.091 A 
ATOM     12  C   UNL     1      31.433  10.236  63.790  1.00  0.00     0.068 A 
ATOM     13  C   UNL     1      30.140   9.771  63.518  1.00  0.00     0.162 A 
ATOM     14  C   UNL     1      30.719  10.961  65.987  1.00  0.00     0.068 A 
ATOM     15  C   UNL     1      29.129   9.904  64.486  1.00  0.00     0.200 A 
ATOM     16  C   UNL     1      29.425  10.497  65.725  1.00  0.00     0.162 A 
BRANCH  13  17
ATOM     17  O   UNL     1      29.855   9.176  62.289  1.00  0.00    -0.504 OA
ATOM     18  H   UNL     1      30.169   9.584  61.416  1.00  0.00     0.293 HD
ENDBRANCH  13  17
BRANCH  15  19
ATOM     19  O   UNL     1      27.835   9.450  64.230  1.00  0.00    -0.502 OA
ATOM     20  H   UNL     1      27.459   9.389  63.291  1.00  0.00     0.293 HD
ENDBRANCH  15  19
BRANCH  16  21
ATOM     21  O   UNL     1      28.448  10.630  66.710  1.00  0.00    -0.504 OA
ATOM     22  H   UNL     1      28.668  10.937  67.651  1.00  0.00     0.293 HD
ENDBRANCH  16  21
ENDBRANCH   1  11
BRANCH  10  23
ATOM     23  O   UNL     1      33.760   9.181  66.284  1.00  0.00    -0.500 OA
ATOM     24  H   UNL     1      33.325   8.996  67.181  1.00  0.00     0.294 HD
ENDBRANCH  10  23
BRANCH   5  25
ATOM     25  O   UNL     1      36.427  16.277  64.616  1.00  0.00    -0.507 OA
ATOM     26  H   UNL     1      35.976  17.055  65.083  1.00  0.00     0.293 HD
ENDBRANCH   5  25
BRANCH   7  27
ATOM     27  O   UNL     1      37.970  12.091  66.479  1.00  0.00    -0.507 OA
ATOM     28  H   UNL     1      37.799  11.165  66.853  1.00  0.00     0.293 HD
ENDBRANCH   7  27
TORSDOF 7
ENDMDL
MODEL 7
REMARK VINA RESULT:    -6.598      4.750      9.582
REMARK INTER + INTRA:          -8.390
REMARK INTER:                  -8.023
REMARK INTRA:                  -0.367
REMARK UNBOUND:                -0.249
REMARK SMILES Oc1cc(O)c2cc(O)c(-c3cc(O)c(O)c(O)c3)[o+]c2c1
REMARK SMILES IDX 10 1 20 2 21 3 22 4 2 5 3 6 4 7 6 8 7 9 8 10 11 11 12 12
REMARK SMILES IDX 13 13 19 14 15 15 17 16 14 17 16 19 18 21 9 23 1 25 5 27
REMARK H PARENT 14 18 16 20 18 22 9 24 1 26 5 28
REMARK Flexibility Score: inf
ROOT
ATOM      1  C   UNL     1      32.588  10.086  62.543  1.00  0.00     0.402 A 
ATOM      2  O   UNL     1      33.433   9.067  62.688  1.00  0.00    -0.202 OA
ATOM      3  C   UNL     1      34.414   8.809  61.830  1.00  0.00     0.368 A 
ATOM      4  C   UNL     1      35.263   7.721  62.056  1.00  0.00     0.162 A 
ATOM      5  C   UNL     1      36.303   7.440  61.161  1.00  0.00     0.128 A 
ATOM      6  C   UNL     1      36.494   8.251  60.038  1.00  0.00     0.093 A 
ATOM      7  C   UNL     1      35.652   9.346  59.797  1.00  0.00     0.136 A 
ATOM      8  C   UNL     1      34.605   9.627  60.696  1.00  0.00     0.125 A 
ATOM      9  C   UNL     1      33.728  10.701  60.503  1.00  0.00     0.078 A 
ATOM     10  C   UNL     1      32.702  10.934  61.423  1.00  0.00     0.223 A 
ENDROOT
BRANCH   1  11
ATOM     11  C   UNL     1      31.539  10.278  63.571  1.00  0.00     0.091 A 
ATOM     12  C   UNL     1      30.263   9.732  63.365  1.00  0.00     0.068 A 
ATOM     13  C   UNL     1      29.258   9.882  64.330  1.00  0.00     0.162 A 
ATOM     14  C   UNL     1      31.810  10.947  64.777  1.00  0.00     0.068 A 
ATOM     15  C   UNL     1      29.530  10.570  65.526  1.00  0.00     0.200 A 
ATOM     16  C   UNL     1      30.814  11.098  65.747  1.00  0.00     0.162 A 
BRANCH  13  17
ATOM     17  O   UNL     1      27.990   9.347  64.107  1.00  0.00    -0.504 OA
ATOM     18  H   UNL     1      27.148   9.859  64.346  1.00  0.00     0.293 HD
ENDBRANCH  13  17
BRANCH  15  19
ATOM     19  O   UNL     1      28.541  10.731  66.496  1.00  0.00    -0.502 OA
ATOM     20  H   UNL     1      28.646  10.375  67.439  1.00  0.00     0.293 HD
ENDBRANCH  15  19
BRANCH  16  21
ATOM     21  O   UNL     1      31.119  11.774  66.928  1.00  0.00    -0.504 OA
ATOM     22  H   UNL     1      30.467  11.831  67.701  1.00  0.00     0.293 HD
ENDBRANCH  16  21
ENDBRANCH   1  11
BRANCH  10  23
ATOM     23  O   UNL     1      31.794  11.971  61.209  1.00  0.00    -0.500 OA
ATOM     24  H   UNL     1      31.526  12.604  61.953  1.00  0.00     0.294 HD
ENDBRANCH  10  23
BRANCH   5  25
ATOM     25  O   UNL     1      37.154   6.358  61.379  1.00  0.00    -0.507 OA
ATOM     26  H   UNL     1      36.809   5.405  61.376  1.00  0.00     0.293 HD
ENDBRANCH   5  25
BRANCH   7  27
ATOM     27  O   UNL     1      35.852  10.146  58.671  1.00  0.00    -0.507 OA
ATOM     28  H   UNL     1      35.451   9.906  57.772  1.00  0.00     0.293 HD
ENDBRANCH   7  27
TORSDOF 7
ENDMDL
MODEL 8
REMARK VINA RESULT:    -6.533      9.980     11.852
REMARK INTER + INTRA:          -8.309
REMARK INTER:                  -7.925
REMARK INTRA:                  -0.384
REMARK UNBOUND:                -0.249
REMARK SMILES Oc1cc(O)c2cc(O)c(-c3cc(O)c(O)c(O)c3)[o+]c2c1
REMARK SMILES IDX 10 1 20 2 21 3 22 4 2 5 3 6 4 7 6 8 7 9 8 10 11 11 12 12
REMARK SMILES IDX 13 13 19 14 15 15 17 16 14 17 16 19 18 21 9 23 1 25 5 27
REMARK H PARENT 14 18 16 20 18 22 9 24 1 26 5 28
REMARK Flexibility Score: inf
ROOT
ATOM      1  C   UNL     1      38.032  14.767  62.707  1.00  0.00     0.402 A 
ATOM      2  O   UNL     1      37.476  15.858  62.183  1.00  0.00    -0.202 OA
ATOM      3  C   UNL     1      37.339  16.048  60.875  1.00  0.00     0.368 A 
ATOM      4  C   UNL     1      36.739  17.220  60.404  1.00  0.00     0.162 A 
ATOM      5  C   UNL     1      36.585  17.429  59.028  1.00  0.00     0.128 A 
ATOM      6  C   UNL     1      37.033  16.464  58.121  1.00  0.00     0.093 A 
ATOM      7  C   UNL     1      37.637  15.283  58.577  1.00  0.00     0.136 A 
ATOM      8  C   UNL     1      37.792  15.073  59.960  1.00  0.00     0.125 A 
ATOM      9  C   UNL     1      38.394  13.918  60.473  1.00  0.00     0.078 A 
ATOM     10  C   UNL     1      38.530  13.759  61.855  1.00  0.00     0.223 A 
ENDROOT
BRANCH   1  11
ATOM     11  C   UNL     1      38.121  14.666  64.182  1.00  0.00     0.091 A 
ATOM     12  C   UNL     1      39.236  15.201  64.844  1.00  0.00     0.068 A 
ATOM     13  C   UNL     1      39.336  15.136  66.240  1.00  0.00     0.162 A 
ATOM     14  C   UNL     1      37.085  14.094  64.939  1.00  0.00     0.068 A 
ATOM     15  C   UNL     1      38.305  14.544  66.991  1.00  0.00     0.200 A 
ATOM     16  C   UNL     1      37.175  14.028  66.334  1.00  0.00     0.162 A 
BRANCH  13  17
ATOM     17  O   UNL     1      40.456  15.659  66.885  1.00  0.00    -0.504 OA
ATOM     18  H   UNL     1      41.263  15.085  67.099  1.00  0.00     0.293 HD
ENDBRANCH  13  17
BRANCH  15  19
ATOM     19  O   UNL     1      38.390  14.469  68.381  1.00  0.00    -0.502 OA
ATOM     20  H   UNL     1      38.821  15.198  68.937  1.00  0.00     0.293 HD
ENDBRANCH  15  19
BRANCH  16  21
ATOM     21  O   UNL     1      36.129  13.447  67.051  1.00  0.00    -0.504 OA
ATOM     22  H   UNL     1      35.559  12.703  66.667  1.00  0.00     0.293 HD
ENDBRANCH  16  21
ENDBRANCH   1  11
BRANCH  10  23
ATOM     23  O   UNL     1      39.174  12.635  62.370  1.00  0.00    -0.500 OA
ATOM     24  H   UNL     1      38.977  12.289  63.302  1.00  0.00     0.294 HD
ENDBRANCH  10  23
BRANCH   5  25
ATOM     25  O   UNL     1      35.989  18.595  58.551  1.00  0.00    -0.507 OA
ATOM     26  H   UNL     1      35.155  18.978  58.982  1.00  0.00     0.293 HD
ENDBRANCH   5  25
BRANCH   7  27
ATOM     27  O   UNL     1      38.081  14.328  57.661  1.00  0.00    -0.507 OA
ATOM     28  H   UNL     1      37.471  13.961  56.939  1.00  0.00     0.293 HD
ENDBRANCH   7  27
TORSDOF 7
ENDMDL
MODEL 9
REMARK VINA RESULT:    -6.520      4.835      8.047
REMARK INTER + INTRA:          -8.293
REMARK INTER:                  -7.916
REMARK INTRA:                  -0.377
REMARK UNBOUND:                -0.249
REMARK SMILES Oc1cc(O)c2cc(O)c(-c3cc(O)c(O)c(O)c3)[o+]c2c1
REMARK SMILES IDX 10 1 20 2 21 3 22 4 2 5 3 6 4 7 6 8 7 9 8 10 11 11 12 12
REMARK SMILES IDX 13 13 19 14 15 15 17 16 14 17 16 19 18 21 9 23 1 25 5 27
REMARK H PARENT 14 18 16 20 18 22 9 24 1 26 5 28
REMARK Flexibility Score: inf
ROOT
ATOM      1  C   UNL     1      33.072   9.682  61.749  1.00  0.00     0.402 A 
ATOM      2  O   UNL     1      32.990  10.363  62.891  1.00  0.00    -0.202 OA
ATOM      3  C   UNL     1      31.874  10.452  63.607  1.00  0.00     0.368 A 
ATOM      4  C   UNL     1      31.872  11.184  64.797  1.00  0.00     0.162 A 
ATOM      5  C   UNL     1      30.703  11.282  65.563  1.00  0.00     0.128 A 
ATOM      6  C   UNL     1      29.534  10.646  65.134  1.00  0.00     0.093 A 
ATOM      7  C   UNL     1      29.520   9.908  63.942  1.00  0.00     0.136 A 
ATOM      8  C   UNL     1      30.694   9.810  63.172  1.00  0.00     0.125 A 
ATOM      9  C   UNL     1      30.738   9.095  61.970  1.00  0.00     0.078 A 
ATOM     10  C   UNL     1      31.928   9.033  61.240  1.00  0.00     0.223 A 
ENDROOT
BRANCH   1  11
ATOM     11  C   UNL     1      34.374   9.649  61.045  1.00  0.00     0.091 A 
ATOM     12  C   UNL     1      35.239   8.562  61.244  1.00  0.00     0.068 A 
ATOM     13  C   UNL     1      36.469   8.496  60.576  1.00  0.00     0.162 A 
ATOM     14  C   UNL     1      34.741  10.657  60.137  1.00  0.00     0.068 A 
ATOM     15  C   UNL     1      36.838   9.519  59.684  1.00  0.00     0.200 A 
ATOM     16  C   UNL     1      35.965  10.598  59.463  1.00  0.00     0.162 A 
BRANCH  13  17
ATOM     17  O   UNL     1      37.326   7.418  60.793  1.00  0.00    -0.504 OA
ATOM     18  H   UNL     1      37.044   6.466  60.588  1.00  0.00     0.293 HD
ENDBRANCH  13  17
BRANCH  15  19
ATOM     19  O   UNL     1      38.060   9.470  59.013  1.00  0.00    -0.502 OA
ATOM     20  H   UNL     1      38.649  10.288  58.902  1.00  0.00     0.293 HD
ENDBRANCH  15  19
BRANCH  16  21
ATOM     21  O   UNL     1      36.296  11.620  58.574  1.00  0.00    -0.504 OA
ATOM     22  H   UNL     1      36.037  11.589  57.596  1.00  0.00     0.293 HD
ENDBRANCH  16  21
ENDBRANCH   1  11
BRANCH  10  23
ATOM     23  O   UNL     1      31.965   8.365  60.017  1.00  0.00    -0.500 OA
ATOM     24  H   UNL     1      32.379   7.445  59.925  1.00  0.00     0.294 HD
ENDBRANCH  10  23
BRANCH   5  25
ATOM     25  O   UNL     1      30.692  12.009  66.751  1.00  0.00    -0.507 OA
ATOM     26  H   UNL     1      30.909  11.573  67.641  1.00  0.00     0.293 HD
ENDBRANCH   5  25
BRANCH   7  27
ATOM     27  O   UNL     1      28.346   9.279  63.524  1.00  0.00    -0.507 OA
ATOM     28  H   UNL     1      27.540   9.201  64.134  1.00  0.00     0.293 HD
ENDBRANCH   7  27
TORSDOF 7
ENDMDL
