MODEL 1
REMARK VINA RESULT:    -3.555      0.000      0.000
REMARK INTER + INTRA:          -5.632
REMARK INTER:                  -5.010
REMARK INTRA:                  -0.622
REMARK UNBOUND:                -0.622
REMARK SMILES CCCCCCCCC(=O)[O-]
REMARK SMILES IDX 6 1 7 2 8 3 9 4 10 5 11 6 5 7 4 8 3 9 2 10 1 11
REMARK H PARENT
REMARK Flexibility Score: inf
ROOT
ATOM      1  C   UNL     1       2.845   0.330  -4.272  1.00  0.00     0.000 C 
ENDROOT
BRANCH   1   2
ATOM      2  C   UNL     1       3.265   1.340  -5.352  1.00  0.00     0.006 C 
BRANCH   2   3
ATOM      3  C   UNL     1       2.091   1.750  -6.251  1.00  0.00     0.053 C 
BRANCH   3   4
ATOM      4  C   UNL     1       1.811   3.219  -6.167  1.00  0.00     0.041 C 
ATOM      5  O   UNL     1       2.560   3.969  -5.485  1.00  0.00    -0.550 OA
ATOM      6  O   UNL     1       0.707   3.757  -6.816  1.00  0.00    -0.550 OA
ENDBRANCH   3   4
ENDBRANCH   2   3
ENDBRANCH   1   2
BRANCH   1   7
ATOM      7  C   UNL     1       3.820  -0.853  -4.148  1.00  0.00     0.000 C 
BRANCH   7   8
ATOM      8  C   UNL     1       3.296  -2.157  -4.788  1.00  0.00    -0.000 C 
BRANCH   8   9
ATOM      9  C   UNL     1       3.723  -2.291  -6.260  1.00  0.00    -0.000 C 
BRANCH   9  10
ATOM     10  C   UNL     1       2.530  -2.505  -7.204  1.00  0.00    -0.003 C 
ATOM     11  C   UNL     1       2.354  -1.361  -8.203  1.00  0.00     0.004 C 
ENDBRANCH   9  10
ENDBRANCH   8   9
ENDBRANCH   7   8
ENDBRANCH   1   7
TORSDOF 7
ENDMDL
MODEL 2
REMARK VINA RESULT:    -3.519      1.316      1.828
REMARK INTER + INTRA:          -5.581
REMARK INTER:                  -4.950
REMARK INTRA:                  -0.631
REMARK UNBOUND:                -0.622
REMARK SMILES CCCCCCCCC(=O)[O-]
REMARK SMILES IDX 6 1 7 2 8 3 9 4 10 5 11 6 5 7 4 8 3 9 2 10 1 11
REMARK H PARENT
REMARK Flexibility Score: inf
ROOT
ATOM      1  C   UNL     1       2.506   0.513  -4.544  1.00  0.00     0.000 C 
ENDROOT
BRANCH   1   2
ATOM      2  C   UNL     1       2.582   1.650  -5.575  1.00  0.00     0.006 C 
BRANCH   2   3
ATOM      3  C   UNL     1       2.452   1.135  -7.016  1.00  0.00     0.053 C 
BRANCH   3   4
ATOM      4  C   UNL     1       1.223   1.665  -7.688  1.00  0.00     0.041 C 
ATOM      5  O   UNL     1       1.041   2.908  -7.788  1.00  0.00    -0.550 OA
ATOM      6  O   UNL     1       0.265   0.788  -8.180  1.00  0.00    -0.550 OA
ENDBRANCH   3   4
ENDBRANCH   2   3
ENDBRANCH   1   2
BRANCH   1   7
ATOM      7  C   UNL     1       3.866   0.198  -3.900  1.00  0.00     0.000 C 
BRANCH   7   8
ATOM      8  C   UNL     1       4.346  -1.250  -4.144  1.00  0.00    -0.000 C 
BRANCH   8   9
ATOM      9  C   UNL     1       3.292  -2.091  -4.884  1.00  0.00    -0.000 C 
BRANCH   9  10
ATOM     10  C   UNL     1       3.708  -2.426  -6.325  1.00  0.00    -0.003 C 
ATOM     11  C   UNL     1       2.514  -2.564  -7.268  1.00  0.00     0.004 C 
ENDBRANCH   9  10
ENDBRANCH   8   9
ENDBRANCH   7   8
ENDBRANCH   1   7
TORSDOF 7
ENDMDL
MODEL 3
REMARK VINA RESULT:    -3.482      0.914      1.789
REMARK INTER + INTRA:          -5.529
REMARK INTER:                  -4.786
REMARK INTRA:                  -0.743
REMARK UNBOUND:                -0.622
REMARK SMILES CCCCCCCCC(=O)[O-]
REMARK SMILES IDX 6 1 7 2 8 3 9 4 10 5 11 6 5 7 4 8 3 9 2 10 1 11
REMARK H PARENT
REMARK Flexibility Score: inf
ROOT
ATOM      1  C   UNL     1       3.855  -0.963  -4.239  1.00  0.00     0.000 C 
ENDROOT
BRANCH   1   2
ATOM      2  C   UNL     1       2.880   0.218  -4.362  1.00  0.00     0.006 C 
BRANCH   2   3
ATOM      3  C   UNL     1       3.497   1.403  -5.117  1.00  0.00     0.053 C 
BRANCH   3   4
ATOM      4  C   UNL     1       2.457   2.217  -5.824  1.00  0.00     0.041 C 
ATOM      5  O   UNL     1       1.654   1.664  -6.622  1.00  0.00    -0.550 OA
ATOM      6  O   UNL     1       2.392   3.590  -5.625  1.00  0.00    -0.550 OA
ENDBRANCH   3   4
ENDBRANCH   2   3
ENDBRANCH   1   2
BRANCH   1   7
ATOM      7  C   UNL     1       3.302  -2.260  -4.854  1.00  0.00     0.000 C 
BRANCH   7   8
ATOM      8  C   UNL     1       3.704  -2.465  -6.331  1.00  0.00    -0.000 C 
BRANCH   8   9
ATOM      9  C   UNL     1       2.485  -2.459  -7.268  1.00  0.00    -0.000 C 
BRANCH   9  10
ATOM     10  C   UNL     1       2.515  -1.294  -8.270  1.00  0.00    -0.003 C 
ATOM     11  C   UNL     1       3.857  -0.562  -8.285  1.00  0.00     0.004 C 
ENDBRANCH   9  10
ENDBRANCH   8   9
ENDBRANCH   7   8
ENDBRANCH   1   7
TORSDOF 7
ENDMDL
MODEL 4
REMARK VINA RESULT:    -3.471      2.368      4.126
REMARK INTER + INTRA:          -5.513
REMARK INTER:                  -4.927
REMARK INTRA:                  -0.586
REMARK UNBOUND:                -0.622
REMARK SMILES CCCCCCCCC(=O)[O-]
REMARK SMILES IDX 6 1 7 2 8 3 9 4 10 5 11 6 5 7 4 8 3 9 2 10 1 11
REMARK H PARENT
REMARK Flexibility Score: inf
ROOT
ATOM      1  C   UNL     1       3.645  -2.486  -6.431  1.00  0.00     0.000 C 
ENDROOT
BRANCH   1   2
ATOM      2  C   UNL     1       2.460  -2.493  -7.409  1.00  0.00     0.006 C 
BRANCH   2   3
ATOM      3  C   UNL     1       2.203  -1.108  -8.019  1.00  0.00     0.053 C 
BRANCH   3   4
ATOM      4  C   UNL     1       0.821  -0.997  -8.585  1.00  0.00     0.041 C 
ATOM      5  O   UNL     1       0.226   0.114  -8.593  1.00  0.00    -0.550 OA
ATOM      6  O   UNL     1       0.177  -2.125  -9.080  1.00  0.00    -0.550 OA
ENDBRANCH   3   4
ENDBRANCH   2   3
ENDBRANCH   1   2
BRANCH   1   7
ATOM      7  C   UNL     1       3.239  -2.085  -5.003  1.00  0.00     0.000 C 
BRANCH   7   8
ATOM      8  C   UNL     1       4.341  -1.320  -4.238  1.00  0.00    -0.000 C 
BRANCH   8   9
ATOM      9  C   UNL     1       3.899   0.104  -3.856  1.00  0.00    -0.000 C 
BRANCH   9  10
ATOM     10  C   UNL     1       2.554   0.494  -4.488  1.00  0.00    -0.003 C 
ATOM     11  C   UNL     1       2.692   1.597  -5.537  1.00  0.00     0.004 C 
ENDBRANCH   9  10
ENDBRANCH   8   9
ENDBRANCH   7   8
ENDBRANCH   1   7
TORSDOF 7
ENDMDL
MODEL 5
REMARK VINA RESULT:    -3.371      3.165      4.670
REMARK INTER + INTRA:          -5.373
REMARK INTER:                  -4.770
REMARK INTRA:                  -0.603
REMARK UNBOUND:                -0.622
REMARK SMILES CCCCCCCCC(=O)[O-]
REMARK SMILES IDX 6 1 7 2 8 3 9 4 10 5 11 6 5 7 4 8 3 9 2 10 1 11
REMARK H PARENT
REMARK Flexibility Score: inf
ROOT
ATOM      1  C   UNL     1       3.222  -2.188  -4.917  1.00  0.00     0.000 C 
ENDROOT
BRANCH   1   2
ATOM      2  C   UNL     1       3.667  -2.368  -6.377  1.00  0.00     0.006 C 
BRANCH   2   3
ATOM      3  C   UNL     1       2.688  -1.720  -7.365  1.00  0.00     0.053 C 
BRANCH   3   4
ATOM      4  C   UNL     1       1.984  -2.742  -8.205  1.00  0.00     0.041 C 
ATOM      5  O   UNL     1       2.587  -3.787  -8.569  1.00  0.00    -0.550 OA
ATOM      6  O   UNL     1       0.672  -2.529  -8.609  1.00  0.00    -0.550 OA
ENDBRANCH   3   4
ENDBRANCH   2   3
ENDBRANCH   1   2
BRANCH   1   7
ATOM      7  C   UNL     1       3.997  -1.077  -4.188  1.00  0.00     0.000 C 
BRANCH   7   8
ATOM      8  C   UNL     1       3.168   0.206  -3.959  1.00  0.00    -0.000 C 
BRANCH   8   9
ATOM      9  C   UNL     1       3.438   1.269  -5.037  1.00  0.00    -0.000 C 
BRANCH   9  10
ATOM     10  C   UNL     1       2.172   1.653  -5.818  1.00  0.00    -0.003 C 
ATOM     11  C   UNL     1       2.464   2.033  -7.269  1.00  0.00     0.004 C 
ENDBRANCH   9  10
ENDBRANCH   8   9
ENDBRANCH   7   8
ENDBRANCH   1   7
TORSDOF 7
ENDMDL
MODEL 6
REMARK VINA RESULT:    -3.369      1.521      2.663
REMARK INTER + INTRA:          -5.370
REMARK INTER:                  -4.887
REMARK INTRA:                  -0.483
REMARK UNBOUND:                -0.622
REMARK SMILES CCCCCCCCC(=O)[O-]
REMARK SMILES IDX 6 1 7 2 8 3 9 4 10 5 11 6 5 7 4 8 3 9 2 10 1 11
REMARK H PARENT
REMARK Flexibility Score: inf
ROOT
ATOM      1  C   UNL     1       3.242  -2.102  -5.166  1.00  0.00     0.000 C 
ENDROOT
BRANCH   1   2
ATOM      2  C   UNL     1       3.714  -0.948  -4.267  1.00  0.00     0.006 C 
BRANCH   2   3
ATOM      3  C   UNL     1       2.747   0.244  -4.298  1.00  0.00     0.053 C 
BRANCH   3   4
ATOM      4  C   UNL     1       3.162   1.273  -5.304  1.00  0.00     0.041 C 
ATOM      5  O   UNL     1       2.544   2.368  -5.383  1.00  0.00    -0.550 OA
ATOM      6  O   UNL     1       4.213   1.012  -6.175  1.00  0.00    -0.550 OA
ENDBRANCH   3   4
ENDBRANCH   2   3
ENDBRANCH   1   2
BRANCH   1   7
ATOM      7  C   UNL     1       4.303  -2.534  -6.191  1.00  0.00     0.000 C 
BRANCH   7   8
ATOM      8  C   UNL     1       3.790  -2.540  -7.648  1.00  0.00    -0.000 C 
BRANCH   8   9
ATOM      9  C   UNL     1       2.443  -1.810  -7.790  1.00  0.00    -0.000 C 
BRANCH   9  10
ATOM     10  C   UNL     1       1.429  -2.600  -8.632  1.00  0.00    -0.003 C 
ATOM     11  C   UNL     1       0.151  -1.810  -8.912  1.00  0.00     0.004 C 
ENDBRANCH   9  10
ENDBRANCH   8   9
ENDBRANCH   7   8
ENDBRANCH   1   7
TORSDOF 7
ENDMDL
MODEL 7
REMARK VINA RESULT:    -3.206     21.353     22.547
REMARK INTER + INTRA:          -5.140
REMARK INTER:                  -4.395
REMARK INTRA:                  -0.745
REMARK UNBOUND:                -0.622
REMARK SMILES CCCCCCCCC(=O)[O-]
REMARK SMILES IDX 6 1 7 2 8 3 9 4 10 5 11 6 5 7 4 8 3 9 2 10 1 11
REMARK H PARENT
REMARK Flexibility Score: inf
ROOT
ATOM      1  C   UNL     1     -13.676 -12.414   4.310  1.00  0.00     0.000 C 
ENDROOT
BRANCH   1   2
ATOM      2  C   UNL     1     -12.878 -13.709   4.526  1.00  0.00     0.006 C 
BRANCH   2   3
ATOM      3  C   UNL     1     -11.418 -13.574   4.074  1.00  0.00     0.053 C 
BRANCH   3   4
ATOM      4  C   UNL     1     -10.480 -13.480   5.238  1.00  0.00     0.041 C 
ATOM      5  O   UNL     1     -10.921 -13.218   6.389  1.00  0.00    -0.550 OA
ATOM      6  O   UNL     1      -9.114 -13.654   5.049  1.00  0.00    -0.550 OA
ENDBRANCH   3   4
ENDBRANCH   2   3
ENDBRANCH   1   2
BRANCH   1   7
ATOM      7  C   UNL     1     -12.915 -11.378   3.466  1.00  0.00     0.000 C 
BRANCH   7   8
ATOM      8  C   UNL     1     -12.763 -10.007   4.160  1.00  0.00    -0.000 C 
BRANCH   8   9
ATOM      9  C   UNL     1     -11.512  -9.946   5.054  1.00  0.00    -0.000 C 
BRANCH   9  10
ATOM     10  C   UNL     1     -11.856  -9.775   6.541  1.00  0.00    -0.003 C 
ATOM     11  C   UNL     1     -13.358  -9.637   6.788  1.00  0.00     0.004 C 
ENDBRANCH   9  10
ENDBRANCH   8   9
ENDBRANCH   7   8
ENDBRANCH   1   7
TORSDOF 7
ENDMDL
MODEL 8
REMARK VINA RESULT:    -3.155     20.942     21.565
REMARK INTER + INTRA:          -5.068
REMARK INTER:                  -4.749
REMARK INTRA:                  -0.319
REMARK UNBOUND:                -0.622
REMARK SMILES CCCCCCCCC(=O)[O-]
REMARK SMILES IDX 6 1 7 2 8 3 9 4 10 5 11 6 5 7 4 8 3 9 2 10 1 11
REMARK H PARENT
REMARK Flexibility Score: inf
ROOT
ATOM      1  C   UNL     1     -13.936 -10.886   3.540  1.00  0.00     0.000 C 
ENDROOT
BRANCH   1   2
ATOM      2  C   UNL     1     -13.351  -9.749   4.392  1.00  0.00     0.006 C 
BRANCH   2   3
ATOM      3  C   UNL     1     -11.889 -10.007   4.779  1.00  0.00     0.053 C 
BRANCH   3   4
ATOM      4  C   UNL     1     -11.742 -10.297   6.242  1.00  0.00     0.041 C 
ATOM      5  O   UNL     1     -11.625 -11.485   6.644  1.00  0.00    -0.550 OA
ATOM      6  O   UNL     1     -11.762  -9.257   7.164  1.00  0.00    -0.550 OA
ENDBRANCH   3   4
ENDBRANCH   2   3
ENDBRANCH   1   2
BRANCH   1   7
ATOM      7  C   UNL     1     -12.868 -11.881   3.056  1.00  0.00     0.000 C 
BRANCH   7   8
ATOM      8  C   UNL     1     -13.201 -12.533   1.697  1.00  0.00    -0.000 C 
BRANCH   8   9
ATOM      9  C   UNL     1     -13.252 -11.502   0.557  1.00  0.00    -0.000 C 
BRANCH   9  10
ATOM     10  C   UNL     1     -12.959 -12.124  -0.817  1.00  0.00    -0.003 C 
ATOM     11  C   UNL     1     -13.805 -11.516  -1.934  1.00  0.00     0.004 C 
ENDBRANCH   9  10
ENDBRANCH   8   9
ENDBRANCH   7   8
ENDBRANCH   1   7
TORSDOF 7
ENDMDL
MODEL 9
REMARK VINA RESULT:    -3.134     21.024     21.676
REMARK INTER + INTRA:          -5.039
REMARK INTER:                  -4.599
REMARK INTRA:                  -0.439
REMARK UNBOUND:                -0.622
REMARK SMILES CCCCCCCCC(=O)[O-]
REMARK SMILES IDX 6 1 7 2 8 3 9 4 10 5 11 6 5 7 4 8 3 9 2 10 1 11
REMARK H PARENT
REMARK Flexibility Score: inf
ROOT
ATOM      1  C   UNL     1     -14.186 -10.906   4.017  1.00  0.00     0.000 C 
ENDROOT
BRANCH   1   2
ATOM      2  C   UNL     1     -13.451  -9.850   4.856  1.00  0.00     0.006 C 
BRANCH   2   3
ATOM      3  C   UNL     1     -11.926  -9.969   4.733  1.00  0.00     0.053 C 
BRANCH   3   4
ATOM      4  C   UNL     1     -11.373 -11.019   5.646  1.00  0.00     0.041 C 
ATOM      5  O   UNL     1     -11.431 -10.867   6.896  1.00  0.00    -0.550 OA
ATOM      6  O   UNL     1     -10.766 -12.152   5.119  1.00  0.00    -0.550 OA
ENDBRANCH   3   4
ENDBRANCH   2   3
ENDBRANCH   1   2
BRANCH   1   7
ATOM      7  C   UNL     1     -13.563 -11.103   2.625  1.00  0.00     0.000 C 
BRANCH   7   8
ATOM      8  C   UNL     1     -13.222 -12.575   2.302  1.00  0.00    -0.000 C 
BRANCH   8   9
ATOM      9  C   UNL     1     -12.871 -12.775   0.818  1.00  0.00    -0.000 C 
BRANCH   9  10
ATOM     10  C   UNL     1     -13.214 -11.549  -0.041  1.00  0.00    -0.003 C 
ATOM     11  C   UNL     1     -13.480 -11.906  -1.503  1.00  0.00     0.004 C 
ENDBRANCH   9  10
ENDBRANCH   8   9
ENDBRANCH   7   8
ENDBRANCH   1   7
TORSDOF 7
ENDMDL
