MODEL 1
REMARK VINA RESULT:    -3.261      0.000      0.000
REMARK INTER + INTRA:          -3.918
REMARK INTER:                  -3.833
REMARK INTRA:                  -0.085
REMARK UNBOUND:                -0.085
REMARK SMILES CCCCC(=O)[O-]
REMARK SMILES IDX 4 1 5 2 6 3 7 4 3 5 2 6 1 7
REMARK H PARENT
REMARK Flexibility Score: inf
ROOT
ATOM      1  C   UNL     1      37.954  41.168  62.005  1.00  0.00     0.053 C 
ENDROOT
BRANCH   1   2
ATOM      2  C   UNL     1      38.406  39.956  61.248  1.00  0.00     0.041 C 
ATOM      3  O   UNL     1      37.742  38.889  61.306  1.00  0.00    -0.550 OA
ATOM      4  O   UNL     1      39.580  39.997  60.505  1.00  0.00    -0.550 OA
ENDBRANCH   1   2
BRANCH   1   5
ATOM      5  C   UNL     1      39.114  41.835  62.757  1.00  0.00     0.006 C 
BRANCH   5   6
ATOM      6  C   UNL     1      39.148  43.355  62.545  1.00  0.00    -0.003 C 
ATOM      7  C   UNL     1      38.476  43.743  61.232  1.00  0.00     0.004 C 
ENDBRANCH   5   6
ENDBRANCH   1   5
TORSDOF 3
ENDMDL
MODEL 2
REMARK VINA RESULT:    -3.168     18.747     19.215
REMARK INTER + INTRA:          -3.808
REMARK INTER:                  -3.762
REMARK INTRA:                  -0.046
REMARK UNBOUND:                -0.085
REMARK SMILES CCCCC(=O)[O-]
REMARK SMILES IDX 4 1 5 2 6 3 7 4 3 5 2 6 1 7
REMARK H PARENT
REMARK Flexibility Score: inf
ROOT
ATOM      1  C   UNL     1      33.875  26.147  71.228  1.00  0.00     0.053 C 
ENDROOT
BRANCH   1   2
ATOM      2  C   UNL     1      32.454  25.900  70.824  1.00  0.00     0.041 C 
ATOM      3  O   UNL     1      32.192  25.108  69.881  1.00  0.00    -0.550 OA
ATOM      4  O   UNL     1      31.420  26.570  71.467  1.00  0.00    -0.550 OA
ENDBRANCH   1   2
BRANCH   1   5
ATOM      5  C   UNL     1      34.865  25.449  70.286  1.00  0.00     0.006 C 
BRANCH   5   6
ATOM      6  C   UNL     1      35.462  24.178  70.907  1.00  0.00    -0.003 C 
ATOM      7  C   UNL     1      36.984  24.176  70.801  1.00  0.00     0.004 C 
ENDBRANCH   5   6
ENDBRANCH   1   5
TORSDOF 3
ENDMDL
MODEL 3
REMARK VINA RESULT:    -3.130      2.280      3.296
REMARK INTER + INTRA:          -3.764
REMARK INTER:                  -3.703
REMARK INTRA:                  -0.062
REMARK UNBOUND:                -0.085
REMARK SMILES CCCCC(=O)[O-]
REMARK SMILES IDX 4 1 5 2 6 3 7 4 3 5 2 6 1 7
REMARK H PARENT
REMARK Flexibility Score: inf
ROOT
ATOM      1  C   UNL     1      37.894  40.675  62.046  1.00  0.00     0.053 C 
ENDROOT
BRANCH   1   2
ATOM      2  C   UNL     1      38.302  42.113  61.949  1.00  0.00     0.041 C 
ATOM      3  O   UNL     1      39.024  42.628  62.842  1.00  0.00    -0.550 OA
ATOM      4  O   UNL     1      37.856  42.893  60.889  1.00  0.00    -0.550 OA
ENDBRANCH   1   2
BRANCH   1   5
ATOM      5  C   UNL     1      38.500  39.834  60.914  1.00  0.00     0.006 C 
BRANCH   5   6
ATOM      6  C   UNL     1      39.952  40.227  60.611  1.00  0.00    -0.003 C 
ATOM      7  C   UNL     1      40.196  40.318  59.107  1.00  0.00     0.004 C 
ENDBRANCH   5   6
ENDBRANCH   1   5
TORSDOF 3
ENDMDL
MODEL 4
REMARK VINA RESULT:    -3.119     18.302     19.047
REMARK INTER + INTRA:          -3.751
REMARK INTER:                  -3.726
REMARK INTRA:                  -0.025
REMARK UNBOUND:                -0.085
REMARK SMILES CCCCC(=O)[O-]
REMARK SMILES IDX 4 1 5 2 6 3 7 4 3 5 2 6 1 7
REMARK H PARENT
REMARK Flexibility Score: inf
ROOT
ATOM      1  C   UNL     1      35.677  24.227  70.930  1.00  0.00     0.053 C 
ENDROOT
BRANCH   1   2
ATOM      2  C   UNL     1      37.156  24.157  70.698  1.00  0.00     0.041 C 
ATOM      3  O   UNL     1      37.620  24.256  69.533  1.00  0.00    -0.550 OA
ATOM      4  O   UNL     1      38.018  23.948  71.768  1.00  0.00    -0.550 OA
ENDBRANCH   1   2
BRANCH   1   5
ATOM      5  C   UNL     1      35.029  25.363  70.126  1.00  0.00     0.006 C 
BRANCH   5   6
ATOM      6  C   UNL     1      34.382  26.421  71.032  1.00  0.00    -0.003 C 
ATOM      7  C   UNL     1      32.868  26.247  71.088  1.00  0.00     0.004 C 
ENDBRANCH   5   6
ENDBRANCH   1   5
TORSDOF 3
ENDMDL
MODEL 5
REMARK VINA RESULT:    -3.106      1.535      1.896
REMARK INTER + INTRA:          -3.736
REMARK INTER:                  -3.619
REMARK INTRA:                  -0.117
REMARK UNBOUND:                -0.085
REMARK SMILES CCCCC(=O)[O-]
REMARK SMILES IDX 4 1 5 2 6 3 7 4 3 5 2 6 1 7
REMARK H PARENT
REMARK Flexibility Score: inf
ROOT
ATOM      1  C   UNL     1      38.470  39.951  61.181  1.00  0.00     0.053 C 
ENDROOT
BRANCH   1   2
ATOM      2  C   UNL     1      39.790  40.187  60.514  1.00  0.00     0.041 C 
ATOM      3  O   UNL     1      40.825  40.373  61.205  1.00  0.00    -0.550 OA
ATOM      4  O   UNL     1      39.871  40.233  59.127  1.00  0.00    -0.550 OA
ENDBRANCH   1   2
BRANCH   1   5
ATOM      5  C   UNL     1      38.053  41.142  62.055  1.00  0.00     0.006 C 
BRANCH   5   6
ATOM      6  C   UNL     1      38.104  42.471  61.288  1.00  0.00    -0.003 C 
ATOM      7  C   UNL     1      38.898  43.521  62.059  1.00  0.00     0.004 C 
ENDBRANCH   5   6
ENDBRANCH   1   5
TORSDOF 3
ENDMDL
MODEL 6
REMARK VINA RESULT:    -3.075     18.701     19.342
REMARK INTER + INTRA:          -3.700
REMARK INTER:                  -3.682
REMARK INTRA:                  -0.018
REMARK UNBOUND:                -0.085
REMARK SMILES CCCCC(=O)[O-]
REMARK SMILES IDX 4 1 5 2 6 3 7 4 3 5 2 6 1 7
REMARK H PARENT
REMARK Flexibility Score: inf
ROOT
ATOM      1  C   UNL     1      36.016  24.625  69.956  1.00  0.00     0.053 C 
ENDROOT
BRANCH   1   2
ATOM      2  C   UNL     1      34.751  25.163  70.553  1.00  0.00     0.041 C 
ATOM      3  O   UNL     1      33.726  24.437  70.625  1.00  0.00    -0.550 OA
ATOM      4  O   UNL     1      34.697  26.477  71.000  1.00  0.00    -0.550 OA
ENDBRANCH   1   2
BRANCH   1   5
ATOM      5  C   UNL     1      36.878  23.905  71.001  1.00  0.00     0.006 C 
BRANCH   5   6
ATOM      6  C   UNL     1      38.376  24.183  70.812  1.00  0.00    -0.003 C 
ATOM      7  C   UNL     1      39.098  24.250  72.155  1.00  0.00     0.004 C 
ENDBRANCH   5   6
ENDBRANCH   1   5
TORSDOF 3
ENDMDL
MODEL 7
REMARK VINA RESULT:    -3.020      2.172      3.210
REMARK INTER + INTRA:          -3.635
REMARK INTER:                  -3.527
REMARK INTRA:                  -0.108
REMARK UNBOUND:                -0.085
REMARK SMILES CCCCC(=O)[O-]
REMARK SMILES IDX 4 1 5 2 6 3 7 4 3 5 2 6 1 7
REMARK H PARENT
REMARK Flexibility Score: inf
ROOT
ATOM      1  C   UNL     1      38.229  42.820  60.975  1.00  0.00     0.053 C 
ENDROOT
BRANCH   1   2
ATOM      2  C   UNL     1      39.367  42.990  60.014  1.00  0.00     0.041 C 
ATOM      3  O   UNL     1      39.381  42.350  58.930  1.00  0.00    -0.550 OA
ATOM      4  O   UNL     1      40.426  43.830  60.332  1.00  0.00    -0.550 OA
ENDBRANCH   1   2
BRANCH   1   5
ATOM      5  C   UNL     1      38.718  42.387  62.364  1.00  0.00     0.006 C 
BRANCH   5   6
ATOM      6  C   UNL     1      38.942  40.871  62.456  1.00  0.00    -0.003 C 
ATOM      7  C   UNL     1      37.802  40.104  61.793  1.00  0.00     0.004 C 
ENDBRANCH   5   6
ENDBRANCH   1   5
TORSDOF 3
ENDMDL
MODEL 8
REMARK VINA RESULT:    -2.989     18.371     19.268
REMARK INTER + INTRA:          -3.598
REMARK INTER:                  -3.503
REMARK INTRA:                  -0.095
REMARK UNBOUND:                -0.085
REMARK SMILES CCCCC(=O)[O-]
REMARK SMILES IDX 4 1 5 2 6 3 7 4 3 5 2 6 1 7
REMARK H PARENT
REMARK Flexibility Score: inf
ROOT
ATOM      1  C   UNL     1      32.087  26.397  71.014  1.00  0.00     0.053 C 
ENDROOT
BRANCH   1   2
ATOM      2  C   UNL     1      31.513  25.141  70.432  1.00  0.00     0.041 C 
ATOM      3  O   UNL     1      31.588  24.924  69.194  1.00  0.00    -0.550 OA
ATOM      4  O   UNL     1      30.866  24.226  71.254  1.00  0.00    -0.550 OA
ENDBRANCH   1   2
BRANCH   1   5
ATOM      5  C   UNL     1      33.474  26.159  71.626  1.00  0.00     0.006 C 
BRANCH   5   6
ATOM      6  C   UNL     1      34.599  26.298  70.590  1.00  0.00    -0.003 C 
ATOM      7  C   UNL     1      35.428  25.020  70.503  1.00  0.00     0.004 C 
ENDBRANCH   5   6
ENDBRANCH   1   5
TORSDOF 3
ENDMDL
MODEL 9
REMARK VINA RESULT:    -2.941     18.057     18.683
REMARK INTER + INTRA:          -3.542
REMARK INTER:                  -3.439
REMARK INTRA:                  -0.103
REMARK UNBOUND:                -0.085
REMARK SMILES CCCCC(=O)[O-]
REMARK SMILES IDX 4 1 5 2 6 3 7 4 3 5 2 6 1 7
REMARK H PARENT
REMARK Flexibility Score: inf
ROOT
ATOM      1  C   UNL     1      35.327  24.909  70.760  1.00  0.00     0.053 C 
ENDROOT
BRANCH   1   2
ATOM      2  C   UNL     1      36.058  24.581  69.493  1.00  0.00     0.041 C 
ATOM      3  O   UNL     1      35.464  24.643  68.385  1.00  0.00    -0.550 OA
ATOM      4  O   UNL     1      37.386  24.175  69.541  1.00  0.00    -0.550 OA
ENDBRANCH   1   2
BRANCH   1   5
ATOM      5  C   UNL     1      34.651  26.285  70.687  1.00  0.00     0.006 C 
BRANCH   5   6
ATOM      6  C   UNL     1      33.169  26.226  71.083  1.00  0.00    -0.003 C 
ATOM      7  C   UNL     1      32.426  25.162  70.281  1.00  0.00     0.004 C 
ENDBRANCH   5   6
ENDBRANCH   1   5
TORSDOF 3
ENDMDL
