MODEL 1
REMARK VINA RESULT:    -4.477      0.000      0.000
REMARK INTER + INTRA:          -5.548
REMARK INTER:                  -5.524
REMARK INTRA:                  -0.024
REMARK UNBOUND:                -0.024
REMARK SMILES O=C1c2c(O)cc(O)cc2O[C@H](c2cc(O)c(O)c(O)c2)[C@@H]1O
REMARK SMILES IDX 12 1 22 2 2 3 1 4 3 5 4 6 6 7 7 8 9 9 10 10 11 11 13 12
REMARK SMILES IDX 14 13 15 14 21 15 17 16 19 17 16 18 18 20 20 22 23 24 5 26
REMARK SMILES IDX 8 28
REMARK H PARENT 16 19 18 21 20 23 23 25 5 27 8 29
REMARK Flexibility Score: inf
ROOT
ATOM      1  C   UNL     1       5.888  12.497   8.381  1.00  0.00     0.240 C 
ATOM      2  C   UNL     1       6.100  11.242   9.261  1.00  0.00     0.231 C 
ATOM      3  C   UNL     1       4.861  10.391   9.245  1.00  0.00     0.202 C 
ATOM      4  O   UNL     1       4.948   9.151   9.038  1.00  0.00    -0.291 OA
ATOM      5  C   UNL     1       3.550  11.056   9.414  1.00  0.00     0.105 A 
ATOM      6  C   UNL     1       2.377  10.395   9.859  1.00  0.00     0.133 A 
ATOM      7  C   UNL     1       1.166  11.094   9.905  1.00  0.00     0.093 A 
ATOM      8  C   UNL     1       1.110  12.449   9.571  1.00  0.00     0.123 A 
ATOM      9  C   UNL     1       2.273  13.116   9.175  1.00  0.00     0.093 A 
ATOM     10  C   UNL     1       3.486  12.428   9.089  1.00  0.00     0.138 A 
ATOM     11  O   UNL     1       4.629  13.122   8.663  1.00  0.00    -0.481 OA
ENDROOT
BRANCH   1  12
ATOM     12  C   UNL     1       6.018  12.194   6.897  1.00  0.00     0.003 A 
ATOM     13  C   UNL     1       5.157  11.290   6.250  1.00  0.00     0.058 A 
ATOM     14  C   UNL     1       5.315  11.001   4.887  1.00  0.00     0.161 A 
ATOM     15  C   UNL     1       7.054  12.789   6.158  1.00  0.00     0.058 A 
ATOM     16  C   UNL     1       6.347  11.612   4.156  1.00  0.00     0.200 A 
ATOM     17  C   UNL     1       7.219  12.506   4.798  1.00  0.00     0.161 A 
BRANCH  14  18
ATOM     18  O   UNL     1       4.450  10.107   4.259  1.00  0.00    -0.504 OA
ATOM     19  H   UNL     1       3.822   9.513   4.788  1.00  0.00     0.293 HD
ENDBRANCH  14  18
BRANCH  16  20
ATOM     20  O   UNL     1       6.517  11.338   2.799  1.00  0.00    -0.502 OA
ATOM     21  H   UNL     1       5.879  10.743   2.284  1.00  0.00     0.293 HD
ENDBRANCH  16  20
BRANCH  17  22
ATOM     22  O   UNL     1       8.258  13.125   4.101  1.00  0.00    -0.504 OA
ATOM     23  H   UNL     1       8.993  13.637   4.574  1.00  0.00     0.293 HD
ENDBRANCH  17  22
ENDBRANCH   1  12
BRANCH   2  24
ATOM     24  O   UNL     1       7.214  10.502   8.831  1.00  0.00    -0.381 OA
ATOM     25  H   UNL     1       7.611  11.002   8.070  1.00  0.00     0.211 HD
ENDBRANCH   2  24
BRANCH   6  26
ATOM     26  O   UNL     1       2.371   9.067  10.293  1.00  0.00    -0.507 OA
ATOM     27  H   UNL     1       2.915   8.333   9.862  1.00  0.00     0.293 HD
ENDBRANCH   6  26
BRANCH   8  28
ATOM     28  O   UNL     1      -0.107  13.124   9.641  1.00  0.00    -0.508 OA
ATOM     29  H   UNL     1      -0.962  12.651   9.912  1.00  0.00     0.293 HD
ENDBRANCH   8  28
TORSDOF 7
ENDMDL
MODEL 2
REMARK VINA RESULT:    -3.096      1.607      6.216
REMARK INTER + INTRA:          -3.843
REMARK INTER:                  -3.936
REMARK INTRA:                   0.093
REMARK UNBOUND:                -0.024
REMARK SMILES O=C1c2c(O)cc(O)cc2O[C@H](c2cc(O)c(O)c(O)c2)[C@@H]1O
REMARK SMILES IDX 12 1 22 2 2 3 1 4 3 5 4 6 6 7 7 8 9 9 10 10 11 11 13 12
REMARK SMILES IDX 14 13 15 14 21 15 17 16 19 17 16 18 18 20 20 22 23 24 5 26
REMARK SMILES IDX 8 28
REMARK H PARENT 16 19 18 21 20 23 23 25 5 27 8 29
REMARK Flexibility Score: inf
ROOT
ATOM      1  C   UNL     1       3.479   9.748   6.597  1.00  0.00     0.240 C 
ATOM      2  C   UNL     1       4.473   8.841   7.361  1.00  0.00     0.231 C 
ATOM      3  C   UNL     1       5.698   9.626   7.735  1.00  0.00     0.202 C 
ATOM      4  O   UNL     1       6.149   9.575   8.911  1.00  0.00    -0.291 OA
ATOM      5  C   UNL     1       6.314  10.497   6.710  1.00  0.00     0.105 A 
ATOM      6  C   UNL     1       7.664  10.932   6.745  1.00  0.00     0.133 A 
ATOM      7  C   UNL     1       8.128  11.824   5.771  1.00  0.00     0.093 A 
ATOM      8  C   UNL     1       7.293  12.248   4.735  1.00  0.00     0.123 A 
ATOM      9  C   UNL     1       5.975  11.786   4.671  1.00  0.00     0.093 A 
ATOM     10  C   UNL     1       5.481  10.922   5.652  1.00  0.00     0.138 A 
ATOM     11  O   UNL     1       4.146  10.499   5.572  1.00  0.00    -0.481 OA
ENDROOT
BRANCH   1  12
ATOM     12  C   UNL     1       2.705  10.671   7.523  1.00  0.00     0.003 A 
ATOM     13  C   UNL     1       3.355  11.480   8.472  1.00  0.00     0.058 A 
ATOM     14  C   UNL     1       2.619  12.300   9.338  1.00  0.00     0.161 A 
ATOM     15  C   UNL     1       1.301  10.683   7.471  1.00  0.00     0.058 A 
ATOM     16  C   UNL     1       1.216  12.313   9.268  1.00  0.00     0.200 A 
ATOM     17  C   UNL     1       0.558  11.499   8.332  1.00  0.00     0.161 A 
BRANCH  14  18
ATOM     18  O   UNL     1       3.278  13.101  10.269  1.00  0.00    -0.504 OA
ATOM     19  H   UNL     1       3.815  12.701  11.029  1.00  0.00     0.293 HD
ENDBRANCH  14  18
BRANCH  16  20
ATOM     20  O   UNL     1       0.468  13.125  10.121  1.00  0.00    -0.502 OA
ATOM     21  H   UNL     1      -0.118  13.877   9.776  1.00  0.00     0.293 HD
ENDBRANCH  16  20
BRANCH  17  22
ATOM     22  O   UNL     1      -0.834  11.484   8.241  1.00  0.00    -0.504 OA
ATOM     23  H   UNL     1      -1.418  12.070   8.826  1.00  0.00     0.293 HD
ENDBRANCH  17  22
ENDBRANCH   1  12
BRANCH   2  24
ATOM     24  O   UNL     1       3.875   8.283   8.504  1.00  0.00    -0.381 OA
ATOM     25  H   UNL     1       4.078   8.896   9.258  1.00  0.00     0.211 HD
ENDBRANCH   2  24
BRANCH   6  26
ATOM     26  O   UNL     1       8.582  10.483   7.698  1.00  0.00    -0.507 OA
ATOM     27  H   UNL     1       9.560  10.324   7.504  1.00  0.00     0.293 HD
ENDBRANCH   6  26
BRANCH   8  28
ATOM     28  O   UNL     1       7.785  13.124   3.770  1.00  0.00    -0.508 OA
ATOM     29  H   UNL     1       7.247  13.361   2.945  1.00  0.00     0.293 HD
ENDBRANCH   8  28
TORSDOF 7
ENDMDL
MODEL 3
REMARK VINA RESULT:    -2.341      1.504      5.968
REMARK INTER + INTRA:          -2.912
REMARK INTER:                  -3.373
REMARK INTRA:                   0.462
REMARK UNBOUND:                -0.024
REMARK SMILES O=C1c2c(O)cc(O)cc2O[C@H](c2cc(O)c(O)c(O)c2)[C@@H]1O
REMARK SMILES IDX 12 1 22 2 2 3 1 4 3 5 4 6 6 7 7 8 9 9 10 10 11 11 13 12
REMARK SMILES IDX 14 13 15 14 21 15 17 16 19 17 16 18 18 20 20 22 23 24 5 26
REMARK SMILES IDX 8 28
REMARK H PARENT 16 19 18 21 20 23 23 25 5 27 8 29
REMARK Flexibility Score: inf
ROOT
ATOM      1  C   UNL     1       4.185   9.566   7.035  1.00  0.00     0.240 C 
ATOM      2  C   UNL     1       5.394   9.089   7.874  1.00  0.00     0.231 C 
ATOM      3  C   UNL     1       6.416  10.188   7.967  1.00  0.00     0.202 C 
ATOM      4  O   UNL     1       6.914  10.495   9.083  1.00  0.00    -0.291 OA
ATOM      5  C   UNL     1       6.766  10.927   6.735  1.00  0.00     0.105 A 
ATOM      6  C   UNL     1       7.977  11.645   6.558  1.00  0.00     0.133 A 
ATOM      7  C   UNL     1       8.177  12.383   5.385  1.00  0.00     0.093 A 
ATOM      8  C   UNL     1       7.223  12.375   4.365  1.00  0.00     0.123 A 
ATOM      9  C   UNL     1       6.049  11.632   4.517  1.00  0.00     0.093 A 
ATOM     10  C   UNL     1       5.814  10.916   5.693  1.00  0.00     0.138 A 
ATOM     11  O   UNL     1       4.613  10.202   5.823  1.00  0.00    -0.481 OA
ENDROOT
BRANCH   1  12
ATOM     12  C   UNL     1       3.254  10.475   7.821  1.00  0.00     0.003 A 
ATOM     13  C   UNL     1       1.865  10.473   7.606  1.00  0.00     0.058 A 
ATOM     14  C   UNL     1       1.029  11.342   8.320  1.00  0.00     0.161 A 
ATOM     15  C   UNL     1       3.794  11.378   8.752  1.00  0.00     0.058 A 
ATOM     16  C   UNL     1       1.579  12.232   9.257  1.00  0.00     0.200 A 
ATOM     17  C   UNL     1       2.967  12.249   9.469  1.00  0.00     0.161 A 
BRANCH  14  18
ATOM     18  O   UNL     1      -0.348  11.325   8.099  1.00  0.00    -0.504 OA
ATOM     19  H   UNL     1      -0.741  11.010   7.219  1.00  0.00     0.293 HD
ENDBRANCH  14  18
BRANCH  16  20
ATOM     20  O   UNL     1       0.761  13.103   9.978  1.00  0.00    -0.502 OA
ATOM     21  H   UNL     1       0.020  13.636   9.538  1.00  0.00     0.293 HD
ENDBRANCH  16  20
BRANCH  17  22
ATOM     22  O   UNL     1       3.545  13.125  10.388  1.00  0.00    -0.504 OA
ATOM     23  H   UNL     1       3.025  13.887  10.807  1.00  0.00     0.293 HD
ENDBRANCH  17  22
ENDBRANCH   1  12
BRANCH   2  24
ATOM     24  O   UNL     1       4.992   8.677   9.156  1.00  0.00    -0.381 OA
ATOM     25  H   UNL     1       5.259   7.725   9.245  1.00  0.00     0.211 HD
ENDBRANCH   2  24
BRANCH   6  26
ATOM     26  O   UNL     1       9.014  11.630   7.494  1.00  0.00    -0.507 OA
ATOM     27  H   UNL     1       9.509  12.456   7.798  1.00  0.00     0.293 HD
ENDBRANCH   6  26
BRANCH   8  28
ATOM     28  O   UNL     1       7.456  13.106   3.202  1.00  0.00    -0.508 OA
ATOM     29  H   UNL     1       6.789  13.113   2.438  1.00  0.00     0.293 HD
ENDBRANCH   8  28
TORSDOF 7
ENDMDL
