MODEL 1
REMARK VINA RESULT:    -4.047      0.000      0.000
REMARK INTER + INTRA:          -4.165
REMARK INTER:                  -4.165
REMARK INTRA:                   0.000
REMARK UNBOUND:                 0.000
REMARK SMILES Oc1ccc2[nH]ccc2c1
REMARK SMILES IDX 3 1 4 2 5 3 9 4 8 5 7 6 6 7 10 8 2 9 1 11
REMARK H PARENT 6 10 1 12
REMARK Flexibility Score: inf
ROOT
ATOM      1  C   UNL     1       7.689 -32.293  16.364  1.00  0.00     0.048 A 
ATOM      2  C   UNL     1       9.020 -31.861  16.511  1.00  0.00     0.030 A 
ATOM      3  C   UNL     1       9.826 -31.840  15.374  1.00  0.00     0.046 A 
ATOM      4  C   UNL     1       9.353 -32.223  14.148  1.00  0.00     0.003 A 
ATOM      5  C   UNL     1      10.386 -32.087  13.247  1.00  0.00     0.028 A 
ATOM      6  C   UNL     1      11.460 -31.615  13.994  1.00  0.00     0.083 A 
ATOM      7  N   UNL     1      11.114 -31.466  15.292  1.00  0.00    -0.361 N 
ATOM      8  C   UNL     1       8.040 -32.656  13.968  1.00  0.00     0.056 A 
ATOM      9  C   UNL     1       7.197 -32.690  15.098  1.00  0.00     0.116 A 
ATOM     10  H   UNL     1      11.724 -31.128  16.069  1.00  0.00     0.166 HD
ENDROOT
BRANCH   9  11
ATOM     11  O   UNL     1       5.875 -33.114  14.980  1.00  0.00    -0.508 OA
ATOM     12  H   UNL     1       5.374 -33.043  14.102  1.00  0.00     0.293 HD
ENDBRANCH   9  11
TORSDOF 1
ENDMDL
MODEL 2
REMARK VINA RESULT:    -4.021      2.054      2.757
REMARK INTER + INTRA:          -4.139
REMARK INTER:                  -4.139
REMARK INTRA:                   0.000
REMARK UNBOUND:                 0.000
REMARK SMILES Oc1ccc2[nH]ccc2c1
REMARK SMILES IDX 3 1 4 2 5 3 9 4 8 5 7 6 6 7 10 8 2 9 1 11
REMARK H PARENT 6 10 1 12
REMARK Flexibility Score: inf
ROOT
ATOM      1  C   UNL     1       9.744 -31.043  18.219  1.00  0.00     0.048 A 
ATOM      2  C   UNL     1      10.379 -30.777  16.992  1.00  0.00     0.030 A 
ATOM      3  C   UNL     1       9.999 -31.533  15.885  1.00  0.00     0.046 A 
ATOM      4  C   UNL     1       9.041 -32.507  15.972  1.00  0.00     0.003 A 
ATOM      5  C   UNL     1       8.900 -33.060  14.719  1.00  0.00     0.028 A 
ATOM      6  C   UNL     1       9.805 -32.374  13.915  1.00  0.00     0.083 A 
ATOM      7  N   UNL     1      10.473 -31.442  14.632  1.00  0.00    -0.361 N 
ATOM      8  C   UNL     1       8.393 -32.796  17.172  1.00  0.00     0.056 A 
ATOM      9  C   UNL     1       8.754 -32.049  18.313  1.00  0.00     0.116 A 
ATOM     10  H   UNL     1      11.207 -30.788  14.280  1.00  0.00     0.166 HD
ENDROOT
BRANCH   9  11
ATOM     11  O   UNL     1       8.141 -32.294  19.540  1.00  0.00    -0.508 OA
ATOM     12  H   UNL     1       8.004 -31.554  20.219  1.00  0.00     0.293 HD
ENDBRANCH   9  11
TORSDOF 1
ENDMDL
MODEL 3
REMARK VINA RESULT:    -4.011      2.603      3.606
REMARK INTER + INTRA:          -4.128
REMARK INTER:                  -4.128
REMARK INTRA:                   0.000
REMARK UNBOUND:                 0.000
REMARK SMILES Oc1ccc2[nH]ccc2c1
REMARK SMILES IDX 3 1 4 2 5 3 9 4 8 5 7 6 6 7 10 8 2 9 1 11
REMARK H PARENT 6 10 1 12
REMARK Flexibility Score: inf
ROOT
ATOM      1  C   UNL     1       9.129 -31.876  16.277  1.00  0.00     0.048 A 
ATOM      2  C   UNL     1       7.774 -32.254  16.267  1.00  0.00     0.030 A 
ATOM      3  C   UNL     1       7.210 -32.624  15.047  1.00  0.00     0.046 A 
ATOM      4  C   UNL     1       7.939 -32.624  13.888  1.00  0.00     0.003 A 
ATOM      5  C   UNL     1       7.101 -33.035  12.875  1.00  0.00     0.028 A 
ATOM      6  C   UNL     1       5.875 -33.268  13.490  1.00  0.00     0.083 A 
ATOM      7  N   UNL     1       5.947 -33.016  14.816  1.00  0.00    -0.361 N 
ATOM      8  C   UNL     1       9.283 -32.254  13.863  1.00  0.00     0.056 A 
ATOM      9  C   UNL     1       9.885 -31.874  15.081  1.00  0.00     0.116 A 
ATOM     10  H   UNL     1       5.177 -33.108  15.515  1.00  0.00     0.166 HD
ENDROOT
BRANCH   9  11
ATOM     11  O   UNL     1      11.224 -31.495  15.118  1.00  0.00    -0.508 OA
ATOM     12  H   UNL     1      11.966 -32.181  15.193  1.00  0.00     0.293 HD
ENDBRANCH   9  11
TORSDOF 1
ENDMDL
MODEL 4
REMARK VINA RESULT:    -3.870      2.718      3.745
REMARK INTER + INTRA:          -3.983
REMARK INTER:                  -3.983
REMARK INTRA:                   0.000
REMARK UNBOUND:                 0.000
REMARK SMILES Oc1ccc2[nH]ccc2c1
REMARK SMILES IDX 3 1 4 2 5 3 9 4 8 5 7 6 6 7 10 8 2 9 1 11
REMARK H PARENT 6 10 1 12
REMARK Flexibility Score: inf
ROOT
ATOM      1  C   UNL     1      11.415 -30.781  16.120  1.00  0.00     0.048 A 
ATOM      2  C   UNL     1      10.239 -31.035  16.850  1.00  0.00     0.030 A 
ATOM      3  C   UNL     1       9.209 -31.718  16.208  1.00  0.00     0.046 A 
ATOM      4  C   UNL     1       9.322 -32.136  14.908  1.00  0.00     0.003 A 
ATOM      5  C   UNL     1       8.146 -32.772  14.576  1.00  0.00     0.028 A 
ATOM      6  C   UNL     1       7.360 -32.705  15.723  1.00  0.00     0.083 A 
ATOM      7  N   UNL     1       8.014 -32.061  16.716  1.00  0.00    -0.361 N 
ATOM      8  C   UNL     1      10.471 -31.900  14.157  1.00  0.00     0.056 A 
ATOM      9  C   UNL     1      11.534 -31.210  14.777  1.00  0.00     0.116 A 
ATOM     10  H   UNL     1       7.659 -31.871  17.679  1.00  0.00     0.166 HD
ENDROOT
BRANCH   9  11
ATOM     11  O   UNL     1      12.709 -30.946  14.076  1.00  0.00    -0.508 OA
ATOM     12  H   UNL     1      13.016 -31.542  13.315  1.00  0.00     0.293 HD
ENDBRANCH   9  11
TORSDOF 1
ENDMDL
MODEL 5
REMARK VINA RESULT:    -3.786      2.810      4.254
REMARK INTER + INTRA:          -3.897
REMARK INTER:                  -3.897
REMARK INTRA:                   0.000
REMARK UNBOUND:                 0.000
REMARK SMILES Oc1ccc2[nH]ccc2c1
REMARK SMILES IDX 3 1 4 2 5 3 9 4 8 5 7 6 6 7 10 8 2 9 1 11
REMARK H PARENT 6 10 1 12
REMARK Flexibility Score: inf
ROOT
ATOM      1  C   UNL     1      10.454 -31.895  14.158  1.00  0.00     0.048 A 
ATOM      2  C   UNL     1       9.293 -32.288  14.851  1.00  0.00     0.030 A 
ATOM      3  C   UNL     1       9.178 -31.919  16.190  1.00  0.00     0.046 A 
ATOM      4  C   UNL     1      10.153 -31.196  16.824  1.00  0.00     0.003 A 
ATOM      5  C   UNL     1       9.740 -30.998  18.123  1.00  0.00     0.028 A 
ATOM      6  C   UNL     1       8.502 -31.627  18.210  1.00  0.00     0.083 A 
ATOM      7  N   UNL     1       8.163 -32.188  17.027  1.00  0.00    -0.361 N 
ATOM      8  C   UNL     1      11.314 -30.792  16.168  1.00  0.00     0.056 A 
ATOM      9  C   UNL     1      11.463 -31.149  14.811  1.00  0.00     0.116 A 
ATOM     10  H   UNL     1       7.291 -32.720  16.812  1.00  0.00     0.166 HD
ENDROOT
BRANCH   9  11
ATOM     11  O   UNL     1      12.602 -30.772  14.103  1.00  0.00    -0.508 OA
ATOM     12  H   UNL     1      12.575 -30.619  13.101  1.00  0.00     0.293 HD
ENDBRANCH   9  11
TORSDOF 1
ENDMDL
MODEL 6
REMARK VINA RESULT:    -3.757      1.683      3.054
REMARK INTER + INTRA:          -3.867
REMARK INTER:                  -3.867
REMARK INTRA:                   0.000
REMARK UNBOUND:                 0.000
REMARK SMILES Oc1ccc2[nH]ccc2c1
REMARK SMILES IDX 3 1 4 2 5 3 9 4 8 5 7 6 6 7 10 8 2 9 1 11
REMARK H PARENT 6 10 1 12
REMARK Flexibility Score: inf
ROOT
ATOM      1  C   UNL     1       9.146 -33.203  14.152  1.00  0.00     0.048 A 
ATOM      2  C   UNL     1       9.688 -32.071  14.787  1.00  0.00     0.030 A 
ATOM      3  C   UNL     1       9.398 -31.880  16.137  1.00  0.00     0.046 A 
ATOM      4  C   UNL     1       8.612 -32.758  16.836  1.00  0.00     0.003 A 
ATOM      5  C   UNL     1       8.521 -32.289  18.128  1.00  0.00     0.028 A 
ATOM      6  C   UNL     1       9.276 -31.121  18.145  1.00  0.00     0.083 A 
ATOM      7  N   UNL     1       9.810 -30.876  16.928  1.00  0.00    -0.361 N 
ATOM      8  C   UNL     1       8.060 -33.888  16.236  1.00  0.00     0.056 A 
ATOM      9  C   UNL     1       8.334 -34.111  14.871  1.00  0.00     0.116 A 
ATOM     10  H   UNL     1      10.417 -30.069  16.660  1.00  0.00     0.166 HD
ENDROOT
BRANCH   9  11
ATOM     11  O   UNL     1       7.809 -35.224  14.218  1.00  0.00    -0.508 OA
ATOM     12  H   UNL     1       6.829 -35.274  13.962  1.00  0.00     0.293 HD
ENDBRANCH   9  11
TORSDOF 1
ENDMDL
MODEL 7
REMARK VINA RESULT:    -3.681      2.603      4.021
REMARK INTER + INTRA:          -3.789
REMARK INTER:                  -3.789
REMARK INTRA:                   0.000
REMARK UNBOUND:                 0.000
REMARK SMILES Oc1ccc2[nH]ccc2c1
REMARK SMILES IDX 3 1 4 2 5 3 9 4 8 5 7 6 6 7 10 8 2 9 1 11
REMARK H PARENT 6 10 1 12
REMARK Flexibility Score: inf
ROOT
ATOM      1  C   UNL     1      10.756 -31.880  13.687  1.00  0.00     0.048 A 
ATOM      2  C   UNL     1       9.618 -32.483  13.122  1.00  0.00     0.030 A 
ATOM      3  C   UNL     1       8.500 -32.654  13.937  1.00  0.00     0.046 A 
ATOM      4  C   UNL     1       8.495 -32.253  15.246  1.00  0.00     0.003 A 
ATOM      5  C   UNL     1       7.257 -32.561  15.766  1.00  0.00     0.028 A 
ATOM      6  C   UNL     1       6.558 -33.147  14.717  1.00  0.00     0.083 A 
ATOM      7  N   UNL     1       7.320 -33.202  13.601  1.00  0.00    -0.361 N 
ATOM      8  C   UNL     1       9.606 -31.654  15.836  1.00  0.00     0.056 A 
ATOM      9  C   UNL     1      10.755 -31.465  15.039  1.00  0.00     0.116 A 
ATOM     10  H   UNL     1       7.046 -33.591  12.672  1.00  0.00     0.166 HD
ENDROOT
BRANCH   9  11
ATOM     11  O   UNL     1      11.895 -30.871  15.574  1.00  0.00    -0.508 OA
ATOM     12  H   UNL     1      11.943 -30.600  16.550  1.00  0.00     0.293 HD
ENDBRANCH   9  11
TORSDOF 1
ENDMDL
MODEL 8
REMARK VINA RESULT:    -3.562      1.903      2.378
REMARK INTER + INTRA:          -3.666
REMARK INTER:                  -3.666
REMARK INTRA:                   0.000
REMARK UNBOUND:                 0.000
REMARK SMILES Oc1ccc2[nH]ccc2c1
REMARK SMILES IDX 3 1 4 2 5 3 9 4 8 5 7 6 6 7 10 8 2 9 1 11
REMARK H PARENT 6 10 1 12
REMARK Flexibility Score: inf
ROOT
ATOM      1  C   UNL     1       7.845 -33.402  16.242  1.00  0.00     0.048 A 
ATOM      2  C   UNL     1       8.247 -34.028  15.047  1.00  0.00     0.030 A 
ATOM      3  C   UNL     1       9.294 -33.450  14.331  1.00  0.00     0.046 A 
ATOM      4  C   UNL     1       9.921 -32.312  14.764  1.00  0.00     0.003 A 
ATOM      5  C   UNL     1      10.899 -32.005  13.843  1.00  0.00     0.028 A 
ATOM      6  C   UNL     1      10.812 -33.000  12.875  1.00  0.00     0.083 A 
ATOM      7  N   UNL     1       9.831 -33.881  13.177  1.00  0.00    -0.361 N 
ATOM      8  C   UNL     1       9.547 -31.668  15.941  1.00  0.00     0.056 A 
ATOM      9  C   UNL     1       8.490 -32.226  16.691  1.00  0.00     0.116 A 
ATOM     10  H   UNL     1       9.550 -34.721  12.625  1.00  0.00     0.166 HD
ENDROOT
BRANCH   9  11
ATOM     11  O   UNL     1       8.072 -31.627  17.877  1.00  0.00    -0.508 OA
ATOM     12  H   UNL     1       8.146 -32.107  18.767  1.00  0.00     0.293 HD
ENDBRANCH   9  11
TORSDOF 1
ENDMDL
MODEL 9
REMARK VINA RESULT:    -3.485      2.208      3.313
REMARK INTER + INTRA:          -3.586
REMARK INTER:                  -3.586
REMARK INTRA:                   0.000
REMARK UNBOUND:                 0.000
REMARK SMILES Oc1ccc2[nH]ccc2c1
REMARK SMILES IDX 3 1 4 2 5 3 9 4 8 5 7 6 6 7 10 8 2 9 1 11
REMARK H PARENT 6 10 1 12
REMARK Flexibility Score: inf
ROOT
ATOM      1  C   UNL     1       8.346 -33.904  14.894  1.00  0.00     0.048 A 
ATOM      2  C   UNL     1       8.050 -33.844  16.268  1.00  0.00     0.030 A 
ATOM      3  C   UNL     1       8.624 -32.815  17.013  1.00  0.00     0.046 A 
ATOM      4  C   UNL     1       9.450 -31.885  16.440  1.00  0.00     0.003 A 
ATOM      5  C   UNL     1       9.843 -31.017  17.434  1.00  0.00     0.028 A 
ATOM      6  C   UNL     1       9.219 -31.478  18.589  1.00  0.00     0.083 A 
ATOM      7  N   UNL     1       8.475 -32.576  18.326  1.00  0.00    -0.361 N 
ATOM      8  C   UNL     1       9.763 -31.916  15.083  1.00  0.00     0.056 A 
ATOM      9  C   UNL     1       9.199 -32.945  14.299  1.00  0.00     0.116 A 
ATOM     10  H   UNL     1       7.904 -33.124  19.007  1.00  0.00     0.166 HD
ENDROOT
BRANCH   9  11
ATOM     11  O   UNL     1       9.476 -33.026  12.936  1.00  0.00    -0.508 OA
ATOM     12  H   UNL     1      10.310 -32.608  12.540  1.00  0.00     0.293 HD
ENDBRANCH   9  11
TORSDOF 1
ENDMDL
