MODEL 1
REMARK VINA RESULT:    -4.971      0.000      0.000
REMARK INTER + INTRA:          -5.701
REMARK INTER:                  -5.552
REMARK INTRA:                  -0.148
REMARK UNBOUND:                -0.148
REMARK SMILES O=C([O-])C=Cc1ccccc1
REMARK SMILES IDX 4 1 5 2 2 3 1 4 3 5 6 6 7 7 11 8 8 9 10 10 9 11
REMARK H PARENT
REMARK Flexibility Score: inf
ROOT
ATOM      1  C   UNL     1     120.532 117.848 123.524  1.00  0.00     0.025 C 
ATOM      2  C   UNL     1     119.773 118.206 124.570  1.00  0.00     0.010 C 
ENDROOT
BRANCH   1   3
ATOM      3  C   UNL     1     121.874 117.266 123.690  1.00  0.00     0.064 C 
ATOM      4  O   UNL     1     122.553 116.898 122.695  1.00  0.00    -0.545 OA
ATOM      5  O   UNL     1     122.400 117.118 124.967  1.00  0.00    -0.545 OA
ENDBRANCH   1   3
BRANCH   2   6
ATOM      6  C   UNL     1     118.413 118.785 124.442  1.00  0.00    -0.026 A 
ATOM      7  C   UNL     1     118.048 119.383 123.223  1.00  0.00     0.008 A 
ATOM      8  C   UNL     1     117.461 118.726 125.482  1.00  0.00     0.008 A 
ATOM      9  C   UNL     1     116.774 119.933 123.054  1.00  0.00     0.001 A 
ATOM     10  C   UNL     1     116.187 119.278 125.306  1.00  0.00     0.001 A 
ATOM     11  C   UNL     1     115.845 119.884 124.096  1.00  0.00     0.000 A 
ENDBRANCH   2   6
TORSDOF 2
ENDMDL
MODEL 2
REMARK VINA RESULT:    -4.904      5.050      6.586
REMARK INTER + INTRA:          -5.626
REMARK INTER:                  -5.479
REMARK INTRA:                  -0.147
REMARK UNBOUND:                -0.148
REMARK SMILES O=C([O-])C=Cc1ccccc1
REMARK SMILES IDX 4 1 5 2 2 3 1 4 3 5 6 6 7 7 11 8 8 9 10 10 9 11
REMARK H PARENT
REMARK Flexibility Score: inf
ROOT
ATOM      1  C   UNL     1     114.426 119.886 126.948  1.00  0.00     0.025 C 
ATOM      2  C   UNL     1     114.504 119.684 125.625  1.00  0.00     0.010 C 
ENDROOT
BRANCH   1   3
ATOM      3  C   UNL     1     113.138 120.012 127.650  1.00  0.00     0.064 C 
ATOM      4  O   UNL     1     112.088 119.496 127.184  1.00  0.00    -0.545 OA
ATOM      5  O   UNL     1     113.079 120.715 128.846  1.00  0.00    -0.545 OA
ENDBRANCH   1   3
BRANCH   2   6
ATOM      6  C   UNL     1     115.783 119.541 124.886  1.00  0.00    -0.026 A 
ATOM      7  C   UNL     1     116.899 119.024 125.567  1.00  0.00     0.008 A 
ATOM      8  C   UNL     1     115.912 119.869 123.520  1.00  0.00     0.008 A 
ATOM      9  C   UNL     1     118.121 118.863 124.908  1.00  0.00     0.001 A 
ATOM     10  C   UNL     1     117.138 119.704 122.866  1.00  0.00     0.001 A 
ATOM     11  C   UNL     1     118.242 119.206 123.560  1.00  0.00     0.000 A 
ENDBRANCH   2   6
TORSDOF 2
ENDMDL
MODEL 3
REMARK VINA RESULT:    -4.767      2.781      5.609
REMARK INTER + INTRA:          -5.472
REMARK INTER:                  -5.323
REMARK INTRA:                  -0.149
REMARK UNBOUND:                -0.148
REMARK SMILES O=C([O-])C=Cc1ccccc1
REMARK SMILES IDX 4 1 5 2 2 3 1 4 3 5 6 6 7 7 11 8 8 9 10 10 9 11
REMARK H PARENT
REMARK Flexibility Score: inf
ROOT
ATOM      1  C   UNL     1     119.388 118.606 123.149  1.00  0.00     0.025 C 
ATOM      2  C   UNL     1     120.144 117.977 124.060  1.00  0.00     0.010 C 
ENDROOT
BRANCH   1   3
ATOM      3  C   UNL     1     117.990 118.987 123.415  1.00  0.00     0.064 C 
ATOM      4  O   UNL     1     117.652 119.502 124.514  1.00  0.00    -0.545 OA
ATOM      5  O   UNL     1     117.027 118.772 122.439  1.00  0.00    -0.545 OA
ENDBRANCH   1   3
BRANCH   2   6
ATOM      6  C   UNL     1     121.558 117.589 123.832  1.00  0.00    -0.026 A 
ATOM      7  C   UNL     1     122.197 118.032 122.660  1.00  0.00     0.008 A 
ATOM      8  C   UNL     1     122.295 116.823 124.759  1.00  0.00     0.008 A 
ATOM      9  C   UNL     1     123.530 117.698 122.408  1.00  0.00     0.001 A 
ATOM     10  C   UNL     1     123.630 116.492 124.502  1.00  0.00     0.001 A 
ATOM     11  C   UNL     1     124.246 116.926 123.326  1.00  0.00     0.000 A 
ENDBRANCH   2   6
TORSDOF 2
ENDMDL
MODEL 4
REMARK VINA RESULT:    -4.751      6.393      8.090
REMARK INTER + INTRA:          -5.455
REMARK INTER:                  -5.311
REMARK INTRA:                  -0.144
REMARK UNBOUND:                -0.148
REMARK SMILES O=C([O-])C=Cc1ccccc1
REMARK SMILES IDX 4 1 5 2 2 3 1 4 3 5 6 6 7 7 11 8 8 9 10 10 9 11
REMARK H PARENT
REMARK Flexibility Score: inf
ROOT
ATOM      1  C   UNL     1     111.761 119.543 127.314  1.00  0.00     0.025 C 
ATOM      2  C   UNL     1     113.100 119.582 127.256  1.00  0.00     0.010 C 
ENDROOT
BRANCH   1   3
ATOM      3  C   UNL     1     111.027 119.586 128.590  1.00  0.00     0.064 C 
ATOM      4  O   UNL     1     111.328 118.817 129.542  1.00  0.00    -0.545 OA
ATOM      5  O   UNL     1     109.984 120.488 128.746  1.00  0.00    -0.545 OA
ENDBRANCH   1   3
BRANCH   2   6
ATOM      6  C   UNL     1     113.872 119.552 125.990  1.00  0.00    -0.026 A 
ATOM      7  C   UNL     1     113.400 118.755 124.932  1.00  0.00     0.008 A 
ATOM      8  C   UNL     1     115.041 120.318 125.794  1.00  0.00     0.008 A 
ATOM      9  C   UNL     1     114.090 118.704 123.718  1.00  0.00     0.001 A 
ATOM     10  C   UNL     1     115.727 120.263 124.576  1.00  0.00     0.001 A 
ATOM     11  C   UNL     1     115.254 119.454 123.540  1.00  0.00     0.000 A 
ENDBRANCH   2   6
TORSDOF 2
ENDMDL
MODEL 5
REMARK VINA RESULT:    -4.734      2.762      5.670
REMARK INTER + INTRA:          -5.436
REMARK INTER:                  -5.296
REMARK INTRA:                  -0.139
REMARK UNBOUND:                -0.148
REMARK SMILES O=C([O-])C=Cc1ccccc1
REMARK SMILES IDX 4 1 5 2 2 3 1 4 3 5 6 6 7 7 11 8 8 9 10 10 9 11
REMARK H PARENT
REMARK Flexibility Score: inf
ROOT
ATOM      1  C   UNL     1     119.242 118.655 123.286  1.00  0.00     0.025 C 
ATOM      2  C   UNL     1     120.067 118.069 124.165  1.00  0.00     0.010 C 
ENDROOT
BRANCH   1   3
ATOM      3  C   UNL     1     117.876 119.071 123.645  1.00  0.00     0.064 C 
ATOM      4  O   UNL     1     117.087 119.537 122.781  1.00  0.00    -0.545 OA
ATOM      5  O   UNL     1     117.451 118.950 124.962  1.00  0.00    -0.545 OA
ENDBRANCH   1   3
BRANCH   2   6
ATOM      6  C   UNL     1     121.452 117.646 123.842  1.00  0.00    -0.026 A 
ATOM      7  C   UNL     1     122.140 116.835 124.762  1.00  0.00     0.008 A 
ATOM      8  C   UNL     1     122.092 117.998 122.635  1.00  0.00     0.008 A 
ATOM      9  C   UNL     1     123.443 116.406 124.496  1.00  0.00     0.001 A 
ATOM     10  C   UNL     1     123.396 117.564 122.374  1.00  0.00     0.001 A 
ATOM     11  C   UNL     1     124.073 116.773 123.304  1.00  0.00     0.000 A 
ENDBRANCH   2   6
TORSDOF 2
ENDMDL
MODEL 6
REMARK VINA RESULT:    -4.732      6.470      8.096
REMARK INTER + INTRA:          -5.433
REMARK INTER:                  -5.303
REMARK INTRA:                  -0.130
REMARK UNBOUND:                -0.148
REMARK SMILES O=C([O-])C=Cc1ccccc1
REMARK SMILES IDX 4 1 5 2 2 3 1 4 3 5 6 6 7 7 11 8 8 9 10 10 9 11
REMARK H PARENT
REMARK Flexibility Score: inf
ROOT
ATOM      1  C   UNL     1     111.752 119.606 127.450  1.00  0.00     0.025 C 
ATOM      2  C   UNL     1     112.999 119.146 127.278  1.00  0.00     0.010 C 
ENDROOT
BRANCH   1   3
ATOM      3  C   UNL     1     111.014 119.426 128.711  1.00  0.00     0.064 C 
ATOM      4  O   UNL     1     110.357 120.370 129.224  1.00  0.00    -0.545 OA
ATOM      5  O   UNL     1     111.045 118.193 129.349  1.00  0.00    -0.545 OA
ENDBRANCH   1   3
BRANCH   2   6
ATOM      6  C   UNL     1     113.777 119.319 126.026  1.00  0.00    -0.026 A 
ATOM      7  C   UNL     1     114.810 120.272 126.002  1.00  0.00     0.008 A 
ATOM      8  C   UNL     1     113.544 118.540 124.873  1.00  0.00     0.008 A 
ATOM      9  C   UNL     1     115.575 120.463 124.848  1.00  0.00     0.001 A 
ATOM     10  C   UNL     1     114.314 118.735 123.720  1.00  0.00     0.001 A 
ATOM     11  C   UNL     1     115.325 119.698 123.707  1.00  0.00     0.000 A 
ENDBRANCH   2   6
TORSDOF 2
ENDMDL
MODEL 7
REMARK VINA RESULT:    -4.729      1.328      2.357
REMARK INTER + INTRA:          -5.430
REMARK INTER:                  -5.294
REMARK INTRA:                  -0.136
REMARK UNBOUND:                -0.148
REMARK SMILES O=C([O-])C=Cc1ccccc1
REMARK SMILES IDX 4 1 5 2 2 3 1 4 3 5 6 6 7 7 11 8 8 9 10 10 9 11
REMARK H PARENT
REMARK Flexibility Score: inf
ROOT
ATOM      1  C   UNL     1     122.213 118.036 123.591  1.00  0.00     0.025 C 
ATOM      2  C   UNL     1     121.003 117.527 123.315  1.00  0.00     0.010 C 
ENDROOT
BRANCH   1   3
ATOM      3  C   UNL     1     123.449 117.479 123.017  1.00  0.00     0.064 C 
ATOM      4  O   UNL     1     124.444 118.213 122.774  1.00  0.00    -0.545 OA
ATOM      5  O   UNL     1     123.519 116.121 122.736  1.00  0.00    -0.545 OA
ENDBRANCH   1   3
BRANCH   2   6
ATOM      6  C   UNL     1     119.736 118.068 123.864  1.00  0.00    -0.026 A 
ATOM      7  C   UNL     1     119.493 117.942 125.244  1.00  0.00     0.008 A 
ATOM      8  C   UNL     1     118.783 118.733 123.064  1.00  0.00     0.008 A 
ATOM      9  C   UNL     1     118.317 118.445 125.807  1.00  0.00     0.001 A 
ATOM     10  C   UNL     1     117.607 119.234 123.634  1.00  0.00     0.001 A 
ATOM     11  C   UNL     1     117.373 119.088 125.003  1.00  0.00     0.000 A 
ENDBRANCH   2   6
TORSDOF 2
ENDMDL
MODEL 8
REMARK VINA RESULT:    -4.705      3.757      5.271
REMARK INTER + INTRA:          -5.403
REMARK INTER:                  -5.272
REMARK INTRA:                  -0.132
REMARK UNBOUND:                -0.148
REMARK SMILES O=C([O-])C=Cc1ccccc1
REMARK SMILES IDX 4 1 5 2 2 3 1 4 3 5 6 6 7 7 11 8 8 9 10 10 9 11
REMARK H PARENT
REMARK Flexibility Score: inf
ROOT
ATOM      1  C   UNL     1     115.909 120.246 124.281  1.00  0.00     0.025 C 
ATOM      2  C   UNL     1     115.368 119.314 125.079  1.00  0.00     0.010 C 
ENDROOT
BRANCH   1   3
ATOM      3  C   UNL     1     116.832 119.903 123.186  1.00  0.00     0.064 C 
ATOM      4  O   UNL     1     116.764 118.790 122.600  1.00  0.00    -0.545 OA
ATOM      5  O   UNL     1     117.795 120.823 122.793  1.00  0.00    -0.545 OA
ENDBRANCH   1   3
BRANCH   2   6
ATOM      6  C   UNL     1     114.427 119.621 126.184  1.00  0.00    -0.026 A 
ATOM      7  C   UNL     1     113.113 119.125 126.106  1.00  0.00     0.008 A 
ATOM      8  C   UNL     1     114.808 120.358 127.325  1.00  0.00     0.008 A 
ATOM      9  C   UNL     1     112.195 119.381 127.128  1.00  0.00     0.001 A 
ATOM     10  C   UNL     1     113.884 120.611 128.345  1.00  0.00     0.001 A 
ATOM     11  C   UNL     1     112.578 120.126 128.246  1.00  0.00     0.000 A 
ENDBRANCH   2   6
TORSDOF 2
ENDMDL
MODEL 9
REMARK VINA RESULT:    -4.596      7.012      8.905
REMARK INTER + INTRA:          -5.281
REMARK INTER:                  -5.150
REMARK INTRA:                  -0.131
REMARK UNBOUND:                -0.148
REMARK SMILES O=C([O-])C=Cc1ccccc1
REMARK SMILES IDX 4 1 5 2 2 3 1 4 3 5 6 6 7 7 11 8 8 9 10 10 9 11
REMARK H PARENT
REMARK Flexibility Score: inf
ROOT
ATOM      1  C   UNL     1     112.567 119.329 126.754  1.00  0.00     0.025 C 
ATOM      2  C   UNL     1     112.277 119.956 127.902  1.00  0.00     0.010 C 
ENDROOT
BRANCH   1   3
ATOM      3  C   UNL     1     113.917 119.352 126.164  1.00  0.00     0.064 C 
ATOM      4  O   UNL     1     114.340 118.395 125.464  1.00  0.00    -0.545 OA
ATOM      5  O   UNL     1     114.739 120.450 126.386  1.00  0.00    -0.545 OA
ENDBRANCH   1   3
BRANCH   2   6
ATOM      6  C   UNL     1     110.933 119.945 128.531  1.00  0.00    -0.026 A 
ATOM      7  C   UNL     1     110.786 119.342 129.793  1.00  0.00     0.008 A 
ATOM      8  C   UNL     1     109.808 120.546 127.930  1.00  0.00     0.008 A 
ATOM      9  C   UNL     1     109.541 119.317 130.428  1.00  0.00     0.001 A 
ATOM     10  C   UNL     1     108.564 120.518 128.570  1.00  0.00     0.001 A 
ATOM     11  C   UNL     1     108.430 119.901 129.816  1.00  0.00     0.000 A 
ENDBRANCH   2   6
TORSDOF 2
ENDMDL
