MODEL 1
REMARK VINA RESULT:    -6.798      0.000      0.000
REMARK INTER + INTRA:          -7.407
REMARK INTER:                  -7.195
REMARK INTRA:                  -0.212
REMARK UNBOUND:                -0.212
REMARK SMILES CC1=CC[C@@H]2[C@H]3[C@@H](C(C)C)CC[C@]2(C)[C@@H]13
REMARK SMILES IDX 1 1 2 2 3 3 4 4 5 5 6 6 15 7 13 8 12 9 11 10 7 11 14 12 8 13
REMARK SMILES IDX 9 14 10 15
REMARK H PARENT
REMARK Flexibility Score: inf
ROOT
ATOM      1  C   UNL     1      13.519  29.359  21.195  1.00  0.00     0.039 C 
ATOM      2  C   UNL     1      13.381  30.831  21.440  1.00  0.00    -0.073 C 
ATOM      3  C   UNL     1      14.473  31.631  21.563  1.00  0.00    -0.027 C 
ATOM      4  C   UNL     1      14.269  33.132  21.786  1.00  0.00     0.031 C 
ATOM      5  C   UNL     1      12.746  33.469  21.872  1.00  0.00     0.003 C 
ATOM      6  C   UNL     1      12.089  32.426  22.815  1.00  0.00     0.004 C 
ATOM      7  C   UNL     1      12.010  31.500  21.579  1.00  0.00     0.024 C 
ATOM      8  C   UNL     1      11.948  32.791  20.729  1.00  0.00    -0.022 C 
ATOM      9  C   UNL     1      10.478  33.313  20.703  1.00  0.00     0.008 C 
ATOM     10  C   UNL     1       9.945  33.661  22.119  1.00  0.00     0.005 C 
ATOM     11  C   UNL     1      10.650  32.842  23.244  1.00  0.00    -0.005 C 
ATOM     12  C   UNL     1      12.549  32.763  19.305  1.00  0.00     0.012 C 
ENDROOT
BRANCH  11  13
ATOM     13  C   UNL     1      10.623  33.522  24.646  1.00  0.00    -0.014 C 
ATOM     14  C   UNL     1       9.509  34.568  24.818  1.00  0.00     0.007 C 
ATOM     15  C   UNL     1      10.562  32.484  25.777  1.00  0.00     0.007 C 
ENDBRANCH  11  13
TORSDOF 1
ENDMDL
MODEL 2
REMARK VINA RESULT:    -6.509      0.957      1.442
REMARK INTER + INTRA:          -7.102
REMARK INTER:                  -6.681
REMARK INTRA:                  -0.421
REMARK UNBOUND:                -0.212
REMARK SMILES CC1=CC[C@@H]2[C@H]3[C@@H](C(C)C)CC[C@]2(C)[C@@H]13
REMARK SMILES IDX 1 1 2 2 3 3 4 4 5 5 6 6 15 7 13 8 12 9 11 10 7 11 14 12 8 13
REMARK SMILES IDX 9 14 10 15
REMARK H PARENT
REMARK Flexibility Score: inf
ROOT
ATOM      1  C   UNL     1      12.144  29.555  20.721  1.00  0.00     0.039 C 
ATOM      2  C   UNL     1      12.121  30.961  21.241  1.00  0.00    -0.073 C 
ATOM      3  C   UNL     1      13.271  31.623  21.532  1.00  0.00    -0.027 C 
ATOM      4  C   UNL     1      13.187  33.067  22.036  1.00  0.00     0.031 C 
ATOM      5  C   UNL     1      11.695  33.514  22.162  1.00  0.00     0.003 C 
ATOM      6  C   UNL     1      10.924  32.372  22.877  1.00  0.00     0.004 C 
ATOM      7  C   UNL     1      10.807  31.709  21.486  1.00  0.00     0.024 C 
ATOM      8  C   UNL     1      10.880  33.138  20.898  1.00  0.00    -0.022 C 
ATOM      9  C   UNL     1       9.460  33.782  20.951  1.00  0.00     0.008 C 
ATOM     10  C   UNL     1       8.913  33.901  22.398  1.00  0.00     0.005 C 
ATOM     11  C   UNL     1       9.512  32.824  23.356  1.00  0.00    -0.005 C 
ATOM     12  C   UNL     1      11.521  33.328  19.504  1.00  0.00     0.012 C 
ENDROOT
BRANCH  11  13
ATOM     13  C   UNL     1       9.497  33.225  24.862  1.00  0.00    -0.014 C 
ATOM     14  C   UNL     1      10.660  32.641  25.681  1.00  0.00     0.007 C 
ATOM     15  C   UNL     1       9.430  34.749  25.041  1.00  0.00     0.007 C 
ENDBRANCH  11  13
TORSDOF 1
ENDMDL
MODEL 3
REMARK VINA RESULT:    -6.470      1.214      1.963
REMARK INTER + INTRA:          -7.060
REMARK INTER:                  -6.792
REMARK INTRA:                  -0.269
REMARK UNBOUND:                -0.212
REMARK SMILES CC1=CC[C@@H]2[C@H]3[C@@H](C(C)C)CC[C@]2(C)[C@@H]13
REMARK SMILES IDX 1 1 2 2 3 3 4 4 5 5 6 6 15 7 13 8 12 9 11 10 7 11 14 12 8 13
REMARK SMILES IDX 9 14 10 15
REMARK H PARENT
REMARK Flexibility Score: inf
ROOT
ATOM      1  C   UNL     1      15.803  31.984  22.388  1.00  0.00     0.039 C 
ATOM      2  C   UNL     1      14.557  32.481  21.718  1.00  0.00    -0.073 C 
ATOM      3  C   UNL     1      14.612  33.421  20.738  1.00  0.00    -0.027 C 
ATOM      4  C   UNL     1      13.308  33.872  20.072  1.00  0.00     0.031 C 
ATOM      5  C   UNL     1      12.086  33.142  20.716  1.00  0.00     0.003 C 
ATOM      6  C   UNL     1      12.260  33.211  22.257  1.00  0.00     0.004 C 
ATOM      7  C   UNL     1      13.170  31.969  22.114  1.00  0.00     0.024 C 
ATOM      8  C   UNL     1      12.341  31.619  20.856  1.00  0.00    -0.022 C 
ATOM      9  C   UNL     1      11.037  30.883  21.293  1.00  0.00     0.008 C 
ATOM     10  C   UNL     1      10.141  31.755  22.213  1.00  0.00     0.005 C 
ATOM     11  C   UNL     1      10.958  32.815  23.016  1.00  0.00    -0.005 C 
ATOM     12  C   UNL     1      13.041  30.864  19.701  1.00  0.00     0.012 C 
ENDROOT
BRANCH  11  13
ATOM     13  C   UNL     1      10.132  34.059  23.463  1.00  0.00    -0.014 C 
ATOM     14  C   UNL     1       8.964  34.410  22.526  1.00  0.00     0.007 C 
ATOM     15  C   UNL     1       9.633  33.917  24.908  1.00  0.00     0.007 C 
ENDBRANCH  11  13
TORSDOF 1
ENDMDL
MODEL 4
REMARK VINA RESULT:    -6.355      2.084      5.181
REMARK INTER + INTRA:          -6.938
REMARK INTER:                  -6.699
REMARK INTRA:                  -0.239
REMARK UNBOUND:                -0.212
REMARK SMILES CC1=CC[C@@H]2[C@H]3[C@@H](C(C)C)CC[C@]2(C)[C@@H]13
REMARK SMILES IDX 1 1 2 2 3 3 4 4 5 5 6 6 15 7 13 8 12 9 11 10 7 11 14 12 8 13
REMARK SMILES IDX 9 14 10 15
REMARK H PARENT
REMARK Flexibility Score: inf
ROOT
ATOM      1  C   UNL     1       7.249  30.723  24.573  1.00  0.00     0.039 C 
ATOM      2  C   UNL     1       8.002  31.994  24.321  1.00  0.00    -0.073 C 
ATOM      3  C   UNL     1       7.672  33.147  24.959  1.00  0.00    -0.027 C 
ATOM      4  C   UNL     1       8.494  34.409  24.681  1.00  0.00     0.031 C 
ATOM      5  C   UNL     1       9.602  34.115  23.620  1.00  0.00     0.003 C 
ATOM      6  C   UNL     1       8.940  33.321  22.461  1.00  0.00     0.004 C 
ATOM      7  C   UNL     1       9.164  32.059  23.326  1.00  0.00     0.024 C 
ATOM      8  C   UNL     1      10.368  32.806  23.945  1.00  0.00    -0.022 C 
ATOM      9  C   UNL     1      11.603  32.648  23.006  1.00  0.00     0.008 C 
ATOM     10  C   UNL     1      11.360  33.246  21.595  1.00  0.00     0.005 C 
ATOM     11  C   UNL     1       9.850  33.253  21.198  1.00  0.00    -0.005 C 
ATOM     12  C   UNL     1      10.747  32.501  25.413  1.00  0.00     0.012 C 
ENDROOT
BRANCH  11  13
ATOM     13  C   UNL     1       9.471  34.327  20.135  1.00  0.00    -0.014 C 
ATOM     14  C   UNL     1      10.370  34.325  18.888  1.00  0.00     0.007 C 
ATOM     15  C   UNL     1       7.993  34.224  19.730  1.00  0.00     0.007 C 
ENDBRANCH  11  13
TORSDOF 1
ENDMDL
MODEL 5
REMARK VINA RESULT:    -6.328      3.131      4.596
REMARK INTER + INTRA:          -6.910
REMARK INTER:                  -6.667
REMARK INTRA:                  -0.243
REMARK UNBOUND:                -0.212
REMARK SMILES CC1=CC[C@@H]2[C@H]3[C@@H](C(C)C)CC[C@]2(C)[C@@H]13
REMARK SMILES IDX 1 1 2 2 3 3 4 4 5 5 6 6 15 7 13 8 12 9 11 10 7 11 14 12 8 13
REMARK SMILES IDX 9 14 10 15
REMARK H PARENT
REMARK Flexibility Score: inf
ROOT
ATOM      1  C   UNL     1      12.005  32.480  22.643  1.00  0.00     0.039 C 
ATOM      2  C   UNL     1      10.572  32.773  22.973  1.00  0.00    -0.073 C 
ATOM      3  C   UNL     1      10.241  33.657  23.950  1.00  0.00    -0.027 C 
ATOM      4  C   UNL     1       8.760  33.935  24.225  1.00  0.00     0.031 C 
ATOM      5  C   UNL     1       7.859  33.062  23.292  1.00  0.00     0.003 C 
ATOM      6  C   UNL     1       8.419  31.615  23.323  1.00  0.00     0.004 C 
ATOM      7  C   UNL     1       9.419  32.081  22.240  1.00  0.00     0.024 C 
ATOM      8  C   UNL     1       8.346  33.113  21.821  1.00  0.00    -0.022 C 
ATOM      9  C   UNL     1       7.314  32.420  20.879  1.00  0.00     0.008 C 
ATOM     10  C   UNL     1       6.580  31.238  21.566  1.00  0.00     0.005 C 
ATOM     11  C   UNL     1       7.426  30.586  22.704  1.00  0.00    -0.005 C 
ATOM     12  C   UNL     1       8.815  34.462  21.229  1.00  0.00     0.012 C 
ENDROOT
BRANCH  11  13
ATOM     13  C   UNL     1       6.585  29.848  23.788  1.00  0.00    -0.014 C 
ATOM     14  C   UNL     1       6.627  28.315  23.684  1.00  0.00     0.007 C 
ATOM     15  C   UNL     1       6.969  30.298  25.205  1.00  0.00     0.007 C 
ENDBRANCH  11  13
TORSDOF 1
ENDMDL
MODEL 6
REMARK VINA RESULT:    -6.226      1.241      4.498
REMARK INTER + INTRA:          -6.802
REMARK INTER:                  -6.541
REMARK INTRA:                  -0.261
REMARK UNBOUND:                -0.212
REMARK SMILES CC1=CC[C@@H]2[C@H]3[C@@H](C(C)C)CC[C@]2(C)[C@@H]13
REMARK SMILES IDX 1 1 2 2 3 3 4 4 5 5 6 6 15 7 13 8 12 9 11 10 7 11 14 12 8 13
REMARK SMILES IDX 9 14 10 15
REMARK H PARENT
REMARK Flexibility Score: inf
ROOT
ATOM      1  C   UNL     1       9.289  34.254  24.585  1.00  0.00     0.039 C 
ATOM      2  C   UNL     1       9.667  33.302  23.490  1.00  0.00    -0.073 C 
ATOM      3  C   UNL     1       8.898  32.219  23.201  1.00  0.00    -0.027 C 
ATOM      4  C   UNL     1       9.321  31.296  22.055  1.00  0.00     0.031 C 
ATOM      5  C   UNL     1      10.662  31.789  21.424  1.00  0.00     0.003 C 
ATOM      6  C   UNL     1      11.635  32.112  22.589  1.00  0.00     0.004 C 
ATOM      7  C   UNL     1      10.940  33.492  22.660  1.00  0.00     0.024 C 
ATOM      8  C   UNL     1      10.636  33.316  21.154  1.00  0.00    -0.022 C 
ATOM      9  C   UNL     1      11.887  33.747  20.329  1.00  0.00     0.008 C 
ATOM     10  C   UNL     1      13.140  32.890  20.654  1.00  0.00     0.005 C 
ATOM     11  C   UNL     1      13.102  32.296  22.097  1.00  0.00    -0.005 C 
ATOM     12  C   UNL     1       9.350  33.958  20.583  1.00  0.00     0.012 C 
ENDROOT
BRANCH  11  13
ATOM     13  C   UNL     1      13.956  31.006  22.283  1.00  0.00    -0.014 C 
ATOM     14  C   UNL     1      13.820  29.989  21.138  1.00  0.00     0.007 C 
ATOM     15  C   UNL     1      15.435  31.337  22.531  1.00  0.00     0.007 C 
ENDBRANCH  11  13
TORSDOF 1
ENDMDL
MODEL 7
REMARK VINA RESULT:    -6.185      2.092      5.014
REMARK INTER + INTRA:          -6.759
REMARK INTER:                  -6.455
REMARK INTRA:                  -0.304
REMARK UNBOUND:                -0.212
REMARK SMILES CC1=CC[C@@H]2[C@H]3[C@@H](C(C)C)CC[C@]2(C)[C@@H]13
REMARK SMILES IDX 1 1 2 2 3 3 4 4 5 5 6 6 15 7 13 8 12 9 11 10 7 11 14 12 8 13
REMARK SMILES IDX 9 14 10 15
REMARK H PARENT
REMARK Flexibility Score: inf
ROOT
ATOM      1  C   UNL     1       7.218  30.001  22.142  1.00  0.00     0.039 C 
ATOM      2  C   UNL     1       7.740  31.405  22.182  1.00  0.00    -0.073 C 
ATOM      3  C   UNL     1       7.118  32.408  21.507  1.00  0.00    -0.027 C 
ATOM      4  C   UNL     1       7.682  33.828  21.606  1.00  0.00     0.031 C 
ATOM      5  C   UNL     1       8.970  33.843  22.491  1.00  0.00     0.003 C 
ATOM      6  C   UNL     1       9.863  32.658  22.035  1.00  0.00     0.004 C 
ATOM      7  C   UNL     1       9.002  31.774  22.967  1.00  0.00     0.024 C 
ATOM      8  C   UNL     1       8.764  33.050  23.808  1.00  0.00    -0.022 C 
ATOM      9  C   UNL     1       9.975  33.260  24.768  1.00  0.00     0.008 C 
ATOM     10  C   UNL     1      11.314  33.448  24.006  1.00  0.00     0.005 C 
ATOM     11  C   UNL     1      11.310  32.758  22.606  1.00  0.00    -0.005 C 
ATOM     12  C   UNL     1       7.425  33.190  24.569  1.00  0.00     0.012 C 
ENDROOT
BRANCH  11  13
ATOM     13  C   UNL     1      12.310  33.374  21.583  1.00  0.00    -0.014 C 
ATOM     14  C   UNL     1      13.761  32.895  21.752  1.00  0.00     0.007 C 
ATOM     15  C   UNL     1      11.842  33.161  20.136  1.00  0.00     0.007 C 
ENDBRANCH  11  13
TORSDOF 1
ENDMDL
MODEL 8
REMARK VINA RESULT:    -6.128      1.186      2.095
REMARK INTER + INTRA:          -6.698
REMARK INTER:                  -6.419
REMARK INTRA:                  -0.280
REMARK UNBOUND:                -0.212
REMARK SMILES CC1=CC[C@@H]2[C@H]3[C@@H](C(C)C)CC[C@]2(C)[C@@H]13
REMARK SMILES IDX 1 1 2 2 3 3 4 4 5 5 6 6 15 7 13 8 12 9 11 10 7 11 14 12 8 13
REMARK SMILES IDX 9 14 10 15
REMARK H PARENT
REMARK Flexibility Score: inf
ROOT
ATOM      1  C   UNL     1      13.616  28.117  21.212  1.00  0.00     0.039 C 
ATOM      2  C   UNL     1      13.908  29.553  21.528  1.00  0.00    -0.073 C 
ATOM      3  C   UNL     1      14.909  29.897  22.381  1.00  0.00    -0.027 C 
ATOM      4  C   UNL     1      15.178  31.381  22.646  1.00  0.00     0.031 C 
ATOM      5  C   UNL     1      14.159  32.269  21.862  1.00  0.00     0.003 C 
ATOM      6  C   UNL     1      12.747  31.662  22.079  1.00  0.00     0.004 C 
ATOM      7  C   UNL     1      13.088  30.695  20.922  1.00  0.00     0.024 C 
ATOM      8  C   UNL     1      14.020  31.808  20.388  1.00  0.00    -0.022 C 
ATOM      9  C   UNL     1      13.174  32.833  19.572  1.00  0.00     0.008 C 
ATOM     10  C   UNL     1      12.076  33.517  20.430  1.00  0.00     0.005 C 
ATOM     11  C   UNL     1      11.613  32.631  21.628  1.00  0.00    -0.005 C 
ATOM     12  C   UNL     1      15.289  31.393  19.606  1.00  0.00     0.012 C 
ENDROOT
BRANCH  11  13
ATOM     13  C   UNL     1      11.007  33.430  22.821  1.00  0.00    -0.014 C 
ATOM     14  C   UNL     1       9.657  34.098  22.512  1.00  0.00     0.007 C 
ATOM     15  C   UNL     1      10.898  32.564  24.085  1.00  0.00     0.007 C 
ENDBRANCH  11  13
TORSDOF 1
ENDMDL
MODEL 9
REMARK VINA RESULT:    -6.096      1.952      4.015
REMARK INTER + INTRA:          -6.665
REMARK INTER:                  -6.277
REMARK INTRA:                  -0.387
REMARK UNBOUND:                -0.212
REMARK SMILES CC1=CC[C@@H]2[C@H]3[C@@H](C(C)C)CC[C@]2(C)[C@@H]13
REMARK SMILES IDX 1 1 2 2 3 3 4 4 5 5 6 6 15 7 13 8 12 9 11 10 7 11 14 12 8 13
REMARK SMILES IDX 9 14 10 15
REMARK H PARENT
REMARK Flexibility Score: inf
ROOT
ATOM      1  C   UNL     1       8.167  34.731  19.144  1.00  0.00     0.039 C 
ATOM      2  C   UNL     1       8.517  33.662  20.134  1.00  0.00    -0.073 C 
ATOM      3  C   UNL     1       7.931  32.437  20.086  1.00  0.00    -0.027 C 
ATOM      4  C   UNL     1       8.348  31.376  21.109  1.00  0.00     0.031 C 
ATOM      5  C   UNL     1       9.410  31.958  22.096  1.00  0.00     0.003 C 
ATOM      6  C   UNL     1       8.907  33.354  22.554  1.00  0.00     0.004 C 
ATOM      7  C   UNL     1       9.536  33.902  21.252  1.00  0.00     0.024 C 
ATOM      8  C   UNL     1      10.530  32.720  21.342  1.00  0.00    -0.022 C 
ATOM      9  C   UNL     1      11.686  33.101  22.318  1.00  0.00     0.008 C 
ATOM     10  C   UNL     1      11.179  33.393  23.756  1.00  0.00     0.005 C 
ATOM     11  C   UNL     1       9.701  33.893  23.781  1.00  0.00    -0.005 C 
ATOM     12  C   UNL     1      11.090  32.128  20.028  1.00  0.00     0.012 C 
ENDROOT
BRANCH  11  13
ATOM     13  C   UNL     1       8.959  33.636  25.127  1.00  0.00    -0.014 C 
ATOM     14  C   UNL     1       7.530  33.092  24.965  1.00  0.00     0.007 C 
ATOM     15  C   UNL     1       9.774  32.726  26.058  1.00  0.00     0.007 C 
ENDBRANCH  11  13
TORSDOF 1
ENDMDL
