MODEL 1
REMARK VINA RESULT:    -4.249      0.000      0.000
REMARK INTER + INTRA:          -6.863
REMARK INTER:                  -6.484
REMARK INTRA:                  -0.379
REMARK UNBOUND:                -0.379
REMARK SMILES CC1=CCC[C@H](C)C(=O)C[C@H](C(C)C)C(=O)C1
REMARK SMILES IDX 8 1 9 2 6 3 7 4 5 5 4 6 3 7 2 8 1 9 10 11 11 12 15 13 16 14
REMARK SMILES IDX 17 15 12 17 13 18 14 19
REMARK H PARENT
REMARK Flexibility Score: 70.00
ROOT
ATOM      1  C   UNL     1      16.573 -32.369  23.817  1.00  0.00     0.136 C 
ATOM      2  O   UNL     1      17.216 -31.335  23.701  1.00  0.00    -0.299 OA
ENDROOT
BRANCH   1   3
ATOM      3  C   UNL     1      17.216 -33.591  24.437  1.00  0.00     0.053 C 
ATOM      4  C   UNL     1      16.125 -34.583  24.854  1.00  0.00     0.016 C 
BRANCH   3   5
ATOM      5  C   UNL     1      18.222 -34.277  23.482  1.00  0.00     0.015 C 
BRANCH   5   6
ATOM      6  C   UNL     1      17.594 -35.360  22.592  1.00  0.00     0.028 C 
BRANCH   6   7
ATOM      7  C   UNL     1      17.647 -34.974  21.133  1.00  0.00    -0.028 C 
ATOM      8  C   UNL     1      16.588 -34.564  20.401  1.00  0.00    -0.070 CG0
ATOM      9  C   UNL     1      16.819 -34.219  18.951  1.00  0.00     0.039 C 
ATOM     10  G   UNL     1      15.186 -34.447  20.971  1.00  0.00     0.000 G0
ENDBRANCH   6   7
ENDBRANCH   5   6
ENDBRANCH   3   5
ENDBRANCH   1   3
BRANCH   1  11
ATOM     11  C   UNL     1      15.162 -32.423  23.282  1.00  0.00     0.087 C 
BRANCH  11  12
ATOM     12  C   UNL     1      15.026 -31.931  21.816  1.00  0.00     0.066 C 
BRANCH  12  13
ATOM     13  C   UNL     1      14.557 -33.072  20.915  1.00  0.00     0.140 C 
ATOM     14  O   UNL     1      13.703 -32.841  20.072  1.00  0.00    -0.299 OA
BRANCH  13  15
ATOM     15  C   UNL     1      15.168 -34.459  20.948  1.00  0.00     0.106 CG0
ATOM     16  G   UNL     1      16.580 -34.536  20.396  1.00  0.00     0.000 G0
ENDBRANCH  13  15
ENDBRANCH  12  13
BRANCH  12  17
ATOM     17  C   UNL     1      14.045 -30.719  21.709  1.00  0.00    -0.006 C 
ATOM     18  C   UNL     1      12.911 -30.795  22.748  1.00  0.00     0.008 C 
ATOM     19  C   UNL     1      14.782 -29.378  21.876  1.00  0.00     0.008 C 
ENDBRANCH  12  17
ENDBRANCH  11  12
ENDBRANCH   1  11
TORSDOF 1
ENDMDL
MODEL 2
REMARK VINA RESULT:    -4.161      1.660      2.170
REMARK INTER + INTRA:          -6.729
REMARK INTER:                  -6.548
REMARK INTRA:                  -0.180
REMARK UNBOUND:                -0.379
REMARK SMILES CC1=CCC[C@H](C)C(=O)C[C@H](C(C)C)C(=O)C1
REMARK SMILES IDX 8 1 9 2 6 3 7 4 5 5 4 6 3 7 2 8 1 9 10 11 11 12 15 13 16 14
REMARK SMILES IDX 17 15 12 17 13 18 14 19
REMARK H PARENT
REMARK Flexibility Score: 70.00
ROOT
ATOM      1  C   UNL     1      17.589 -31.458  22.789  1.00  0.00     0.136 C 
ATOM      2  O   UNL     1      18.297 -31.276  23.769  1.00  0.00    -0.299 OA
ENDROOT
BRANCH   1   3
ATOM      3  C   UNL     1      18.121 -31.149  21.405  1.00  0.00     0.053 C 
ATOM      4  C   UNL     1      19.006 -29.901  21.468  1.00  0.00     0.016 C 
BRANCH   3   5
ATOM      5  C   UNL     1      18.913 -32.334  20.800  1.00  0.00     0.015 C 
BRANCH   5   6
ATOM      6  C   UNL     1      18.684 -33.668  21.526  1.00  0.00     0.028 C 
BRANCH   6   7
ATOM      7  C   UNL     1      18.055 -34.692  20.611  1.00  0.00    -0.028 C 
ATOM      8  C   UNL     1      16.759 -35.073  20.649  1.00  0.00    -0.070 CG0
ATOM      9  C   UNL     1      16.296 -36.115  19.661  1.00  0.00     0.039 C 
ATOM     10  G   UNL     1      15.762 -34.508  21.645  1.00  0.00     0.000 G0
ENDBRANCH   6   7
ENDBRANCH   5   6
ENDBRANCH   3   5
ENDBRANCH   1   3
BRANCH   1  11
ATOM     11  C   UNL     1      16.170 -31.935  22.984  1.00  0.00     0.087 C 
BRANCH  11  12
ATOM     12  C   UNL     1      15.299 -31.863  21.701  1.00  0.00     0.066 C 
BRANCH  12  13
ATOM     13  C   UNL     1      15.002 -33.268  21.182  1.00  0.00     0.140 C 
ATOM     14  O   UNL     1      14.174 -33.403  20.293  1.00  0.00    -0.299 OA
BRANCH  13  15
ATOM     15  C   UNL     1      15.753 -34.500  21.647  1.00  0.00     0.106 CG0
ATOM     16  G   UNL     1      16.747 -35.047  20.639  1.00  0.00     0.000 G0
ENDBRANCH  13  15
ENDBRANCH  12  13
BRANCH  12  17
ATOM     17  C   UNL     1      13.967 -31.088  21.957  1.00  0.00    -0.006 C 
ATOM     18  C   UNL     1      13.334 -31.451  23.313  1.00  0.00     0.008 C 
ATOM     19  C   UNL     1      14.178 -29.564  21.901  1.00  0.00     0.008 C 
ENDBRANCH  12  17
ENDBRANCH  11  12
ENDBRANCH   1  11
TORSDOF 1
ENDMDL
MODEL 3
REMARK VINA RESULT:    -4.120      2.131      3.254
REMARK INTER + INTRA:          -6.667
REMARK INTER:                  -6.493
REMARK INTRA:                  -0.174
REMARK UNBOUND:                -0.379
REMARK SMILES CC1=CCC[C@H](C)C(=O)C[C@H](C(C)C)C(=O)C1
REMARK SMILES IDX 8 1 9 2 6 3 7 4 5 5 4 6 3 7 2 8 1 9 10 11 11 12 15 13 16 14
REMARK SMILES IDX 17 15 12 17 13 18 14 19
REMARK H PARENT
REMARK Flexibility Score: 70.00
ROOT
ATOM      1  C   UNL     1      15.546 -34.020  22.069  1.00  0.00     0.136 C 
ATOM      2  O   UNL     1      15.573 -34.090  23.289  1.00  0.00    -0.299 OA
ENDROOT
BRANCH   1   3
ATOM      3  C   UNL     1      16.161 -35.125  21.236  1.00  0.00     0.053 C 
ATOM      4  C   UNL     1      15.973 -34.804  19.749  1.00  0.00     0.016 C 
BRANCH   3   5
ATOM      5  C   UNL     1      17.662 -35.335  21.550  1.00  0.00     0.015 C 
BRANCH   5   6
ATOM      6  C   UNL     1      18.593 -34.364  20.808  1.00  0.00     0.028 C 
BRANCH   6   7
ATOM      7  C   UNL     1      19.121 -33.293  21.732  1.00  0.00    -0.028 C 
ATOM      8  C   UNL     1      18.669 -32.021  21.783  1.00  0.00    -0.070 CG0
ATOM      9  C   UNL     1      19.314 -31.076  22.766  1.00  0.00     0.039 C 
ATOM     10  G   UNL     1      17.554 -31.506  20.890  1.00  0.00     0.000 G0
ENDBRANCH   6   7
ENDBRANCH   5   6
ENDBRANCH   3   5
ENDBRANCH   1   3
BRANCH   1  11
ATOM     11  C   UNL     1      14.950 -32.797  21.415  1.00  0.00     0.087 C 
BRANCH  11  12
ATOM     12  C   UNL     1      15.215 -31.477  22.188  1.00  0.00     0.066 C 
BRANCH  12  13
ATOM     13  C   UNL     1      16.434 -30.761  21.612  1.00  0.00     0.140 C 
ATOM     14  O   UNL     1      16.558 -29.561  21.809  1.00  0.00    -0.299 OA
BRANCH  13  15
ATOM     15  C   UNL     1      17.553 -31.481  20.886  1.00  0.00     0.106 CG0
ATOM     16  G   UNL     1      18.659 -31.993  21.790  1.00  0.00     0.000 G0
ENDBRANCH  13  15
ENDBRANCH  12  13
BRANCH  12  17
ATOM     17  C   UNL     1      13.969 -30.535  22.155  1.00  0.00    -0.006 C 
ATOM     18  C   UNL     1      12.838 -31.096  21.272  1.00  0.00     0.008 C 
ATOM     19  C   UNL     1      13.413 -30.281  23.567  1.00  0.00     0.008 C 
ENDBRANCH  12  17
ENDBRANCH  11  12
ENDBRANCH   1  11
TORSDOF 1
ENDMDL
MODEL 4
REMARK VINA RESULT:    -4.118      2.289      3.263
REMARK INTER + INTRA:          -6.663
REMARK INTER:                  -6.499
REMARK INTRA:                  -0.164
REMARK UNBOUND:                -0.379
REMARK SMILES CC1=CCC[C@H](C)C(=O)C[C@H](C(C)C)C(=O)C1
REMARK SMILES IDX 8 1 9 2 6 3 7 4 5 5 4 6 3 7 2 8 1 9 10 11 11 12 15 13 16 14
REMARK SMILES IDX 17 15 12 17 13 18 14 19
REMARK H PARENT
REMARK Flexibility Score: 70.00
ROOT
ATOM      1  C   UNL     1      16.883 -30.148  21.686  1.00  0.00     0.136 C 
ATOM      2  O   UNL     1      16.155 -29.171  21.590  1.00  0.00    -0.299 OA
ENDROOT
BRANCH   1   3
ATOM      3  C   UNL     1      18.285 -30.104  21.116  1.00  0.00     0.053 C 
ATOM      4  C   UNL     1      18.750 -28.647  21.022  1.00  0.00     0.016 C 
BRANCH   3   5
ATOM      5  C   UNL     1      19.289 -30.930  21.957  1.00  0.00     0.015 C 
BRANCH   5   6
ATOM      6  C   UNL     1      19.735 -32.236  21.282  1.00  0.00     0.028 C 
BRANCH   6   7
ATOM      7  C   UNL     1      19.389 -33.438  22.127  1.00  0.00    -0.028 C 
ATOM      8  C   UNL     1      18.318 -34.239  21.934  1.00  0.00    -0.070 CG0
ATOM      9  C   UNL     1      18.119 -35.400  22.876  1.00  0.00     0.039 C 
ATOM     10  G   UNL     1      17.309 -34.012  20.823  1.00  0.00     0.000 G0
ENDBRANCH   6   7
ENDBRANCH   5   6
ENDBRANCH   3   5
ENDBRANCH   1   3
BRANCH   1  11
ATOM     11  C   UNL     1      16.345 -31.407  22.324  1.00  0.00     0.087 C 
BRANCH  11  12
ATOM     12  C   UNL     1      15.409 -32.229  21.400  1.00  0.00     0.066 C 
BRANCH  12  13
ATOM     13  C   UNL     1      15.912 -33.666  21.277  1.00  0.00     0.140 C 
ATOM     14  O   UNL     1      15.129 -34.582  21.481  1.00  0.00    -0.299 OA
BRANCH  13  15
ATOM     15  C   UNL     1      17.314 -34.016  20.820  1.00  0.00     0.106 CG0
ATOM     16  G   UNL     1      18.307 -34.227  21.949  1.00  0.00     0.000 G0
ENDBRANCH  13  15
ENDBRANCH  12  13
BRANCH  12  17
ATOM     17  C   UNL     1      13.935 -32.216  21.922  1.00  0.00    -0.006 C 
ATOM     18  C   UNL     1      13.835 -31.696  23.367  1.00  0.00     0.008 C 
ATOM     19  C   UNL     1      13.024 -31.360  21.023  1.00  0.00     0.008 C 
ENDBRANCH  12  17
ENDBRANCH  11  12
ENDBRANCH   1  11
TORSDOF 1
ENDMDL
MODEL 5
REMARK VINA RESULT:    -4.079      2.146      4.761
REMARK INTER + INTRA:          -6.604
REMARK INTER:                  -6.281
REMARK INTRA:                  -0.323
REMARK UNBOUND:                -0.379
REMARK SMILES CC1=CCC[C@H](C)C(=O)C[C@H](C(C)C)C(=O)C1
REMARK SMILES IDX 8 1 9 2 6 3 7 4 5 5 4 6 3 7 2 8 1 9 10 11 11 12 15 13 16 14
REMARK SMILES IDX 17 15 12 17 13 18 14 19
REMARK H PARENT
REMARK Flexibility Score: 70.00
ROOT
ATOM      1  C   UNL     1      14.634 -32.983  22.573  1.00  0.00     0.136 C 
ATOM      2  O   UNL     1      14.285 -33.242  23.715  1.00  0.00    -0.299 OA
ENDROOT
BRANCH   1   3
ATOM      3  C   UNL     1      14.516 -31.567  22.050  1.00  0.00     0.053 C 
ATOM      4  C   UNL     1      13.040 -31.235  21.811  1.00  0.00     0.016 C 
BRANCH   3   5
ATOM      5  C   UNL     1      15.148 -30.530  23.010  1.00  0.00     0.015 C 
BRANCH   5   6
ATOM      6  C   UNL     1      16.683 -30.550  23.021  1.00  0.00     0.028 C 
BRANCH   6   7
ATOM      7  C   UNL     1      17.217 -31.229  24.259  1.00  0.00    -0.028 C 
ATOM      8  C   UNL     1      18.002 -32.330  24.262  1.00  0.00    -0.070 CG0
ATOM      9  C   UNL     1      18.445 -32.882  25.594  1.00  0.00     0.039 C 
ATOM     10  G   UNL     1      18.442 -33.032  22.990  1.00  0.00     0.000 G0
ENDBRANCH   6   7
ENDBRANCH   5   6
ENDBRANCH   3   5
ENDBRANCH   1   3
BRANCH   1  11
ATOM     11  C   UNL     1      15.123 -34.100  21.681  1.00  0.00     0.087 C 
BRANCH  11  12
ATOM     12  C   UNL     1      16.614 -33.968  21.269  1.00  0.00     0.066 C 
BRANCH  12  13
ATOM     13  C   UNL     1      17.518 -34.121  22.490  1.00  0.00     0.140 C 
ATOM     14  O   UNL     1      17.559 -35.202  23.059  1.00  0.00    -0.299 OA
BRANCH  13  15
ATOM     15  C   UNL     1      18.444 -33.025  22.978  1.00  0.00     0.106 CG0
ATOM     16  G   UNL     1      17.980 -32.331  24.246  1.00  0.00     0.000 G0
ENDBRANCH  13  15
ENDBRANCH  12  13
BRANCH  12  17
ATOM     17  C   UNL     1      16.999 -35.017  20.176  1.00  0.00    -0.006 C 
ATOM     18  C   UNL     1      15.849 -35.998  19.880  1.00  0.00     0.008 C 
ATOM     19  C   UNL     1      17.419 -34.337  18.861  1.00  0.00     0.008 C 
ENDBRANCH  12  17
ENDBRANCH  11  12
ENDBRANCH   1  11
TORSDOF 1
ENDMDL
MODEL 6
REMARK VINA RESULT:    -3.891      1.950      3.860
REMARK INTER + INTRA:          -6.317
REMARK INTER:                  -6.081
REMARK INTRA:                  -0.236
REMARK UNBOUND:                -0.379
REMARK SMILES CC1=CCC[C@H](C)C(=O)C[C@H](C(C)C)C(=O)C1
REMARK SMILES IDX 8 1 9 2 6 3 7 4 5 5 4 6 3 7 2 8 1 9 10 11 11 12 15 13 16 14
REMARK SMILES IDX 17 15 12 17 13 18 14 19
REMARK H PARENT
REMARK Flexibility Score: 70.00
ROOT
ATOM      1  C   UNL     1      16.970 -33.183  20.547  1.00  0.00     0.136 C 
ATOM      2  O   UNL     1      17.686 -33.210  19.557  1.00  0.00    -0.299 OA
ENDROOT
BRANCH   1   3
ATOM      3  C   UNL     1      16.289 -34.450  21.021  1.00  0.00     0.053 C 
ATOM      4  C   UNL     1      15.046 -34.710  20.162  1.00  0.00     0.016 C 
BRANCH   3   5
ATOM      5  C   UNL     1      17.231 -35.677  20.979  1.00  0.00     0.015 C 
BRANCH   5   6
ATOM      6  C   UNL     1      18.262 -35.706  22.118  1.00  0.00     0.028 C 
BRANCH   6   7
ATOM      7  C   UNL     1      17.595 -35.587  23.468  1.00  0.00    -0.028 C 
ATOM      8  C   UNL     1      17.631 -34.491  24.256  1.00  0.00    -0.070 CG0
ATOM      9  C   UNL     1      16.911 -34.544  25.581  1.00  0.00     0.039 C 
ATOM     10  G   UNL     1      18.369 -33.222  23.871  1.00  0.00     0.000 G0
ENDBRANCH   6   7
ENDBRANCH   5   6
ENDBRANCH   3   5
ENDBRANCH   1   3
BRANCH   1  11
ATOM     11  C   UNL     1      16.731 -31.867  21.247  1.00  0.00     0.087 C 
BRANCH  11  12
ATOM     12  C   UNL     1      16.287 -32.013  22.727  1.00  0.00     0.066 C 
BRANCH  12  13
ATOM     13  C   UNL     1      17.504 -31.997  23.650  1.00  0.00     0.140 C 
ATOM     14  O   UNL     1      17.739 -30.984  24.294  1.00  0.00    -0.299 OA
BRANCH  13  15
ATOM     15  C   UNL     1      18.385 -33.208  23.882  1.00  0.00     0.106 CG0
ATOM     16  G   UNL     1      17.629 -34.471  24.252  1.00  0.00     0.000 G0
ENDBRANCH  13  15
ENDBRANCH  12  13
BRANCH  12  17
ATOM     17  C   UNL     1      15.283 -30.888  23.137  1.00  0.00    -0.006 C 
ATOM     18  C   UNL     1      15.146 -29.806  22.050  1.00  0.00     0.008 C 
ATOM     19  C   UNL     1      13.887 -31.460  23.445  1.00  0.00     0.008 C 
ENDBRANCH  12  17
ENDBRANCH  11  12
ENDBRANCH   1  11
TORSDOF 1
ENDMDL
MODEL 7
REMARK VINA RESULT:    -3.834      2.134      4.798
REMARK INTER + INTRA:          -6.229
REMARK INTER:                  -6.568
REMARK INTRA:                   0.339
REMARK UNBOUND:                -0.379
REMARK SMILES CC1=CCC[C@H](C)C(=O)C[C@H](C(C)C)C(=O)C1
REMARK SMILES IDX 8 1 9 2 6 3 7 4 5 5 4 6 3 7 2 8 1 9 10 11 11 12 15 13 16 14
REMARK SMILES IDX 17 15 12 17 13 18 14 19
REMARK H PARENT
REMARK Flexibility Score: 70.00
ROOT
ATOM      1  C   UNL     1      13.865 -32.575  20.982  1.00  0.00     0.136 C 
ATOM      2  O   UNL     1      13.489 -32.774  19.837  1.00  0.00    -0.299 OA
ENDROOT
BRANCH   1   3
ATOM      3  C   UNL     1      13.397 -31.341  21.726  1.00  0.00     0.053 C 
ATOM      4  C   UNL     1      13.454 -31.605  23.234  1.00  0.00     0.016 C 
BRANCH   3   5
ATOM      5  C   UNL     1      14.232 -30.087  21.372  1.00  0.00     0.015 C 
BRANCH   5   6
ATOM      6  C   UNL     1      15.354 -29.786  22.377  1.00  0.00     0.028 C 
BRANCH   6   7
ATOM      7  C   UNL     1      16.706 -29.765  21.705  1.00  0.00    -0.028 C 
ATOM      8  C   UNL     1      17.750 -30.554  22.040  1.00  0.00    -0.070 CG0
ATOM      9  C   UNL     1      19.035 -30.400  21.264  1.00  0.00     0.039 C 
ATOM     10  G   UNL     1      17.687 -31.572  23.164  1.00  0.00     0.000 G0
ENDBRANCH   6   7
ENDBRANCH   5   6
ENDBRANCH   3   5
ENDBRANCH   1   3
BRANCH   1  11
ATOM     11  C   UNL     1      14.841 -33.537  21.616  1.00  0.00     0.087 C 
BRANCH  11  12
ATOM     12  C   UNL     1      16.327 -33.122  21.457  1.00  0.00     0.066 C 
BRANCH  12  13
ATOM     13  C   UNL     1      16.952 -32.851  22.824  1.00  0.00     0.140 C 
ATOM     14  O   UNL     1      16.920 -33.734  23.669  1.00  0.00    -0.299 OA
BRANCH  13  15
ATOM     15  C   UNL     1      17.697 -31.574  23.158  1.00  0.00     0.106 CG0
ATOM     16  G   UNL     1      17.755 -30.568  22.023  1.00  0.00     0.000 G0
ENDBRANCH  13  15
ENDBRANCH  12  13
BRANCH  12  17
ATOM     17  C   UNL     1      17.147 -34.212  20.694  1.00  0.00    -0.006 C 
ATOM     18  C   UNL     1      16.625 -34.436  19.263  1.00  0.00     0.008 C 
ATOM     19  C   UNL     1      18.642 -33.851  20.624  1.00  0.00     0.008 C 
ENDBRANCH  12  17
ENDBRANCH  11  12
ENDBRANCH   1  11
TORSDOF 1
ENDMDL
MODEL 8
REMARK VINA RESULT:    -3.824      2.363      4.407
REMARK INTER + INTRA:          -6.215
REMARK INTER:                  -5.990
REMARK INTRA:                  -0.225
REMARK UNBOUND:                -0.379
REMARK SMILES CC1=CCC[C@H](C)C(=O)C[C@H](C(C)C)C(=O)C1
REMARK SMILES IDX 8 1 9 2 6 3 7 4 5 5 4 6 3 7 2 8 1 9 10 11 11 12 15 13 16 14
REMARK SMILES IDX 17 15 12 17 13 18 14 19
REMARK H PARENT
REMARK Flexibility Score: 70.00
ROOT
ATOM      1  C   UNL     1      17.319 -34.329  22.205  1.00  0.00     0.136 C 
ATOM      2  O   UNL     1      16.875 -35.056  23.080  1.00  0.00    -0.299 OA
ENDROOT
BRANCH   1   3
ATOM      3  C   UNL     1      16.986 -34.603  20.753  1.00  0.00     0.053 C 
ATOM      4  C   UNL     1      17.757 -35.840  20.280  1.00  0.00     0.016 C 
BRANCH   3   5
ATOM      5  C   UNL     1      15.468 -34.803  20.525  1.00  0.00     0.015 C 
BRANCH   5   6
ATOM      6  C   UNL     1      14.708 -33.501  20.231  1.00  0.00     0.028 C 
BRANCH   6   7
ATOM      7  C   UNL     1      14.028 -32.968  21.468  1.00  0.00    -0.028 C 
ATOM      8  C   UNL     1      14.363 -31.825  22.106  1.00  0.00    -0.070 CG0
ATOM      9  C   UNL     1      13.578 -31.440  23.335  1.00  0.00     0.039 C 
ATOM     10  G   UNL     1      15.496 -30.926  21.645  1.00  0.00     0.000 G0
ENDBRANCH   6   7
ENDBRANCH   5   6
ENDBRANCH   3   5
ENDBRANCH   1   3
BRANCH   1  11
ATOM     11  C   UNL     1      18.246 -33.199  22.585  1.00  0.00     0.087 C 
BRANCH  11  12
ATOM     12  C   UNL     1      17.992 -31.885  21.800  1.00  0.00     0.066 C 
BRANCH  12  13
ATOM     13  C   UNL     1      16.810 -31.127  22.402  1.00  0.00     0.140 C 
ATOM     14  O   UNL     1      16.944 -30.605  23.499  1.00  0.00    -0.299 OA
BRANCH  13  15
ATOM     15  C   UNL     1      15.504 -30.908  21.665  1.00  0.00     0.106 CG0
ATOM     16  G   UNL     1      14.374 -31.821  22.106  1.00  0.00     0.000 G0
ENDBRANCH  13  15
ENDBRANCH  12  13
BRANCH  12  17
ATOM     17  C   UNL     1      19.263 -30.975  21.780  1.00  0.00    -0.006 C 
ATOM     18  C   UNL     1      20.384 -31.562  20.902  1.00  0.00     0.008 C 
ATOM     19  C   UNL     1      18.936 -29.556  21.282  1.00  0.00     0.008 C 
ENDBRANCH  12  17
ENDBRANCH  11  12
ENDBRANCH   1  11
TORSDOF 1
ENDMDL
MODEL 9
REMARK VINA RESULT:    -3.804      1.844      3.958
REMARK INTER + INTRA:          -6.185
REMARK INTER:                  -6.078
REMARK INTRA:                  -0.106
REMARK UNBOUND:                -0.379
REMARK SMILES CC1=CCC[C@H](C)C(=O)C[C@H](C(C)C)C(=O)C1
REMARK SMILES IDX 8 1 9 2 6 3 7 4 5 5 4 6 3 7 2 8 1 9 10 11 11 12 15 13 16 14
REMARK SMILES IDX 17 15 12 17 13 18 14 19
REMARK H PARENT
REMARK Flexibility Score: 70.00
ROOT
ATOM      1  C   UNL     1      15.471 -33.576  20.736  1.00  0.00     0.136 C 
ATOM      2  O   UNL     1      14.249 -33.594  20.752  1.00  0.00    -0.299 OA
ENDROOT
BRANCH   1   3
ATOM      3  C   UNL     1      16.236 -34.774  20.215  1.00  0.00     0.053 C 
ATOM      4  C   UNL     1      17.133 -34.338  19.052  1.00  0.00     0.016 C 
BRANCH   3   5
ATOM      5  C   UNL     1      17.086 -35.455  21.316  1.00  0.00     0.015 C 
BRANCH   5   6
ATOM      6  C   UNL     1      18.579 -35.104  21.252  1.00  0.00     0.028 C 
BRANCH   6   7
ATOM      7  C   UNL     1      19.175 -34.974  22.633  1.00  0.00    -0.028 C 
ATOM      8  C   UNL     1      19.257 -33.823  23.337  1.00  0.00    -0.070 CG0
ATOM      9  C   UNL     1      19.887 -33.871  24.707  1.00  0.00     0.039 C 
ATOM     10  G   UNL     1      18.756 -32.493  22.804  1.00  0.00     0.000 G0
ENDBRANCH   6   7
ENDBRANCH   5   6
ENDBRANCH   3   5
ENDBRANCH   1   3
BRANCH   1  11
ATOM     11  C   UNL     1      16.197 -32.376  21.294  1.00  0.00     0.087 C 
BRANCH  11  12
ATOM     12  C   UNL     1      16.082 -32.231  22.835  1.00  0.00     0.066 C 
BRANCH  12  13
ATOM     13  C   UNL     1      17.459 -31.999  23.451  1.00  0.00     0.140 C 
ATOM     14  O   UNL     1      17.530 -31.459  24.545  1.00  0.00    -0.299 OA
BRANCH  13  15
ATOM     15  C   UNL     1      18.745 -32.492  22.817  1.00  0.00     0.106 CG0
ATOM     16  G   UNL     1      19.246 -33.816  23.364  1.00  0.00     0.000 G0
ENDBRANCH  13  15
ENDBRANCH  12  13
BRANCH  12  17
ATOM     17  C   UNL     1      15.111 -31.070  23.228  1.00  0.00    -0.006 C 
ATOM     18  C   UNL     1      15.272 -29.842  22.313  1.00  0.00     0.008 C 
ATOM     19  C   UNL     1      13.641 -31.525  23.193  1.00  0.00     0.008 C 
ENDBRANCH  12  17
ENDBRANCH  11  12
ENDBRANCH   1  11
TORSDOF 1
ENDMDL
