MODEL 1
REMARK VINA RESULT:    -7.040      0.000      0.000
REMARK INTER + INTRA:          -8.407
REMARK INTER:                  -8.481
REMARK INTRA:                   0.073
REMARK UNBOUND:                 0.073
REMARK SMILES Oc1cc(O)c2c(c1)O[C@@H](c1ccc(O)c(O)c1)[C@@H](O)C2
REMARK SMILES IDX 21 1 19 2 10 3 9 4 7 5 8 6 2 7 3 8 4 9 6 10 20 11 11 13
REMARK SMILES IDX 18 14 12 15 16 16 13 17 14 18 17 19 15 21 5 23 1 25
REMARK H PARENT 20 12 17 20 15 22 5 24 1 26
REMARK Flexibility Score: inf
ROOT
ATOM      1  C   UNL     1      -0.164   4.830  13.515  1.00  0.00     0.079 C 
ATOM      2  C   UNL     1      -0.996   4.416  14.742  1.00  0.00     0.164 C 
ATOM      3  C   UNL     1      -2.239   3.605  14.325  1.00  0.00     0.232 C 
ATOM      4  O   UNL     1      -2.990   4.323  13.342  1.00  0.00    -0.482 OA
ATOM      5  C   UNL     1      -2.403   5.179  12.400  1.00  0.00     0.131 A 
ATOM      6  C   UNL     1      -3.211   5.761  11.420  1.00  0.00     0.093 A 
ATOM      7  C   UNL     1      -2.653   6.600  10.450  1.00  0.00     0.122 A 
ATOM      8  C   UNL     1      -1.278   6.844  10.450  1.00  0.00     0.092 A 
ATOM      9  C   UNL     1      -0.450   6.267  11.420  1.00  0.00     0.126 A 
ATOM     10  C   UNL     1      -1.018   5.458  12.436  1.00  0.00     0.039 A 
ENDROOT
BRANCH   2  11
ATOM     11  O   UNL     1      -0.207   3.676  15.638  1.00  0.00    -0.389 OA
ATOM     12  H   UNL     1      -0.388   2.716  15.457  1.00  0.00     0.211 HD
ENDBRANCH   2  11
BRANCH   3  13
ATOM     13  C   UNL     1      -1.892   2.203  13.847  1.00  0.00    -0.001 A 
ATOM     14  C   UNL     1      -1.407   2.025  12.539  1.00  0.00     0.057 A 
ATOM     15  C   UNL     1      -2.087   1.068  14.658  1.00  0.00     0.012 A 
ATOM     16  C   UNL     1      -1.119   0.742  12.050  1.00  0.00     0.157 A 
ATOM     17  C   UNL     1      -1.804  -0.211  14.170  1.00  0.00     0.050 A 
ATOM     18  C   UNL     1      -1.321  -0.378  12.866  1.00  0.00     0.157 A 
BRANCH  16  19
ATOM     19  O   UNL     1      -0.631   0.578  10.753  1.00  0.00    -0.504 OA
ATOM     20  H   UNL     1      -0.093  -0.239  10.487  1.00  0.00     0.293 HD
ENDBRANCH  16  19
BRANCH  18  21
ATOM     21  O   UNL     1      -1.039  -1.652  12.374  1.00  0.00    -0.504 OA
ATOM     22  H   UNL     1      -0.670  -2.382  12.974  1.00  0.00     0.293 HD
ENDBRANCH  18  21
ENDBRANCH   3  13
BRANCH   9  23
ATOM     23  O   UNL     1       0.923   6.508  11.338  1.00  0.00    -0.507 OA
ATOM     24  H   UNL     1       1.522   6.605  12.149  1.00  0.00     0.293 HD
ENDBRANCH   9  23
BRANCH   7  25
ATOM     25  O   UNL     1      -3.455   7.194   9.478  1.00  0.00    -0.508 OA
ATOM     26  H   UNL     1      -4.437   7.383   9.646  1.00  0.00     0.293 HD
ENDBRANCH   7  25
TORSDOF 6
ENDMDL
MODEL 2
REMARK VINA RESULT:    -7.012      0.945      1.636
REMARK INTER + INTRA:          -8.373
REMARK INTER:                  -8.369
REMARK INTRA:                  -0.004
REMARK UNBOUND:                 0.073
REMARK SMILES Oc1cc(O)c2c(c1)O[C@@H](c1ccc(O)c(O)c1)[C@@H](O)C2
REMARK SMILES IDX 21 1 19 2 10 3 9 4 7 5 8 6 2 7 3 8 4 9 6 10 20 11 11 13
REMARK SMILES IDX 18 14 12 15 16 16 13 17 14 18 17 19 15 21 5 23 1 25
REMARK H PARENT 20 12 17 20 15 22 5 24 1 26
REMARK Flexibility Score: inf
ROOT
ATOM      1  C   UNL     1       0.064   4.718  12.475  1.00  0.00     0.079 C 
ATOM      2  C   UNL     1      -0.385   4.396  13.911  1.00  0.00     0.164 C 
ATOM      3  C   UNL     1      -1.719   3.622  13.918  1.00  0.00     0.232 C 
ATOM      4  O   UNL     1      -2.703   4.327  13.157  1.00  0.00    -0.482 OA
ATOM      5  C   UNL     1      -2.392   5.113  12.039  1.00  0.00     0.131 A 
ATOM      6  C   UNL     1      -3.434   5.686  11.304  1.00  0.00     0.093 A 
ATOM      7  C   UNL     1      -3.160   6.455  10.169  1.00  0.00     0.122 A 
ATOM      8  C   UNL     1      -1.838   6.639   9.756  1.00  0.00     0.092 A 
ATOM      9  C   UNL     1      -0.780   6.071  10.476  1.00  0.00     0.126 A 
ATOM     10  C   UNL     1      -1.049   5.333  11.656  1.00  0.00     0.039 A 
ENDROOT
BRANCH   2  11
ATOM     11  O   UNL     1       0.610   3.664  14.579  1.00  0.00    -0.389 OA
ATOM     12  H   UNL     1       0.701   2.798  14.102  1.00  0.00     0.211 HD
ENDBRANCH   2  11
BRANCH   3  13
ATOM     13  C   UNL     1      -1.566   2.187  13.439  1.00  0.00    -0.001 A 
ATOM     14  C   UNL     1      -1.746   1.134  14.356  1.00  0.00     0.057 A 
ATOM     15  C   UNL     1      -1.203   1.876  12.114  1.00  0.00     0.012 A 
ATOM     16  C   UNL     1      -1.570  -0.199  13.961  1.00  0.00     0.157 A 
ATOM     17  C   UNL     1      -1.023   0.546  11.720  1.00  0.00     0.050 A 
ATOM     18  C   UNL     1      -1.204  -0.494  12.641  1.00  0.00     0.157 A 
BRANCH  16  19
ATOM     19  O   UNL     1      -1.757  -1.234  14.876  1.00  0.00    -0.504 OA
ATOM     20  H   UNL     1      -2.104  -2.143  14.589  1.00  0.00     0.293 HD
ENDBRANCH  16  19
BRANCH  18  21
ATOM     21  O   UNL     1      -1.024  -1.820  12.253  1.00  0.00    -0.504 OA
ATOM     22  H   UNL     1      -1.462  -2.585  12.756  1.00  0.00     0.293 HD
ENDBRANCH  18  21
ENDBRANCH   3  13
BRANCH   9  23
ATOM     23  O   UNL     1       0.516   6.249   9.987  1.00  0.00    -0.507 OA
ATOM     24  H   UNL     1       0.729   6.389   9.007  1.00  0.00     0.293 HD
ENDBRANCH   9  23
BRANCH   7  25
ATOM     25  O   UNL     1      -4.193   7.039   9.440  1.00  0.00    -0.508 OA
ATOM     26  H   UNL     1      -4.623   7.908   9.736  1.00  0.00     0.293 HD
ENDBRANCH   7  25
TORSDOF 6
ENDMDL
MODEL 3
REMARK VINA RESULT:    -6.796      1.400      2.202
REMARK INTER + INTRA:          -8.113
REMARK INTER:                  -8.142
REMARK INTRA:                   0.030
REMARK UNBOUND:                 0.073
REMARK SMILES Oc1cc(O)c2c(c1)O[C@@H](c1ccc(O)c(O)c1)[C@@H](O)C2
REMARK SMILES IDX 21 1 19 2 10 3 9 4 7 5 8 6 2 7 3 8 4 9 6 10 20 11 11 13
REMARK SMILES IDX 18 14 12 15 16 16 13 17 14 18 17 19 15 21 5 23 1 25
REMARK H PARENT 20 12 17 20 15 22 5 24 1 26
REMARK Flexibility Score: inf
ROOT
ATOM      1  C   UNL     1       0.338   4.469  14.666  1.00  0.00     0.079 C 
ATOM      2  C   UNL     1      -1.034   4.151  15.288  1.00  0.00     0.164 C 
ATOM      3  C   UNL     1      -2.062   3.769  14.203  1.00  0.00     0.232 C 
ATOM      4  O   UNL     1      -2.113   4.781  13.194  1.00  0.00    -0.482 OA
ATOM      5  C   UNL     1      -1.004   5.553  12.822  1.00  0.00     0.131 A 
ATOM      6  C   UNL     1      -1.131   6.451  11.758  1.00  0.00     0.093 A 
ATOM      7  C   UNL     1      -0.037   7.218  11.346  1.00  0.00     0.122 A 
ATOM      8  C   UNL     1       1.195   7.074  11.988  1.00  0.00     0.092 A 
ATOM      9  C   UNL     1       1.345   6.177  13.052  1.00  0.00     0.126 A 
ATOM     10  C   UNL     1       0.226   5.435  13.508  1.00  0.00     0.039 A 
ENDROOT
BRANCH   2  11
ATOM     11  O   UNL     1      -0.913   3.118  16.232  1.00  0.00    -0.389 OA
ATOM     12  H   UNL     1      -0.874   3.547  17.126  1.00  0.00     0.211 HD
ENDBRANCH   2  11
BRANCH   3  13
ATOM     13  C   UNL     1      -1.800   2.396  13.603  1.00  0.00    -0.001 A 
ATOM     14  C   UNL     1      -2.074   1.249  14.371  1.00  0.00     0.057 A 
ATOM     15  C   UNL     1      -1.247   2.236  12.318  1.00  0.00     0.012 A 
ATOM     16  C   UNL     1      -1.803  -0.031  13.867  1.00  0.00     0.157 A 
ATOM     17  C   UNL     1      -0.973   0.959  11.817  1.00  0.00     0.050 A 
ATOM     18  C   UNL     1      -1.249  -0.177  12.589  1.00  0.00     0.157 A 
BRANCH  16  19
ATOM     19  O   UNL     1      -2.085  -1.162  14.634  1.00  0.00    -0.504 OA
ATOM     20  H   UNL     1      -3.037  -1.475  14.791  1.00  0.00     0.293 HD
ENDBRANCH  16  19
BRANCH  18  21
ATOM     21  O   UNL     1      -0.976  -1.451  12.094  1.00  0.00    -0.504 OA
ATOM     22  H   UNL     1      -0.049  -1.706  11.770  1.00  0.00     0.293 HD
ENDBRANCH  18  21
ENDBRANCH   3  13
BRANCH   9  23
ATOM     23  O   UNL     1       2.613   6.041  13.622  1.00  0.00    -0.507 OA
ATOM     24  H   UNL     1       3.253   6.815  13.752  1.00  0.00     0.293 HD
ENDBRANCH   9  23
BRANCH   7  25
ATOM     25  O   UNL     1      -0.161   8.124  10.295  1.00  0.00    -0.508 OA
ATOM     26  H   UNL     1      -0.934   8.073   9.641  1.00  0.00     0.293 HD
ENDBRANCH   7  25
TORSDOF 6
ENDMDL
MODEL 4
REMARK VINA RESULT:    -6.787      1.503      5.904
REMARK INTER + INTRA:          -8.103
REMARK INTER:                  -8.164
REMARK INTRA:                   0.061
REMARK UNBOUND:                 0.073
REMARK SMILES Oc1cc(O)c2c(c1)O[C@@H](c1ccc(O)c(O)c1)[C@@H](O)C2
REMARK SMILES IDX 21 1 19 2 10 3 9 4 7 5 8 6 2 7 3 8 4 9 6 10 20 11 11 13
REMARK SMILES IDX 18 14 12 15 16 16 13 17 14 18 17 19 15 21 5 23 1 25
REMARK H PARENT 20 12 17 20 15 22 5 24 1 26
REMARK Flexibility Score: inf
ROOT
ATOM      1  C   UNL     1      -1.741   3.843  14.570  1.00  0.00     0.079 C 
ATOM      2  C   UNL     1      -0.440   4.627  14.317  1.00  0.00     0.164 C 
ATOM      3  C   UNL     1       0.051   4.436  12.867  1.00  0.00     0.232 C 
ATOM      4  O   UNL     1       0.154   3.043  12.560  1.00  0.00    -0.482 OA
ATOM      5  C   UNL     1      -0.688   2.069  13.114  1.00  0.00     0.131 A 
ATOM      6  C   UNL     1      -0.570   0.747  12.678  1.00  0.00     0.093 A 
ATOM      7  C   UNL     1      -1.411  -0.245  13.192  1.00  0.00     0.122 A 
ATOM      8  C   UNL     1      -2.387   0.090  14.134  1.00  0.00     0.092 A 
ATOM      9  C   UNL     1      -2.524   1.410  14.581  1.00  0.00     0.126 A 
ATOM     10  C   UNL     1      -1.641   2.409  14.101  1.00  0.00     0.039 A 
ENDROOT
BRANCH   2  11
ATOM     11  O   UNL     1      -0.632   5.990  14.594  1.00  0.00    -0.389 OA
ATOM     12  H   UNL     1       0.120   6.275  15.177  1.00  0.00     0.211 HD
ENDBRANCH   2  11
BRANCH   3  13
ATOM     13  C   UNL     1      -0.814   5.168  11.853  1.00  0.00    -0.001 A 
ATOM     14  C   UNL     1      -2.014   4.575  11.420  1.00  0.00     0.057 A 
ATOM     15  C   UNL     1      -0.430   6.403  11.297  1.00  0.00     0.012 A 
ATOM     16  C   UNL     1      -2.815   5.200  10.453  1.00  0.00     0.157 A 
ATOM     17  C   UNL     1      -1.225   7.026  10.330  1.00  0.00     0.050 A 
ATOM     18  C   UNL     1      -2.418   6.427   9.905  1.00  0.00     0.157 A 
BRANCH  16  19
ATOM     19  O   UNL     1      -4.006   4.606  10.035  1.00  0.00    -0.504 OA
ATOM     20  H   UNL     1      -4.669   5.099   9.449  1.00  0.00     0.293 HD
ENDBRANCH  16  19
BRANCH  18  21
ATOM     21  O   UNL     1      -3.213   7.042   8.939  1.00  0.00    -0.504 OA
ATOM     22  H   UNL     1      -4.207   6.848   8.868  1.00  0.00     0.293 HD
ENDBRANCH  18  21
ENDBRANCH   3  13
BRANCH   9  23
ATOM     23  O   UNL     1      -3.550   1.693  15.485  1.00  0.00    -0.507 OA
ATOM     24  H   UNL     1      -3.471   1.542  16.484  1.00  0.00     0.293 HD
ENDBRANCH   9  23
BRANCH   7  25
ATOM     25  O   UNL     1      -1.290  -1.568  12.772  1.00  0.00    -0.508 OA
ATOM     26  H   UNL     1      -1.574  -1.855  11.842  1.00  0.00     0.293 HD
ENDBRANCH   7  25
TORSDOF 6
ENDMDL
MODEL 5
REMARK VINA RESULT:    -6.770      1.972      5.958
REMARK INTER + INTRA:          -8.082
REMARK INTER:                  -8.114
REMARK INTRA:                   0.032
REMARK UNBOUND:                 0.073
REMARK SMILES Oc1cc(O)c2c(c1)O[C@@H](c1ccc(O)c(O)c1)[C@@H](O)C2
REMARK SMILES IDX 21 1 19 2 10 3 9 4 7 5 8 6 2 7 3 8 4 9 6 10 20 11 11 13
REMARK SMILES IDX 18 14 12 15 16 16 13 17 14 18 17 19 15 21 5 23 1 25
REMARK H PARENT 20 12 17 20 15 22 5 24 1 26
REMARK Flexibility Score: inf
ROOT
ATOM      1  C   UNL     1      -1.436   3.687  11.559  1.00  0.00     0.079 C 
ATOM      2  C   UNL     1      -2.170   4.848  12.254  1.00  0.00     0.164 C 
ATOM      3  C   UNL     1      -1.726   4.987  13.724  1.00  0.00     0.232 C 
ATOM      4  O   UNL     1      -1.866   3.736  14.403  1.00  0.00    -0.482 OA
ATOM      5  C   UNL     1      -1.705   2.496  13.769  1.00  0.00     0.131 A 
ATOM      6  C   UNL     1      -1.768   1.331  14.539  1.00  0.00     0.093 A 
ATOM      7  C   UNL     1      -1.586   0.079  13.943  1.00  0.00     0.122 A 
ATOM      8  C   UNL     1      -1.322  -0.008  12.574  1.00  0.00     0.092 A 
ATOM      9  C   UNL     1      -1.251   1.147  11.786  1.00  0.00     0.126 A 
ATOM     10  C   UNL     1      -1.485   2.415  12.376  1.00  0.00     0.039 A 
ENDROOT
BRANCH   2  11
ATOM     11  O   UNL     1      -1.947   6.049  11.560  1.00  0.00    -0.389 OA
ATOM     12  H   UNL     1      -1.044   5.983  11.152  1.00  0.00     0.211 HD
ENDBRANCH   2  11
BRANCH   3  13
ATOM     13  C   UNL     1      -0.316   5.541  13.862  1.00  0.00    -0.001 A 
ATOM     14  C   UNL     1       0.691   4.726  14.412  1.00  0.00     0.057 A 
ATOM     15  C   UNL     1       0.005   6.863  13.501  1.00  0.00     0.012 A 
ATOM     16  C   UNL     1       1.991   5.218  14.595  1.00  0.00     0.157 A 
ATOM     17  C   UNL     1       1.301   7.356  13.686  1.00  0.00     0.050 A 
ATOM     18  C   UNL     1       2.296   6.537  14.235  1.00  0.00     0.157 A 
BRANCH  16  19
ATOM     19  O   UNL     1       2.983   4.399  15.135  1.00  0.00    -0.504 OA
ATOM     20  H   UNL     1       2.869   3.393  15.192  1.00  0.00     0.293 HD
ENDBRANCH  16  19
BRANCH  18  21
ATOM     21  O   UNL     1       3.588   7.024  14.424  1.00  0.00    -0.504 OA
ATOM     22  H   UNL     1       3.889   7.902  14.013  1.00  0.00     0.293 HD
ENDBRANCH  18  21
ENDBRANCH   3  13
BRANCH   9  23
ATOM     23  O   UNL     1      -0.935   1.000  10.433  1.00  0.00    -0.507 OA
ATOM     24  H   UNL     1      -1.627   0.838   9.713  1.00  0.00     0.293 HD
ENDBRANCH   9  23
BRANCH   7  25
ATOM     25  O   UNL     1      -1.661  -1.087  14.701  1.00  0.00    -0.508 OA
ATOM     26  H   UNL     1      -0.834  -1.633  14.915  1.00  0.00     0.293 HD
ENDBRANCH   7  25
TORSDOF 6
ENDMDL
MODEL 6
REMARK VINA RESULT:    -6.703      1.607      5.999
REMARK INTER + INTRA:          -8.002
REMARK INTER:                  -8.073
REMARK INTRA:                   0.071
REMARK UNBOUND:                 0.073
REMARK SMILES Oc1cc(O)c2c(c1)O[C@@H](c1ccc(O)c(O)c1)[C@@H](O)C2
REMARK SMILES IDX 21 1 19 2 10 3 9 4 7 5 8 6 2 7 3 8 4 9 6 10 20 11 11 13
REMARK SMILES IDX 18 14 12 15 16 16 13 17 14 18 17 19 15 21 5 23 1 25
REMARK H PARENT 20 12 17 20 15 22 5 24 1 26
REMARK Flexibility Score: inf
ROOT
ATOM      1  C   UNL     1      -1.073   4.449  13.382  1.00  0.00     0.079 C 
ATOM      2  C   UNL     1      -0.226   5.203  12.342  1.00  0.00     0.164 C 
ATOM      3  C   UNL     1      -0.646   4.831  10.905  1.00  0.00     0.232 C 
ATOM      4  O   UNL     1      -0.625   3.412  10.736  1.00  0.00    -0.482 OA
ATOM      5  C   UNL     1      -0.911   2.510  11.772  1.00  0.00     0.131 A 
ATOM      6  C   UNL     1      -0.958   1.143  11.484  1.00  0.00     0.093 A 
ATOM      7  C   UNL     1      -1.265   0.219  12.487  1.00  0.00     0.122 A 
ATOM      8  C   UNL     1      -1.543   0.665  13.782  1.00  0.00     0.092 A 
ATOM      9  C   UNL     1      -1.505   2.030  14.090  1.00  0.00     0.126 A 
ATOM     10  C   UNL     1      -1.145   2.967  13.088  1.00  0.00     0.039 A 
ENDROOT
BRANCH   2  11
ATOM     11  O   UNL     1      -0.334   6.590  12.540  1.00  0.00    -0.389 OA
ATOM     12  H   UNL     1      -0.908   6.942  11.810  1.00  0.00     0.211 HD
ENDBRANCH   2  11
BRANCH   3  13
ATOM     13  C   UNL     1      -1.994   5.419  10.517  1.00  0.00    -0.001 A 
ATOM     14  C   UNL     1      -3.171   4.794  10.969  1.00  0.00     0.057 A 
ATOM     15  C   UNL     1      -2.104   6.546   9.679  1.00  0.00     0.012 A 
ATOM     16  C   UNL     1      -4.431   5.282  10.594  1.00  0.00     0.157 A 
ATOM     17  C   UNL     1      -3.360   7.031   9.302  1.00  0.00     0.050 A 
ATOM     18  C   UNL     1      -4.526   6.401   9.757  1.00  0.00     0.157 A 
BRANCH  16  19
ATOM     19  O   UNL     1      -5.591   4.658  11.053  1.00  0.00    -0.504 OA
ATOM     20  H   UNL     1      -6.477   5.149  11.098  1.00  0.00     0.293 HD
ENDBRANCH  16  19
BRANCH  18  21
ATOM     21  O   UNL     1      -5.780   6.880   9.382  1.00  0.00    -0.504 OA
ATOM     22  H   UNL     1      -6.330   7.468   9.999  1.00  0.00     0.293 HD
ENDBRANCH  18  21
ENDBRANCH   3  13
BRANCH   9  23
ATOM     23  O   UNL     1      -1.841   2.419  15.389  1.00  0.00    -0.507 OA
ATOM     24  H   UNL     1      -2.790   2.609  15.687  1.00  0.00     0.293 HD
ENDBRANCH   9  23
BRANCH   7  25
ATOM     25  O   UNL     1      -1.300  -1.145  12.210  1.00  0.00    -0.508 OA
ATOM     26  H   UNL     1      -1.517  -1.491  11.281  1.00  0.00     0.293 HD
ENDBRANCH   7  25
TORSDOF 6
ENDMDL
MODEL 7
REMARK VINA RESULT:    -6.663      1.928      3.439
REMARK INTER + INTRA:          -7.953
REMARK INTER:                  -7.933
REMARK INTRA:                  -0.020
REMARK UNBOUND:                 0.073
REMARK SMILES Oc1cc(O)c2c(c1)O[C@@H](c1ccc(O)c(O)c1)[C@@H](O)C2
REMARK SMILES IDX 21 1 19 2 10 3 9 4 7 5 8 6 2 7 3 8 4 9 6 10 20 11 11 13
REMARK SMILES IDX 18 14 12 15 16 16 13 17 14 18 17 19 15 21 5 23 1 25
REMARK H PARENT 20 12 17 20 15 22 5 24 1 26
REMARK Flexibility Score: inf
ROOT
ATOM      1  C   UNL     1      -2.692   4.680  11.792  1.00  0.00     0.079 C 
ATOM      2  C   UNL     1      -1.949   3.869  10.715  1.00  0.00     0.164 C 
ATOM      3  C   UNL     1      -0.695   3.186  11.299  1.00  0.00     0.232 C 
ATOM      4  O   UNL     1       0.130   4.150  11.958  1.00  0.00    -0.482 OA
ATOM      5  C   UNL     1      -0.380   5.281  12.611  1.00  0.00     0.131 A 
ATOM      6  C   UNL     1       0.500   6.113  13.308  1.00  0.00     0.093 A 
ATOM      7  C   UNL     1       0.020   7.235  13.991  1.00  0.00     0.122 A 
ATOM      8  C   UNL     1      -1.348   7.518  13.991  1.00  0.00     0.092 A 
ATOM      9  C   UNL     1      -2.246   6.694  13.302  1.00  0.00     0.126 A 
ATOM     10  C   UNL     1      -1.760   5.585  12.566  1.00  0.00     0.039 A 
ENDROOT
BRANCH   2  11
ATOM     11  O   UNL     1      -2.807   2.914  10.147  1.00  0.00    -0.389 OA
ATOM     12  H   UNL     1      -3.734   3.186  10.376  1.00  0.00     0.211 HD
ENDBRANCH   2  11
BRANCH   3  13
ATOM     13  C   UNL     1      -1.035   2.021  12.215  1.00  0.00    -0.001 A 
ATOM     14  C   UNL     1      -0.863   0.706  11.746  1.00  0.00     0.057 A 
ATOM     15  C   UNL     1      -1.562   2.216  13.506  1.00  0.00     0.012 A 
ATOM     16  C   UNL     1      -1.207  -0.392  12.547  1.00  0.00     0.157 A 
ATOM     17  C   UNL     1      -1.910   1.122  14.305  1.00  0.00     0.050 A 
ATOM     18  C   UNL     1      -1.735  -0.184  13.828  1.00  0.00     0.157 A 
BRANCH  16  19
ATOM     19  O   UNL     1      -1.026  -1.692  12.074  1.00  0.00    -0.504 OA
ATOM     20  H   UNL     1      -0.220  -1.947  11.514  1.00  0.00     0.293 HD
ENDBRANCH  16  19
BRANCH  18  21
ATOM     21  O   UNL     1      -2.082  -1.278  14.619  1.00  0.00    -0.504 OA
ATOM     22  H   UNL     1      -2.463  -2.126  14.213  1.00  0.00     0.293 HD
ENDBRANCH  18  21
ENDBRANCH   3  13
BRANCH   9  23
ATOM     23  O   UNL     1      -3.607   7.000  13.379  1.00  0.00    -0.507 OA
ATOM     24  H   UNL     1      -4.107   7.509  12.661  1.00  0.00     0.293 HD
ENDBRANCH   9  23
BRANCH   7  25
ATOM     25  O   UNL     1       0.894   8.076  14.677  1.00  0.00    -0.508 OA
ATOM     26  H   UNL     1       1.868   7.829  14.813  1.00  0.00     0.293 HD
ENDBRANCH   7  25
TORSDOF 6
ENDMDL
MODEL 8
REMARK VINA RESULT:    -6.385      1.920      3.138
REMARK INTER + INTRA:          -7.618
REMARK INTER:                  -8.187
REMARK INTRA:                   0.569
REMARK UNBOUND:                 0.073
REMARK SMILES Oc1cc(O)c2c(c1)O[C@@H](c1ccc(O)c(O)c1)[C@@H](O)C2
REMARK SMILES IDX 21 1 19 2 10 3 9 4 7 5 8 6 2 7 3 8 4 9 6 10 20 11 11 13
REMARK SMILES IDX 18 14 12 15 16 16 13 17 14 18 17 19 15 21 5 23 1 25
REMARK H PARENT 20 12 17 20 15 22 5 24 1 26
REMARK Flexibility Score: inf
ROOT
ATOM      1  C   UNL     1      -2.506   3.994  10.612  1.00  0.00     0.079 C 
ATOM      2  C   UNL     1      -1.089   4.158  11.191  1.00  0.00     0.164 C 
ATOM      3  C   UNL     1      -1.101   4.052  12.729  1.00  0.00     0.232 C 
ATOM      4  O   UNL     1      -2.051   4.967  13.280  1.00  0.00    -0.482 OA
ATOM      5  C   UNL     1      -3.237   5.330  12.626  1.00  0.00     0.131 A 
ATOM      6  C   UNL     1      -4.148   6.158  13.289  1.00  0.00     0.093 A 
ATOM      7  C   UNL     1      -5.351   6.519  12.675  1.00  0.00     0.122 A 
ATOM      8  C   UNL     1      -5.653   6.037  11.399  1.00  0.00     0.092 A 
ATOM      9  C   UNL     1      -4.756   5.203  10.720  1.00  0.00     0.126 A 
ATOM     10  C   UNL     1      -3.513   4.876  11.317  1.00  0.00     0.039 A 
ENDROOT
BRANCH   2  11
ATOM     11  O   UNL     1      -0.225   3.197  10.640  1.00  0.00    -0.389 OA
ATOM     12  H   UNL     1       0.137   2.666  11.397  1.00  0.00     0.211 HD
ENDBRANCH   2  11
BRANCH   3  13
ATOM     13  C   UNL     1      -1.345   2.632  13.218  1.00  0.00    -0.001 A 
ATOM     14  C   UNL     1      -1.056   1.553  12.362  1.00  0.00     0.057 A 
ATOM     15  C   UNL     1      -1.896   2.363  14.485  1.00  0.00     0.012 A 
ATOM     16  C   UNL     1      -1.311   0.233  12.763  1.00  0.00     0.157 A 
ATOM     17  C   UNL     1      -2.154   1.048  14.884  1.00  0.00     0.050 A 
ATOM     18  C   UNL     1      -1.863  -0.020  14.025  1.00  0.00     0.157 A 
BRANCH  16  19
ATOM     19  O   UNL     1      -1.014  -0.829  11.909  1.00  0.00    -0.504 OA
ATOM     20  H   UNL     1      -0.155  -0.857  11.372  1.00  0.00     0.293 HD
ENDBRANCH  16  19
BRANCH  18  21
ATOM     21  O   UNL     1      -2.120  -1.332  14.417  1.00  0.00    -0.504 OA
ATOM     22  H   UNL     1      -1.505  -1.826  15.055  1.00  0.00     0.293 HD
ENDBRANCH  18  21
ENDBRANCH   3  13
BRANCH   9  23
ATOM     23  O   UNL     1      -5.136   4.713   9.469  1.00  0.00    -0.507 OA
ATOM     24  H   UNL     1      -5.858   4.015   9.338  1.00  0.00     0.293 HD
ENDBRANCH   9  23
BRANCH   7  25
ATOM     25  O   UNL     1      -6.257   7.355  13.324  1.00  0.00    -0.508 OA
ATOM     26  H   UNL     1      -5.994   8.286  13.627  1.00  0.00     0.293 HD
ENDBRANCH   7  25
TORSDOF 6
ENDMDL
MODEL 9
REMARK VINA RESULT:    -6.203      1.470      6.066
REMARK INTER + INTRA:          -7.399
REMARK INTER:                  -7.362
REMARK INTRA:                  -0.037
REMARK UNBOUND:                 0.073
REMARK SMILES Oc1cc(O)c2c(c1)O[C@@H](c1ccc(O)c(O)c1)[C@@H](O)C2
REMARK SMILES IDX 21 1 19 2 10 3 9 4 7 5 8 6 2 7 3 8 4 9 6 10 20 11 11 13
REMARK SMILES IDX 18 14 12 15 16 16 13 17 14 18 17 19 15 21 5 23 1 25
REMARK H PARENT 20 12 17 20 15 22 5 24 1 26
REMARK Flexibility Score: inf
ROOT
ATOM      1  C   UNL     1      -1.208   4.386  13.340  1.00  0.00     0.079 C 
ATOM      2  C   UNL     1      -0.350   5.108  12.286  1.00  0.00     0.164 C 
ATOM      3  C   UNL     1      -0.731   4.665  10.859  1.00  0.00     0.232 C 
ATOM      4  O   UNL     1      -0.682   3.240  10.754  1.00  0.00    -0.482 OA
ATOM      5  C   UNL     1      -0.976   2.381  11.822  1.00  0.00     0.131 A 
ATOM      6  C   UNL     1      -0.993   1.002  11.595  1.00  0.00     0.093 A 
ATOM      7  C   UNL     1      -1.307   0.118  12.632  1.00  0.00     0.122 A 
ATOM      8  C   UNL     1      -1.623   0.616  13.899  1.00  0.00     0.092 A 
ATOM      9  C   UNL     1      -1.615   1.994  14.146  1.00  0.00     0.126 A 
ATOM     10  C   UNL     1      -1.248   2.891  13.112  1.00  0.00     0.039 A 
ENDROOT
BRANCH   2  11
ATOM     11  O   UNL     1      -0.485   6.500  12.419  1.00  0.00    -0.389 OA
ATOM     12  H   UNL     1      -0.962   6.822  11.610  1.00  0.00     0.211 HD
ENDBRANCH   2  11
BRANCH   3  13
ATOM     13  C   UNL     1      -2.079   5.211  10.415  1.00  0.00    -0.001 A 
ATOM     14  C   UNL     1      -2.124   6.397   9.658  1.00  0.00     0.057 A 
ATOM     15  C   UNL     1      -3.291   4.593  10.778  1.00  0.00     0.012 A 
ATOM     16  C   UNL     1      -3.351   6.953   9.270  1.00  0.00     0.157 A 
ATOM     17  C   UNL     1      -4.515   5.149  10.394  1.00  0.00     0.050 A 
ATOM     18  C   UNL     1      -4.549   6.330   9.641  1.00  0.00     0.157 A 
BRANCH  16  19
ATOM     19  O   UNL     1      -3.383   8.125   8.514  1.00  0.00    -0.504 OA
ATOM     20  H   UNL     1      -3.836   8.161   7.607  1.00  0.00     0.293 HD
ENDBRANCH  16  19
BRANCH  18  21
ATOM     21  O   UNL     1      -5.767   6.889   9.258  1.00  0.00    -0.504 OA
ATOM     22  H   UNL     1      -6.648   6.550   9.632  1.00  0.00     0.293 HD
ENDBRANCH  18  21
ENDBRANCH   3  13
BRANCH   9  23
ATOM     23  O   UNL     1      -1.987   2.434  15.418  1.00  0.00    -0.507 OA
ATOM     24  H   UNL     1      -1.340   2.849  16.077  1.00  0.00     0.293 HD
ENDBRANCH   9  23
BRANCH   7  25
ATOM     25  O   UNL     1      -1.313  -1.258  12.416  1.00  0.00    -0.508 OA
ATOM     26  H   UNL     1      -0.738  -1.682  11.697  1.00  0.00     0.293 HD
ENDBRANCH   7  25
TORSDOF 6
ENDMDL
