MODEL 1
REMARK VINA RESULT:    -3.872      0.000      0.000
REMARK INTER + INTRA:          -8.352
REMARK INTER:                  -6.814
REMARK INTRA:                  -1.538
REMARK UNBOUND:                -1.538
REMARK SMILES CCCCCCC=CCCCCCCCC(=O)[O-]
REMARK SMILES IDX 10 1 11 2 12 3 13 4 14 5 15 6 16 7 17 8 18 9 9 10 8 11 7 12
REMARK SMILES IDX 6 13 5 14 4 15 3 16 2 17 1 18
REMARK H PARENT
REMARK Flexibility Score: inf
ROOT
ATOM      1  C   UNL     1      -1.460   5.635  -1.864  1.00  0.00     0.004 C 
ENDROOT
BRANCH   1   2
ATOM      2  C   UNL     1      -1.595   5.979  -0.369  1.00  0.00     0.000 C 
BRANCH   2   3
ATOM      3  C   UNL     1      -2.857   6.804  -0.066  1.00  0.00     0.000 C 
BRANCH   3   4
ATOM      4  C   UNL     1      -4.151   6.040  -0.395  1.00  0.00     0.000 C 
BRANCH   4   5
ATOM      5  C   UNL     1      -5.302   6.976  -0.799  1.00  0.00     0.006 C 
BRANCH   5   6
ATOM      6  C   UNL     1      -6.566   6.213  -1.222  1.00  0.00     0.053 C 
BRANCH   6   7
ATOM      7  C   UNL     1      -7.522   6.111  -0.075  1.00  0.00     0.041 C 
ATOM      8  O   UNL     1      -8.525   6.871  -0.018  1.00  0.00    -0.550 OA
ATOM      9  O   UNL     1      -7.285   5.205   0.950  1.00  0.00    -0.550 OA
ENDBRANCH   6   7
ENDBRANCH   5   6
ENDBRANCH   4   5
ENDBRANCH   3   4
ENDBRANCH   2   3
ENDBRANCH   1   2
BRANCH   1  10
ATOM     10  C   UNL     1      -0.944   6.824  -2.686  1.00  0.00     0.027 C 
BRANCH  10  11
ATOM     11  C   UNL     1      -1.829   7.096  -3.872  1.00  0.00    -0.031 C 
ATOM     12  C   UNL     1      -3.109   6.696  -3.905  1.00  0.00    -0.031 C 
BRANCH  12  13
ATOM     13  C   UNL     1      -4.003   7.019  -5.070  1.00  0.00     0.027 C 
BRANCH  13  14
ATOM     14  C   UNL     1      -5.470   7.125  -4.622  1.00  0.00     0.004 C 
BRANCH  14  15
ATOM     15  C   UNL     1      -6.293   5.878  -4.984  1.00  0.00     0.000 C 
BRANCH  15  16
ATOM     16  C   UNL     1      -5.520   4.902  -5.888  1.00  0.00    -0.000 C 
BRANCH  16  17
ATOM     17  C   UNL     1      -6.451   3.986  -6.697  1.00  0.00    -0.003 C 
ATOM     18  C   UNL     1      -6.244   4.111  -8.207  1.00  0.00     0.004 C 
ENDBRANCH  16  17
ENDBRANCH  15  16
ENDBRANCH  14  15
ENDBRANCH  13  14
ENDBRANCH  12  13
ENDBRANCH  10  11
ENDBRANCH   1  10
TORSDOF 13
ENDMDL
MODEL 2
REMARK VINA RESULT:    -3.841      2.693      4.629
REMARK INTER + INTRA:          -8.299
REMARK INTER:                  -6.985
REMARK INTRA:                  -1.314
REMARK UNBOUND:                -1.538
REMARK SMILES CCCCCCC=CCCCCCCCC(=O)[O-]
REMARK SMILES IDX 10 1 11 2 12 3 13 4 14 5 15 6 16 7 17 8 18 9 9 10 8 11 7 12
REMARK SMILES IDX 6 13 5 14 4 15 3 16 2 17 1 18
REMARK H PARENT
REMARK Flexibility Score: inf
ROOT
ATOM      1  C   UNL     1      -6.306   7.065  -1.541  1.00  0.00     0.004 C 
ENDROOT
BRANCH   1   2
ATOM      2  C   UNL     1      -5.578   5.992  -0.711  1.00  0.00     0.000 C 
BRANCH   2   3
ATOM      3  C   UNL     1      -4.468   5.284  -1.505  1.00  0.00     0.000 C 
BRANCH   3   4
ATOM      4  C   UNL     1      -3.969   6.124  -2.693  1.00  0.00     0.000 C 
BRANCH   4   5
ATOM      5  C   UNL     1      -2.701   6.926  -2.357  1.00  0.00     0.006 C 
BRANCH   5   6
ATOM      6  C   UNL     1      -1.481   6.028  -2.101  1.00  0.00     0.053 C 
BRANCH   6   7
ATOM      7  C   UNL     1      -0.906   6.301  -0.747  1.00  0.00     0.041 C 
ATOM      8  O   UNL     1      -1.623   6.177   0.282  1.00  0.00    -0.550 OA
ATOM      9  O   UNL     1       0.409   6.730  -0.623  1.00  0.00    -0.550 OA
ENDBRANCH   6   7
ENDBRANCH   5   6
ENDBRANCH   4   5
ENDBRANCH   3   4
ENDBRANCH   2   3
ENDBRANCH   1   2
BRANCH   1  10
ATOM     10  C   UNL     1      -7.810   6.783  -1.656  1.00  0.00     0.027 C 
BRANCH  10  11
ATOM     11  C   UNL     1      -8.219   6.567  -3.089  1.00  0.00    -0.031 C 
ATOM     12  C   UNL     1      -7.322   6.553  -4.085  1.00  0.00    -0.031 C 
BRANCH  12  13
ATOM     13  C   UNL     1      -7.731   6.282  -5.506  1.00  0.00     0.027 C 
BRANCH  13  14
ATOM     14  C   UNL     1      -6.530   6.419  -6.457  1.00  0.00     0.004 C 
BRANCH  14  15
ATOM     15  C   UNL     1      -5.358   5.504  -6.068  1.00  0.00     0.000 C 
BRANCH  15  16
ATOM     16  C   UNL     1      -5.354   4.182  -6.855  1.00  0.00    -0.000 C 
BRANCH  16  17
ATOM     17  C   UNL     1      -4.459   4.243  -8.102  1.00  0.00    -0.003 C 
ATOM     18  C   UNL     1      -5.256   4.240  -9.407  1.00  0.00     0.004 C 
ENDBRANCH  16  17
ENDBRANCH  15  16
ENDBRANCH  14  15
ENDBRANCH  13  14
ENDBRANCH  12  13
ENDBRANCH  10  11
ENDBRANCH   1  10
TORSDOF 13
ENDMDL
MODEL 3
REMARK VINA RESULT:    -3.624     15.207     17.165
REMARK INTER + INTRA:          -7.916
REMARK INTER:                  -6.937
REMARK INTRA:                  -0.979
REMARK UNBOUND:                -1.538
REMARK SMILES CCCCCCC=CCCCCCCCC(=O)[O-]
REMARK SMILES IDX 10 1 11 2 12 3 13 4 14 5 15 6 16 7 17 8 18 9 9 10 8 11 7 12
REMARK SMILES IDX 6 13 5 14 4 15 3 16 2 17 1 18
REMARK H PARENT
REMARK Flexibility Score: inf
ROOT
ATOM      1  C   UNL     1       6.010  -8.256  -8.226  1.00  0.00     0.004 C 
ENDROOT
BRANCH   1   2
ATOM      2  C   UNL     1       4.542  -8.620  -7.936  1.00  0.00     0.000 C 
BRANCH   2   3
ATOM      3  C   UNL     1       3.677  -8.637  -9.207  1.00  0.00     0.000 C 
BRANCH   3   4
ATOM      4  C   UNL     1       2.351  -7.880  -9.026  1.00  0.00     0.000 C 
BRANCH   4   5
ATOM      5  C   UNL     1       2.472  -6.386  -9.369  1.00  0.00     0.006 C 
BRANCH   5   6
ATOM      6  C   UNL     1       2.892  -5.532  -8.164  1.00  0.00     0.053 C 
BRANCH   6   7
ATOM      7  C   UNL     1       1.889  -4.450  -7.915  1.00  0.00     0.041 C 
ATOM      8  O   UNL     1       1.408  -3.799  -8.880  1.00  0.00    -0.550 OA
ATOM      9  O   UNL     1       1.514  -4.134  -6.615  1.00  0.00    -0.550 OA
ENDBRANCH   6   7
ENDBRANCH   5   6
ENDBRANCH   4   5
ENDBRANCH   3   4
ENDBRANCH   2   3
ENDBRANCH   1   2
BRANCH   1  10
ATOM     10  C   UNL     1       6.132  -7.106  -9.233  1.00  0.00     0.027 C 
BRANCH  10  11
ATOM     11  C   UNL     1       7.566  -6.687  -9.417  1.00  0.00    -0.031 C 
ATOM     12  C   UNL     1       7.913  -5.398  -9.551  1.00  0.00    -0.031 C 
BRANCH  12  13
ATOM     13  C   UNL     1       9.352  -4.982  -9.680  1.00  0.00     0.027 C 
BRANCH  13  14
ATOM     14  C   UNL     1       9.839  -4.292  -8.395  1.00  0.00     0.004 C 
BRANCH  14  15
ATOM     15  C   UNL     1       8.820  -3.284  -7.839  1.00  0.00     0.000 C 
BRANCH  15  16
ATOM     16  C   UNL     1       9.120  -1.839  -8.275  1.00  0.00    -0.000 C 
BRANCH  16  17
ATOM     17  C   UNL     1       8.237  -0.811  -7.552  1.00  0.00    -0.003 C 
ATOM     18  C   UNL     1       7.585  -1.372  -6.288  1.00  0.00     0.004 C 
ENDBRANCH  16  17
ENDBRANCH  15  16
ENDBRANCH  14  15
ENDBRANCH  13  14
ENDBRANCH  12  13
ENDBRANCH  10  11
ENDBRANCH   1  10
TORSDOF 13
ENDMDL
MODEL 4
REMARK VINA RESULT:    -3.597      3.257      6.453
REMARK INTER + INTRA:          -7.869
REMARK INTER:                  -6.428
REMARK INTRA:                  -1.441
REMARK UNBOUND:                -1.538
REMARK SMILES CCCCCCC=CCCCCCCCC(=O)[O-]
REMARK SMILES IDX 10 1 11 2 12 3 13 4 14 5 15 6 16 7 17 8 18 9 9 10 8 11 7 12
REMARK SMILES IDX 6 13 5 14 4 15 3 16 2 17 1 18
REMARK H PARENT
REMARK Flexibility Score: inf
ROOT
ATOM      1  C   UNL     1      -5.336   5.613  -5.300  1.00  0.00     0.004 C 
ENDROOT
BRANCH   1   2
ATOM      2  C   UNL     1      -6.442   6.469  -5.944  1.00  0.00     0.000 C 
BRANCH   2   3
ATOM      3  C   UNL     1      -7.482   6.955  -4.921  1.00  0.00     0.000 C 
BRANCH   3   4
ATOM      4  C   UNL     1      -8.611   5.934  -4.701  1.00  0.00     0.000 C 
BRANCH   4   5
ATOM      5  C   UNL     1      -9.215   5.428  -6.021  1.00  0.00     0.006 C 
BRANCH   5   6
ATOM      6  C   UNL     1      -9.777   4.003  -5.908  1.00  0.00     0.053 C 
BRANCH   6   7
ATOM      7  C   UNL     1      -8.973   3.057  -6.743  1.00  0.00     0.041 C 
ATOM      8  O   UNL     1      -9.475   1.967  -7.126  1.00  0.00    -0.550 OA
ATOM      9  O   UNL     1      -7.656   3.361  -7.067  1.00  0.00    -0.550 OA
ENDBRANCH   6   7
ENDBRANCH   5   6
ENDBRANCH   4   5
ENDBRANCH   3   4
ENDBRANCH   2   3
ENDBRANCH   1   2
BRANCH   1  10
ATOM     10  C   UNL     1      -4.196   6.470  -4.737  1.00  0.00     0.027 C 
BRANCH  10  11
ATOM     11  C   UNL     1      -4.233   6.515  -3.233  1.00  0.00    -0.031 C 
ATOM     12  C   UNL     1      -5.000   5.676  -2.521  1.00  0.00    -0.031 C 
BRANCH  12  13
ATOM     13  C   UNL     1      -4.991   5.689  -1.017  1.00  0.00     0.027 C 
BRANCH  13  14
ATOM     14  C   UNL     1      -3.849   6.570  -0.484  1.00  0.00     0.004 C 
BRANCH  14  15
ATOM     15  C   UNL     1      -2.841   5.783   0.369  1.00  0.00     0.000 C 
BRANCH  15  16
ATOM     16  C   UNL     1      -1.902   4.910  -0.481  1.00  0.00    -0.000 C 
BRANCH  16  17
ATOM     17  C   UNL     1      -1.169   5.717  -1.564  1.00  0.00    -0.003 C 
ATOM     18  C   UNL     1      -0.185   6.734  -0.984  1.00  0.00     0.004 C 
ENDBRANCH  16  17
ENDBRANCH  15  16
ENDBRANCH  14  15
ENDBRANCH  13  14
ENDBRANCH  12  13
ENDBRANCH  10  11
ENDBRANCH   1  10
TORSDOF 13
ENDMDL
MODEL 5
REMARK VINA RESULT:    -3.490      3.059      4.679
REMARK INTER + INTRA:          -7.681
REMARK INTER:                  -6.426
REMARK INTRA:                  -1.255
REMARK UNBOUND:                -1.538
REMARK SMILES CCCCCCC=CCCCCCCCC(=O)[O-]
REMARK SMILES IDX 10 1 11 2 12 3 13 4 14 5 15 6 16 7 17 8 18 9 9 10 8 11 7 12
REMARK SMILES IDX 6 13 5 14 4 15 3 16 2 17 1 18
REMARK H PARENT
REMARK Flexibility Score: inf
ROOT
ATOM      1  C   UNL     1      -4.208   6.574  -4.220  1.00  0.00     0.004 C 
ENDROOT
BRANCH   1   2
ATOM      2  C   UNL     1      -4.569   6.781  -2.737  1.00  0.00     0.000 C 
BRANCH   2   3
ATOM      3  C   UNL     1      -4.260   5.544  -1.878  1.00  0.00     0.000 C 
BRANCH   3   4
ATOM      4  C   UNL     1      -4.130   5.885  -0.384  1.00  0.00     0.000 C 
BRANCH   4   5
ATOM      5  C   UNL     1      -2.675   5.831   0.110  1.00  0.00     0.006 C 
BRANCH   5   6
ATOM      6  C   UNL     1      -1.705   5.304  -0.959  1.00  0.00     0.053 C 
BRANCH   6   7
ATOM      7  C   UNL     1      -0.751   6.378  -1.374  1.00  0.00     0.041 C 
ATOM      8  O   UNL     1      -0.921   6.990  -2.462  1.00  0.00    -0.550 OA
ATOM      9  O   UNL     1       0.349   6.678  -0.580  1.00  0.00    -0.550 OA
ENDBRANCH   6   7
ENDBRANCH   5   6
ENDBRANCH   4   5
ENDBRANCH   3   4
ENDBRANCH   2   3
ENDBRANCH   1   2
BRANCH   1  10
ATOM     10  C   UNL     1      -5.419   6.771  -5.141  1.00  0.00     0.027 C 
BRANCH  10  11
ATOM     11  C   UNL     1      -6.672   6.200  -4.531  1.00  0.00    -0.031 C 
ATOM     12  C   UNL     1      -7.883   6.708  -4.801  1.00  0.00    -0.031 C 
BRANCH  12  13
ATOM     13  C   UNL     1      -9.134   6.099  -4.232  1.00  0.00     0.027 C 
BRANCH  13  14
ATOM     14  C   UNL     1      -9.581   4.886  -5.065  1.00  0.00     0.004 C 
BRANCH  14  15
ATOM     15  C   UNL     1      -9.355   5.086  -6.572  1.00  0.00     0.000 C 
BRANCH  15  16
ATOM     16  C   UNL     1      -8.684   3.872  -7.236  1.00  0.00    -0.000 C 
BRANCH  16  17
ATOM     17  C   UNL     1      -7.186   3.775  -6.906  1.00  0.00    -0.003 C 
ATOM     18  C   UNL     1      -6.292   4.174  -8.080  1.00  0.00     0.004 C 
ENDBRANCH  16  17
ENDBRANCH  15  16
ENDBRANCH  14  15
ENDBRANCH  13  14
ENDBRANCH  12  13
ENDBRANCH  10  11
ENDBRANCH   1  10
TORSDOF 13
ENDMDL
MODEL 6
REMARK VINA RESULT:    -3.392     13.221     16.513
REMARK INTER + INTRA:          -7.509
REMARK INTER:                  -5.794
REMARK INTRA:                  -1.714
REMARK UNBOUND:                -1.538
REMARK SMILES CCCCCCC=CCCCCCCCC(=O)[O-]
REMARK SMILES IDX 10 1 11 2 12 3 13 4 14 5 15 6 16 7 17 8 18 9 9 10 8 11 7 12
REMARK SMILES IDX 6 13 5 14 4 15 3 16 2 17 1 18
REMARK H PARENT
REMARK Flexibility Score: inf
ROOT
ATOM      1  C   UNL     1       4.699   1.963   8.011  1.00  0.00     0.004 C 
ENDROOT
BRANCH   1   2
ATOM      2  C   UNL     1       5.225   3.339   8.460  1.00  0.00     0.000 C 
BRANCH   2   3
ATOM      3  C   UNL     1       6.541   3.723   7.765  1.00  0.00     0.000 C 
BRANCH   3   4
ATOM      4  C   UNL     1       7.112   2.577   6.913  1.00  0.00     0.000 C 
BRANCH   4   5
ATOM      5  C   UNL     1       7.467   3.023   5.485  1.00  0.00     0.006 C 
BRANCH   5   6
ATOM      6  C   UNL     1       6.962   2.044   4.415  1.00  0.00     0.053 C 
BRANCH   6   7
ATOM      7  C   UNL     1       5.807   2.635   3.670  1.00  0.00     0.041 C 
ATOM      8  O   UNL     1       4.829   1.913   3.341  1.00  0.00    -0.550 OA
ATOM      9  O   UNL     1       5.828   3.975   3.303  1.00  0.00    -0.550 OA
ENDBRANCH   6   7
ENDBRANCH   5   6
ENDBRANCH   4   5
ENDBRANCH   3   4
ENDBRANCH   2   3
ENDBRANCH   1   2
BRANCH   1  10
ATOM     10  C   UNL     1       4.054   1.187   9.167  1.00  0.00     0.027 C 
BRANCH  10  11
ATOM     11  C   UNL     1       4.930   0.052   9.623  1.00  0.00    -0.031 C 
ATOM     12  C   UNL     1       6.032  -0.305   8.946  1.00  0.00    -0.031 C 
BRANCH  12  13
ATOM     13  C   UNL     1       6.933  -1.404   9.437  1.00  0.00     0.027 C 
BRANCH  13  14
ATOM     14  C   UNL     1       8.004  -1.744   8.388  1.00  0.00     0.004 C 
BRANCH  14  15
ATOM     15  C   UNL     1       7.831  -0.949   7.084  1.00  0.00     0.000 C 
BRANCH  15  16
ATOM     16  C   UNL     1       9.175  -0.513   6.475  1.00  0.00    -0.000 C 
BRANCH  16  17
ATOM     17  C   UNL     1       9.599  -1.397   5.292  1.00  0.00    -0.003 C 
ATOM     18  C   UNL     1       8.996  -0.943   3.963  1.00  0.00     0.004 C 
ENDBRANCH  16  17
ENDBRANCH  15  16
ENDBRANCH  14  15
ENDBRANCH  13  14
ENDBRANCH  12  13
ENDBRANCH  10  11
ENDBRANCH   1  10
TORSDOF 13
ENDMDL
MODEL 7
REMARK VINA RESULT:    -3.367      2.889      4.513
REMARK INTER + INTRA:          -7.464
REMARK INTER:                  -6.109
REMARK INTRA:                  -1.355
REMARK UNBOUND:                -1.538
REMARK SMILES CCCCCCC=CCCCCCCCC(=O)[O-]
REMARK SMILES IDX 10 1 11 2 12 3 13 4 14 5 15 6 16 7 17 8 18 9 9 10 8 11 7 12
REMARK SMILES IDX 6 13 5 14 4 15 3 16 2 17 1 18
REMARK H PARENT
REMARK Flexibility Score: inf
ROOT
ATOM      1  C   UNL     1      -5.461   6.041  -3.630  1.00  0.00     0.004 C 
ENDROOT
BRANCH   1   2
ATOM      2  C   UNL     1      -5.918   6.679  -2.305  1.00  0.00     0.000 C 
BRANCH   2   3
ATOM      3  C   UNL     1      -5.488   5.861  -1.077  1.00  0.00     0.000 C 
BRANCH   3   4
ATOM      4  C   UNL     1      -4.189   6.389  -0.445  1.00  0.00     0.000 C 
BRANCH   4   5
ATOM      5  C   UNL     1      -2.984   5.473  -0.720  1.00  0.00     0.006 C 
BRANCH   5   6
ATOM      6  C   UNL     1      -1.705   5.949  -0.017  1.00  0.00     0.053 C 
BRANCH   6   7
ATOM      7  C   UNL     1      -0.689   6.390  -1.023  1.00  0.00     0.041 C 
ATOM      8  O   UNL     1       0.445   6.789  -0.646  1.00  0.00    -0.550 OA
ATOM      9  O   UNL     1      -1.007   6.398  -2.376  1.00  0.00    -0.550 OA
ENDBRANCH   6   7
ENDBRANCH   5   6
ENDBRANCH   4   5
ENDBRANCH   3   4
ENDBRANCH   2   3
ENDBRANCH   1   2
BRANCH   1  10
ATOM     10  C   UNL     1      -4.218   6.732  -4.204  1.00  0.00     0.027 C 
BRANCH  10  11
ATOM     11  C   UNL     1      -4.012   6.377  -5.653  1.00  0.00    -0.031 C 
ATOM     12  C   UNL     1      -5.037   6.039  -6.449  1.00  0.00    -0.031 C 
BRANCH  12  13
ATOM     13  C   UNL     1      -4.832   5.739  -7.908  1.00  0.00     0.027 C 
BRANCH  13  14
ATOM     14  C   UNL     1      -5.472   4.393  -8.285  1.00  0.00     0.004 C 
BRANCH  14  15
ATOM     15  C   UNL     1      -6.473   3.895  -7.230  1.00  0.00     0.000 C 
BRANCH  15  16
ATOM     16  C   UNL     1      -7.921   3.879  -7.749  1.00  0.00    -0.000 C 
BRANCH  16  17
ATOM     17  C   UNL     1      -8.769   5.017  -7.160  1.00  0.00    -0.003 C 
ATOM     18  C   UNL     1      -8.524   5.229  -5.666  1.00  0.00     0.004 C 
ENDBRANCH  16  17
ENDBRANCH  15  16
ENDBRANCH  14  15
ENDBRANCH  13  14
ENDBRANCH  12  13
ENDBRANCH  10  11
ENDBRANCH   1  10
TORSDOF 13
ENDMDL
MODEL 8
REMARK VINA RESULT:    -3.339     13.761     16.359
REMARK INTER + INTRA:          -7.414
REMARK INTER:                  -5.455
REMARK INTRA:                  -1.959
REMARK UNBOUND:                -1.538
REMARK SMILES CCCCCCC=CCCCCCCCC(=O)[O-]
REMARK SMILES IDX 10 1 11 2 12 3 13 4 14 5 15 6 16 7 17 8 18 9 9 10 8 11 7 12
REMARK SMILES IDX 6 13 5 14 4 15 3 16 2 17 1 18
REMARK H PARENT
REMARK Flexibility Score: inf
ROOT
ATOM      1  C   UNL     1       4.169   1.879   8.230  1.00  0.00     0.004 C 
ENDROOT
BRANCH   1   2
ATOM      2  C   UNL     1       4.502   0.578   8.983  1.00  0.00     0.000 C 
BRANCH   2   3
ATOM      3  C   UNL     1       5.983   0.493   9.388  1.00  0.00     0.000 C 
BRANCH   3   4
ATOM      4  C   UNL     1       6.930   0.671   8.190  1.00  0.00     0.000 C 
BRANCH   4   5
ATOM      5  C   UNL     1       7.711  -0.612   7.859  1.00  0.00     0.006 C 
BRANCH   5   6
ATOM      6  C   UNL     1       8.714  -0.416   6.713  1.00  0.00     0.053 C 
BRANCH   6   7
ATOM      7  C   UNL     1       8.507  -1.454   5.655  1.00  0.00     0.041 C 
ATOM      8  O   UNL     1       8.546  -2.678   5.953  1.00  0.00    -0.550 OA
ATOM      9  O   UNL     1       8.310  -1.072   4.334  1.00  0.00    -0.550 OA
ENDBRANCH   6   7
ENDBRANCH   5   6
ENDBRANCH   4   5
ENDBRANCH   3   4
ENDBRANCH   2   3
ENDBRANCH   1   2
BRANCH   1  10
ATOM     10  C   UNL     1       4.039   3.078   9.178  1.00  0.00     0.027 C 
BRANCH  10  11
ATOM     11  C   UNL     1       4.730   4.295   8.623  1.00  0.00    -0.031 C 
ATOM     12  C   UNL     1       5.751   4.194   7.759  1.00  0.00    -0.031 C 
BRANCH  12  13
ATOM     13  C   UNL     1       6.400   5.414   7.166  1.00  0.00     0.027 C 
BRANCH  13  14
ATOM     14  C   UNL     1       7.387   5.022   6.054  1.00  0.00     0.004 C 
BRANCH  14  15
ATOM     15  C   UNL     1       7.948   3.602   6.231  1.00  0.00     0.000 C 
BRANCH  15  16
ATOM     16  C   UNL     1       7.990   2.815   4.910  1.00  0.00    -0.000 C 
BRANCH  16  17
ATOM     17  C   UNL     1       6.699   2.020   4.658  1.00  0.00    -0.003 C 
ATOM     18  C   UNL     1       5.805   2.659   3.595  1.00  0.00     0.004 C 
ENDBRANCH  16  17
ENDBRANCH  15  16
ENDBRANCH  14  15
ENDBRANCH  13  14
ENDBRANCH  12  13
ENDBRANCH  10  11
ENDBRANCH   1  10
TORSDOF 13
ENDMDL
MODEL 9
REMARK VINA RESULT:    -3.331     13.408     16.535
REMARK INTER + INTRA:          -7.400
REMARK INTER:                  -5.560
REMARK INTRA:                  -1.841
REMARK UNBOUND:                -1.538
REMARK SMILES CCCCCCC=CCCCCCCCC(=O)[O-]
REMARK SMILES IDX 10 1 11 2 12 3 13 4 14 5 15 6 16 7 17 8 18 9 9 10 8 11 7 12
REMARK SMILES IDX 6 13 5 14 4 15 3 16 2 17 1 18
REMARK H PARENT
REMARK Flexibility Score: inf
ROOT
ATOM      1  C   UNL     1       8.311  -0.402   4.615  1.00  0.00     0.004 C 
ENDROOT
BRANCH   1   2
ATOM      2  C   UNL     1       9.150   0.796   4.134  1.00  0.00     0.000 C 
BRANCH   2   3
ATOM      3  C   UNL     1       9.827   1.545   5.293  1.00  0.00     0.000 C 
BRANCH   3   4
ATOM      4  C   UNL     1       8.815   2.272   6.195  1.00  0.00     0.000 C 
BRANCH   4   5
ATOM      5  C   UNL     1       7.961   3.290   5.422  1.00  0.00     0.006 C 
BRANCH   5   6
ATOM      6  C   UNL     1       6.475   2.904   5.377  1.00  0.00     0.053 C 
BRANCH   6   7
ATOM      7  C   UNL     1       5.929   3.090   3.996  1.00  0.00     0.041 C 
ATOM      8  O   UNL     1       5.982   4.219   3.441  1.00  0.00    -0.550 OA
ATOM      9  O   UNL     1       5.326   2.025   3.337  1.00  0.00    -0.550 OA
ENDBRANCH   6   7
ENDBRANCH   5   6
ENDBRANCH   4   5
ENDBRANCH   3   4
ENDBRANCH   2   3
ENDBRANCH   1   2
BRANCH   1  10
ATOM     10  C   UNL     1       9.187  -1.547   5.138  1.00  0.00     0.027 C 
BRANCH  10  11
ATOM     11  C   UNL     1       8.868  -1.873   6.572  1.00  0.00    -0.031 C 
ATOM     12  C   UNL     1       7.844  -1.294   7.216  1.00  0.00    -0.031 C 
BRANCH  12  13
ATOM     13  C   UNL     1       7.497  -1.664   8.631  1.00  0.00     0.027 C 
BRANCH  13  14
ATOM     14  C   UNL     1       6.693  -0.542   9.309  1.00  0.00     0.004 C 
BRANCH  14  15
ATOM     15  C   UNL     1       6.334   0.599   8.343  1.00  0.00     0.000 C 
BRANCH  15  16
ATOM     16  C   UNL     1       5.651   1.781   9.052  1.00  0.00    -0.000 C 
BRANCH  16  17
ATOM     17  C   UNL     1       4.451   2.326   8.261  1.00  0.00    -0.003 C 
ATOM     18  C   UNL     1       3.264   1.363   8.242  1.00  0.00     0.004 C 
ENDBRANCH  16  17
ENDBRANCH  15  16
ENDBRANCH  14  15
ENDBRANCH  13  14
ENDBRANCH  12  13
ENDBRANCH  10  11
ENDBRANCH   1  10
TORSDOF 13
ENDMDL
