MODEL 1
REMARK VINA RESULT:    -2.016      0.000      0.000
REMARK INTER + INTRA:          -2.016
REMARK INTER:                  -2.016
REMARK INTRA:                   0.000
REMARK UNBOUND:                 0.000
REMARK SMILES CC(=O)[O-]
REMARK SMILES IDX 1 1 2 2 3 3 4 4
REMARK H PARENT
REMARK Flexibility Score: inf
ROOT
ATOM      1  C   UNL     1       7.371  -5.259  42.821  1.00  0.00     0.063 C 
ATOM      2  C   UNL     1       8.242  -6.346  43.355  1.00  0.00     0.038 C 
ATOM      3  O   UNL     1       9.344  -6.600  42.803  1.00  0.00    -0.550 OA
ATOM      4  O   UNL     1       7.865  -7.045  44.494  1.00  0.00    -0.550 OA
ENDROOT
TORSDOF 0
ENDMDL
MODEL 2
REMARK VINA RESULT:    -1.993      1.989      2.273
REMARK INTER + INTRA:          -1.993
REMARK INTER:                  -1.993
REMARK INTRA:                   0.000
REMARK UNBOUND:                 0.000
REMARK SMILES CC(=O)[O-]
REMARK SMILES IDX 1 1 2 2 3 3 4 4
REMARK H PARENT
REMARK Flexibility Score: inf
ROOT
ATOM      1  C   UNL     1       7.262  -5.160  43.077  1.00  0.00     0.063 C 
ATOM      2  C   UNL     1       7.566  -5.770  41.750  1.00  0.00     0.038 C 
ATOM      3  O   UNL     1       7.861  -5.036  40.772  1.00  0.00    -0.550 OA
ATOM      4  O   UNL     1       7.579  -7.151  41.605  1.00  0.00    -0.550 OA
ENDROOT
TORSDOF 0
ENDMDL
MODEL 3
REMARK VINA RESULT:    -1.974      0.173      1.615
REMARK INTER + INTRA:          -1.974
REMARK INTER:                  -1.974
REMARK INTRA:                   0.000
REMARK UNBOUND:                 0.000
REMARK SMILES CC(=O)[O-]
REMARK SMILES IDX 1 1 2 2 3 3 4 4
REMARK H PARENT
REMARK Flexibility Score: inf
ROOT
ATOM      1  C   UNL     1       7.422  -5.223  42.724  1.00  0.00     0.063 C 
ATOM      2  C   UNL     1       8.190  -6.337  43.351  1.00  0.00     0.038 C 
ATOM      3  O   UNL     1       7.779  -6.867  44.415  1.00  0.00    -0.550 OA
ATOM      4  O   UNL     1       9.332  -6.830  42.733  1.00  0.00    -0.550 OA
ENDROOT
TORSDOF 0
ENDMDL
MODEL 4
REMARK VINA RESULT:    -1.956      1.847      2.799
REMARK INTER + INTRA:          -1.956
REMARK INTER:                  -1.956
REMARK INTRA:                   0.000
REMARK UNBOUND:                 0.000
REMARK SMILES CC(=O)[O-]
REMARK SMILES IDX 1 1 2 2 3 3 4 4
REMARK H PARENT
REMARK Flexibility Score: inf
ROOT
ATOM      1  C   UNL     1       7.777  -9.307  43.990  1.00  0.00     0.063 C 
ATOM      2  C   UNL     1       8.328  -7.921  43.985  1.00  0.00     0.038 C 
ATOM      3  O   UNL     1       7.762  -7.014  44.647  1.00  0.00    -0.550 OA
ATOM      4  O   UNL     1       9.500  -7.640  43.294  1.00  0.00    -0.550 OA
ENDROOT
TORSDOF 0
ENDMDL
MODEL 5
REMARK VINA RESULT:    -1.930      2.235      2.872
REMARK INTER + INTRA:          -1.930
REMARK INTER:                  -1.930
REMARK INTRA:                   0.000
REMARK UNBOUND:                 0.000
REMARK SMILES CC(=O)[O-]
REMARK SMILES IDX 1 1 2 2 3 3 4 4
REMARK H PARENT
REMARK Flexibility Score: inf
ROOT
ATOM      1  C   UNL     1       7.756  -7.004  41.748  1.00  0.00     0.063 C 
ATOM      2  C   UNL     1       7.480  -5.557  41.980  1.00  0.00     0.038 C 
ATOM      3  O   UNL     1       7.068  -5.165  43.103  1.00  0.00    -0.550 OA
ATOM      4  O   UNL     1       7.730  -4.630  40.976  1.00  0.00    -0.550 OA
ENDROOT
TORSDOF 0
ENDMDL
MODEL 6
REMARK VINA RESULT:    -1.907      2.056      2.474
REMARK INTER + INTRA:          -1.907
REMARK INTER:                  -1.907
REMARK INTRA:                   0.000
REMARK UNBOUND:                 0.000
REMARK SMILES CC(=O)[O-]
REMARK SMILES IDX 1 1 2 2 3 3 4 4
REMARK H PARENT
REMARK Flexibility Score: inf
ROOT
ATOM      1  C   UNL     1       7.994  -4.434  40.944  1.00  0.00     0.063 C 
ATOM      2  C   UNL     1       7.514  -5.482  41.891  1.00  0.00     0.038 C 
ATOM      3  O   UNL     1       7.017  -5.152  42.998  1.00  0.00    -0.550 OA
ATOM      4  O   UNL     1       7.564  -6.822  41.530  1.00  0.00    -0.550 OA
ENDROOT
TORSDOF 0
ENDMDL
MODEL 7
REMARK VINA RESULT:    -1.844     15.978     16.488
REMARK INTER + INTRA:          -1.844
REMARK INTER:                  -1.844
REMARK INTRA:                   0.000
REMARK UNBOUND:                 0.000
REMARK SMILES CC(=O)[O-]
REMARK SMILES IDX 1 1 2 2 3 3 4 4
REMARK H PARENT
REMARK Flexibility Score: inf
ROOT
ATOM      1  C   UNL     1      22.770 -12.877  47.155  1.00  0.00     0.063 C 
ATOM      2  C   UNL     1      22.244 -14.215  46.757  1.00  0.00     0.038 C 
ATOM      3  O   UNL     1      22.998 -15.222  46.778  1.00  0.00    -0.550 OA
ATOM      4  O   UNL     1      20.906 -14.363  46.415  1.00  0.00    -0.550 OA
ENDROOT
TORSDOF 0
ENDMDL
MODEL 8
REMARK VINA RESULT:    -1.841     16.099     16.635
REMARK INTER + INTRA:          -1.841
REMARK INTER:                  -1.841
REMARK INTRA:                   0.000
REMARK UNBOUND:                 0.000
REMARK SMILES CC(=O)[O-]
REMARK SMILES IDX 1 1 2 2 3 3 4 4
REMARK H PARENT
REMARK Flexibility Score: inf
ROOT
ATOM      1  C   UNL     1      22.499 -11.656  46.917  1.00  0.00     0.063 C 
ATOM      2  C   UNL     1      22.870 -13.093  47.064  1.00  0.00     0.038 C 
ATOM      3  O   UNL     1      21.995 -13.988  46.933  1.00  0.00    -0.550 OA
ATOM      4  O   UNL     1      24.193 -13.451  47.290  1.00  0.00    -0.550 OA
ENDROOT
TORSDOF 0
ENDMDL
MODEL 9
REMARK VINA RESULT:    -1.801     10.074     10.594
REMARK INTER + INTRA:          -1.801
REMARK INTER:                  -1.801
REMARK INTRA:                   0.000
REMARK UNBOUND:                 0.000
REMARK SMILES CC(=O)[O-]
REMARK SMILES IDX 1 1 2 2 3 3 4 4
REMARK H PARENT
REMARK Flexibility Score: inf
ROOT
ATOM      1  C   UNL     1       6.371   0.668  34.409  1.00  0.00     0.063 C 
ATOM      2  C   UNL     1       5.680  -0.549  34.926  1.00  0.00     0.038 C 
ATOM      3  O   UNL     1       5.389  -1.490  34.144  1.00  0.00    -0.550 OA
ATOM      4  O   UNL     1       5.405  -0.670  36.282  1.00  0.00    -0.550 OA
ENDROOT
TORSDOF 0
ENDMDL
