MODEL 1
REMARK VINA RESULT:    -2.211      0.000      0.000
REMARK INTER + INTRA:          -3.117
REMARK INTER:                  -2.728
REMARK INTRA:                  -0.389
REMARK UNBOUND:                -0.389
REMARK SMILES CCCCC(=O)CC
REMARK SMILES IDX 4 1 3 2 2 3 1 4 5 5 6 6 7 7 8 8
REMARK H PARENT
REMARK Flexibility Score: inf
ROOT
ATOM      1  C   UNL     1     120.240 108.845 116.735  1.00  0.00     0.075 C 
ENDROOT
BRANCH   1   2
ATOM      2  C   UNL     1     120.695 110.304 116.885  1.00  0.00     0.008 C 
BRANCH   2   3
ATOM      3  C   UNL     1     121.686 110.499 118.041  1.00  0.00    -0.003 C 
ATOM      4  C   UNL     1     123.139 110.556 117.571  1.00  0.00     0.004 C 
ENDBRANCH   2   3
ENDBRANCH   1   2
BRANCH   1   5
ATOM      5  C   UNL     1     120.784 108.249 115.464  1.00  0.00     0.132 C 
ATOM      6  O   UNL     1     120.163 108.395 114.421  1.00  0.00    -0.300 OA
BRANCH   5   7
ATOM      7  C   UNL     1     122.088 107.496 115.448  1.00  0.00     0.072 C 
ATOM      8  C   UNL     1     122.412 106.946 116.833  1.00  0.00     0.012 C 
ENDBRANCH   5   7
ENDBRANCH   1   5
TORSDOF 4
ENDMDL
MODEL 2
REMARK VINA RESULT:    -2.194     11.654     13.018
REMARK INTER + INTRA:          -3.096
REMARK INTER:                  -2.731
REMARK INTRA:                  -0.365
REMARK UNBOUND:                -0.389
REMARK SMILES CCCCC(=O)CC
REMARK SMILES IDX 4 1 3 2 2 3 1 4 5 5 6 6 7 7 8 8
REMARK H PARENT
REMARK Flexibility Score: inf
ROOT
ATOM      1  C   UNL     1     123.714 120.911 116.696  1.00  0.00     0.075 C 
ENDROOT
BRANCH   1   2
ATOM      2  C   UNL     1     124.206 119.948 117.787  1.00  0.00     0.008 C 
BRANCH   2   3
ATOM      3  C   UNL     1     124.257 120.603 119.175  1.00  0.00    -0.003 C 
ATOM      4  C   UNL     1     125.534 121.410 119.401  1.00  0.00     0.004 C 
ENDBRANCH   2   3
ENDBRANCH   1   2
BRANCH   1   5
ATOM      5  C   UNL     1     124.765 121.087 115.633  1.00  0.00     0.132 C 
ATOM      6  O   UNL     1     124.859 120.257 114.741  1.00  0.00    -0.300 OA
BRANCH   5   7
ATOM      7  C   UNL     1     125.688 122.278 115.633  1.00  0.00     0.072 C 
ATOM      8  C   UNL     1     125.037 123.466 116.334  1.00  0.00     0.012 C 
ENDBRANCH   5   7
ENDBRANCH   1   5
TORSDOF 4
ENDMDL
MODEL 3
REMARK VINA RESULT:    -2.191     17.683     18.827
REMARK INTER + INTRA:          -3.092
REMARK INTER:                  -2.710
REMARK INTRA:                  -0.381
REMARK UNBOUND:                -0.389
REMARK SMILES CCCCC(=O)CC
REMARK SMILES IDX 4 1 3 2 2 3 1 4 5 5 6 6 7 7 8 8
REMARK H PARENT
REMARK Flexibility Score: inf
ROOT
ATOM      1  C   UNL     1     112.341 123.889 116.416  1.00  0.00     0.075 C 
ENDROOT
BRANCH   1   2
ATOM      2  C   UNL     1     113.174 124.484 117.561  1.00  0.00     0.008 C 
BRANCH   2   3
ATOM      3  C   UNL     1     112.387 124.580 118.876  1.00  0.00    -0.003 C 
ATOM      4  C   UNL     1     111.680 125.924 119.045  1.00  0.00     0.004 C 
ENDBRANCH   2   3
ENDBRANCH   1   2
BRANCH   1   5
ATOM      5  C   UNL     1     112.139 124.907 115.325  1.00  0.00     0.132 C 
ATOM      6  O   UNL     1     112.927 124.949 114.392  1.00  0.00    -0.300 OA
BRANCH   5   7
ATOM      7  C   UNL     1     110.972 125.859 115.349  1.00  0.00     0.072 C 
ATOM      8  C   UNL     1     109.731 125.180 115.920  1.00  0.00     0.012 C 
ENDBRANCH   5   7
ENDBRANCH   1   5
TORSDOF 4
ENDMDL
MODEL 4
REMARK VINA RESULT:    -2.174      1.493      2.139
REMARK INTER + INTRA:          -3.071
REMARK INTER:                  -2.932
REMARK INTRA:                  -0.139
REMARK UNBOUND:                -0.389
REMARK SMILES CCCCC(=O)CC
REMARK SMILES IDX 4 1 3 2 2 3 1 4 5 5 6 6 7 7 8 8
REMARK H PARENT
REMARK Flexibility Score: inf
ROOT
ATOM      1  C   UNL     1     120.349 108.861 116.646  1.00  0.00     0.075 C 
ENDROOT
BRANCH   1   2
ATOM      2  C   UNL     1     120.914 108.563 118.042  1.00  0.00     0.008 C 
BRANCH   2   3
ATOM      3  C   UNL     1     120.006 109.073 119.170  1.00  0.00    -0.003 C 
ATOM      4  C   UNL     1     118.828 109.897 118.652  1.00  0.00     0.004 C 
ENDBRANCH   2   3
ENDBRANCH   1   2
BRANCH   1   5
ATOM      5  C   UNL     1     121.064 108.047 115.601  1.00  0.00     0.132 C 
ATOM      6  O   UNL     1     120.660 108.066 114.448  1.00  0.00    -0.300 OA
BRANCH   5   7
ATOM      7  C   UNL     1     122.280 107.227 115.943  1.00  0.00     0.072 C 
ATOM      8  C   UNL     1     123.277 107.230 114.789  1.00  0.00     0.012 C 
ENDBRANCH   5   7
ENDBRANCH   1   5
TORSDOF 4
ENDMDL
MODEL 5
REMARK VINA RESULT:    -2.173      1.497      2.996
REMARK INTER + INTRA:          -3.070
REMARK INTER:                  -2.821
REMARK INTRA:                  -0.249
REMARK UNBOUND:                -0.389
REMARK SMILES CCCCC(=O)CC
REMARK SMILES IDX 4 1 3 2 2 3 1 4 5 5 6 6 7 7 8 8
REMARK H PARENT
REMARK Flexibility Score: inf
ROOT
ATOM      1  C   UNL     1     122.213 107.265 115.915  1.00  0.00     0.075 C 
ENDROOT
BRANCH   1   2
ATOM      2  C   UNL     1     123.204 107.278 114.742  1.00  0.00     0.008 C 
BRANCH   2   3
ATOM      3  C   UNL     1     124.598 107.776 115.151  1.00  0.00    -0.003 C 
ATOM      4  C   UNL     1     124.562 108.689 116.376  1.00  0.00     0.004 C 
ENDBRANCH   2   3
ENDBRANCH   1   2
BRANCH   1   5
ATOM      5  C   UNL     1     120.988 108.074 115.581  1.00  0.00     0.132 C 
ATOM      6  O   UNL     1     120.608 108.134 114.422  1.00  0.00    -0.300 OA
BRANCH   5   7
ATOM      7  C   UNL     1     120.209 108.793 116.651  1.00  0.00     0.072 C 
ATOM      8  C   UNL     1     120.841 108.571 118.022  1.00  0.00     0.012 C 
ENDBRANCH   5   7
ENDBRANCH   1   5
TORSDOF 4
ENDMDL
MODEL 6
REMARK VINA RESULT:    -2.149     12.830     13.606
REMARK INTER + INTRA:          -3.041
REMARK INTER:                  -2.655
REMARK INTRA:                  -0.386
REMARK UNBOUND:                -0.389
REMARK SMILES CCCCC(=O)CC
REMARK SMILES IDX 4 1 3 2 2 3 1 4 5 5 6 6 7 7 8 8
REMARK H PARENT
REMARK Flexibility Score: inf
ROOT
ATOM      1  C   UNL     1     109.351 112.381 116.446  1.00  0.00     0.075 C 
ENDROOT
BRANCH   1   2
ATOM      2  C   UNL     1     108.766 113.092 117.675  1.00  0.00     0.008 C 
BRANCH   2   3
ATOM      3  C   UNL     1     108.773 112.206 118.929  1.00  0.00    -0.003 C 
ATOM      4  C   UNL     1     107.394 111.631 119.253  1.00  0.00     0.004 C 
ENDBRANCH   2   3
ENDBRANCH   1   2
BRANCH   1   5
ATOM      5  C   UNL     1     108.270 112.088 115.440  1.00  0.00     0.132 C 
ATOM      6  O   UNL     1     108.157 112.805 114.457  1.00  0.00    -0.300 OA
BRANCH   5   7
ATOM      7  C   UNL     1     107.340 110.916 115.609  1.00  0.00     0.072 C 
ATOM      8  C   UNL     1     108.111 109.670 116.032  1.00  0.00     0.012 C 
ENDBRANCH   5   7
ENDBRANCH   1   5
TORSDOF 4
ENDMDL
MODEL 7
REMARK VINA RESULT:    -2.106      8.643     10.078
REMARK INTER + INTRA:          -2.987
REMARK INTER:                  -2.856
REMARK INTRA:                  -0.132
REMARK UNBOUND:                -0.389
REMARK SMILES CCCCC(=O)CC
REMARK SMILES IDX 4 1 3 2 2 3 1 4 5 5 6 6 7 7 8 8
REMARK H PARENT
REMARK Flexibility Score: inf
ROOT
ATOM      1  C   UNL     1     118.456 116.514 113.129  1.00  0.00     0.075 C 
ENDROOT
BRANCH   1   2
ATOM      2  C   UNL     1     119.260 116.124 111.881  1.00  0.00     0.008 C 
BRANCH   2   3
ATOM      3  C   UNL     1     119.994 114.785 112.044  1.00  0.00    -0.003 C 
ATOM      4  C   UNL     1     119.739 114.135 113.403  1.00  0.00     0.004 C 
ENDBRANCH   2   3
ENDBRANCH   1   2
BRANCH   1   5
ATOM      5  C   UNL     1     118.057 117.965 113.070  1.00  0.00     0.132 C 
ATOM      6  O   UNL     1     116.880 118.256 112.919  1.00  0.00    -0.300 OA
BRANCH   5   7
ATOM      7  C   UNL     1     119.076 119.064 113.214  1.00  0.00     0.072 C 
ATOM      8  C   UNL     1     118.653 120.302 112.429  1.00  0.00     0.012 C 
ENDBRANCH   5   7
ENDBRANCH   1   5
TORSDOF 4
ENDMDL
MODEL 8
REMARK VINA RESULT:    -2.051     11.083     11.785
REMARK INTER + INTRA:          -2.920
REMARK INTER:                  -2.769
REMARK INTRA:                  -0.151
REMARK UNBOUND:                -0.389
REMARK SMILES CCCCC(=O)CC
REMARK SMILES IDX 4 1 3 2 2 3 1 4 5 5 6 6 7 7 8 8
REMARK H PARENT
REMARK Flexibility Score: inf
ROOT
ATOM      1  C   UNL     1     116.134 118.702 111.926  1.00  0.00     0.075 C 
ENDROOT
BRANCH   1   2
ATOM      2  C   UNL     1     117.028 119.215 113.064  1.00  0.00     0.008 C 
BRANCH   2   3
ATOM      3  C   UNL     1     118.287 119.929 112.551  1.00  0.00    -0.003 C 
ATOM      4  C   UNL     1     119.272 118.976 111.875  1.00  0.00     0.004 C 
ENDBRANCH   2   3
ENDBRANCH   1   2
BRANCH   1   5
ATOM      5  C   UNL     1     115.485 117.399 112.310  1.00  0.00     0.132 C 
ATOM      6  O   UNL     1     116.188 116.449 112.619  1.00  0.00    -0.300 OA
BRANCH   5   7
ATOM      7  C   UNL     1     113.987 117.250 112.341  1.00  0.00     0.072 C 
ATOM      8  C   UNL     1     113.304 118.569 111.993  1.00  0.00     0.012 C 
ENDBRANCH   5   7
ENDBRANCH   1   5
TORSDOF 4
ENDMDL
MODEL 9
REMARK VINA RESULT:    -0.414      8.257      9.274
REMARK INTER + INTRA:          -0.899
REMARK INTER:                  -0.761
REMARK INTRA:                  -0.138
REMARK UNBOUND:                -0.389
REMARK SMILES CCCCC(=O)CC
REMARK SMILES IDX 4 1 3 2 2 3 1 4 5 5 6 6 7 7 8 8
REMARK H PARENT
REMARK Flexibility Score: inf
ROOT
ATOM      1  C   UNL     1     118.599 117.057 113.169  1.00  0.00     0.075 C 
ENDROOT
BRANCH   1   2
ATOM      2  C   UNL     1     119.236 117.590 111.878  1.00  0.00     0.008 C 
BRANCH   2   3
ATOM      3  C   UNL     1     119.559 119.089 111.953  1.00  0.00    -0.003 C 
ATOM      4  C   UNL     1     118.310 119.967 111.875  1.00  0.00     0.004 C 
ENDBRANCH   2   3
ENDBRANCH   1   2
BRANCH   1   5
ATOM      5  C   UNL     1     119.170 115.709 113.523  1.00  0.00     0.132 C 
ATOM      6  O   UNL     1     119.123 115.325 114.682  1.00  0.00    -0.300 OA
BRANCH   5   7
ATOM      7  C   UNL     1     119.778 114.816 112.473  1.00  0.00     0.072 C 
ATOM      8  C   UNL     1     118.727 113.882 111.882  1.00  0.00     0.012 C 
ENDBRANCH   5   7
ENDBRANCH   1   5
TORSDOF 4
ENDMDL
