MODEL 1
REMARK VINA RESULT:    -4.994      0.000      0.000
REMARK INTER + INTRA:          -9.537
REMARK INTER:                  -7.914
REMARK INTRA:                  -1.623
REMARK UNBOUND:                -1.623
REMARK SMILES CCCCCCCCCCCC(=O)[O-]
REMARK SMILES IDX 7 1 8 2 9 3 10 4 11 5 12 6 13 7 14 8 6 9 5 10 4 11 3 12 2 13
REMARK SMILES IDX 1 14
REMARK H PARENT
REMARK Flexibility Score: inf
ROOT
ATOM      1  C   UNL     1     -30.134   0.723  25.062  1.00  0.00     0.000 C 
ENDROOT
BRANCH   1   2
ATOM      2  C   UNL     1     -30.916   0.080  23.898  1.00  0.00     0.000 C 
BRANCH   2   3
ATOM      3  C   UNL     1     -30.942  -1.453  23.992  1.00  0.00     0.000 C 
BRANCH   3   4
ATOM      4  C   UNL     1     -30.288  -2.092  22.762  1.00  0.00     0.006 C 
BRANCH   4   5
ATOM      5  C   UNL     1     -30.330  -1.141  21.562  1.00  0.00     0.053 C 
BRANCH   5   6
ATOM      6  C   UNL     1     -29.212  -1.442  20.615  1.00  0.00     0.041 C 
ATOM      7  O   UNL     1     -28.744  -0.535  19.878  1.00  0.00    -0.550 OA
ATOM      8  O   UNL     1     -28.654  -2.714  20.581  1.00  0.00    -0.550 OA
ENDBRANCH   5   6
ENDBRANCH   4   5
ENDBRANCH   3   4
ENDBRANCH   2   3
ENDBRANCH   1   2
BRANCH   1   9
ATOM      9  C   UNL     1     -30.040  -0.169  26.311  1.00  0.00     0.000 C 
BRANCH   9  10
ATOM     10  C   UNL     1     -28.610  -0.662  26.586  1.00  0.00    -0.000 C 
BRANCH  10  11
ATOM     11  C   UNL     1     -27.605  -0.176  25.529  1.00  0.00    -0.000 C 
BRANCH  11  12
ATOM     12  C   UNL     1     -27.100  -1.310  24.625  1.00  0.00    -0.000 C 
BRANCH  12  13
ATOM     13  C   UNL     1     -26.595  -0.759  23.286  1.00  0.00    -0.003 C 
ATOM     14  C   UNL     1     -27.174   0.625  23.005  1.00  0.00     0.004 C 
ENDBRANCH  12  13
ENDBRANCH  11  12
ENDBRANCH  10  11
ENDBRANCH   9  10
ENDBRANCH   1   9
TORSDOF 10
ENDMDL
MODEL 2
REMARK VINA RESULT:    -4.943      1.362      3.398
REMARK INTER + INTRA:          -9.456
REMARK INTER:                  -7.866
REMARK INTRA:                  -1.590
REMARK UNBOUND:                -1.623
REMARK SMILES CCCCCCCCCCCC(=O)[O-]
REMARK SMILES IDX 7 1 8 2 9 3 10 4 11 5 12 6 13 7 14 8 6 9 5 10 4 11 3 12 2 13
REMARK SMILES IDX 1 14
REMARK H PARENT
REMARK Flexibility Score: inf
ROOT
ATOM      1  C   UNL     1     -26.737  -1.484  23.970  1.00  0.00     0.000 C 
ENDROOT
BRANCH   1   2
ATOM      2  C   UNL     1     -26.662   0.034  23.704  1.00  0.00     0.000 C 
BRANCH   2   3
ATOM      3  C   UNL     1     -27.598   0.471  22.567  1.00  0.00     0.000 C 
BRANCH   3   4
ATOM      4  C   UNL     1     -27.531  -0.509  21.390  1.00  0.00     0.006 C 
BRANCH   4   5
ATOM      5  C   UNL     1     -28.766  -0.376  20.493  1.00  0.00     0.053 C 
BRANCH   5   6
ATOM      6  C   UNL     1     -29.400  -1.712  20.272  1.00  0.00     0.041 C 
ATOM      7  O   UNL     1     -30.615  -1.792  19.950  1.00  0.00    -0.550 OA
ATOM      8  O   UNL     1     -28.637  -2.869  20.373  1.00  0.00    -0.550 OA
ENDBRANCH   5   6
ENDBRANCH   4   5
ENDBRANCH   3   4
ENDBRANCH   2   3
ENDBRANCH   1   2
BRANCH   1   9
ATOM      9  C   UNL     1     -27.996  -1.916  24.740  1.00  0.00     0.000 C 
BRANCH   9  10
ATOM     10  C   UNL     1     -28.989  -2.701  23.868  1.00  0.00    -0.000 C 
BRANCH  10  11
ATOM     11  C   UNL     1     -30.408  -2.111  23.913  1.00  0.00    -0.000 C 
BRANCH  11  12
ATOM     12  C   UNL     1     -30.514  -0.894  24.844  1.00  0.00    -0.000 C 
BRANCH  12  13
ATOM     13  C   UNL     1     -30.885   0.368  24.055  1.00  0.00    -0.003 C 
ATOM     14  C   UNL     1     -31.567   0.015  22.736  1.00  0.00     0.004 C 
ENDBRANCH  12  13
ENDBRANCH  11  12
ENDBRANCH  10  11
ENDBRANCH   9  10
ENDBRANCH   1   9
TORSDOF 10
ENDMDL
MODEL 3
REMARK VINA RESULT:    -4.924      1.017      3.180
REMARK INTER + INTRA:          -9.425
REMARK INTER:                  -7.800
REMARK INTRA:                  -1.625
REMARK UNBOUND:                -1.623
REMARK SMILES CCCCCCCCCCCC(=O)[O-]
REMARK SMILES IDX 7 1 8 2 9 3 10 4 11 5 12 6 13 7 14 8 6 9 5 10 4 11 3 12 2 13
REMARK SMILES IDX 1 14
REMARK H PARENT
REMARK Flexibility Score: inf
ROOT
ATOM      1  C   UNL     1     -27.641  -1.014  25.294  1.00  0.00     0.000 C 
ENDROOT
BRANCH   1   2
ATOM      2  C   UNL     1     -26.808  -0.980  23.996  1.00  0.00     0.000 C 
BRANCH   2   3
ATOM      3  C   UNL     1     -27.004   0.328  23.213  1.00  0.00     0.000 C 
BRANCH   3   4
ATOM      4  C   UNL     1     -27.650   0.061  21.849  1.00  0.00     0.006 C 
BRANCH   4   5
ATOM      5  C   UNL     1     -27.570  -1.424  21.484  1.00  0.00     0.053 C 
BRANCH   5   6
ATOM      6  C   UNL     1     -28.249  -1.680  20.176  1.00  0.00     0.041 C 
ATOM      7  O   UNL     1     -28.232  -0.805  19.271  1.00  0.00    -0.550 OA
ATOM      8  O   UNL     1     -28.858  -2.905  19.938  1.00  0.00    -0.550 OA
ENDBRANCH   5   6
ENDBRANCH   4   5
ENDBRANCH   3   4
ENDBRANCH   2   3
ENDBRANCH   1   2
BRANCH   1   9
ATOM      9  C   UNL     1     -27.924   0.379  25.883  1.00  0.00     0.000 C 
BRANCH   9  10
ATOM     10  C   UNL     1     -29.426   0.665  26.042  1.00  0.00    -0.000 C 
BRANCH  10  11
ATOM     11  C   UNL     1     -30.301  -0.321  25.253  1.00  0.00    -0.000 C 
BRANCH  11  12
ATOM     12  C   UNL     1     -30.802   0.263  23.923  1.00  0.00    -0.000 C 
BRANCH  12  13
ATOM     13  C   UNL     1     -30.995  -0.841  22.878  1.00  0.00    -0.003 C 
ATOM     14  C   UNL     1     -30.764  -2.222  23.484  1.00  0.00     0.004 C 
ENDBRANCH  12  13
ENDBRANCH  11  12
ENDBRANCH  10  11
ENDBRANCH   9  10
ENDBRANCH   1   9
TORSDOF 10
ENDMDL
MODEL 4
REMARK VINA RESULT:    -4.918      3.136      5.340
REMARK INTER + INTRA:          -9.417
REMARK INTER:                  -7.886
REMARK INTRA:                  -1.532
REMARK UNBOUND:                -1.623
REMARK SMILES CCCCCCCCCCCC(=O)[O-]
REMARK SMILES IDX 7 1 8 2 9 3 10 4 11 5 12 6 13 7 14 8 6 9 5 10 4 11 3 12 2 13
REMARK SMILES IDX 1 14
REMARK H PARENT
REMARK Flexibility Score: inf
ROOT
ATOM      1  C   UNL     1     -27.493   0.358  22.094  1.00  0.00     0.000 C 
ENDROOT
BRANCH   1   2
ATOM      2  C   UNL     1     -27.197   0.489  23.603  1.00  0.00     0.000 C 
BRANCH   2   3
ATOM      3  C   UNL     1     -27.139  -0.876  24.305  1.00  0.00     0.000 C 
BRANCH   3   4
ATOM      4  C   UNL     1     -28.178  -0.962  25.429  1.00  0.00     0.006 C 
BRANCH   4   5
ATOM      5  C   UNL     1     -28.848   0.395  25.662  1.00  0.00     0.053 C 
BRANCH   5   6
ATOM      6  C   UNL     1     -29.190   0.570  27.108  1.00  0.00     0.041 C 
ATOM      7  O   UNL     1     -30.128   1.337  27.449  1.00  0.00    -0.550 OA
ATOM      8  O   UNL     1     -28.505  -0.154  28.076  1.00  0.00    -0.550 OA
ENDBRANCH   5   6
ENDBRANCH   4   5
ENDBRANCH   3   4
ENDBRANCH   2   3
ENDBRANCH   1   2
BRANCH   1   9
ATOM      9  C   UNL     1     -27.797  -1.082  21.647  1.00  0.00     0.000 C 
BRANCH   9  10
ATOM     10  C   UNL     1     -28.826  -1.148  20.507  1.00  0.00    -0.000 C 
BRANCH  10  11
ATOM     11  C   UNL     1     -30.250  -1.425  21.013  1.00  0.00    -0.000 C 
BRANCH  11  12
ATOM     12  C   UNL     1     -30.278  -1.912  22.469  1.00  0.00    -0.000 C 
BRANCH  12  13
ATOM     13  C   UNL     1     -31.323  -1.141  23.284  1.00  0.00    -0.003 C 
ATOM     14  C   UNL     1     -31.291   0.349  22.956  1.00  0.00     0.004 C 
ENDBRANCH  12  13
ENDBRANCH  11  12
ENDBRANCH  10  11
ENDBRANCH   9  10
ENDBRANCH   1   9
TORSDOF 10
ENDMDL
MODEL 5
REMARK VINA RESULT:    -4.911      2.954      4.647
REMARK INTER + INTRA:          -9.405
REMARK INTER:                  -7.906
REMARK INTRA:                  -1.499
REMARK UNBOUND:                -1.623
REMARK SMILES CCCCCCCCCCCC(=O)[O-]
REMARK SMILES IDX 7 1 8 2 9 3 10 4 11 5 12 6 13 7 14 8 6 9 5 10 4 11 3 12 2 13
REMARK SMILES IDX 1 14
REMARK H PARENT
REMARK Flexibility Score: inf
ROOT
ATOM      1  C   UNL     1     -30.289  -1.983  22.373  1.00  0.00     0.000 C 
ENDROOT
BRANCH   1   2
ATOM      2  C   UNL     1     -31.289  -1.222  23.269  1.00  0.00     0.000 C 
BRANCH   2   3
ATOM      3  C   UNL     1     -31.059   0.296  23.236  1.00  0.00     0.000 C 
BRANCH   3   4
ATOM      4  C   UNL     1     -30.321   0.769  24.495  1.00  0.00     0.006 C 
BRANCH   4   5
ATOM      5  C   UNL     1     -30.573  -0.183  25.668  1.00  0.00     0.053 C 
BRANCH   5   6
ATOM      6  C   UNL     1     -29.776   0.236  26.863  1.00  0.00     0.041 C 
ATOM      7  O   UNL     1     -30.144   1.220  27.556  1.00  0.00    -0.550 OA
ATOM      8  O   UNL     1     -28.655  -0.493  27.240  1.00  0.00    -0.550 OA
ENDBRANCH   5   6
ENDBRANCH   4   5
ENDBRANCH   3   4
ENDBRANCH   2   3
ENDBRANCH   1   2
BRANCH   1   9
ATOM      9  C   UNL     1     -30.249  -1.476  20.922  1.00  0.00     0.000 C 
BRANCH   9  10
ATOM     10  C   UNL     1     -28.929  -0.768  20.574  1.00  0.00    -0.000 C 
BRANCH  10  11
ATOM     11  C   UNL     1     -27.837  -1.004  21.629  1.00  0.00    -0.000 C 
BRANCH  11  12
ATOM     12  C   UNL     1     -27.390   0.293  22.320  1.00  0.00    -0.000 C 
BRANCH  12  13
ATOM     13  C   UNL     1     -26.851   0.007  23.726  1.00  0.00    -0.003 C 
ATOM     14  C   UNL     1     -27.035  -1.461  24.101  1.00  0.00     0.004 C 
ENDBRANCH  12  13
ENDBRANCH  11  12
ENDBRANCH  10  11
ENDBRANCH   9  10
ENDBRANCH   1   9
TORSDOF 10
ENDMDL
MODEL 6
REMARK VINA RESULT:    -4.885      1.171      2.438
REMARK INTER + INTRA:          -9.364
REMARK INTER:                  -7.800
REMARK INTRA:                  -1.564
REMARK UNBOUND:                -1.623
REMARK SMILES CCCCCCCCCCCC(=O)[O-]
REMARK SMILES IDX 7 1 8 2 9 3 10 4 11 5 12 6 13 7 14 8 6 9 5 10 4 11 3 12 2 13
REMARK SMILES IDX 1 14
REMARK H PARENT
REMARK Flexibility Score: inf
ROOT
ATOM      1  C   UNL     1     -29.346   1.428  23.283  1.00  0.00     0.000 C 
ENDROOT
BRANCH   1   2
ATOM      2  C   UNL     1     -30.558   0.662  22.714  1.00  0.00     0.000 C 
BRANCH   2   3
ATOM      3  C   UNL     1     -30.874  -0.607  23.521  1.00  0.00     0.000 C 
BRANCH   3   4
ATOM      4  C   UNL     1     -30.507  -1.868  22.730  1.00  0.00     0.006 C 
BRANCH   4   5
ATOM      5  C   UNL     1     -30.395  -1.565  21.233  1.00  0.00     0.053 C 
BRANCH   5   6
ATOM      6  C   UNL     1     -29.163  -2.190  20.661  1.00  0.00     0.041 C 
ATOM      7  O   UNL     1     -28.130  -2.317  21.370  1.00  0.00    -0.550 OA
ATOM      8  O   UNL     1     -29.170  -2.678  19.361  1.00  0.00    -0.550 OA
ENDBRANCH   5   6
ENDBRANCH   4   5
ENDBRANCH   3   4
ENDBRANCH   2   3
ENDBRANCH   1   2
BRANCH   1   9
ATOM      9  C   UNL     1     -27.991   0.785  22.941  1.00  0.00     0.000 C 
BRANCH   9  10
ATOM     10  C   UNL     1     -27.158   0.449  24.188  1.00  0.00    -0.000 C 
BRANCH  10  11
ATOM     11  C   UNL     1     -27.407  -0.979  24.697  1.00  0.00    -0.000 C 
BRANCH  11  12
ATOM     12  C   UNL     1     -28.307  -1.017  25.941  1.00  0.00    -0.000 C 
BRANCH  12  13
ATOM     13  C   UNL     1     -28.304   0.337  26.660  1.00  0.00    -0.003 C 
ATOM     14  C   UNL     1     -29.726   0.828  26.920  1.00  0.00     0.004 C 
ENDBRANCH  12  13
ENDBRANCH  11  12
ENDBRANCH  10  11
ENDBRANCH   9  10
ENDBRANCH   1   9
TORSDOF 10
ENDMDL
MODEL 7
REMARK VINA RESULT:    -4.823      2.917      4.835
REMARK INTER + INTRA:          -9.267
REMARK INTER:                  -7.792
REMARK INTRA:                  -1.474
REMARK UNBOUND:                -1.623
REMARK SMILES CCCCCCCCCCCC(=O)[O-]
REMARK SMILES IDX 7 1 8 2 9 3 10 4 11 5 12 6 13 7 14 8 6 9 5 10 4 11 3 12 2 13
REMARK SMILES IDX 1 14
REMARK H PARENT
REMARK Flexibility Score: inf
ROOT
ATOM      1  C   UNL     1     -28.386   1.132  23.162  1.00  0.00     0.000 C 
ENDROOT
BRANCH   1   2
ATOM      2  C   UNL     1     -27.177   0.261  22.761  1.00  0.00     0.000 C 
BRANCH   2   3
ATOM      3  C   UNL     1     -27.073  -1.015  23.610  1.00  0.00     0.000 C 
BRANCH   3   4
ATOM      4  C   UNL     1     -27.272  -0.705  25.098  1.00  0.00     0.006 C 
BRANCH   4   5
ATOM      5  C   UNL     1     -28.568  -1.331  25.622  1.00  0.00     0.053 C 
BRANCH   5   6
ATOM      6  C   UNL     1     -29.207  -0.440  26.639  1.00  0.00     0.041 C 
ATOM      7  O   UNL     1     -30.392  -0.045  26.480  1.00  0.00    -0.550 OA
ATOM      8  O   UNL     1     -28.512  -0.087  27.788  1.00  0.00    -0.550 OA
ENDBRANCH   5   6
ENDBRANCH   4   5
ENDBRANCH   3   4
ENDBRANCH   2   3
ENDBRANCH   1   2
BRANCH   1   9
ATOM      9  C   UNL     1     -29.625   0.915  22.276  1.00  0.00     0.000 C 
BRANCH   9  10
ATOM     10  C   UNL     1     -30.638  -0.061  22.897  1.00  0.00    -0.000 C 
BRANCH  10  11
ATOM     11  C   UNL     1     -30.482  -1.493  22.361  1.00  0.00    -0.000 C 
BRANCH  11  12
ATOM     12  C   UNL     1     -30.190  -1.533  20.854  1.00  0.00    -0.000 C 
BRANCH  12  13
ATOM     13  C   UNL     1     -28.876  -2.271  20.571  1.00  0.00    -0.003 C 
ATOM     14  C   UNL     1     -27.993  -1.478  19.610  1.00  0.00     0.004 C 
ENDBRANCH  12  13
ENDBRANCH  11  12
ENDBRANCH  10  11
ENDBRANCH   9  10
ENDBRANCH   1   9
TORSDOF 10
ENDMDL
MODEL 8
REMARK VINA RESULT:    -4.819      1.350      3.124
REMARK INTER + INTRA:          -9.259
REMARK INTER:                  -7.764
REMARK INTRA:                  -1.496
REMARK UNBOUND:                -1.623
REMARK SMILES CCCCCCCCCCCC(=O)[O-]
REMARK SMILES IDX 7 1 8 2 9 3 10 4 11 5 12 6 13 7 14 8 6 9 5 10 4 11 3 12 2 13
REMARK SMILES IDX 1 14
REMARK H PARENT
REMARK Flexibility Score: inf
ROOT
ATOM      1  C   UNL     1     -28.979   1.203  22.412  1.00  0.00     0.000 C 
ENDROOT
BRANCH   1   2
ATOM      2  C   UNL     1     -27.582   0.844  22.961  1.00  0.00     0.000 C 
BRANCH   2   3
ATOM      3  C   UNL     1     -27.254  -0.647  22.784  1.00  0.00     0.000 C 
BRANCH   3   4
ATOM      4  C   UNL     1     -27.518  -1.101  21.344  1.00  0.00     0.006 C 
BRANCH   4   5
ATOM      5  C   UNL     1     -28.526  -2.254  21.307  1.00  0.00     0.053 C 
BRANCH   5   6
ATOM      6  C   UNL     1     -29.429  -2.123  20.122  1.00  0.00     0.041 C 
ATOM      7  O   UNL     1     -30.504  -1.474  20.213  1.00  0.00    -0.550 OA
ATOM      8  O   UNL     1     -29.059  -2.676  18.903  1.00  0.00    -0.550 OA
ENDBRANCH   5   6
ENDBRANCH   4   5
ENDBRANCH   3   4
ENDBRANCH   2   3
ENDBRANCH   1   2
BRANCH   1   9
ATOM      9  C   UNL     1     -30.100   1.104  23.460  1.00  0.00     0.000 C 
BRANCH   9  10
ATOM     10  C   UNL     1     -30.897  -0.206  23.359  1.00  0.00    -0.000 C 
BRANCH  10  11
ATOM     11  C   UNL     1     -30.685  -1.122  24.574  1.00  0.00    -0.000 C 
BRANCH  11  12
ATOM     12  C   UNL     1     -30.244  -0.351  25.828  1.00  0.00    -0.000 C 
BRANCH  12  13
ATOM     13  C   UNL     1     -28.838  -0.775  26.266  1.00  0.00    -0.003 C 
ATOM     14  C   UNL     1     -27.974   0.438  26.601  1.00  0.00     0.004 C 
ENDBRANCH  12  13
ENDBRANCH  11  12
ENDBRANCH  10  11
ENDBRANCH   9  10
ENDBRANCH   1   9
TORSDOF 10
ENDMDL
MODEL 9
REMARK VINA RESULT:    -4.708      1.808      4.011
REMARK INTER + INTRA:          -9.084
REMARK INTER:                  -7.816
REMARK INTRA:                  -1.269
REMARK UNBOUND:                -1.623
REMARK SMILES CCCCCCCCCCCC(=O)[O-]
REMARK SMILES IDX 7 1 8 2 9 3 10 4 11 5 12 6 13 7 14 8 6 9 5 10 4 11 3 12 2 13
REMARK SMILES IDX 1 14
REMARK H PARENT
REMARK Flexibility Score: inf
ROOT
ATOM      1  C   UNL     1     -30.893  -0.165  24.495  1.00  0.00     0.000 C 
ENDROOT
BRANCH   1   2
ATOM      2  C   UNL     1     -30.523  -0.126  25.993  1.00  0.00     0.000 C 
BRANCH   2   3
ATOM      3  C   UNL     1     -29.263   0.713  26.258  1.00  0.00     0.000 C 
BRANCH   3   4
ATOM      4  C   UNL     1     -27.998  -0.146  26.159  1.00  0.00     0.006 C 
BRANCH   4   5
ATOM      5  C   UNL     1     -27.326   0.022  24.793  1.00  0.00     0.053 C 
BRANCH   5   6
ATOM      6  C   UNL     1     -27.030  -1.313  24.186  1.00  0.00     0.041 C 
ATOM      7  O   UNL     1     -27.715  -2.320  24.505  1.00  0.00    -0.550 OA
ATOM      8  O   UNL     1     -26.031  -1.435  23.229  1.00  0.00    -0.550 OA
ENDBRANCH   5   6
ENDBRANCH   4   5
ENDBRANCH   3   4
ENDBRANCH   2   3
ENDBRANCH   1   2
BRANCH   1   9
ATOM      9  C   UNL     1     -31.059  -1.588  23.936  1.00  0.00     0.000 C 
BRANCH   9  10
ATOM     10  C   UNL     1     -30.503  -1.737  22.511  1.00  0.00    -0.000 C 
BRANCH  10  11
ATOM     11  C   UNL     1     -29.846  -0.447  21.996  1.00  0.00    -0.000 C 
BRANCH  11  12
ATOM     12  C   UNL     1     -28.816  -0.708  20.886  1.00  0.00    -0.000 C 
BRANCH  12  13
ATOM     13  C   UNL     1     -28.639  -2.212  20.646  1.00  0.00    -0.003 C 
ATOM     14  C   UNL     1     -29.021  -2.593  19.219  1.00  0.00     0.004 C 
ENDBRANCH  12  13
ENDBRANCH  11  12
ENDBRANCH  10  11
ENDBRANCH   9  10
ENDBRANCH   1   9
TORSDOF 10
ENDMDL
