MODEL 1
REMARK VINA RESULT:    -4.050      0.000      0.000
REMARK INTER + INTRA:          -5.992
REMARK INTER:                  -5.471
REMARK INTRA:                  -0.521
REMARK UNBOUND:                -0.521
REMARK SMILES CCCCCCCC(=O)[O-]
REMARK SMILES IDX 5 1 6 2 7 3 8 4 9 5 10 6 4 7 3 8 2 9 1 10
REMARK H PARENT
REMARK Flexibility Score: inf
ROOT
ATOM      1  C   UNL     1      15.515  23.684  27.825  1.00  0.00     0.000 C 
ENDROOT
BRANCH   1   2
ATOM      2  C   UNL     1      15.146  23.600  29.311  1.00  0.00     0.006 C 
BRANCH   2   3
ATOM      3  C   UNL     1      14.876  22.152  29.731  1.00  0.00     0.053 C 
BRANCH   3   4
ATOM      4  C   UNL     1      13.603  21.659  29.120  1.00  0.00     0.041 C 
ATOM      5  O   UNL     1      13.618  20.675  28.334  1.00  0.00    -0.550 OA
ATOM      6  O   UNL     1      12.407  22.314  29.379  1.00  0.00    -0.550 OA
ENDBRANCH   3   4
ENDBRANCH   2   3
ENDBRANCH   1   2
BRANCH   1   7
ATOM      7  C   UNL     1      16.872  23.014  27.557  1.00  0.00     0.000 C 
BRANCH   7   8
ATOM      8  C   UNL     1      16.769  21.843  26.566  1.00  0.00    -0.000 C 
BRANCH   8   9
ATOM      9  C   UNL     1      15.549  21.957  25.641  1.00  0.00    -0.003 C 
ATOM     10  C   UNL     1      15.978  22.149  24.189  1.00  0.00     0.004 C 
ENDBRANCH   8   9
ENDBRANCH   7   8
ENDBRANCH   1   7
TORSDOF 6
ENDMDL
MODEL 2
REMARK VINA RESULT:    -4.010      2.062      2.614
REMARK INTER + INTRA:          -5.938
REMARK INTER:                  -5.703
REMARK INTRA:                  -0.235
REMARK UNBOUND:                -0.521
REMARK SMILES CCCCCCCC(=O)[O-]
REMARK SMILES IDX 5 1 6 2 7 3 8 4 9 5 10 6 4 7 3 8 2 9 1 10
REMARK H PARENT
REMARK Flexibility Score: inf
ROOT
ATOM      1  C   UNL     1      14.744  23.775  28.904  1.00  0.00     0.000 C 
ENDROOT
BRANCH   1   2
ATOM      2  C   UNL     1      14.093  23.427  30.247  1.00  0.00     0.006 C 
BRANCH   2   3
ATOM      3  C   UNL     1      13.221  24.581  30.752  1.00  0.00     0.053 C 
BRANCH   3   4
ATOM      4  C   UNL     1      11.781  24.177  30.777  1.00  0.00     0.041 C 
ATOM      5  O   UNL     1      11.284  23.545  29.808  1.00  0.00    -0.550 OA
ATOM      6  O   UNL     1      10.974  24.542  31.847  1.00  0.00    -0.550 OA
ENDBRANCH   3   4
ENDBRANCH   2   3
ENDBRANCH   1   2
BRANCH   1   7
ATOM      7  C   UNL     1      16.242  23.436  28.914  1.00  0.00     0.000 C 
BRANCH   7   8
ATOM      8  C   UNL     1      16.943  23.808  27.598  1.00  0.00    -0.000 C 
BRANCH   8   9
ATOM      9  C   UNL     1      16.040  23.613  26.372  1.00  0.00    -0.003 C 
ATOM     10  C   UNL     1      16.202  22.213  25.787  1.00  0.00     0.004 C 
ENDBRANCH   8   9
ENDBRANCH   7   8
ENDBRANCH   1   7
TORSDOF 6
ENDMDL
MODEL 3
REMARK VINA RESULT:    -3.972      2.219      3.692
REMARK INTER + INTRA:          -5.886
REMARK INTER:                  -5.235
REMARK INTRA:                  -0.651
REMARK UNBOUND:                -0.521
REMARK SMILES CCCCCCCC(=O)[O-]
REMARK SMILES IDX 5 1 6 2 7 3 8 4 9 5 10 6 4 7 3 8 2 9 1 10
REMARK H PARENT
REMARK Flexibility Score: inf
ROOT
ATOM      1  C   UNL     1      15.396  23.719  28.991  1.00  0.00     0.000 C 
ENDROOT
BRANCH   1   2
ATOM      2  C   UNL     1      16.496  23.987  27.957  1.00  0.00     0.006 C 
BRANCH   2   3
ATOM      3  C   UNL     1      15.984  23.748  26.534  1.00  0.00     0.053 C 
BRANCH   3   4
ATOM      4  C   UNL     1      15.891  22.283  26.250  1.00  0.00     0.041 C 
ATOM      5  O   UNL     1      16.937  21.598  26.110  1.00  0.00    -0.550 OA
ATOM      6  O   UNL     1      14.648  21.683  26.091  1.00  0.00    -0.550 OA
ENDBRANCH   3   4
ENDBRANCH   2   3
ENDBRANCH   1   2
BRANCH   1   7
ATOM      7  C   UNL     1      15.888  22.751  30.078  1.00  0.00     0.000 C 
BRANCH   7   8
ATOM      8  C   UNL     1      17.342  22.302  29.860  1.00  0.00    -0.000 C 
BRANCH   8   9
ATOM      9  C   UNL     1      17.460  20.798  29.579  1.00  0.00    -0.003 C 
ATOM     10  C   UNL     1      16.084  20.166  29.386  1.00  0.00     0.004 C 
ENDBRANCH   8   9
ENDBRANCH   7   8
ENDBRANCH   1   7
TORSDOF 6
ENDMDL
MODEL 4
REMARK VINA RESULT:    -3.971      2.310      4.537
REMARK INTER + INTRA:          -5.885
REMARK INTER:                  -5.705
REMARK INTRA:                  -0.179
REMARK UNBOUND:                -0.521
REMARK SMILES CCCCCCCC(=O)[O-]
REMARK SMILES IDX 5 1 6 2 7 3 8 4 9 5 10 6 4 7 3 8 2 9 1 10
REMARK H PARENT
REMARK Flexibility Score: inf
ROOT
ATOM      1  C   UNL     1      16.274  23.382  29.061  1.00  0.00     0.000 C 
ENDROOT
BRANCH   1   2
ATOM      2  C   UNL     1      16.986  23.834  27.781  1.00  0.00     0.006 C 
BRANCH   2   3
ATOM      3  C   UNL     1      16.082  23.659  26.557  1.00  0.00     0.053 C 
BRANCH   3   4
ATOM      4  C   UNL     1      16.057  22.227  26.126  1.00  0.00     0.041 C 
ATOM      5  O   UNL     1      17.096  21.521  26.213  1.00  0.00    -0.550 OA
ATOM      6  O   UNL     1      14.900  21.684  25.582  1.00  0.00    -0.550 OA
ENDBRANCH   3   4
ENDBRANCH   2   3
ENDBRANCH   1   2
BRANCH   1   7
ATOM      7  C   UNL     1      14.808  23.843  29.068  1.00  0.00     0.000 C 
BRANCH   7   8
ATOM      8  C   UNL     1      14.051  23.394  30.328  1.00  0.00    -0.000 C 
BRANCH   8   9
ATOM      9  C   UNL     1      13.029  24.435  30.806  1.00  0.00    -0.003 C 
ATOM     10  C   UNL     1      11.628  24.101  30.299  1.00  0.00     0.004 C 
ENDBRANCH   8   9
ENDBRANCH   7   8
ENDBRANCH   1   7
TORSDOF 6
ENDMDL
MODEL 5
REMARK VINA RESULT:    -3.866      1.811      2.305
REMARK INTER + INTRA:          -5.744
REMARK INTER:                  -5.508
REMARK INTRA:                  -0.235
REMARK UNBOUND:                -0.521
REMARK SMILES CCCCCCCC(=O)[O-]
REMARK SMILES IDX 5 1 6 2 7 3 8 4 9 5 10 6 4 7 3 8 2 9 1 10
REMARK H PARENT
REMARK Flexibility Score: inf
ROOT
ATOM      1  C   UNL     1      14.398  21.173  27.514  1.00  0.00     0.000 C 
ENDROOT
BRANCH   1   2
ATOM      2  C   UNL     1      13.516  21.424  28.742  1.00  0.00     0.006 C 
BRANCH   2   3
ATOM      3  C   UNL     1      12.545  20.261  28.970  1.00  0.00     0.053 C 
BRANCH   3   4
ATOM      4  C   UNL     1      11.131  20.749  28.956  1.00  0.00     0.041 C 
ATOM      5  O   UNL     1      10.209  20.030  29.424  1.00  0.00    -0.550 OA
ATOM      6  O   UNL     1      10.824  21.976  28.382  1.00  0.00    -0.550 OA
ENDBRANCH   3   4
ENDBRANCH   2   3
ENDBRANCH   1   2
BRANCH   1   7
ATOM      7  C   UNL     1      15.878  21.420  27.840  1.00  0.00     0.000 C 
BRANCH   7   8
ATOM      8  C   UNL     1      16.718  21.727  26.589  1.00  0.00    -0.000 C 
BRANCH   8   9
ATOM      9  C   UNL     1      16.013  22.694  25.628  1.00  0.00    -0.003 C 
ATOM     10  C   UNL     1      15.994  22.139  24.206  1.00  0.00     0.004 C 
ENDBRANCH   8   9
ENDBRANCH   7   8
ENDBRANCH   1   7
TORSDOF 6
ENDMDL
MODEL 6
REMARK VINA RESULT:    -3.864      2.395      3.969
REMARK INTER + INTRA:          -5.741
REMARK INTER:                  -5.233
REMARK INTRA:                  -0.508
REMARK UNBOUND:                -0.521
REMARK SMILES CCCCCCCC(=O)[O-]
REMARK SMILES IDX 5 1 6 2 7 3 8 4 9 5 10 6 4 7 3 8 2 9 1 10
REMARK H PARENT
REMARK Flexibility Score: inf
ROOT
ATOM      1  C   UNL     1      15.301  23.638  28.585  1.00  0.00     0.000 C 
ENDROOT
BRANCH   1   2
ATOM      2  C   UNL     1      16.473  23.822  27.614  1.00  0.00     0.006 C 
BRANCH   2   3
ATOM      3  C   UNL     1      16.000  23.742  26.159  1.00  0.00     0.053 C 
BRANCH   3   4
ATOM      4  C   UNL     1      16.354  22.416  25.565  1.00  0.00     0.041 C 
ATOM      5  O   UNL     1      17.036  21.588  26.225  1.00  0.00    -0.550 OA
ATOM      6  O   UNL     1      15.973  22.112  24.264  1.00  0.00    -0.550 OA
ENDBRANCH   3   4
ENDBRANCH   2   3
ENDBRANCH   1   2
BRANCH   1   7
ATOM      7  C   UNL     1      15.607  22.538  29.614  1.00  0.00     0.000 C 
BRANCH   7   8
ATOM      8  C   UNL     1      15.148  21.147  29.150  1.00  0.00    -0.000 C 
BRANCH   8   9
ATOM      9  C   UNL     1      13.993  21.212  28.140  1.00  0.00    -0.003 C 
ATOM     10  C   UNL     1      12.663  20.869  28.805  1.00  0.00     0.004 C 
ENDBRANCH   8   9
ENDBRANCH   7   8
ENDBRANCH   1   7
TORSDOF 6
ENDMDL
MODEL 7
REMARK VINA RESULT:    -3.807     21.531     22.665
REMARK INTER + INTRA:          -5.663
REMARK INTER:                  -5.273
REMARK INTRA:                  -0.391
REMARK UNBOUND:                -0.521
REMARK SMILES CCCCCCCC(=O)[O-]
REMARK SMILES IDX 5 1 6 2 7 3 8 4 9 5 10 6 4 7 3 8 2 9 1 10
REMARK H PARENT
REMARK Flexibility Score: inf
ROOT
ATOM      1  C   UNL     1       1.967  35.398  15.628  1.00  0.00     0.000 C 
ENDROOT
BRANCH   1   2
ATOM      2  C   UNL     1       3.362  35.465  14.995  1.00  0.00     0.006 C 
BRANCH   2   3
ATOM      3  C   UNL     1       4.117  36.714  15.459  1.00  0.00     0.053 C 
BRANCH   3   4
ATOM      4  C   UNL     1       5.412  36.334  16.104  1.00  0.00     0.041 C 
ATOM      5  O   UNL     1       5.503  35.260  16.755  1.00  0.00    -0.550 OA
ATOM      6  O   UNL     1       6.505  37.188  16.027  1.00  0.00    -0.550 OA
ENDBRANCH   3   4
ENDBRANCH   2   3
ENDBRANCH   1   2
BRANCH   1   7
ATOM      7  C   UNL     1       0.895  35.908  14.652  1.00  0.00     0.000 C 
BRANCH   7   8
ATOM      8  C   UNL     1       0.663  34.951  13.472  1.00  0.00    -0.000 C 
BRANCH   8   9
ATOM      9  C   UNL     1       0.562  35.685  12.128  1.00  0.00    -0.003 C 
ATOM     10  C   UNL     1       1.670  36.725  11.985  1.00  0.00     0.004 C 
ENDBRANCH   8   9
ENDBRANCH   7   8
ENDBRANCH   1   7
TORSDOF 6
ENDMDL
MODEL 8
REMARK VINA RESULT:    -3.774      2.489      4.510
REMARK INTER + INTRA:          -5.619
REMARK INTER:                  -5.133
REMARK INTRA:                  -0.486
REMARK UNBOUND:                -0.521
REMARK SMILES CCCCCCCC(=O)[O-]
REMARK SMILES IDX 5 1 6 2 7 3 8 4 9 5 10 6 4 7 3 8 2 9 1 10
REMARK H PARENT
REMARK Flexibility Score: inf
ROOT
ATOM      1  C   UNL     1      14.378  20.934  27.835  1.00  0.00     0.000 C 
ENDROOT
BRANCH   1   2
ATOM      2  C   UNL     1      14.638  21.772  26.578  1.00  0.00     0.006 C 
BRANCH   2   3
ATOM      3  C   UNL     1      16.123  22.121  26.446  1.00  0.00     0.053 C 
BRANCH   3   4
ATOM      4  C   UNL     1      16.339  23.585  26.666  1.00  0.00     0.041 C 
ATOM      5  O   UNL     1      15.967  24.416  25.797  1.00  0.00    -0.550 OA
ATOM      6  O   UNL     1      16.994  24.028  27.808  1.00  0.00    -0.550 OA
ENDBRANCH   3   4
ENDBRANCH   2   3
ENDBRANCH   1   2
BRANCH   1   7
ATOM      7  C   UNL     1      13.364  21.627  28.758  1.00  0.00     0.000 C 
BRANCH   7   8
ATOM      8  C   UNL     1      13.936  21.919  30.154  1.00  0.00    -0.000 C 
BRANCH   8   9
ATOM      9  C   UNL     1      14.628  23.287  30.234  1.00  0.00    -0.003 C 
ATOM     10  C   UNL     1      13.702  24.400  29.753  1.00  0.00     0.004 C 
ENDBRANCH   8   9
ENDBRANCH   7   8
ENDBRANCH   1   7
TORSDOF 6
ENDMDL
MODEL 9
REMARK VINA RESULT:    -3.721     21.191     22.264
REMARK INTER + INTRA:          -5.548
REMARK INTER:                  -5.298
REMARK INTRA:                  -0.250
REMARK UNBOUND:                -0.521
REMARK SMILES CCCCCCCC(=O)[O-]
REMARK SMILES IDX 5 1 6 2 7 3 8 4 9 5 10 6 4 7 3 8 2 9 1 10
REMARK H PARENT
REMARK Flexibility Score: inf
ROOT
ATOM      1  C   UNL     1       3.965  36.551  15.596  1.00  0.00     0.000 C 
ENDROOT
BRANCH   1   2
ATOM      2  C   UNL     1       3.238  35.407  14.880  1.00  0.00     0.006 C 
BRANCH   2   3
ATOM      3  C   UNL     1       1.850  35.847  14.405  1.00  0.00     0.053 C 
BRANCH   3   4
ATOM      4  C   UNL     1       0.834  35.629  15.481  1.00  0.00     0.041 C 
ATOM      5  O   UNL     1      -0.212  36.329  15.515  1.00  0.00    -0.550 OA
ATOM      6  O   UNL     1       1.064  34.686  16.474  1.00  0.00    -0.550 OA
ENDBRANCH   3   4
ENDBRANCH   2   3
ENDBRANCH   1   2
BRANCH   1   7
ATOM      7  C   UNL     1       5.383  36.130  16.009  1.00  0.00     0.000 C 
BRANCH   7   8
ATOM      8  C   UNL     1       6.384  37.295  15.967  1.00  0.00    -0.000 C 
BRANCH   8   9
ATOM      9  C   UNL     1       5.942  38.419  15.019  1.00  0.00    -0.003 C 
ATOM     10  C   UNL     1       7.140  39.030  14.296  1.00  0.00     0.004 C 
ENDBRANCH   8   9
ENDBRANCH   7   8
ENDBRANCH   1   7
TORSDOF 6
ENDMDL
