MODEL 1
REMARK VINA RESULT:    -3.515      0.000      0.000
REMARK INTER + INTRA:          -6.753
REMARK INTER:                  -5.364
REMARK INTRA:                  -1.390
REMARK UNBOUND:                -1.390
REMARK SMILES CCCCCCCCCC=CC(=O)[O-]
REMARK SMILES IDX 7 1 8 2 9 3 10 4 11 5 12 6 13 7 14 8 6 9 5 10 4 11 3 12 2 13
REMARK SMILES IDX 1 14
REMARK H PARENT
REMARK Flexibility Score: inf
ROOT
ATOM      1  C   UNL     1      57.267  28.557  51.406  1.00  0.00     0.000 C 
ENDROOT
BRANCH   1   2
ATOM      2  C   UNL     1      57.667  28.852  49.954  1.00  0.00     0.004 C 
BRANCH   2   3
ATOM      3  C   UNL     1      59.191  28.973  49.787  1.00  0.00     0.027 C 
BRANCH   3   4
ATOM      4  C   UNL     1      59.778  27.801  49.044  1.00  0.00    -0.025 C 
ATOM      5  C   UNL     1      60.301  26.695  49.600  1.00  0.00     0.020 C 
BRANCH   5   6
ATOM      6  C   UNL     1      60.449  26.418  51.044  1.00  0.00     0.064 C 
ATOM      7  O   UNL     1      59.669  25.647  51.660  1.00  0.00    -0.545 OA
ATOM      8  O   UNL     1      61.466  27.050  51.746  1.00  0.00    -0.545 OA
ENDBRANCH   5   6
ENDBRANCH   3   4
ENDBRANCH   2   3
ENDBRANCH   1   2
BRANCH   1   9
ATOM      9  C   UNL     1      56.497  27.234  51.508  1.00  0.00     0.000 C 
BRANCH   9  10
ATOM     10  C   UNL     1      56.547  26.466  50.177  1.00  0.00     0.000 C 
BRANCH  10  11
ATOM     11  C   UNL     1      55.150  26.099  49.652  1.00  0.00    -0.000 C 
BRANCH  11  12
ATOM     12  C   UNL     1      54.022  26.770  50.455  1.00  0.00    -0.000 C 
BRANCH  12  13
ATOM     13  C   UNL     1      53.310  27.875  49.659  1.00  0.00    -0.003 C 
ATOM     14  C   UNL     1      53.565  29.272  50.224  1.00  0.00     0.004 C 
ENDBRANCH  12  13
ENDBRANCH  11  12
ENDBRANCH  10  11
ENDBRANCH   9  10
ENDBRANCH   1   9
TORSDOF 9
ENDMDL
MODEL 2
REMARK VINA RESULT:    -3.475      1.783      2.739
REMARK INTER + INTRA:          -6.692
REMARK INTER:                  -5.509
REMARK INTRA:                  -1.183
REMARK UNBOUND:                -1.390
REMARK SMILES CCCCCCCCCC=CC(=O)[O-]
REMARK SMILES IDX 7 1 8 2 9 3 10 4 11 5 12 6 13 7 14 8 6 9 5 10 4 11 3 12 2 13
REMARK SMILES IDX 1 14
REMARK H PARENT
REMARK Flexibility Score: inf
ROOT
ATOM      1  C   UNL     1      59.546  25.933  50.956  1.00  0.00     0.000 C 
ENDROOT
BRANCH   1   2
ATOM      2  C   UNL     1      59.936  26.289  49.514  1.00  0.00     0.004 C 
BRANCH   2   3
ATOM      3  C   UNL     1      60.304  27.775  49.366  1.00  0.00     0.027 C 
BRANCH   3   4
ATOM      4  C   UNL     1      59.112  28.627  49.016  1.00  0.00    -0.025 C 
ATOM      5  C   UNL     1      58.356  29.322  49.883  1.00  0.00     0.020 C 
BRANCH   5   6
ATOM      6  C   UNL     1      58.507  29.359  51.352  1.00  0.00     0.064 C 
ATOM      7  O   UNL     1      57.736  28.726  52.119  1.00  0.00    -0.545 OA
ATOM      8  O   UNL     1      59.515  30.138  51.903  1.00  0.00    -0.545 OA
ENDBRANCH   5   6
ENDBRANCH   3   4
ENDBRANCH   2   3
ENDBRANCH   1   2
BRANCH   1   9
ATOM      9  C   UNL     1      58.198  25.201  50.997  1.00  0.00     0.000 C 
BRANCH   9  10
ATOM     10  C   UNL     1      57.199  25.835  50.017  1.00  0.00     0.000 C 
BRANCH  10  11
ATOM     11  C   UNL     1      55.826  26.097  50.657  1.00  0.00    -0.000 C 
BRANCH  11  12
ATOM     12  C   UNL     1      55.145  27.359  50.099  1.00  0.00    -0.000 C 
BRANCH  12  13
ATOM     13  C   UNL     1      53.742  27.072  49.541  1.00  0.00    -0.003 C 
ATOM     14  C   UNL     1      53.559  25.616  49.115  1.00  0.00     0.004 C 
ENDBRANCH  12  13
ENDBRANCH  11  12
ENDBRANCH  10  11
ENDBRANCH   9  10
ENDBRANCH   1   9
TORSDOF 9
ENDMDL
MODEL 3
REMARK VINA RESULT:    -3.437     12.008     13.709
REMARK INTER + INTRA:          -6.635
REMARK INTER:                  -5.426
REMARK INTRA:                  -1.208
REMARK UNBOUND:                -1.390
REMARK SMILES CCCCCCCCCC=CC(=O)[O-]
REMARK SMILES IDX 7 1 8 2 9 3 10 4 11 5 12 6 13 7 14 8 6 9 5 10 4 11 3 12 2 13
REMARK SMILES IDX 1 14
REMARK H PARENT
REMARK Flexibility Score: inf
ROOT
ATOM      1  C   UNL     1      62.807  33.387  59.499  1.00  0.00     0.000 C 
ENDROOT
BRANCH   1   2
ATOM      2  C   UNL     1      61.932  33.087  60.724  1.00  0.00     0.004 C 
BRANCH   2   3
ATOM      3  C   UNL     1      61.093  31.812  60.537  1.00  0.00     0.027 C 
BRANCH   3   4
ATOM      4  C   UNL     1      61.150  30.908  61.741  1.00  0.00    -0.025 C 
ATOM      5  C   UNL     1      62.118  30.016  62.013  1.00  0.00     0.020 C 
BRANCH   5   6
ATOM      6  C   UNL     1      63.292  29.704  61.173  1.00  0.00     0.064 C 
ATOM      7  O   UNL     1      64.414  30.238  61.367  1.00  0.00    -0.545 OA
ATOM      8  O   UNL     1      63.145  28.812  60.120  1.00  0.00    -0.545 OA
ENDBRANCH   5   6
ENDBRANCH   3   4
ENDBRANCH   2   3
ENDBRANCH   1   2
BRANCH   1   9
ATOM      9  C   UNL     1      64.242  33.733  59.918  1.00  0.00     0.000 C 
BRANCH   9  10
ATOM     10  C   UNL     1      64.279  34.267  61.359  1.00  0.00     0.000 C 
BRANCH  10  11
ATOM     11  C   UNL     1      64.565  35.776  61.424  1.00  0.00    -0.000 C 
BRANCH  11  12
ATOM     12  C   UNL     1      63.317  36.600  61.784  1.00  0.00    -0.000 C 
BRANCH  12  13
ATOM     13  C   UNL     1      62.507  37.013  60.545  1.00  0.00    -0.003 C 
ATOM     14  C   UNL     1      61.034  36.615  60.639  1.00  0.00     0.004 C 
ENDBRANCH  12  13
ENDBRANCH  11  12
ENDBRANCH  10  11
ENDBRANCH   9  10
ENDBRANCH   1   9
TORSDOF 9
ENDMDL
MODEL 4
REMARK VINA RESULT:    -3.339      1.926      2.303
REMARK INTER + INTRA:          -6.485
REMARK INTER:                  -5.757
REMARK INTRA:                  -0.728
REMARK UNBOUND:                -1.390
REMARK SMILES CCCCCCCCCC=CC(=O)[O-]
REMARK SMILES IDX 7 1 8 2 9 3 10 4 11 5 12 6 13 7 14 8 6 9 5 10 4 11 3 12 2 13
REMARK SMILES IDX 1 14
REMARK H PARENT
REMARK Flexibility Score: inf
ROOT
ATOM      1  C   UNL     1      57.534  28.405  50.179  1.00  0.00     0.000 C 
ENDROOT
BRANCH   1   2
ATOM      2  C   UNL     1      58.646  29.055  49.343  1.00  0.00     0.004 C 
BRANCH   2   3
ATOM      3  C   UNL     1      59.925  28.203  49.322  1.00  0.00     0.027 C 
BRANCH   3   4
ATOM      4  C   UNL     1      61.055  28.849  50.082  1.00  0.00    -0.025 C 
ATOM      5  C   UNL     1      62.358  28.539  49.973  1.00  0.00     0.020 C 
BRANCH   5   6
ATOM      6  C   UNL     1      62.947  27.480  49.129  1.00  0.00     0.064 C 
ATOM      7  O   UNL     1      63.500  27.733  48.028  1.00  0.00    -0.545 OA
ATOM      8  O   UNL     1      62.863  26.161  49.553  1.00  0.00    -0.545 OA
ENDBRANCH   5   6
ENDBRANCH   3   4
ENDBRANCH   2   3
ENDBRANCH   1   2
BRANCH   1   9
ATOM      9  C   UNL     1      57.940  26.998  50.637  1.00  0.00     0.000 C 
BRANCH   9  10
ATOM     10  C   UNL     1      56.945  25.946  50.121  1.00  0.00     0.000 C 
BRANCH  10  11
ATOM     11  C   UNL     1      55.501  26.227  50.567  1.00  0.00    -0.000 C 
BRANCH  11  12
ATOM     12  C   UNL     1      54.484  26.036  49.429  1.00  0.00    -0.000 C 
BRANCH  12  13
ATOM     13  C   UNL     1      53.374  27.099  49.447  1.00  0.00    -0.003 C 
ATOM     14  C   UNL     1      53.819  28.410  50.096  1.00  0.00     0.004 C 
ENDBRANCH  12  13
ENDBRANCH  11  12
ENDBRANCH  10  11
ENDBRANCH   9  10
ENDBRANCH   1   9
TORSDOF 9
ENDMDL
MODEL 5
REMARK VINA RESULT:    -3.304      2.582      4.966
REMARK INTER + INTRA:          -6.432
REMARK INTER:                  -5.072
REMARK INTRA:                  -1.360
REMARK UNBOUND:                -1.390
REMARK SMILES CCCCCCCCCC=CC(=O)[O-]
REMARK SMILES IDX 7 1 8 2 9 3 10 4 11 5 12 6 13 7 14 8 6 9 5 10 4 11 3 12 2 13
REMARK SMILES IDX 1 14
REMARK H PARENT
REMARK Flexibility Score: inf
ROOT
ATOM      1  C   UNL     1      58.884  29.139  51.086  1.00  0.00     0.000 C 
ENDROOT
BRANCH   1   2
ATOM      2  C   UNL     1      57.565  29.110  50.302  1.00  0.00     0.004 C 
BRANCH   2   3
ATOM      3  C   UNL     1      56.405  28.552  51.143  1.00  0.00     0.027 C 
BRANCH   3   4
ATOM      4  C   UNL     1      55.068  28.753  50.476  1.00  0.00    -0.025 C 
ATOM      5  C   UNL     1      54.262  27.781  50.015  1.00  0.00     0.020 C 
BRANCH   5   6
ATOM      6  C   UNL     1      54.536  26.329  50.023  1.00  0.00     0.064 C 
ATOM      7  O   UNL     1      54.771  25.688  48.966  1.00  0.00    -0.545 OA
ATOM      8  O   UNL     1      54.509  25.648  51.232  1.00  0.00    -0.545 OA
ENDBRANCH   5   6
ENDBRANCH   3   4
ENDBRANCH   2   3
ENDBRANCH   1   2
BRANCH   1   9
ATOM      9  C   UNL     1      60.057  28.685  50.208  1.00  0.00     0.000 C 
BRANCH   9  10
ATOM     10  C   UNL     1      59.590  27.678  49.145  1.00  0.00     0.000 C 
BRANCH  10  11
ATOM     11  C   UNL     1      59.672  26.222  49.631  1.00  0.00    -0.000 C 
BRANCH  11  12
ATOM     12  C   UNL     1      58.286  25.605  49.885  1.00  0.00    -0.000 C 
BRANCH  12  13
ATOM     13  C   UNL     1      58.091  25.176  51.348  1.00  0.00    -0.003 C 
ATOM     14  C   UNL     1      59.245  25.611  52.251  1.00  0.00     0.004 C 
ENDBRANCH  12  13
ENDBRANCH  11  12
ENDBRANCH  10  11
ENDBRANCH   9  10
ENDBRANCH   1   9
TORSDOF 9
ENDMDL
MODEL 6
REMARK VINA RESULT:    -3.287     11.842     13.565
REMARK INTER + INTRA:          -6.406
REMARK INTER:                  -5.365
REMARK INTRA:                  -1.040
REMARK UNBOUND:                -1.390
REMARK SMILES CCCCCCCCCC=CC(=O)[O-]
REMARK SMILES IDX 7 1 8 2 9 3 10 4 11 5 12 6 13 7 14 8 6 9 5 10 4 11 3 12 2 13
REMARK SMILES IDX 1 14
REMARK H PARENT
REMARK Flexibility Score: inf
ROOT
ATOM      1  C   UNL     1      61.473  31.569  61.264  1.00  0.00     0.000 C 
ENDROOT
BRANCH   1   2
ATOM      2  C   UNL     1      62.309  30.281  61.257  1.00  0.00     0.004 C 
BRANCH   2   3
ATOM      3  C   UNL     1      63.763  30.534  61.689  1.00  0.00     0.027 C 
BRANCH   3   4
ATOM      4  C   UNL     1      64.703  30.614  60.513  1.00  0.00    -0.025 C 
ATOM      5  C   UNL     1      65.725  29.779  60.261  1.00  0.00     0.020 C 
BRANCH   5   6
ATOM      6  C   UNL     1      66.166  28.646  61.100  1.00  0.00     0.064 C 
ATOM      7  O   UNL     1      67.209  28.700  61.802  1.00  0.00    -0.545 OA
ATOM      8  O   UNL     1      65.419  27.476  61.094  1.00  0.00    -0.545 OA
ENDBRANCH   5   6
ENDBRANCH   3   4
ENDBRANCH   2   3
ENDBRANCH   1   2
BRANCH   1   9
ATOM      9  C   UNL     1      61.239  32.081  59.837  1.00  0.00     0.000 C 
BRANCH   9  10
ATOM     10  C   UNL     1      62.056  33.355  59.570  1.00  0.00     0.000 C 
BRANCH  10  11
ATOM     11  C   UNL     1      62.561  34.017  60.863  1.00  0.00    -0.000 C 
BRANCH  11  12
ATOM     12  C   UNL     1      64.089  34.195  60.878  1.00  0.00    -0.000 C 
BRANCH  12  13
ATOM     13  C   UNL     1      64.543  35.295  61.851  1.00  0.00    -0.003 C 
ATOM     14  C   UNL     1      63.735  36.585  61.708  1.00  0.00     0.004 C 
ENDBRANCH  12  13
ENDBRANCH  11  12
ENDBRANCH  10  11
ENDBRANCH   9  10
ENDBRANCH   1   9
TORSDOF 9
ENDMDL
MODEL 7
REMARK VINA RESULT:    -3.279      1.339      2.070
REMARK INTER + INTRA:          -6.394
REMARK INTER:                  -5.052
REMARK INTRA:                  -1.343
REMARK UNBOUND:                -1.390
REMARK SMILES CCCCCCCCCC=CC(=O)[O-]
REMARK SMILES IDX 7 1 8 2 9 3 10 4 11 5 12 6 13 7 14 8 6 9 5 10 4 11 3 12 2 13
REMARK SMILES IDX 1 14
REMARK H PARENT
REMARK Flexibility Score: inf
ROOT
ATOM      1  C   UNL     1      58.204  28.313  52.789  1.00  0.00     0.000 C 
ENDROOT
BRANCH   1   2
ATOM      2  C   UNL     1      58.466  29.555  51.926  1.00  0.00     0.004 C 
BRANCH   2   3
ATOM      3  C   UNL     1      59.674  29.366  50.993  1.00  0.00     0.027 C 
BRANCH   3   4
ATOM      4  C   UNL     1      59.262  28.998  49.591  1.00  0.00    -0.025 C 
ATOM      5  C   UNL     1      59.354  27.777  49.036  1.00  0.00     0.020 C 
BRANCH   5   6
ATOM      6  C   UNL     1      59.917  26.563  49.662  1.00  0.00     0.064 C 
ATOM      7  O   UNL     1      61.153  26.331  49.678  1.00  0.00    -0.545 OA
ATOM      8  O   UNL     1      59.051  25.637  50.227  1.00  0.00    -0.545 OA
ENDBRANCH   5   6
ENDBRANCH   3   4
ENDBRANCH   2   3
ENDBRANCH   1   2
BRANCH   1   9
ATOM      9  C   UNL     1      56.953  27.564  52.311  1.00  0.00     0.000 C 
BRANCH   9  10
ATOM     10  C   UNL     1      55.944  28.533  51.675  1.00  0.00     0.000 C 
BRANCH  10  11
ATOM     11  C   UNL     1      55.512  28.096  50.265  1.00  0.00    -0.000 C 
BRANCH  11  12
ATOM     12  C   UNL     1      55.641  26.579  50.051  1.00  0.00    -0.000 C 
BRANCH  12  13
ATOM     13  C   UNL     1      54.458  25.993  49.263  1.00  0.00    -0.003 C 
ATOM     14  C   UNL     1      53.192  26.842  49.376  1.00  0.00     0.004 C 
ENDBRANCH  12  13
ENDBRANCH  11  12
ENDBRANCH  10  11
ENDBRANCH   9  10
ENDBRANCH   1   9
TORSDOF 9
ENDMDL
MODEL 8
REMARK VINA RESULT:    -3.211     12.092     13.855
REMARK INTER + INTRA:          -6.289
REMARK INTER:                  -4.908
REMARK INTRA:                  -1.381
REMARK UNBOUND:                -1.390
REMARK SMILES CCCCCCCCCC=CC(=O)[O-]
REMARK SMILES IDX 7 1 8 2 9 3 10 4 11 5 12 6 13 7 14 8 6 9 5 10 4 11 3 12 2 13
REMARK SMILES IDX 1 14
REMARK H PARENT
REMARK Flexibility Score: inf
ROOT
ATOM      1  C   UNL     1      62.093  33.710  60.704  1.00  0.00     0.000 C 
ENDROOT
BRANCH   1   2
ATOM      2  C   UNL     1      62.133  33.066  59.311  1.00  0.00     0.004 C 
BRANCH   2   3
ATOM      3  C   UNL     1      63.126  31.894  59.245  1.00  0.00     0.027 C 
BRANCH   3   4
ATOM      4  C   UNL     1      64.145  31.944  60.354  1.00  0.00    -0.025 C 
ATOM      5  C   UNL     1      64.249  31.072  61.370  1.00  0.00     0.020 C 
BRANCH   5   6
ATOM      6  C   UNL     1      63.366  29.917  61.637  1.00  0.00     0.064 C 
ATOM      7  O   UNL     1      63.707  28.738  61.363  1.00  0.00    -0.545 OA
ATOM      8  O   UNL     1      62.110  30.146  62.183  1.00  0.00    -0.545 OA
ENDBRANCH   5   6
ENDBRANCH   3   4
ENDBRANCH   2   3
ENDBRANCH   1   2
BRANCH   1   9
ATOM      9  C   UNL     1      61.708  35.192  60.615  1.00  0.00     0.000 C 
BRANCH   9  10
ATOM     10  C   UNL     1      62.725  36.070  61.362  1.00  0.00     0.000 C 
BRANCH  10  11
ATOM     11  C   UNL     1      64.048  35.339  61.637  1.00  0.00    -0.000 C 
BRANCH  11  12
ATOM     12  C   UNL     1      65.253  36.023  60.968  1.00  0.00    -0.000 C 
BRANCH  12  13
ATOM     13  C   UNL     1      65.018  36.300  59.475  1.00  0.00    -0.003 C 
ATOM     14  C   UNL     1      65.217  35.061  58.603  1.00  0.00     0.004 C 
ENDBRANCH  12  13
ENDBRANCH  11  12
ENDBRANCH  10  11
ENDBRANCH   9  10
ENDBRANCH   1   9
TORSDOF 9
ENDMDL
MODEL 9
REMARK VINA RESULT:    -3.116     12.457     13.883
REMARK INTER + INTRA:          -6.146
REMARK INTER:                  -5.198
REMARK INTRA:                  -0.947
REMARK UNBOUND:                -1.390
REMARK SMILES CCCCCCCCCC=CC(=O)[O-]
REMARK SMILES IDX 7 1 8 2 9 3 10 4 11 5 12 6 13 7 14 8 6 9 5 10 4 11 3 12 2 13
REMARK SMILES IDX 1 14
REMARK H PARENT
REMARK Flexibility Score: inf
ROOT
ATOM      1  C   UNL     1      61.153  32.139  60.621  1.00  0.00     0.000 C 
ENDROOT
BRANCH   1   2
ATOM      2  C   UNL     1      62.341  33.074  60.886  1.00  0.00     0.004 C 
BRANCH   2   3
ATOM      3  C   UNL     1      62.250  34.370  60.065  1.00  0.00     0.027 C 
BRANCH   3   4
ATOM      4  C   UNL     1      62.005  35.580  60.929  1.00  0.00    -0.025 C 
ATOM      5  C   UNL     1      62.940  36.441  61.365  1.00  0.00     0.020 C 
BRANCH   5   6
ATOM      6  C   UNL     1      64.396  36.358  61.130  1.00  0.00     0.064 C 
ATOM      7  O   UNL     1      64.922  36.741  60.053  1.00  0.00    -0.545 OA
ATOM      8  O   UNL     1      65.205  35.816  62.119  1.00  0.00    -0.545 OA
ENDBRANCH   5   6
ENDBRANCH   3   4
ENDBRANCH   2   3
ENDBRANCH   1   2
BRANCH   1   9
ATOM      9  C   UNL     1      61.114  30.994  61.641  1.00  0.00     0.000 C 
BRANCH   9  10
ATOM     10  C   UNL     1      61.486  29.657  60.980  1.00  0.00     0.000 C 
BRANCH  10  11
ATOM     11  C   UNL     1      62.664  28.958  61.678  1.00  0.00    -0.000 C 
BRANCH  11  12
ATOM     12  C   UNL     1      63.972  29.761  61.576  1.00  0.00    -0.000 C 
BRANCH  12  13
ATOM     13  C   UNL     1      64.585  29.711  60.167  1.00  0.00    -0.003 C 
ATOM     14  C   UNL     1      65.173  31.052  59.728  1.00  0.00     0.004 C 
ENDBRANCH  12  13
ENDBRANCH  11  12
ENDBRANCH  10  11
ENDBRANCH   9  10
ENDBRANCH   1   9
TORSDOF 9
ENDMDL
