MODEL 1
REMARK VINA RESULT:     0.355      0.000      0.000
REMARK INTER + INTRA:           0.375
REMARK INTER:                   0.375
REMARK INTRA:                   0.000
REMARK UNBOUND:                 0.000
REMARK SMILES O=c1ccc2cc(O)c(O)cc2o1
REMARK SMILES IDX 4 1 3 2 2 3 1 4 13 5 12 6 11 7 9 8 7 9 6 10 5 11 8 12 10 14
REMARK H PARENT 8 13 10 15
REMARK Flexibility Score: inf
ROOT
ATOM      1  C   UNL     1      -1.001  -2.725   0.409  1.00  0.00     0.019 A 
ATOM      2  C   UNL     1      -1.408  -3.125  -0.863  1.00  0.00     0.094 A 
ATOM      3  C   UNL     1      -0.625  -2.773  -1.968  1.00  0.00     0.336 A 
ATOM      4  O   UNL     1      -0.976  -3.124  -3.125  1.00  0.00    -0.246 OA
ATOM      5  O   UNL     1       0.491  -2.067  -1.805  1.00  0.00    -0.423 OA
ATOM      6  C   UNL     1       0.916  -1.665  -0.609  1.00  0.00     0.142 A 
ATOM      7  C   UNL     1       2.097  -0.926  -0.499  1.00  0.00     0.098 A 
ATOM      8  C   UNL     1       2.549  -0.500   0.759  1.00  0.00     0.161 A 
ATOM      9  C   UNL     1       1.815  -0.816   1.912  1.00  0.00     0.158 A 
ATOM     10  C   UNL     1       0.629  -1.557   1.808  1.00  0.00     0.062 A 
ATOM     11  C   UNL     1       0.177  -1.984   0.551  1.00  0.00     0.022 A 
ENDROOT
BRANCH   9  12
ATOM     12  O   UNL     1       2.271  -0.389   3.158  1.00  0.00    -0.504 OA
ATOM     13  H   UNL     1       1.773  -0.615   4.010  1.00  0.00     0.293 HD
ENDBRANCH   9  12
BRANCH   8  14
ATOM     14  O   UNL     1       3.726   0.237   0.872  1.00  0.00    -0.504 OA
ATOM     15  H   UNL     1       3.761   1.103   1.397  1.00  0.00     0.293 HD
ENDBRANCH   8  14
TORSDOF 2
ENDMDL
MODEL 2
REMARK VINA RESULT:     1.752      1.043      4.511
REMARK INTER + INTRA:           1.854
REMARK INTER:                   1.854
REMARK INTRA:                   0.000
REMARK UNBOUND:                 0.000
REMARK SMILES O=c1ccc2cc(O)c(O)cc2o1
REMARK SMILES IDX 4 1 3 2 2 3 1 4 13 5 12 6 11 7 9 8 7 9 6 10 5 11 8 12 10 14
REMARK H PARENT 8 13 10 15
REMARK Flexibility Score: inf
ROOT
ATOM      1  C   UNL     1       0.758  -1.264   2.191  1.00  0.00     0.019 A 
ATOM      2  C   UNL     1       1.999  -0.701   2.487  1.00  0.00     0.094 A 
ATOM      3  C   UNL     1       2.924  -0.518   1.454  1.00  0.00     0.336 A 
ATOM      4  O   UNL     1       4.051  -0.012   1.701  1.00  0.00    -0.246 OA
ATOM      5  O   UNL     1       2.623  -0.877   0.209  1.00  0.00    -0.423 OA
ATOM      6  C   UNL     1       1.451  -1.417  -0.117  1.00  0.00     0.142 A 
ATOM      7  C   UNL     1       1.190  -1.774  -1.444  1.00  0.00     0.098 A 
ATOM      8  C   UNL     1      -0.043  -2.344  -1.792  1.00  0.00     0.161 A 
ATOM      9  C   UNL     1      -1.020  -2.557  -0.809  1.00  0.00     0.158 A 
ATOM     10  C   UNL     1      -0.764  -2.201   0.524  1.00  0.00     0.062 A 
ATOM     11  C   UNL     1       0.468  -1.631   0.873  1.00  0.00     0.022 A 
ENDROOT
BRANCH   9  12
ATOM     12  O   UNL     1      -2.243  -3.123  -1.164  1.00  0.00    -0.504 OA
ATOM     13  H   UNL     1      -2.441  -3.400  -2.118  1.00  0.00     0.293 HD
ENDBRANCH   9  12
BRANCH   8  14
ATOM     14  O   UNL     1      -0.307  -2.700  -3.114  1.00  0.00    -0.504 OA
ATOM     15  H   UNL     1       0.400  -3.133  -3.696  1.00  0.00     0.293 HD
ENDBRANCH   8  14
TORSDOF 2
ENDMDL
