MODEL 1
REMARK VINA RESULT:     4.512      0.000      0.000
REMARK INTER + INTRA:           4.783
REMARK INTER:                   4.908
REMARK INTRA:                  -0.125
REMARK UNBOUND:                -0.125
REMARK SMILES Cc1ccc(C(C)C)cc1O
REMARK SMILES IDX 1 1 2 2 10 3 9 4 5 5 4 6 3 7 11 8 6 10 7 11 8 12
REMARK H PARENT 11 9
REMARK Flexibility Score: inf
ROOT
ATOM      1  C   UNL     1      -9.148   2.839  -6.652  1.00  0.00     0.048 C 
ATOM      2  C   UNL     1      -9.130   1.349  -6.449  1.00  0.00    -0.009 A 
ATOM      3  C   UNL     1     -10.307   0.640  -6.121  1.00  0.00     0.118 A 
ATOM      4  C   UNL     1     -10.256  -0.747  -5.939  1.00  0.00     0.050 A 
ATOM      5  C   UNL     1      -9.049  -1.451  -6.078  1.00  0.00    -0.042 A 
ATOM      6  C   UNL     1      -7.882  -0.739  -6.404  1.00  0.00     0.004 A 
ATOM      7  C   UNL     1      -7.922   0.645  -6.588  1.00  0.00     0.007 A 
ENDROOT
BRANCH   3   8
ATOM      8  O   UNL     1     -11.537   1.283  -5.969  1.00  0.00    -0.508 OA
ATOM      9  H   UNL     1     -12.315   1.145  -6.601  1.00  0.00     0.293 HD
ENDBRANCH   3   8
BRANCH   5  10
ATOM     10  C   UNL     1      -9.018  -2.954  -5.875  1.00  0.00     0.013 C 
ATOM     11  C   UNL     1      -7.952  -3.610  -6.760  1.00  0.00     0.012 C 
ATOM     12  C   UNL     1     -10.399  -3.573  -6.123  1.00  0.00     0.012 C 
ENDBRANCH   5  10
TORSDOF 2
ENDMDL
