MODEL 1
REMARK VINA RESULT:    -4.176      0.000      0.000
REMARK INTER + INTRA:         -15.814
REMARK INTER:                 -11.012
REMARK INTRA:                  -4.802
REMARK UNBOUND:                -4.802
REMARK SMILES CCCCCCCCCCCCCCCCCCCCCCCCCCCCCC(=O)[O-]
REMARK SMILES IDX 16 1 17 2 18 3 19 4 20 5 21 6 22 7 23 8 24 9 25 10 26 11
REMARK SMILES IDX 27 12 28 13 29 14 30 15 31 16 32 17 15 18 14 19 13 20 12 21
REMARK SMILES IDX 11 22 10 23 9 24 8 25 7 26 6 27 5 28 4 29 3 30 2 31 1 32
REMARK H PARENT
REMARK Flexibility Score: inf
ROOT
ATOM      1  C   UNL     1     163.405 173.853 153.056  1.00  0.00     0.000 C 
ENDROOT
BRANCH   1   2
ATOM      2  C   UNL     1     163.759 173.780 151.556  1.00  0.00     0.000 C 
BRANCH   2   3
ATOM      3  C   UNL     1     165.229 174.114 151.231  1.00  0.00     0.000 C 
BRANCH   3   4
ATOM      4  C   UNL     1     165.406 174.811 149.872  1.00  0.00     0.000 C 
BRANCH   4   5
ATOM      5  C   UNL     1     166.891 175.028 149.556  1.00  0.00     0.000 C 
BRANCH   5   6
ATOM      6  C   UNL     1     167.245 176.523 149.539  1.00  0.00     0.000 C 
BRANCH   6   7
ATOM      7  C   UNL     1     167.648 177.024 150.935  1.00  0.00     0.000 C 
BRANCH   7   8
ATOM      8  C   UNL     1     168.991 176.424 151.398  1.00  0.00     0.000 C 
BRANCH   8   9
ATOM      9  C   UNL     1     169.545 177.112 152.655  1.00  0.00     0.000 C 
BRANCH   9  10
ATOM     10  C   UNL     1     170.969 176.626 152.986  1.00  0.00     0.000 C 
BRANCH  10  11
ATOM     11  C   UNL     1     171.884 176.548 151.750  1.00  0.00     0.000 C 
BRANCH  11  12
ATOM     12  C   UNL     1     173.072 177.528 151.751  1.00  0.00     0.000 C 
BRANCH  12  13
ATOM     13  C   UNL     1     174.262 177.036 150.908  1.00  0.00     0.006 C 
BRANCH  13  14
ATOM     14  C   UNL     1     174.461 175.518 151.020  1.00  0.00     0.053 C 
BRANCH  14  15
ATOM     15  C   UNL     1     175.798 175.174 151.602  1.00  0.00     0.041 C 
ATOM     16  O   UNL     1     176.078 175.502 152.784  1.00  0.00    -0.550 OA
ATOM     17  O   UNL     1     176.733 174.481 150.842  1.00  0.00    -0.550 OA
ENDBRANCH  14  15
ENDBRANCH  13  14
ENDBRANCH  12  13
ENDBRANCH  11  12
ENDBRANCH  10  11
ENDBRANCH   9  10
ENDBRANCH   8   9
ENDBRANCH   7   8
ENDBRANCH   6   7
ENDBRANCH   5   6
ENDBRANCH   4   5
ENDBRANCH   3   4
ENDBRANCH   2   3
ENDBRANCH   1   2
BRANCH   1  18
ATOM     18  C   UNL     1     161.913 174.072 153.381  1.00  0.00     0.000 C 
BRANCH  18  19
ATOM     19  C   UNL     1     160.994 174.278 152.161  1.00  0.00     0.000 C 
BRANCH  19  20
ATOM     20  C   UNL     1     159.917 175.348 152.394  1.00  0.00     0.000 C 
BRANCH  20  21
ATOM     21  C   UNL     1     159.878 176.349 151.230  1.00  0.00     0.000 C 
BRANCH  21  22
ATOM     22  C   UNL     1     161.224 176.469 150.495  1.00  0.00     0.000 C 
BRANCH  22  23
ATOM     23  C   UNL     1     161.984 177.760 150.856  1.00  0.00     0.000 C 
BRANCH  23  24
ATOM     24  C   UNL     1     163.451 177.502 151.242  1.00  0.00    -0.000 C 
BRANCH  24  25
ATOM     25  C   UNL     1     163.736 177.474 152.758  1.00  0.00    -0.000 C 
BRANCH  25  26
ATOM     26  C   UNL     1     162.514 177.730 153.660  1.00  0.00    -0.000 C 
BRANCH  26  27
ATOM     27  C   UNL     1     162.891 177.947 155.136  1.00  0.00    -0.000 C 
BRANCH  27  28
ATOM     28  C   UNL     1     162.481 176.758 156.027  1.00  0.00    -0.000 C 
BRANCH  28  29
ATOM     29  C   UNL     1     163.631 176.180 156.873  1.00  0.00    -0.000 C 
BRANCH  29  30
ATOM     30  C   UNL     1     164.607 175.284 156.082  1.00  0.00    -0.000 C 
BRANCH  30  31
ATOM     31  C   UNL     1     165.957 175.969 155.820  1.00  0.00    -0.003 C 
ATOM     32  C   UNL     1     166.443 175.700 154.399  1.00  0.00     0.004 C 
ENDBRANCH  30  31
ENDBRANCH  29  30
ENDBRANCH  28  29
ENDBRANCH  27  28
ENDBRANCH  26  27
ENDBRANCH  25  26
ENDBRANCH  24  25
ENDBRANCH  23  24
ENDBRANCH  22  23
ENDBRANCH  21  22
ENDBRANCH  20  21
ENDBRANCH  19  20
ENDBRANCH  18  19
ENDBRANCH   1  18
TORSDOF 28
ENDMDL
MODEL 2
REMARK VINA RESULT:    -4.167      4.638      9.708
REMARK INTER + INTRA:         -15.789
REMARK INTER:                 -10.476
REMARK INTRA:                  -5.313
REMARK UNBOUND:                -4.802
REMARK SMILES CCCCCCCCCCCCCCCCCCCCCCCCCCCCCC(=O)[O-]
REMARK SMILES IDX 16 1 17 2 18 3 19 4 20 5 21 6 22 7 23 8 24 9 25 10 26 11
REMARK SMILES IDX 27 12 28 13 29 14 30 15 31 16 32 17 15 18 14 19 13 20 12 21
REMARK SMILES IDX 11 22 10 23 9 24 8 25 7 26 6 27 5 28 4 29 3 30 2 31 1 32
REMARK H PARENT
REMARK Flexibility Score: inf
ROOT
ATOM      1  C   UNL     1     172.819 171.897 151.107  1.00  0.00     0.000 C 
ENDROOT
BRANCH   1   2
ATOM      2  C   UNL     1     173.915 170.892 151.517  1.00  0.00     0.000 C 
BRANCH   2   3
ATOM      3  C   UNL     1     174.930 170.564 150.404  1.00  0.00     0.000 C 
BRANCH   3   4
ATOM      4  C   UNL     1     176.327 171.150 150.664  1.00  0.00     0.000 C 
BRANCH   4   5
ATOM      5  C   UNL     1     176.494 172.503 149.963  1.00  0.00     0.000 C 
BRANCH   5   6
ATOM      6  C   UNL     1     176.925 173.595 150.955  1.00  0.00     0.000 C 
BRANCH   6   7
ATOM      7  C   UNL     1     176.883 173.090 152.406  1.00  0.00     0.000 C 
BRANCH   7   8
ATOM      8  C   UNL     1     175.926 173.926 153.281  1.00  0.00     0.000 C 
BRANCH   8   9
ATOM      9  C   UNL     1     175.286 173.105 154.411  1.00  0.00     0.000 C 
BRANCH   9  10
ATOM     10  C   UNL     1     175.213 173.907 155.724  1.00  0.00     0.000 C 
BRANCH  10  11
ATOM     11  C   UNL     1     176.375 174.904 155.888  1.00  0.00     0.000 C 
BRANCH  11  12
ATOM     12  C   UNL     1     177.515 174.435 156.813  1.00  0.00     0.000 C 
BRANCH  12  13
ATOM     13  C   UNL     1     177.014 173.675 158.053  1.00  0.00     0.006 C 
BRANCH  13  14
ATOM     14  C   UNL     1     177.150 174.508 159.335  1.00  0.00     0.053 C 
BRANCH  14  15
ATOM     15  C   UNL     1     175.942 175.362 159.574  1.00  0.00     0.041 C 
ATOM     16  O   UNL     1     176.048 176.449 160.200  1.00  0.00    -0.550 OA
ATOM     17  O   UNL     1     174.699 174.964 159.096  1.00  0.00    -0.550 OA
ENDBRANCH  14  15
ENDBRANCH  13  14
ENDBRANCH  12  13
ENDBRANCH  11  12
ENDBRANCH  10  11
ENDBRANCH   9  10
ENDBRANCH   8   9
ENDBRANCH   7   8
ENDBRANCH   6   7
ENDBRANCH   5   6
ENDBRANCH   4   5
ENDBRANCH   3   4
ENDBRANCH   2   3
ENDBRANCH   1   2
BRANCH   1  18
ATOM     18  C   UNL     1     172.548 173.038 152.109  1.00  0.00     0.000 C 
BRANCH  18  19
ATOM     19  C   UNL     1     172.357 174.434 151.486  1.00  0.00     0.000 C 
BRANCH  19  20
ATOM     20  C   UNL     1     173.599 174.930 150.730  1.00  0.00     0.000 C 
BRANCH  20  21
ATOM     21  C   UNL     1     173.658 176.465 150.720  1.00  0.00     0.000 C 
BRANCH  21  22
ATOM     22  C   UNL     1     175.096 177.010 150.713  1.00  0.00     0.000 C 
BRANCH  22  23
ATOM     23  C   UNL     1     175.347 178.036 151.835  1.00  0.00     0.000 C 
BRANCH  23  24
ATOM     24  C   UNL     1     175.581 177.377 153.206  1.00  0.00    -0.000 C 
BRANCH  24  25
ATOM     25  C   UNL     1     174.549 177.739 154.293  1.00  0.00    -0.000 C 
BRANCH  25  26
ATOM     26  C   UNL     1     173.320 176.813 154.364  1.00  0.00    -0.000 C 
BRANCH  26  27
ATOM     27  C   UNL     1     172.054 177.449 153.763  1.00  0.00    -0.000 C 
BRANCH  27  28
ATOM     28  C   UNL     1     170.809 176.556 153.939  1.00  0.00    -0.000 C 
BRANCH  28  29
ATOM     29  C   UNL     1     169.569 177.048 153.168  1.00  0.00    -0.000 C 
BRANCH  29  30
ATOM     30  C   UNL     1     169.742 177.056 151.635  1.00  0.00    -0.000 C 
BRANCH  30  31
ATOM     31  C   UNL     1     168.436 176.738 150.891  1.00  0.00    -0.003 C 
ATOM     32  C   UNL     1     167.253 176.692 151.854  1.00  0.00     0.004 C 
ENDBRANCH  30  31
ENDBRANCH  29  30
ENDBRANCH  28  29
ENDBRANCH  27  28
ENDBRANCH  26  27
ENDBRANCH  25  26
ENDBRANCH  24  25
ENDBRANCH  23  24
ENDBRANCH  22  23
ENDBRANCH  21  22
ENDBRANCH  20  21
ENDBRANCH  19  20
ENDBRANCH  18  19
ENDBRANCH   1  18
TORSDOF 28
ENDMDL
MODEL 3
REMARK VINA RESULT:    -4.130      4.887     10.819
REMARK INTER + INTRA:         -15.693
REMARK INTER:                 -12.560
REMARK INTRA:                  -3.133
REMARK UNBOUND:                -4.802
REMARK SMILES CCCCCCCCCCCCCCCCCCCCCCCCCCCCCC(=O)[O-]
REMARK SMILES IDX 16 1 17 2 18 3 19 4 20 5 21 6 22 7 23 8 24 9 25 10 26 11
REMARK SMILES IDX 27 12 28 13 29 14 30 15 31 16 32 17 15 18 14 19 13 20 12 21
REMARK SMILES IDX 11 22 10 23 9 24 8 25 7 26 6 27 5 28 4 29 3 30 2 31 1 32
REMARK H PARENT
REMARK Flexibility Score: inf
ROOT
ATOM      1  C   UNL     1     165.648 174.335 150.449  1.00  0.00     0.000 C 
ENDROOT
BRANCH   1   2
ATOM      2  C   UNL     1     164.346 175.119 150.710  1.00  0.00     0.000 C 
BRANCH   2   3
ATOM      3  C   UNL     1     164.130 175.525 152.182  1.00  0.00     0.000 C 
BRANCH   3   4
ATOM      4  C   UNL     1     163.837 177.024 152.362  1.00  0.00     0.000 C 
BRANCH   4   5
ATOM      5  C   UNL     1     163.245 177.624 151.082  1.00  0.00     0.000 C 
BRANCH   5   6
ATOM      6  C   UNL     1     161.723 177.804 151.203  1.00  0.00     0.000 C 
BRANCH   6   7
ATOM      7  C   UNL     1     160.962 176.666 150.505  1.00  0.00     0.000 C 
BRANCH   7   8
ATOM      8  C   UNL     1     159.902 176.030 151.427  1.00  0.00     0.000 C 
BRANCH   8   9
ATOM      9  C   UNL     1     160.305 176.068 152.909  1.00  0.00     0.000 C 
BRANCH   9  10
ATOM     10  C   UNL     1     160.562 174.654 153.464  1.00  0.00     0.000 C 
BRANCH  10  11
ATOM     11  C   UNL     1     160.274 173.542 152.439  1.00  0.00     0.000 C 
BRANCH  11  12
ATOM     12  C   UNL     1     161.512 172.769 151.944  1.00  0.00     0.000 C 
BRANCH  12  13
ATOM     13  C   UNL     1     161.197 171.319 151.541  1.00  0.00     0.006 C 
BRANCH  13  14
ATOM     14  C   UNL     1     159.802 171.182 150.916  1.00  0.00     0.053 C 
BRANCH  14  15
ATOM     15  C   UNL     1     159.366 169.751 150.837  1.00  0.00     0.041 C 
ATOM     16  O   UNL     1     160.113 168.890 150.304  1.00  0.00    -0.550 OA
ATOM     17  O   UNL     1     158.138 169.365 151.361  1.00  0.00    -0.550 OA
ENDBRANCH  14  15
ENDBRANCH  13  14
ENDBRANCH  12  13
ENDBRANCH  11  12
ENDBRANCH  10  11
ENDBRANCH   9  10
ENDBRANCH   8   9
ENDBRANCH   7   8
ENDBRANCH   6   7
ENDBRANCH   5   6
ENDBRANCH   4   5
ENDBRANCH   3   4
ENDBRANCH   2   3
ENDBRANCH   1   2
BRANCH   1  18
ATOM     18  C   UNL     1     166.687 175.043 149.555  1.00  0.00     0.000 C 
BRANCH  18  19
ATOM     19  C   UNL     1     166.806 176.565 149.759  1.00  0.00     0.000 C 
BRANCH  19  20
ATOM     20  C   UNL     1     168.130 176.982 150.415  1.00  0.00     0.000 C 
BRANCH  20  21
ATOM     21  C   UNL     1     168.116 176.679 151.920  1.00  0.00     0.000 C 
BRANCH  21  22
ATOM     22  C   UNL     1     169.459 176.979 152.606  1.00  0.00     0.000 C 
BRANCH  22  23
ATOM     23  C   UNL     1     170.634 177.037 151.612  1.00  0.00     0.000 C 
BRANCH  23  24
ATOM     24  C   UNL     1     171.663 178.125 151.966  1.00  0.00    -0.000 C 
BRANCH  24  25
ATOM     25  C   UNL     1     173.088 177.879 151.430  1.00  0.00    -0.000 C 
BRANCH  25  26
ATOM     26  C   UNL     1     173.462 176.400 151.215  1.00  0.00    -0.000 C 
BRANCH  26  27
ATOM     27  C   UNL     1     173.889 175.694 152.514  1.00  0.00    -0.000 C 
BRANCH  27  28
ATOM     28  C   UNL     1     175.379 175.297 152.504  1.00  0.00    -0.000 C 
BRANCH  28  29
ATOM     29  C   UNL     1     175.960 175.077 151.094  1.00  0.00    -0.000 C 
BRANCH  29  30
ATOM     30  C   UNL     1     176.923 173.875 150.991  1.00  0.00    -0.000 C 
BRANCH  30  31
ATOM     31  C   UNL     1     176.187 172.526 151.012  1.00  0.00    -0.003 C 
ATOM     32  C   UNL     1     176.312 171.812 149.670  1.00  0.00     0.004 C 
ENDBRANCH  30  31
ENDBRANCH  29  30
ENDBRANCH  28  29
ENDBRANCH  27  28
ENDBRANCH  26  27
ENDBRANCH  25  26
ENDBRANCH  24  25
ENDBRANCH  23  24
ENDBRANCH  22  23
ENDBRANCH  21  22
ENDBRANCH  20  21
ENDBRANCH  19  20
ENDBRANCH  18  19
ENDBRANCH   1  18
TORSDOF 28
ENDMDL
MODEL 4
REMARK VINA RESULT:    -4.099      8.664     12.720
REMARK INTER + INTRA:         -15.610
REMARK INTER:                 -11.389
REMARK INTRA:                  -4.222
REMARK UNBOUND:                -4.802
REMARK SMILES CCCCCCCCCCCCCCCCCCCCCCCCCCCCCC(=O)[O-]
REMARK SMILES IDX 16 1 17 2 18 3 19 4 20 5 21 6 22 7 23 8 24 9 25 10 26 11
REMARK SMILES IDX 27 12 28 13 29 14 30 15 31 16 32 17 15 18 14 19 13 20 12 21
REMARK SMILES IDX 11 22 10 23 9 24 8 25 7 26 6 27 5 28 4 29 3 30 2 31 1 32
REMARK H PARENT
REMARK Flexibility Score: inf
ROOT
ATOM      1  C   UNL     1     176.668 171.569 150.001  1.00  0.00     0.000 C 
ENDROOT
BRANCH   1   2
ATOM      2  C   UNL     1     175.485 171.099 149.132  1.00  0.00     0.000 C 
BRANCH   2   3
ATOM      3  C   UNL     1     174.228 170.696 149.930  1.00  0.00     0.000 C 
BRANCH   3   4
ATOM      4  C   UNL     1     174.500 170.493 151.430  1.00  0.00     0.000 C 
BRANCH   4   5
ATOM      5  C   UNL     1     174.743 169.013 151.748  1.00  0.00     0.000 C 
BRANCH   5   6
ATOM      6  C   UNL     1     176.013 168.825 152.594  1.00  0.00     0.000 C 
BRANCH   6   7
ATOM      7  C   UNL     1     177.248 168.580 151.713  1.00  0.00     0.000 C 
BRANCH   7   8
ATOM      8  C   UNL     1     177.931 167.236 152.038  1.00  0.00     0.000 C 
BRANCH   8   9
ATOM      9  C   UNL     1     177.113 166.375 153.012  1.00  0.00     0.000 C 
BRANCH   9  10
ATOM     10  C   UNL     1     176.441 165.189 152.294  1.00  0.00     0.000 C 
BRANCH  10  11
ATOM     11  C   UNL     1     177.143 164.802 150.980  1.00  0.00     0.000 C 
BRANCH  11  12
ATOM     12  C   UNL     1     177.876 163.447 151.003  1.00  0.00     0.000 C 
BRANCH  12  13
ATOM     13  C   UNL     1     177.046 162.322 151.643  1.00  0.00     0.006 C 
BRANCH  13  14
ATOM     14  C   UNL     1     176.292 161.492 150.595  1.00  0.00     0.053 C 
BRANCH  14  15
ATOM     15  C   UNL     1     174.808 161.582 150.778  1.00  0.00     0.041 C 
ATOM     16  O   UNL     1     174.319 162.402 151.599  1.00  0.00    -0.550 OA
ATOM     17  O   UNL     1     173.961 160.767 150.035  1.00  0.00    -0.550 OA
ENDBRANCH  14  15
ENDBRANCH  13  14
ENDBRANCH  12  13
ENDBRANCH  11  12
ENDBRANCH  10  11
ENDBRANCH   9  10
ENDBRANCH   8   9
ENDBRANCH   7   8
ENDBRANCH   6   7
ENDBRANCH   5   6
ENDBRANCH   4   5
ENDBRANCH   3   4
ENDBRANCH   2   3
ENDBRANCH   1   2
BRANCH   1  18
ATOM     18  C   UNL     1     176.935 173.089 150.003  1.00  0.00     0.000 C 
BRANCH  18  19
ATOM     19  C   UNL     1     176.721 173.796 151.355  1.00  0.00     0.000 C 
BRANCH  19  20
ATOM     20  C   UNL     1     175.976 175.132 151.223  1.00  0.00     0.000 C 
BRANCH  20  21
ATOM     21  C   UNL     1     174.476 174.903 150.987  1.00  0.00     0.000 C 
BRANCH  21  22
ATOM     22  C   UNL     1     173.703 176.206 150.723  1.00  0.00     0.000 C 
BRANCH  22  23
ATOM     23  C   UNL     1     172.643 176.497 151.801  1.00  0.00     0.000 C 
BRANCH  23  24
ATOM     24  C   UNL     1     172.969 177.746 152.640  1.00  0.00    -0.000 C 
BRANCH  24  25
ATOM     25  C   UNL     1     174.466 178.105 152.728  1.00  0.00    -0.000 C 
BRANCH  25  26
ATOM     26  C   UNL     1     175.052 178.124 154.153  1.00  0.00    -0.000 C 
BRANCH  26  27
ATOM     27  C   UNL     1     174.757 176.836 154.941  1.00  0.00    -0.000 C 
BRANCH  27  28
ATOM     28  C   UNL     1     176.019 175.974 155.149  1.00  0.00    -0.000 C 
BRANCH  28  29
ATOM     29  C   UNL     1     175.822 174.482 154.819  1.00  0.00    -0.000 C 
BRANCH  29  30
ATOM     30  C   UNL     1     174.373 174.106 154.444  1.00  0.00    -0.000 C 
BRANCH  30  31
ATOM     31  C   UNL     1     174.113 172.594 154.534  1.00  0.00    -0.003 C 
ATOM     32  C   UNL     1     175.418 171.822 154.698  1.00  0.00     0.004 C 
ENDBRANCH  30  31
ENDBRANCH  29  30
ENDBRANCH  28  29
ENDBRANCH  27  28
ENDBRANCH  26  27
ENDBRANCH  25  26
ENDBRANCH  24  25
ENDBRANCH  23  24
ENDBRANCH  22  23
ENDBRANCH  21  22
ENDBRANCH  20  21
ENDBRANCH  19  20
ENDBRANCH  18  19
ENDBRANCH   1  18
TORSDOF 28
ENDMDL
MODEL 5
REMARK VINA RESULT:    -4.077      8.110     11.948
REMARK INTER + INTRA:         -15.553
REMARK INTER:                 -11.544
REMARK INTRA:                  -4.009
REMARK UNBOUND:                -4.802
REMARK SMILES CCCCCCCCCCCCCCCCCCCCCCCCCCCCCC(=O)[O-]
REMARK SMILES IDX 16 1 17 2 18 3 19 4 20 5 21 6 22 7 23 8 24 9 25 10 26 11
REMARK SMILES IDX 27 12 28 13 29 14 30 15 31 16 32 17 15 18 14 19 13 20 12 21
REMARK SMILES IDX 11 22 10 23 9 24 8 25 7 26 6 27 5 28 4 29 3 30 2 31 1 32
REMARK H PARENT
REMARK Flexibility Score: inf
ROOT
ATOM      1  C   UNL     1     172.734 174.193 152.761  1.00  0.00     0.000 C 
ENDROOT
BRANCH   1   2
ATOM      2  C   UNL     1     172.678 173.724 151.293  1.00  0.00     0.000 C 
BRANCH   2   3
ATOM      3  C   UNL     1     174.055 173.595 150.611  1.00  0.00     0.000 C 
BRANCH   3   4
ATOM      4  C   UNL     1     174.875 172.398 151.121  1.00  0.00     0.000 C 
BRANCH   4   5
ATOM      5  C   UNL     1     176.121 172.179 150.255  1.00  0.00     0.000 C 
BRANCH   5   6
ATOM      6  C   UNL     1     176.611 170.725 150.342  1.00  0.00     0.000 C 
BRANCH   6   7
ATOM      7  C   UNL     1     175.924 169.963 151.486  1.00  0.00     0.000 C 
BRANCH   7   8
ATOM      8  C   UNL     1     176.864 168.930 152.139  1.00  0.00     0.000 C 
BRANCH   8   9
ATOM      9  C   UNL     1     176.295 167.503 152.101  1.00  0.00     0.000 C 
BRANCH   9  10
ATOM     10  C   UNL     1     177.415 166.445 152.092  1.00  0.00     0.000 C 
BRANCH  10  11
ATOM     11  C   UNL     1     177.572 165.745 150.730  1.00  0.00     0.000 C 
BRANCH  11  12
ATOM     12  C   UNL     1     178.107 164.301 150.793  1.00  0.00     0.000 C 
BRANCH  12  13
ATOM     13  C   UNL     1     177.285 163.392 151.723  1.00  0.00     0.006 C 
BRANCH  13  14
ATOM     14  C   UNL     1     176.995 162.026 151.087  1.00  0.00     0.053 C 
BRANCH  14  15
ATOM     15  C   UNL     1     175.817 161.355 151.726  1.00  0.00     0.041 C 
ATOM     16  O   UNL     1     174.806 161.060 151.038  1.00  0.00    -0.550 OA
ATOM     17  O   UNL     1     175.840 161.044 153.081  1.00  0.00    -0.550 OA
ENDBRANCH  14  15
ENDBRANCH  13  14
ENDBRANCH  12  13
ENDBRANCH  11  12
ENDBRANCH  10  11
ENDBRANCH   9  10
ENDBRANCH   8   9
ENDBRANCH   7   8
ENDBRANCH   6   7
ENDBRANCH   5   6
ENDBRANCH   4   5
ENDBRANCH   3   4
ENDBRANCH   2   3
ENDBRANCH   1   2
BRANCH   1  18
ATOM     18  C   UNL     1     172.037 175.537 153.061  1.00  0.00     0.000 C 
BRANCH  18  19
ATOM     19  C   UNL     1     171.769 176.430 151.834  1.00  0.00     0.000 C 
BRANCH  19  20
ATOM     20  C   UNL     1     172.540 177.757 151.877  1.00  0.00     0.000 C 
BRANCH  20  21
ATOM     21  C   UNL     1     173.719 177.739 150.893  1.00  0.00     0.000 C 
BRANCH  21  22
ATOM     22  C   UNL     1     175.086 177.828 151.592  1.00  0.00     0.000 C 
BRANCH  22  23
ATOM     23  C   UNL     1     175.555 176.472 152.154  1.00  0.00     0.000 C 
BRANCH  23  24
ATOM     24  C   UNL     1     175.664 176.466 153.689  1.00  0.00    -0.000 C 
BRANCH  24  25
ATOM     25  C   UNL     1     175.299 177.796 154.379  1.00  0.00    -0.000 C 
BRANCH  25  26
ATOM     26  C   UNL     1     174.137 177.715 155.387  1.00  0.00    -0.000 C 
BRANCH  26  27
ATOM     27  C   UNL     1     173.954 176.307 155.980  1.00  0.00    -0.000 C 
BRANCH  27  28
ATOM     28  C   UNL     1     174.647 176.153 157.349  1.00  0.00    -0.000 C 
BRANCH  28  29
ATOM     29  C   UNL     1     175.422 174.833 157.517  1.00  0.00    -0.000 C 
BRANCH  29  30
ATOM     30  C   UNL     1     175.296 173.872 156.315  1.00  0.00    -0.000 C 
BRANCH  30  31
ATOM     31  C   UNL     1     176.657 173.526 155.690  1.00  0.00    -0.003 C 
ATOM     32  C   UNL     1     176.483 172.700 154.420  1.00  0.00     0.004 C 
ENDBRANCH  30  31
ENDBRANCH  29  30
ENDBRANCH  28  29
ENDBRANCH  27  28
ENDBRANCH  26  27
ENDBRANCH  25  26
ENDBRANCH  24  25
ENDBRANCH  23  24
ENDBRANCH  22  23
ENDBRANCH  21  22
ENDBRANCH  20  21
ENDBRANCH  19  20
ENDBRANCH  18  19
ENDBRANCH   1  18
TORSDOF 28
ENDMDL
MODEL 6
REMARK VINA RESULT:    -4.050      1.266      2.506
REMARK INTER + INTRA:         -15.482
REMARK INTER:                 -10.753
REMARK INTRA:                  -4.729
REMARK UNBOUND:                -4.802
REMARK SMILES CCCCCCCCCCCCCCCCCCCCCCCCCCCCCC(=O)[O-]
REMARK SMILES IDX 16 1 17 2 18 3 19 4 20 5 21 6 22 7 23 8 24 9 25 10 26 11
REMARK SMILES IDX 27 12 28 13 29 14 30 15 31 16 32 17 15 18 14 19 13 20 12 21
REMARK SMILES IDX 11 22 10 23 9 24 8 25 7 26 6 27 5 28 4 29 3 30 2 31 1 32
REMARK H PARENT
REMARK Flexibility Score: inf
ROOT
ATOM      1  C   UNL     1     163.996 176.752 151.914  1.00  0.00     0.000 C 
ENDROOT
BRANCH   1   2
ATOM      2  C   UNL     1     164.448 175.505 151.128  1.00  0.00     0.000 C 
BRANCH   2   3
ATOM      3  C   UNL     1     165.974 175.396 150.928  1.00  0.00     0.000 C 
BRANCH   3   4
ATOM      4  C   UNL     1     166.583 176.622 150.228  1.00  0.00     0.000 C 
BRANCH   4   5
ATOM      5  C   UNL     1     168.080 176.743 150.540  1.00  0.00     0.000 C 
BRANCH   5   6
ATOM      6  C   UNL     1     168.611 175.477 151.229  1.00  0.00     0.000 C 
BRANCH   6   7
ATOM      7  C   UNL     1     170.139 175.518 151.387  1.00  0.00     0.000 C 
BRANCH   7   8
ATOM      8  C   UNL     1     170.561 175.746 152.853  1.00  0.00     0.000 C 
BRANCH   8   9
ATOM      9  C   UNL     1     170.653 177.236 153.219  1.00  0.00     0.000 C 
BRANCH   9  10
ATOM     10  C   UNL     1     171.258 178.066 152.071  1.00  0.00     0.000 C 
BRANCH  10  11
ATOM     11  C   UNL     1     172.797 178.114 152.107  1.00  0.00     0.000 C 
BRANCH  11  12
ATOM     12  C   UNL     1     173.500 177.599 150.836  1.00  0.00     0.000 C 
BRANCH  12  13
ATOM     13  C   UNL     1     173.815 176.095 150.888  1.00  0.00     0.006 C 
BRANCH  13  14
ATOM     14  C   UNL     1     175.245 175.820 151.373  1.00  0.00     0.053 C 
BRANCH  14  15
ATOM     15  C   UNL     1     175.267 175.320 152.785  1.00  0.00     0.041 C 
ATOM     16  O   UNL     1     176.362 175.064 153.350  1.00  0.00    -0.550 OA
ATOM     17  O   UNL     1     174.078 175.147 153.484  1.00  0.00    -0.550 OA
ENDBRANCH  14  15
ENDBRANCH  13  14
ENDBRANCH  12  13
ENDBRANCH  11  12
ENDBRANCH  10  11
ENDBRANCH   9  10
ENDBRANCH   8   9
ENDBRANCH   7   8
ENDBRANCH   6   7
ENDBRANCH   5   6
ENDBRANCH   4   5
ENDBRANCH   3   4
ENDBRANCH   2   3
ENDBRANCH   1   2
BRANCH   1  18
ATOM     18  C   UNL     1     163.132 177.761 151.129  1.00  0.00     0.000 C 
BRANCH  18  19
ATOM     19  C   UNL     1     161.631 177.757 151.477  1.00  0.00     0.000 C 
BRANCH  19  20
ATOM     20  C   UNL     1     160.799 176.874 150.536  1.00  0.00     0.000 C 
BRANCH  20  21
ATOM     21  C   UNL     1     160.066 175.775 151.320  1.00  0.00     0.000 C 
BRANCH  21  22
ATOM     22  C   UNL     1     160.927 174.521 151.545  1.00  0.00     0.000 C 
BRANCH  22  23
ATOM     23  C   UNL     1     161.363 174.356 153.013  1.00  0.00     0.000 C 
BRANCH  23  24
ATOM     24  C   UNL     1     160.346 174.941 154.009  1.00  0.00    -0.000 C 
BRANCH  24  25
ATOM     25  C   UNL     1     160.834 176.170 154.801  1.00  0.00    -0.000 C 
BRANCH  25  26
ATOM     26  C   UNL     1     162.142 175.966 155.589  1.00  0.00    -0.000 C 
BRANCH  26  27
ATOM     27  C   UNL     1     162.650 177.257 156.254  1.00  0.00    -0.000 C 
BRANCH  27  28
ATOM     28  C   UNL     1     163.896 177.828 155.549  1.00  0.00    -0.000 C 
BRANCH  28  29
ATOM     29  C   UNL     1     165.227 177.233 156.045  1.00  0.00    -0.000 C 
BRANCH  29  30
ATOM     30  C   UNL     1     165.756 176.067 155.183  1.00  0.00    -0.000 C 
BRANCH  30  31
ATOM     31  C   UNL     1     167.031 176.436 154.409  1.00  0.00    -0.003 C 
ATOM     32  C   UNL     1     166.931 177.842 153.824  1.00  0.00     0.004 C 
ENDBRANCH  30  31
ENDBRANCH  29  30
ENDBRANCH  28  29
ENDBRANCH  27  28
ENDBRANCH  26  27
ENDBRANCH  25  26
ENDBRANCH  24  25
ENDBRANCH  23  24
ENDBRANCH  22  23
ENDBRANCH  21  22
ENDBRANCH  20  21
ENDBRANCH  19  20
ENDBRANCH  18  19
ENDBRANCH   1  18
TORSDOF 28
ENDMDL
MODEL 7
REMARK VINA RESULT:    -4.036      2.734      7.780
REMARK INTER + INTRA:         -15.444
REMARK INTER:                 -12.787
REMARK INTRA:                  -2.657
REMARK UNBOUND:                -4.802
REMARK SMILES CCCCCCCCCCCCCCCCCCCCCCCCCCCCCC(=O)[O-]
REMARK SMILES IDX 16 1 17 2 18 3 19 4 20 5 21 6 22 7 23 8 24 9 25 10 26 11
REMARK SMILES IDX 27 12 28 13 29 14 30 15 31 16 32 17 15 18 14 19 13 20 12 21
REMARK SMILES IDX 11 22 10 23 9 24 8 25 7 26 6 27 5 28 4 29 3 30 2 31 1 32
REMARK H PARENT
REMARK Flexibility Score: inf
ROOT
ATOM      1  C   UNL     1     172.909 176.844 151.182  1.00  0.00     0.000 C 
ENDROOT
BRANCH   1   2
ATOM      2  C   UNL     1     174.086 177.691 150.656  1.00  0.00     0.000 C 
BRANCH   2   3
ATOM      3  C   UNL     1     175.469 177.258 151.184  1.00  0.00     0.000 C 
BRANCH   3   4
ATOM      4  C   UNL     1     175.413 176.628 152.586  1.00  0.00     0.000 C 
BRANCH   4   5
ATOM      5  C   UNL     1     175.854 175.160 152.546  1.00  0.00     0.000 C 
BRANCH   5   6
ATOM      6  C   UNL     1     176.303 174.751 151.134  1.00  0.00     0.000 C 
BRANCH   6   7
ATOM      7  C   UNL     1     175.632 173.444 150.684  1.00  0.00     0.000 C 
BRANCH   7   8
ATOM      8  C   UNL     1     176.641 172.468 150.044  1.00  0.00     0.000 C 
BRANCH   8   9
ATOM      9  C   UNL     1     175.996 171.137 149.626  1.00  0.00     0.000 C 
BRANCH   9  10
ATOM     10  C   UNL     1     175.606 170.286 150.850  1.00  0.00     0.000 C 
BRANCH  10  11
ATOM     11  C   UNL     1     176.724 170.199 151.905  1.00  0.00     0.000 C 
BRANCH  11  12
ATOM     12  C   UNL     1     176.284 170.493 153.352  1.00  0.00     0.000 C 
BRANCH  12  13
ATOM     13  C   UNL     1     176.820 171.833 153.886  1.00  0.00     0.006 C 
BRANCH  13  14
ATOM     14  C   UNL     1     175.956 172.388 155.026  1.00  0.00     0.053 C 
BRANCH  14  15
ATOM     15  C   UNL     1     176.765 173.194 155.996  1.00  0.00     0.041 C 
ATOM     16  O   UNL     1     176.965 172.768 157.163  1.00  0.00    -0.550 OA
ATOM     17  O   UNL     1     177.309 174.413 155.608  1.00  0.00    -0.550 OA
ENDBRANCH  14  15
ENDBRANCH  13  14
ENDBRANCH  12  13
ENDBRANCH  11  12
ENDBRANCH  10  11
ENDBRANCH   9  10
ENDBRANCH   8   9
ENDBRANCH   7   8
ENDBRANCH   6   7
ENDBRANCH   5   6
ENDBRANCH   4   5
ENDBRANCH   3   4
ENDBRANCH   2   3
ENDBRANCH   1   2
BRANCH   1  18
ATOM     18  C   UNL     1     171.884 177.594 152.057  1.00  0.00     0.000 C 
BRANCH  18  19
ATOM     19  C   UNL     1     170.438 177.599 151.524  1.00  0.00     0.000 C 
BRANCH  19  20
ATOM     20  C   UNL     1     169.497 176.690 152.330  1.00  0.00     0.000 C 
BRANCH  20  21
ATOM     21  C   UNL     1     169.186 175.400 151.557  1.00  0.00     0.000 C 
BRANCH  21  22
ATOM     22  C   UNL     1     167.690 175.235 151.242  1.00  0.00     0.000 C 
BRANCH  22  23
ATOM     23  C   UNL     1     167.298 175.850 149.885  1.00  0.00     0.000 C 
BRANCH  23  24
ATOM     24  C   UNL     1     167.094 177.374 149.956  1.00  0.00    -0.000 C 
BRANCH  24  25
ATOM     25  C   UNL     1     165.665 177.829 150.315  1.00  0.00    -0.000 C 
BRANCH  25  26
ATOM     26  C   UNL     1     165.385 177.982 151.822  1.00  0.00    -0.000 C 
BRANCH  26  27
ATOM     27  C   UNL     1     164.187 177.142 152.299  1.00  0.00    -0.000 C 
BRANCH  27  28
ATOM     28  C   UNL     1     163.352 176.593 151.125  1.00  0.00    -0.000 C 
BRANCH  28  29
ATOM     29  C   UNL     1     162.156 177.482 150.736  1.00  0.00    -0.000 C 
BRANCH  29  30
ATOM     30  C   UNL     1     160.801 176.744 150.719  1.00  0.00    -0.000 C 
BRANCH  30  31
ATOM     31  C   UNL     1     160.842 175.417 151.492  1.00  0.00    -0.003 C 
ATOM     32  C   UNL     1     159.435 174.932 151.827  1.00  0.00     0.004 C 
ENDBRANCH  30  31
ENDBRANCH  29  30
ENDBRANCH  28  29
ENDBRANCH  27  28
ENDBRANCH  26  27
ENDBRANCH  25  26
ENDBRANCH  24  25
ENDBRANCH  23  24
ENDBRANCH  22  23
ENDBRANCH  21  22
ENDBRANCH  20  21
ENDBRANCH  19  20
ENDBRANCH  18  19
ENDBRANCH   1  18
TORSDOF 28
ENDMDL
MODEL 8
REMARK VINA RESULT:    -4.007      7.685     11.368
REMARK INTER + INTRA:         -15.368
REMARK INTER:                 -10.425
REMARK INTRA:                  -4.943
REMARK UNBOUND:                -4.802
REMARK SMILES CCCCCCCCCCCCCCCCCCCCCCCCCCCCCC(=O)[O-]
REMARK SMILES IDX 16 1 17 2 18 3 19 4 20 5 21 6 22 7 23 8 24 9 25 10 26 11
REMARK SMILES IDX 27 12 28 13 29 14 30 15 31 16 32 17 15 18 14 19 13 20 12 21
REMARK SMILES IDX 11 22 10 23 9 24 8 25 7 26 6 27 5 28 4 29 3 30 2 31 1 32
REMARK H PARENT
REMARK Flexibility Score: inf
ROOT
ATOM      1  C   UNL     1     171.923 175.380 152.703  1.00  0.00     0.000 C 
ENDROOT
BRANCH   1   2
ATOM      2  C   UNL     1     172.343 176.684 151.995  1.00  0.00     0.000 C 
BRANCH   2   3
ATOM      3  C   UNL     1     173.356 176.490 150.849  1.00  0.00     0.000 C 
BRANCH   3   4
ATOM      4  C   UNL     1     174.367 177.642 150.730  1.00  0.00     0.000 C 
BRANCH   4   5
ATOM      5  C   UNL     1     174.891 178.056 152.111  1.00  0.00     0.000 C 
BRANCH   5   6
ATOM      6  C   UNL     1     175.763 176.952 152.730  1.00  0.00     0.000 C 
BRANCH   6   7
ATOM      7  C   UNL     1     175.789 177.046 154.264  1.00  0.00     0.000 C 
BRANCH   7   8
ATOM      8  C   UNL     1     174.566 177.807 154.816  1.00  0.00     0.000 C 
BRANCH   8   9
ATOM      9  C   UNL     1     174.331 177.545 156.312  1.00  0.00     0.000 C 
BRANCH   9  10
ATOM     10  C   UNL     1     174.248 176.038 156.618  1.00  0.00     0.000 C 
BRANCH  10  11
ATOM     11  C   UNL     1     175.065 175.627 157.857  1.00  0.00     0.000 C 
BRANCH  11  12
ATOM     12  C   UNL     1     176.210 174.632 157.586  1.00  0.00     0.000 C 
BRANCH  12  13
ATOM     13  C   UNL     1     176.739 173.959 158.864  1.00  0.00     0.006 C 
BRANCH  13  14
ATOM     14  C   UNL     1     175.754 172.924 159.424  1.00  0.00     0.053 C 
BRANCH  14  15
ATOM     15  C   UNL     1     176.197 171.522 159.137  1.00  0.00     0.041 C 
ATOM     16  O   UNL     1     176.163 171.075 157.961  1.00  0.00    -0.550 OA
ATOM     17  O   UNL     1     176.658 170.710 160.166  1.00  0.00    -0.550 OA
ENDBRANCH  14  15
ENDBRANCH  13  14
ENDBRANCH  12  13
ENDBRANCH  11  12
ENDBRANCH  10  11
ENDBRANCH   9  10
ENDBRANCH   8   9
ENDBRANCH   7   8
ENDBRANCH   6   7
ENDBRANCH   5   6
ENDBRANCH   4   5
ENDBRANCH   3   4
ENDBRANCH   2   3
ENDBRANCH   1   2
BRANCH   1  18
ATOM     18  C   UNL     1     172.296 174.073 151.973  1.00  0.00     0.000 C 
BRANCH  18  19
ATOM     19  C   UNL     1     173.009 173.015 152.837  1.00  0.00     0.000 C 
BRANCH  19  20
ATOM     20  C   UNL     1     173.819 173.626 153.990  1.00  0.00     0.000 C 
BRANCH  20  21
ATOM     21  C   UNL     1     175.015 172.734 154.353  1.00  0.00     0.000 C 
BRANCH  21  22
ATOM     22  C   UNL     1     176.370 173.383 154.025  1.00  0.00     0.000 C 
BRANCH  22  23
ATOM     23  C   UNL     1     176.999 172.823 152.735  1.00  0.00     0.000 C 
BRANCH  23  24
ATOM     24  C   UNL     1     176.928 173.811 151.557  1.00  0.00    -0.000 C 
BRANCH  24  25
ATOM     25  C   UNL     1     176.616 173.178 150.186  1.00  0.00    -0.000 C 
BRANCH  25  26
ATOM     26  C   UNL     1     176.646 171.638 150.153  1.00  0.00    -0.000 C 
BRANCH  26  27
ATOM     27  C   UNL     1     175.448 171.030 149.402  1.00  0.00    -0.000 C 
BRANCH  27  28
ATOM     28  C   UNL     1     174.369 170.488 150.361  1.00  0.00    -0.000 C 
BRANCH  28  29
ATOM     29  C   UNL     1     174.908 170.069 151.742  1.00  0.00    -0.000 C 
BRANCH  29  30
ATOM     30  C   UNL     1     175.960 168.942 151.691  1.00  0.00    -0.000 C 
BRANCH  30  31
ATOM     31  C   UNL     1     176.988 169.042 152.829  1.00  0.00    -0.003 C 
ATOM     32  C   UNL     1     176.298 169.183 154.182  1.00  0.00     0.004 C 
ENDBRANCH  30  31
ENDBRANCH  29  30
ENDBRANCH  28  29
ENDBRANCH  27  28
ENDBRANCH  26  27
ENDBRANCH  25  26
ENDBRANCH  24  25
ENDBRANCH  23  24
ENDBRANCH  22  23
ENDBRANCH  21  22
ENDBRANCH  20  21
ENDBRANCH  19  20
ENDBRANCH  18  19
ENDBRANCH   1  18
TORSDOF 28
ENDMDL
MODEL 9
REMARK VINA RESULT:    -3.965      5.754     10.915
REMARK INTER + INTRA:         -15.258
REMARK INTER:                  -9.314
REMARK INTRA:                  -5.943
REMARK UNBOUND:                -4.802
REMARK SMILES CCCCCCCCCCCCCCCCCCCCCCCCCCCCCC(=O)[O-]
REMARK SMILES IDX 16 1 17 2 18 3 19 4 20 5 21 6 22 7 23 8 24 9 25 10 26 11
REMARK SMILES IDX 27 12 28 13 29 14 30 15 31 16 32 17 15 18 14 19 13 20 12 21
REMARK SMILES IDX 11 22 10 23 9 24 8 25 7 26 6 27 5 28 4 29 3 30 2 31 1 32
REMARK H PARENT
REMARK Flexibility Score: inf
ROOT
ATOM      1  C   UNL     1     174.758 174.498 151.234  1.00  0.00     0.000 C 
ENDROOT
BRANCH   1   2
ATOM      2  C   UNL     1     176.288 174.670 151.309  1.00  0.00     0.000 C 
BRANCH   2   3
ATOM      3  C   UNL     1     177.086 173.361 151.144  1.00  0.00     0.000 C 
BRANCH   3   4
ATOM      4  C   UNL     1     176.585 172.487 149.983  1.00  0.00     0.000 C 
BRANCH   4   5
ATOM      5  C   UNL     1     176.506 171.014 150.399  1.00  0.00     0.000 C 
BRANCH   5   6
ATOM      6  C   UNL     1     175.049 170.532 150.470  1.00  0.00     0.000 C 
BRANCH   6   7
ATOM      7  C   UNL     1     174.136 171.352 149.545  1.00  0.00     0.000 C 
BRANCH   7   8
ATOM      8  C   UNL     1     172.799 171.712 150.224  1.00  0.00     0.000 C 
BRANCH   8   9
ATOM      9  C   UNL     1     172.755 171.298 151.703  1.00  0.00     0.000 C 
BRANCH   9  10
ATOM     10  C   UNL     1     171.476 171.807 152.396  1.00  0.00     0.000 C 
BRANCH  10  11
ATOM     11  C   UNL     1     171.222 173.308 152.168  1.00  0.00     0.000 C 
BRANCH  11  12
ATOM     12  C   UNL     1     171.010 174.139 153.448  1.00  0.00     0.000 C 
BRANCH  12  13
ATOM     13  C   UNL     1     171.195 175.650 153.225  1.00  0.00     0.006 C 
BRANCH  13  14
ATOM     14  C   UNL     1     170.556 176.123 151.912  1.00  0.00     0.053 C 
BRANCH  14  15
ATOM     15  C   UNL     1     169.123 176.516 152.101  1.00  0.00     0.041 C 
ATOM     16  O   UNL     1     168.227 176.016 151.372  1.00  0.00    -0.550 OA
ATOM     17  O   UNL     1     168.772 177.428 153.091  1.00  0.00    -0.550 OA
ENDBRANCH  14  15
ENDBRANCH  13  14
ENDBRANCH  12  13
ENDBRANCH  11  12
ENDBRANCH  10  11
ENDBRANCH   9  10
ENDBRANCH   8   9
ENDBRANCH   7   8
ENDBRANCH   6   7
ENDBRANCH   5   6
ENDBRANCH   4   5
ENDBRANCH   3   4
ENDBRANCH   2   3
ENDBRANCH   1   2
BRANCH   1  18
ATOM     18  C   UNL     1     173.958 175.769 150.879  1.00  0.00     0.000 C 
BRANCH  18  19
ATOM     19  C   UNL     1     174.799 176.961 150.382  1.00  0.00     0.000 C 
BRANCH  19  20
ATOM     20  C   UNL     1     174.842 178.125 151.382  1.00  0.00     0.000 C 
BRANCH  20  21
ATOM     21  C   UNL     1     173.933 177.846 152.588  1.00  0.00     0.000 C 
BRANCH  21  22
ATOM     22  C   UNL     1     174.710 177.717 153.909  1.00  0.00     0.000 C 
BRANCH  22  23
ATOM     23  C   UNL     1     174.565 176.324 154.550  1.00  0.00     0.000 C 
BRANCH  23  24
ATOM     24  C   UNL     1     175.917 175.699 154.935  1.00  0.00    -0.000 C 
BRANCH  24  25
ATOM     25  C   UNL     1     175.895 174.812 156.197  1.00  0.00    -0.000 C 
BRANCH  25  26
ATOM     26  C   UNL     1     176.610 173.454 156.056  1.00  0.00    -0.000 C 
BRANCH  26  27
ATOM     27  C   UNL     1     176.643 172.940 154.606  1.00  0.00    -0.000 C 
BRANCH  27  28
ATOM     28  C   UNL     1     175.317 172.273 154.190  1.00  0.00    -0.000 C 
BRANCH  28  29
ATOM     29  C   UNL     1     175.305 170.741 154.356  1.00  0.00    -0.000 C 
BRANCH  29  30
ATOM     30  C   UNL     1     174.030 170.190 155.029  1.00  0.00    -0.000 C 
BRANCH  30  31
ATOM     31  C   UNL     1     173.823 170.747 156.446  1.00  0.00    -0.003 C 
ATOM     32  C   UNL     1     174.985 170.370 157.360  1.00  0.00     0.004 C 
ENDBRANCH  30  31
ENDBRANCH  29  30
ENDBRANCH  28  29
ENDBRANCH  27  28
ENDBRANCH  26  27
ENDBRANCH  25  26
ENDBRANCH  24  25
ENDBRANCH  23  24
ENDBRANCH  22  23
ENDBRANCH  21  22
ENDBRANCH  20  21
ENDBRANCH  19  20
ENDBRANCH  18  19
ENDBRANCH   1  18
TORSDOF 28
ENDMDL
