MODEL 1
REMARK VINA RESULT:    -4.690      0.000      0.000
REMARK INTER + INTRA:          -8.823
REMARK INTER:                  -7.020
REMARK INTRA:                  -1.802
REMARK UNBOUND:                -1.802
REMARK SMILES C=C(CC[C@H](C(=O)[O-])[C@H]1[C@H](O)C[C@]2(C)C3=C(CC[C@@]12C)[C@]1(C)CC[C@@H](OC(C)=O)C(C)(C)[C@H]1CC3)C(C)C
REMARK SMILES IDX 4 1 5 2 6 3 7 4 8 5 9 6 10 7 19 8 12 9 13 10 18 11 20 12
REMARK SMILES IDX 14 13 15 14 17 15 16 16 35 17 21 18 34 19 33 20 23 21 22 22
REMARK SMILES IDX 30 23 24 24 25 25 31 26 32 27 11 28 26 30 27 31 29 32 28 33
REMARK SMILES IDX 3 34 2 35 1 36 36 37 37 38 38 39
REMARK H PARENT 11 29
REMARK Flexibility Score: inf
ROOT
ATOM      1  C   UNL     1      18.006  21.076   5.961  1.00  0.00     0.014 C 
ENDROOT
BRANCH   1   2
ATOM      2  C   UNL     1      17.334  20.094   6.961  1.00  0.00     0.042 C 
BRANCH   2   3
ATOM      3  C   UNL     1      17.564  20.612   8.368  1.00  0.00     0.045 C 
ATOM      4  O   UNL     1      18.670  21.141   8.669  1.00  0.00    -0.550 OA
ATOM      5  O   UNL     1      16.591  20.462   9.348  1.00  0.00    -0.550 OA
ENDBRANCH   2   3
BRANCH   2   6
ATOM      6  C   UNL     1      17.890  18.629   6.757  1.00  0.00     0.033 C 
ATOM      7  C   UNL     1      17.929  17.722   8.037  1.00  0.00     0.119 C 
ATOM      8  C   UNL     1      17.195  17.728   5.647  1.00  0.00    -0.017 C 
ATOM      9  C   UNL     1      17.362  16.353   7.629  1.00  0.00     0.043 C 
ATOM     10  C   UNL     1      16.404  16.669   6.475  1.00  0.00    -0.003 C 
ATOM     11  C   UNL     1      16.207  18.349   4.616  1.00  0.00     0.012 C 
ATOM     12  C   UNL     1      18.361  17.086   4.810  1.00  0.00     0.013 C 
ATOM     13  C   UNL     1      15.074  17.203   7.112  1.00  0.00     0.017 C 
ATOM     14  C   UNL     1      16.023  15.510   5.567  1.00  0.00    -0.064 C 
ATOM     15  C   UNL     1      15.351  17.266   3.863  1.00  0.00     0.032 C 
ATOM     16  C   UNL     1      15.406  15.801   4.375  1.00  0.00    -0.064 C 
ATOM     17  C   UNL     1      16.263  14.085   6.058  1.00  0.00     0.032 C 
ATOM     18  C   UNL     1      14.842  14.673   3.474  1.00  0.00    -0.008 C 
ATOM     19  C   UNL     1      15.756  12.972   5.137  1.00  0.00     0.009 C 
ATOM     20  C   UNL     1      14.497  13.424   4.376  1.00  0.00     0.009 C 
ATOM     21  C   UNL     1      13.543  15.149   2.782  1.00  0.00     0.015 C 
ATOM     22  C   UNL     1      15.927  14.385   2.399  1.00  0.00     0.016 C 
ATOM     23  C   UNL     1      13.646  12.251   3.730  1.00  0.00     0.005 C 
ATOM     24  C   UNL     1      12.784  14.026   2.066  1.00  0.00     0.047 C 
ATOM     25  C   UNL     1      12.399  12.893   3.031  1.00  0.00     0.182 C 
ATOM     26  C   UNL     1      14.439  11.355   2.738  1.00  0.00     0.015 C 
ATOM     27  C   UNL     1      13.115  11.314   4.856  1.00  0.00     0.015 C 
BRANCH   7  28
ATOM     28  O   UNL     1      19.240  17.588   8.526  1.00  0.00    -0.393 OA
ATOM     29  H   UNL     1      19.236  16.788   9.122  1.00  0.00     0.210 HD
ENDBRANCH   7  28
BRANCH  25  30
ATOM     30  O   UNL     1      11.643  11.911   2.311  1.00  0.00    -0.462 OA
BRANCH  30  31
ATOM     31  C   UNL     1      10.257  11.748   2.429  1.00  0.00     0.302 C 
ATOM     32  O   UNL     1       9.471  12.668   2.087  1.00  0.00    -0.253 OA
ATOM     33  C   UNL     1       9.705  10.475   2.973  1.00  0.00     0.139 C 
ENDBRANCH  30  31
ENDBRANCH  25  30
ENDBRANCH   2   6
ENDBRANCH   1   2
BRANCH   1  34
ATOM     34  C   UNL     1      17.042  22.125   5.369  1.00  0.00     0.031 C 
BRANCH  34  35
ATOM     35  C   UNL     1      16.705  21.790   3.923  1.00  0.00    -0.075 C 
ATOM     36  C   UNL     1      17.706  21.397   3.110  1.00  0.00     0.008 C 
BRANCH  35  37
ATOM     37  C   UNL     1      15.243  21.875   3.477  1.00  0.00     0.008 C 
ATOM     38  C   UNL     1      14.353  21.063   4.431  1.00  0.00     0.012 C 
ATOM     39  C   UNL     1      14.680  23.297   3.340  1.00  0.00     0.012 C 
ENDBRANCH  35  37
ENDBRANCH  34  35
ENDBRANCH   1  34
TORSDOF 9
ENDMDL
MODEL 2
REMARK VINA RESULT:    -4.551      3.016      5.181
REMARK INTER + INTRA:          -8.614
REMARK INTER:                  -6.405
REMARK INTRA:                  -2.209
REMARK UNBOUND:                -1.802
REMARK SMILES C=C(CC[C@H](C(=O)[O-])[C@H]1[C@H](O)C[C@]2(C)C3=C(CC[C@@]12C)[C@]1(C)CC[C@@H](OC(C)=O)C(C)(C)[C@H]1CC3)C(C)C
REMARK SMILES IDX 4 1 5 2 6 3 7 4 8 5 9 6 10 7 19 8 12 9 13 10 18 11 20 12
REMARK SMILES IDX 14 13 15 14 17 15 16 16 35 17 21 18 34 19 33 20 23 21 22 22
REMARK SMILES IDX 30 23 24 24 25 25 31 26 32 27 11 28 26 30 27 31 29 32 28 33
REMARK SMILES IDX 3 34 2 35 1 36 36 37 37 38 38 39
REMARK H PARENT 11 29
REMARK Flexibility Score: inf
ROOT
ATOM      1  C   UNL     1      17.323  21.587   7.085  1.00  0.00     0.014 C 
ENDROOT
BRANCH   1   2
ATOM      2  C   UNL     1      17.234  20.842   5.723  1.00  0.00     0.042 C 
BRANCH   2   3
ATOM      3  C   UNL     1      17.208  21.875   4.613  1.00  0.00     0.045 C 
ATOM      4  O   UNL     1      18.169  21.945   3.799  1.00  0.00    -0.550 OA
ATOM      5  O   UNL     1      16.164  22.785   4.514  1.00  0.00    -0.550 OA
ENDBRANCH   2   3
BRANCH   2   6
ATOM      6  C   UNL     1      15.973  19.890   5.694  1.00  0.00     0.033 C 
ATOM      7  C   UNL     1      15.075  19.974   4.410  1.00  0.00     0.119 C 
ATOM      8  C   UNL     1      16.222  18.335   5.909  1.00  0.00    -0.017 C 
ATOM      9  C   UNL     1      14.770  18.529   3.986  1.00  0.00     0.043 C 
ATOM     10  C   UNL     1      15.968  17.723   4.497  1.00  0.00    -0.003 C 
ATOM     11  C   UNL     1      17.599  17.806   6.408  1.00  0.00     0.012 C 
ATOM     12  C   UNL     1      15.158  17.863   6.967  1.00  0.00     0.013 C 
ATOM     13  C   UNL     1      17.139  17.938   3.476  1.00  0.00     0.017 C 
ATOM     14  C   UNL     1      15.774  16.220   4.634  1.00  0.00    -0.064 C 
ATOM     15  C   UNL     1      17.770  16.258   6.199  1.00  0.00     0.032 C 
ATOM     16  C   UNL     1      16.710  15.511   5.345  1.00  0.00    -0.064 C 
ATOM     17  C   UNL     1      14.604  15.565   3.905  1.00  0.00     0.032 C 
ATOM     18  C   UNL     1      16.670  13.963   5.390  1.00  0.00    -0.008 C 
ATOM     19  C   UNL     1      14.535  14.038   4.000  1.00  0.00     0.009 C 
ATOM     20  C   UNL     1      15.946  13.432   4.090  1.00  0.00     0.009 C 
ATOM     21  C   UNL     1      18.110  13.397   5.412  1.00  0.00     0.015 C 
ATOM     22  C   UNL     1      15.942  13.579   6.709  1.00  0.00     0.016 C 
ATOM     23  C   UNL     1      16.033  11.881   3.769  1.00  0.00     0.005 C 
ATOM     24  C   UNL     1      18.175  11.878   5.211  1.00  0.00     0.047 C 
ATOM     25  C   UNL     1      17.536  11.453   3.879  1.00  0.00     0.182 C 
ATOM     26  C   UNL     1      15.134  10.989   4.672  1.00  0.00     0.015 C 
ATOM     27  C   UNL     1      15.584  11.629   2.299  1.00  0.00     0.015 C 
BRANCH   7  28
ATOM     28  O   UNL     1      13.885  20.677   4.666  1.00  0.00    -0.393 OA
ATOM     29  H   UNL     1      13.182  20.252   4.099  1.00  0.00     0.210 HD
ENDBRANCH   7  28
BRANCH  25  30
ATOM     30  O   UNL     1      17.685  10.035   3.728  1.00  0.00    -0.462 OA
BRANCH  30  31
ATOM     31  C   UNL     1      18.796   9.423   3.134  1.00  0.00     0.302 C 
ATOM     32  O   UNL     1      18.878   9.317   1.884  1.00  0.00    -0.253 OA
ATOM     33  C   UNL     1      19.890   8.884   3.990  1.00  0.00     0.139 C 
ENDBRANCH  30  31
ENDBRANCH  25  30
ENDBRANCH   2   6
ENDBRANCH   1   2
BRANCH   1  34
ATOM     34  C   UNL     1      18.548  21.193   7.936  1.00  0.00     0.031 C 
BRANCH  34  35
ATOM     35  C   UNL     1      18.166  20.151   8.977  1.00  0.00    -0.075 C 
ATOM     36  C   UNL     1      16.883  20.100   9.388  1.00  0.00     0.008 C 
BRANCH  35  37
ATOM     37  C   UNL     1      19.246  19.186   9.473  1.00  0.00     0.008 C 
ATOM     38  C   UNL     1      18.625  17.814   9.780  1.00  0.00     0.012 C 
ATOM     39  C   UNL     1      20.447  19.004   8.534  1.00  0.00     0.012 C 
ENDBRANCH  35  37
ENDBRANCH  34  35
ENDBRANCH   1  34
TORSDOF 9
ENDMDL
MODEL 3
REMARK VINA RESULT:    -4.255      2.660      9.172
REMARK INTER + INTRA:          -8.172
REMARK INTER:                  -6.424
REMARK INTRA:                  -1.748
REMARK UNBOUND:                -1.802
REMARK SMILES C=C(CC[C@H](C(=O)[O-])[C@H]1[C@H](O)C[C@]2(C)C3=C(CC[C@@]12C)[C@]1(C)CC[C@@H](OC(C)=O)C(C)(C)[C@H]1CC3)C(C)C
REMARK SMILES IDX 4 1 5 2 6 3 7 4 8 5 9 6 10 7 19 8 12 9 13 10 18 11 20 12
REMARK SMILES IDX 14 13 15 14 17 15 16 16 35 17 21 18 34 19 33 20 23 21 22 22
REMARK SMILES IDX 30 23 24 24 25 25 31 26 32 27 11 28 26 30 27 31 29 32 28 33
REMARK SMILES IDX 3 34 2 35 1 36 36 37 37 38 38 39
REMARK H PARENT 11 29
REMARK Flexibility Score: inf
ROOT
ATOM      1  C   UNL     1      15.183  12.981   2.993  1.00  0.00     0.014 C 
ENDROOT
BRANCH   1   2
ATOM      2  C   UNL     1      16.376  13.591   3.781  1.00  0.00     0.042 C 
BRANCH   2   3
ATOM      3  C   UNL     1      17.258  12.457   4.267  1.00  0.00     0.045 C 
ATOM      4  O   UNL     1      18.505  12.626   4.356  1.00  0.00    -0.550 OA
ATOM      5  O   UNL     1      16.716  11.213   4.563  1.00  0.00    -0.550 OA
ENDBRANCH   2   3
BRANCH   2   6
ATOM      6  C   UNL     1      15.852  14.500   4.962  1.00  0.00     0.033 C 
ATOM      7  C   UNL     1      16.470  14.216   6.377  1.00  0.00     0.119 C 
ATOM      8  C   UNL     1      15.967  16.075   4.784  1.00  0.00    -0.017 C 
ATOM      9  C   UNL     1      16.829  15.580   6.987  1.00  0.00     0.043 C 
ATOM     10  C   UNL     1      17.101  16.477   5.776  1.00  0.00    -0.003 C 
ATOM     11  C   UNL     1      16.312  16.701   3.400  1.00  0.00     0.012 C 
ATOM     12  C   UNL     1      14.570  16.667   5.199  1.00  0.00     0.013 C 
ATOM     13  C   UNL     1      18.550  16.147   5.274  1.00  0.00     0.017 C 
ATOM     14  C   UNL     1      17.048  17.979   6.011  1.00  0.00    -0.064 C 
ATOM     15  C   UNL     1      16.746  18.208   3.502  1.00  0.00     0.032 C 
ATOM     16  C   UNL     1      17.005  18.802   4.913  1.00  0.00    -0.064 C 
ATOM     17  C   UNL     1      17.133  18.498   7.444  1.00  0.00     0.032 C 
ATOM     18  C   UNL     1      17.114  20.340   5.068  1.00  0.00    -0.008 C 
ATOM     19  C   UNL     1      17.183  20.021   7.595  1.00  0.00     0.009 C 
ATOM     20  C   UNL     1      17.901  20.666   6.397  1.00  0.00     0.009 C 
ATOM     21  C   UNL     1      17.901  20.936   3.876  1.00  0.00     0.015 C 
ATOM     22  C   UNL     1      15.659  20.889   5.055  1.00  0.00     0.016 C 
ATOM     23  C   UNL     1      18.387  22.158   6.630  1.00  0.00     0.005 C 
ATOM     24  C   UNL     1      18.270  22.413   4.063  1.00  0.00     0.047 C 
ATOM     25  C   UNL     1      19.117  22.632   5.327  1.00  0.00     0.182 C 
ATOM     26  C   UNL     1      17.253  23.147   7.022  1.00  0.00     0.015 C 
ATOM     27  C   UNL     1      19.431  22.190   7.785  1.00  0.00     0.015 C 
BRANCH   7  28
ATOM     28  O   UNL     1      15.561  13.529   7.201  1.00  0.00    -0.393 OA
ATOM     29  H   UNL     1      16.110  12.951   7.801  1.00  0.00     0.210 HD
ENDBRANCH   7  28
BRANCH  25  30
ATOM     30  O   UNL     1      19.476  24.018   5.406  1.00  0.00    -0.462 OA
BRANCH  30  31
ATOM     31  C   UNL     1      20.374  24.646   4.534  1.00  0.00     0.302 C 
ATOM     32  O   UNL     1      20.990  23.984   3.661  1.00  0.00    -0.253 OA
ATOM     33  C   UNL     1      20.610  26.113   4.645  1.00  0.00     0.139 C 
ENDBRANCH  30  31
ENDBRANCH  25  30
ENDBRANCH   2   6
ENDBRANCH   1   2
BRANCH   1  34
ATOM     34  C   UNL     1      13.837  13.043   3.744  1.00  0.00     0.031 C 
BRANCH  34  35
ATOM     35  C   UNL     1      12.807  13.822   2.939  1.00  0.00    -0.075 C 
ATOM     36  C   UNL     1      13.222  14.907   2.254  1.00  0.00     0.008 C 
BRANCH  35  37
ATOM     37  C   UNL     1      11.363  13.313   2.914  1.00  0.00     0.008 C 
ATOM     38  C   UNL     1      11.242  12.036   3.760  1.00  0.00     0.012 C 
ATOM     39  C   UNL     1      10.302  14.326   3.363  1.00  0.00     0.012 C 
ENDBRANCH  35  37
ENDBRANCH  34  35
ENDBRANCH   1  34
TORSDOF 9
ENDMDL
MODEL 4
REMARK VINA RESULT:    -4.210      1.493      2.069
REMARK INTER + INTRA:          -8.105
REMARK INTER:                  -6.240
REMARK INTRA:                  -1.865
REMARK UNBOUND:                -1.802
REMARK SMILES C=C(CC[C@H](C(=O)[O-])[C@H]1[C@H](O)C[C@]2(C)C3=C(CC[C@@]12C)[C@]1(C)CC[C@@H](OC(C)=O)C(C)(C)[C@H]1CC3)C(C)C
REMARK SMILES IDX 4 1 5 2 6 3 7 4 8 5 9 6 10 7 19 8 12 9 13 10 18 11 20 12
REMARK SMILES IDX 14 13 15 14 17 15 16 16 35 17 21 18 34 19 33 20 23 21 22 22
REMARK SMILES IDX 30 23 24 24 25 25 31 26 32 27 11 28 26 30 27 31 29 32 28 33
REMARK SMILES IDX 3 34 2 35 1 36 36 37 37 38 38 39
REMARK H PARENT 11 29
REMARK Flexibility Score: inf
ROOT
ATOM      1  C   UNL     1      19.932  20.791   7.759  1.00  0.00     0.014 C 
ENDROOT
BRANCH   1   2
ATOM      2  C   UNL     1      18.675  19.887   7.898  1.00  0.00     0.042 C 
BRANCH   2   3
ATOM      3  C   UNL     1      18.007  20.197   9.224  1.00  0.00     0.045 C 
ATOM      4  O   UNL     1      18.712  20.473  10.233  1.00  0.00    -0.550 OA
ATOM      5  O   UNL     1      16.626  20.125   9.357  1.00  0.00    -0.550 OA
ENDBRANCH   2   3
BRANCH   2   6
ATOM      6  C   UNL     1      19.072  18.364   7.761  1.00  0.00     0.033 C 
ATOM      7  C   UNL     1      18.788  17.462   9.014  1.00  0.00     0.119 C 
ATOM      8  C   UNL     1      18.463  17.553   6.537  1.00  0.00    -0.017 C 
ATOM      9  C   UNL     1      18.130  16.173   8.494  1.00  0.00     0.043 C 
ATOM     10  C   UNL     1      17.422  16.603   7.205  1.00  0.00    -0.003 C 
ATOM     11  C   UNL     1      17.742  18.289   5.369  1.00  0.00     0.012 C 
ATOM     12  C   UNL     1      19.663  16.769   5.890  1.00  0.00     0.013 C 
ATOM     13  C   UNL     1      16.082  17.301   7.625  1.00  0.00     0.017 C 
ATOM     14  C   UNL     1      17.055  15.498   6.226  1.00  0.00    -0.064 C 
ATOM     15  C   UNL     1      16.895  17.320   4.467  1.00  0.00     0.032 C 
ATOM     16  C   UNL     1      16.684  15.861   4.955  1.00  0.00    -0.064 C 
ATOM     17  C   UNL     1      17.033  14.056   6.724  1.00  0.00     0.032 C 
ATOM     18  C   UNL     1      16.141  14.810   3.954  1.00  0.00    -0.008 C 
ATOM     19  C   UNL     1      16.551  13.012   5.713  1.00  0.00     0.009 C 
ATOM     20  C   UNL     1      15.501  13.616   4.765  1.00  0.00     0.009 C 
ATOM     21  C   UNL     1      15.042  15.442   3.067  1.00  0.00     0.015 C 
ATOM     22  C   UNL     1      17.344  14.386   3.065  1.00  0.00     0.016 C 
ATOM     23  C   UNL     1      14.629  12.557   3.968  1.00  0.00     0.005 C 
ATOM     24  C   UNL     1      14.278  14.421   2.216  1.00  0.00     0.047 C 
ATOM     25  C   UNL     1      13.603  13.347   3.086  1.00  0.00     0.182 C 
ATOM     26  C   UNL     1      15.458  11.566   3.102  1.00  0.00     0.015 C 
ATOM     27  C   UNL     1      13.809  11.696   4.974  1.00  0.00     0.015 C 
BRANCH   7  28
ATOM     28  O   UNL     1      19.973  17.167   9.708  1.00  0.00    -0.393 OA
ATOM     29  H   UNL     1      20.026  16.172   9.763  1.00  0.00     0.210 HD
ENDBRANCH   7  28
BRANCH  25  30
ATOM     30  O   UNL     1      12.860  12.465   2.234  1.00  0.00    -0.462 OA
BRANCH  30  31
ATOM     31  C   UNL     1      11.470  12.306   2.293  1.00  0.00     0.302 C 
ATOM     32  O   UNL     1      10.926  11.252   1.876  1.00  0.00    -0.253 OA
ATOM     33  C   UNL     1      10.623  13.399   2.849  1.00  0.00     0.139 C 
ENDBRANCH  30  31
ENDBRANCH  25  30
ENDBRANCH   2   6
ENDBRANCH   1   2
BRANCH   1  34
ATOM     34  C   UNL     1      19.950  21.647   6.476  1.00  0.00     0.031 C 
BRANCH  34  35
ATOM     35  C   UNL     1      18.847  22.695   6.512  1.00  0.00    -0.075 C 
ATOM     36  C   UNL     1      18.818  23.555   7.551  1.00  0.00     0.008 C 
BRANCH  35  37
ATOM     37  C   UNL     1      17.851  22.746   5.351  1.00  0.00     0.008 C 
ATOM     38  C   UNL     1      18.581  22.499   4.021  1.00  0.00     0.012 C 
ATOM     39  C   UNL     1      16.658  21.786   5.465  1.00  0.00     0.012 C 
ENDBRANCH  35  37
ENDBRANCH  34  35
ENDBRANCH   1  34
TORSDOF 9
ENDMDL
MODEL 5
REMARK VINA RESULT:    -4.126      1.560      2.224
REMARK INTER + INTRA:          -7.978
REMARK INTER:                  -6.992
REMARK INTRA:                  -0.985
REMARK UNBOUND:                -1.802
REMARK SMILES C=C(CC[C@H](C(=O)[O-])[C@H]1[C@H](O)C[C@]2(C)C3=C(CC[C@@]12C)[C@]1(C)CC[C@@H](OC(C)=O)C(C)(C)[C@H]1CC3)C(C)C
REMARK SMILES IDX 4 1 5 2 6 3 7 4 8 5 9 6 10 7 19 8 12 9 13 10 18 11 20 12
REMARK SMILES IDX 14 13 15 14 17 15 16 16 35 17 21 18 34 19 33 20 23 21 22 22
REMARK SMILES IDX 30 23 24 24 25 25 31 26 32 27 11 28 26 30 27 31 29 32 28 33
REMARK SMILES IDX 3 34 2 35 1 36 36 37 37 38 38 39
REMARK H PARENT 11 29
REMARK Flexibility Score: inf
ROOT
ATOM      1  C   UNL     1      18.111  21.666   5.790  1.00  0.00     0.014 C 
ENDROOT
BRANCH   1   2
ATOM      2  C   UNL     1      18.177  21.443   7.327  1.00  0.00     0.042 C 
BRANCH   2   3
ATOM      3  C   UNL     1      19.008  22.556   7.937  1.00  0.00     0.045 C 
ATOM      4  O   UNL     1      20.077  22.278   8.547  1.00  0.00    -0.550 OA
ATOM      5  O   UNL     1      18.577  23.875   7.882  1.00  0.00    -0.550 OA
ENDBRANCH   2   3
BRANCH   2   6
ATOM      6  C   UNL     1      18.751  20.008   7.654  1.00  0.00     0.033 C 
ATOM      7  C   UNL     1      18.351  19.407   9.048  1.00  0.00     0.119 C 
ATOM      8  C   UNL     1      18.456  18.843   6.614  1.00  0.00    -0.017 C 
ATOM      9  C   UNL     1      17.936  17.948   8.799  1.00  0.00     0.043 C 
ATOM     10  C   UNL     1      17.422  17.941   7.356  1.00  0.00    -0.003 C 
ATOM     11  C   UNL     1      17.875  19.158   5.204  1.00  0.00     0.012 C 
ATOM     12  C   UNL     1      19.827  18.111   6.374  1.00  0.00     0.013 C 
ATOM     13  C   UNL     1      15.962  18.514   7.383  1.00  0.00     0.017 C 
ATOM     14  C   UNL     1      17.352  16.590   6.662  1.00  0.00    -0.064 C 
ATOM     15  C   UNL     1      17.307  17.884   4.479  1.00  0.00     0.032 C 
ATOM     16  C   UNL     1      17.171  16.573   5.300  1.00  0.00    -0.064 C 
ATOM     17  C   UNL     1      17.397  15.325   7.515  1.00  0.00     0.032 C 
ATOM     18  C   UNL     1      16.927  15.241   4.547  1.00  0.00    -0.008 C 
ATOM     19  C   UNL     1      17.213  14.007   6.758  1.00  0.00     0.009 C 
ATOM     20  C   UNL     1      16.287  14.199   5.545  1.00  0.00     0.009 C 
ATOM     21  C   UNL     1      15.938  15.469   3.378  1.00  0.00     0.015 C 
ATOM     22  C   UNL     1      18.305  14.796   3.981  1.00  0.00     0.016 C 
ATOM     23  C   UNL     1      15.686  12.861   4.941  1.00  0.00     0.005 C 
ATOM     24  C   UNL     1      15.448  14.170   2.728  1.00  0.00     0.047 C 
ATOM     25  C   UNL     1      14.751  13.252   3.746  1.00  0.00     0.182 C 
ATOM     26  C   UNL     1      16.754  11.823   4.494  1.00  0.00     0.015 C 
ATOM     27  C   UNL     1      14.799  12.160   6.013  1.00  0.00     0.015 C 
BRANCH   7  28
ATOM     28  O   UNL     1      19.422  19.469   9.956  1.00  0.00    -0.393 OA
ATOM     29  H   UNL     1      19.904  20.320   9.762  1.00  0.00     0.210 HD
ENDBRANCH   7  28
BRANCH  25  30
ATOM     30  O   UNL     1      14.266  12.089   3.061  1.00  0.00    -0.462 OA
BRANCH  30  31
ATOM     31  C   UNL     1      12.911  11.824   2.830  1.00  0.00     0.302 C 
ATOM     32  O   UNL     1      12.559  11.001   1.948  1.00  0.00    -0.253 OA
ATOM     33  C   UNL     1      11.872  12.529   3.633  1.00  0.00     0.139 C 
ENDBRANCH  30  31
ENDBRANCH  25  30
ENDBRANCH   2   6
ENDBRANCH   1   2
BRANCH   1  34
ATOM     34  C   UNL     1      16.936  22.556   5.334  1.00  0.00     0.031 C 
BRANCH  34  35
ATOM     35  C   UNL     1      16.597  22.292   3.875  1.00  0.00    -0.075 C 
ATOM     36  C   UNL     1      17.578  22.423   2.958  1.00  0.00     0.008 C 
BRANCH  35  37
ATOM     37  C   UNL     1      15.172  21.854   3.524  1.00  0.00     0.008 C 
ATOM     38  C   UNL     1      14.670  20.830   4.554  1.00  0.00     0.012 C 
ATOM     39  C   UNL     1      14.149  22.990   3.392  1.00  0.00     0.012 C 
ENDBRANCH  35  37
ENDBRANCH  34  35
ENDBRANCH   1  34
TORSDOF 9
ENDMDL
MODEL 6
REMARK VINA RESULT:    -4.002      3.700      6.747
REMARK INTER + INTRA:          -7.793
REMARK INTER:                  -6.109
REMARK INTRA:                  -1.684
REMARK UNBOUND:                -1.802
REMARK SMILES C=C(CC[C@H](C(=O)[O-])[C@H]1[C@H](O)C[C@]2(C)C3=C(CC[C@@]12C)[C@]1(C)CC[C@@H](OC(C)=O)C(C)(C)[C@H]1CC3)C(C)C
REMARK SMILES IDX 4 1 5 2 6 3 7 4 8 5 9 6 10 7 19 8 12 9 13 10 18 11 20 12
REMARK SMILES IDX 14 13 15 14 17 15 16 16 35 17 21 18 34 19 33 20 23 21 22 22
REMARK SMILES IDX 30 23 24 24 25 25 31 26 32 27 11 28 26 30 27 31 29 32 28 33
REMARK SMILES IDX 3 34 2 35 1 36 36 37 37 38 38 39
REMARK H PARENT 11 29
REMARK Flexibility Score: inf
ROOT
ATOM      1  C   UNL     1      20.929  23.780   8.959  1.00  0.00     0.014 C 
ENDROOT
BRANCH   1   2
ATOM      2  C   UNL     1      20.540  22.993   7.675  1.00  0.00     0.042 C 
BRANCH   2   3
ATOM      3  C   UNL     1      20.635  23.935   6.490  1.00  0.00     0.045 C 
ATOM      4  O   UNL     1      20.401  25.165   6.645  1.00  0.00    -0.550 OA
ATOM      5  O   UNL     1      20.924  23.452   5.220  1.00  0.00    -0.550 OA
ENDBRANCH   2   3
BRANCH   2   6
ATOM      6  C   UNL     1      19.102  22.358   7.830  1.00  0.00     0.033 C 
ATOM      7  C   UNL     1      18.072  22.697   6.695  1.00  0.00     0.119 C 
ATOM      8  C   UNL     1      19.011  20.779   7.995  1.00  0.00    -0.017 C 
ATOM      9  C   UNL     1      17.382  21.379   6.312  1.00  0.00     0.043 C 
ATOM     10  C   UNL     1      18.421  20.300   6.634  1.00  0.00    -0.003 C 
ATOM     11  C   UNL     1      20.284  19.929   8.280  1.00  0.00     0.012 C 
ATOM     12  C   UNL     1      18.030  20.521   9.198  1.00  0.00     0.013 C 
ATOM     13  C   UNL     1      19.450  20.282   5.450  1.00  0.00     0.017 C 
ATOM     14  C   UNL     1      17.904  18.878   6.788  1.00  0.00    -0.064 C 
ATOM     15  C   UNL     1      20.058  18.393   8.037  1.00  0.00     0.032 C 
ATOM     16  C   UNL     1      18.742  17.944   7.347  1.00  0.00    -0.064 C 
ATOM     17  C   UNL     1      16.521  18.537   6.239  1.00  0.00     0.032 C 
ATOM     18  C   UNL     1      18.350  16.446   7.387  1.00  0.00    -0.008 C 
ATOM     19  C   UNL     1      16.113  17.064   6.334  1.00  0.00     0.009 C 
ATOM     20  C   UNL     1      17.343  16.149   6.208  1.00  0.00     0.009 C 
ATOM     21  C   UNL     1      19.606  15.565   7.190  1.00  0.00     0.015 C 
ATOM     22  C   UNL     1      17.750  16.186   8.798  1.00  0.00     0.016 C 
ATOM     23  C   UNL     1      17.019  14.633   5.868  1.00  0.00     0.005 C 
ATOM     24  C   UNL     1      19.287  14.081   6.972  1.00  0.00     0.047 C 
ATOM     25  C   UNL     1      18.381  13.868   5.748  1.00  0.00     0.182 C 
ATOM     26  C   UNL     1      16.077  13.934   6.889  1.00  0.00     0.015 C 
ATOM     27  C   UNL     1      16.318  14.551   4.479  1.00  0.00     0.015 C 
BRANCH   7  28
ATOM     28  O   UNL     1      17.128  23.643   7.130  1.00  0.00    -0.393 OA
ATOM     29  H   UNL     1      16.458  23.140   7.671  1.00  0.00     0.210 HD
ENDBRANCH   7  28
BRANCH  25  30
ATOM     30  O   UNL     1      18.174  12.460   5.568  1.00  0.00    -0.462 OA
BRANCH  30  31
ATOM     31  C   UNL     1      19.144  11.583   5.067  1.00  0.00     0.302 C 
ATOM     32  O   UNL     1      19.970  11.967   4.201  1.00  0.00    -0.253 OA
ATOM     33  C   UNL     1      19.194  10.178   5.559  1.00  0.00     0.139 C 
ENDBRANCH  30  31
ENDBRANCH  25  30
ENDBRANCH   2   6
ENDBRANCH   1   2
BRANCH   1  34
ATOM     34  C   UNL     1      21.115  22.892  10.207  1.00  0.00     0.031 C 
BRANCH  34  35
ATOM     35  C   UNL     1      20.534  23.568  11.439  1.00  0.00    -0.075 C 
ATOM     36  C   UNL     1      20.201  24.873  11.354  1.00  0.00     0.008 C 
BRANCH  35  37
ATOM     37  C   UNL     1      20.319  22.727  12.700  1.00  0.00     0.008 C 
ATOM     38  C   UNL     1      19.630  23.571  13.784  1.00  0.00     0.012 C 
ATOM     39  C   UNL     1      19.535  21.423  12.494  1.00  0.00     0.012 C 
ENDBRANCH  35  37
ENDBRANCH  34  35
ENDBRANCH   1  34
TORSDOF 9
ENDMDL
MODEL 7
REMARK VINA RESULT:    -3.897      2.905      9.909
REMARK INTER + INTRA:          -7.635
REMARK INTER:                  -5.372
REMARK INTRA:                  -2.263
REMARK UNBOUND:                -1.802
REMARK SMILES C=C(CC[C@H](C(=O)[O-])[C@H]1[C@H](O)C[C@]2(C)C3=C(CC[C@@]12C)[C@]1(C)CC[C@@H](OC(C)=O)C(C)(C)[C@H]1CC3)C(C)C
REMARK SMILES IDX 4 1 5 2 6 3 7 4 8 5 9 6 10 7 19 8 12 9 13 10 18 11 20 12
REMARK SMILES IDX 14 13 15 14 17 15 16 16 35 17 21 18 34 19 33 20 23 21 22 22
REMARK SMILES IDX 30 23 24 24 25 25 31 26 32 27 11 28 26 30 27 31 29 32 28 33
REMARK SMILES IDX 3 34 2 35 1 36 36 37 37 38 38 39
REMARK H PARENT 11 29
REMARK Flexibility Score: inf
ROOT
ATOM      1  C   UNL     1      16.725  10.890   4.860  1.00  0.00     0.014 C 
ENDROOT
BRANCH   1   2
ATOM      2  C   UNL     1      15.833  12.154   5.018  1.00  0.00     0.042 C 
BRANCH   2   3
ATOM      3  C   UNL     1      14.470  11.855   4.423  1.00  0.00     0.045 C 
ATOM      4  O   UNL     1      13.469  11.727   5.180  1.00  0.00    -0.550 OA
ATOM      5  O   UNL     1      14.319  11.665   3.055  1.00  0.00    -0.550 OA
ENDBRANCH   2   3
BRANCH   2   6
ATOM      6  C   UNL     1      16.525  13.407   4.351  1.00  0.00     0.033 C 
ATOM      7  C   UNL     1      15.560  14.471   3.717  1.00  0.00     0.119 C 
ATOM      8  C   UNL     1      17.527  14.257   5.246  1.00  0.00    -0.017 C 
ATOM      9  C   UNL     1      16.060  15.851   4.171  1.00  0.00     0.043 C 
ATOM     10  C   UNL     1      16.748  15.581   5.514  1.00  0.00    -0.003 C 
ATOM     11  C   UNL     1      18.024  13.720   6.620  1.00  0.00     0.012 C 
ATOM     12  C   UNL     1      18.813  14.484   4.369  1.00  0.00     0.013 C 
ATOM     13  C   UNL     1      15.619  15.464   6.596  1.00  0.00     0.017 C 
ATOM     14  C   UNL     1      17.722  16.640   6.007  1.00  0.00    -0.064 C 
ATOM     15  C   UNL     1      18.687  14.835   7.508  1.00  0.00     0.032 C 
ATOM     16  C   UNL     1      18.559  16.312   7.046  1.00  0.00    -0.064 C 
ATOM     17  C   UNL     1      17.663  18.034   5.389  1.00  0.00     0.032 C 
ATOM     18  C   UNL     1      19.461  17.384   7.710  1.00  0.00    -0.008 C 
ATOM     19  C   UNL     1      18.598  19.076   6.010  1.00  0.00     0.009 C 
ATOM     20  C   UNL     1      18.799  18.803   7.511  1.00  0.00     0.009 C 
ATOM     21  C   UNL     1      19.579  17.108   9.228  1.00  0.00     0.015 C 
ATOM     22  C   UNL     1      20.862  17.251   7.048  1.00  0.00     0.016 C 
ATOM     23  C   UNL     1      19.384  20.021   8.342  1.00  0.00     0.005 C 
ATOM     24  C   UNL     1      20.247  18.247  10.007  1.00  0.00     0.047 C 
ATOM     25  C   UNL     1      19.488  19.573   9.840  1.00  0.00     0.182 C 
ATOM     26  C   UNL     1      20.751  20.552   7.825  1.00  0.00     0.015 C 
ATOM     27  C   UNL     1      18.386  21.216   8.284  1.00  0.00     0.015 C 
BRANCH   7  28
ATOM     28  O   UNL     1      15.557  14.383   2.314  1.00  0.00    -0.393 OA
ATOM     29  H   UNL     1      15.667  15.315   1.975  1.00  0.00     0.210 HD
ENDBRANCH   7  28
BRANCH  25  30
ATOM     30  O   UNL     1      20.129  20.575  10.640  1.00  0.00    -0.462 OA
BRANCH  30  31
ATOM     31  C   UNL     1      19.569  21.131  11.797  1.00  0.00     0.302 C 
ATOM     32  O   UNL     1      18.540  20.630  12.317  1.00  0.00    -0.253 OA
ATOM     33  C   UNL     1      20.193  22.334  12.416  1.00  0.00     0.139 C 
ENDBRANCH  30  31
ENDBRANCH  25  30
ENDBRANCH   2   6
ENDBRANCH   1   2
BRANCH   1  34
ATOM     34  C   UNL     1      17.677  10.941   3.647  1.00  0.00     0.031 C 
BRANCH  34  35
ATOM     35  C   UNL     1      19.084  10.529   4.050  1.00  0.00    -0.075 C 
ATOM     36  C   UNL     1      19.953  10.190   3.076  1.00  0.00     0.008 C 
BRANCH  35  37
ATOM     37  C   UNL     1      19.456  10.560   5.535  1.00  0.00     0.008 C 
ATOM     38  C   UNL     1      19.703   9.132   6.044  1.00  0.00     0.012 C 
ATOM     39  C   UNL     1      20.659  11.445   5.892  1.00  0.00     0.012 C 
ENDBRANCH  35  37
ENDBRANCH  34  35
ENDBRANCH   1  34
TORSDOF 9
ENDMDL
MODEL 8
REMARK VINA RESULT:    -3.889      2.712      9.484
REMARK INTER + INTRA:          -7.624
REMARK INTER:                  -6.397
REMARK INTRA:                  -1.227
REMARK UNBOUND:                -1.802
REMARK SMILES C=C(CC[C@H](C(=O)[O-])[C@H]1[C@H](O)C[C@]2(C)C3=C(CC[C@@]12C)[C@]1(C)CC[C@@H](OC(C)=O)C(C)(C)[C@H]1CC3)C(C)C
REMARK SMILES IDX 4 1 5 2 6 3 7 4 8 5 9 6 10 7 19 8 12 9 13 10 18 11 20 12
REMARK SMILES IDX 14 13 15 14 17 15 16 16 35 17 21 18 34 19 33 20 23 21 22 22
REMARK SMILES IDX 30 23 24 24 25 25 31 26 32 27 11 28 26 30 27 31 29 32 28 33
REMARK SMILES IDX 3 34 2 35 1 36 36 37 37 38 38 39
REMARK H PARENT 11 29
REMARK Flexibility Score: inf
ROOT
ATOM      1  C   UNL     1      14.857  14.383   2.445  1.00  0.00     0.014 C 
ENDROOT
BRANCH   1   2
ATOM      2  C   UNL     1      16.204  14.639   3.178  1.00  0.00     0.042 C 
BRANCH   2   3
ATOM      3  C   UNL     1      17.193  13.572   2.749  1.00  0.00     0.045 C 
ATOM      4  O   UNL     1      16.787  12.402   2.506  1.00  0.00    -0.550 OA
ATOM      5  O   UNL     1      18.551  13.851   2.675  1.00  0.00    -0.550 OA
ENDBRANCH   2   3
BRANCH   2   6
ATOM      6  C   UNL     1      15.986  14.671   4.742  1.00  0.00     0.033 C 
ATOM      7  C   UNL     1      16.754  13.579   5.567  1.00  0.00     0.119 C 
ATOM      8  C   UNL     1      16.291  16.034   5.499  1.00  0.00    -0.017 C 
ATOM      9  C   UNL     1      17.383  14.295   6.773  1.00  0.00     0.043 C 
ATOM     10  C   UNL     1      17.600  15.732   6.290  1.00  0.00    -0.003 C 
ATOM     11  C   UNL     1      16.517  17.356   4.707  1.00  0.00     0.012 C 
ATOM     12  C   UNL     1      15.063  16.293   6.447  1.00  0.00     0.013 C 
ATOM     13  C   UNL     1      18.902  15.734   5.416  1.00  0.00     0.017 C 
ATOM     14  C   UNL     1      17.789  16.793   7.364  1.00  0.00    -0.064 C 
ATOM     15  C   UNL     1      17.166  18.489   5.583  1.00  0.00     0.032 C 
ATOM     16  C   UNL     1      17.703  18.111   6.989  1.00  0.00    -0.064 C 
ATOM     17  C   UNL     1      18.150  16.347   8.778  1.00  0.00     0.032 C 
ATOM     18  C   UNL     1      18.046  19.246   7.988  1.00  0.00    -0.008 C 
ATOM     19  C   UNL     1      18.431  17.472   9.777  1.00  0.00     0.009 C 
ATOM     20  C   UNL     1      19.053  18.689   9.069  1.00  0.00     0.009 C 
ATOM     21  C   UNL     1      18.728  20.417   7.243  1.00  0.00     0.015 C 
ATOM     22  C   UNL     1      16.694  19.728   8.586  1.00  0.00     0.016 C 
ATOM     23  C   UNL     1      19.768  19.730  10.028  1.00  0.00     0.005 C 
ATOM     24  C   UNL     1      19.321  21.477   8.180  1.00  0.00     0.047 C 
ATOM     25  C   UNL     1      20.363  20.873   9.135  1.00  0.00     0.182 C 
ATOM     26  C   UNL     1      18.850  20.314  11.139  1.00  0.00     0.015 C 
ATOM     27  C   UNL     1      20.962  19.037  10.749  1.00  0.00     0.015 C 
BRANCH   7  28
ATOM     28  O   UNL     1      15.887  12.558   5.993  1.00  0.00    -0.393 OA
ATOM     29  H   UNL     1      15.256  12.980   6.641  1.00  0.00     0.210 HD
ENDBRANCH   7  28
BRANCH  25  30
ATOM     30  O   UNL     1      20.918  21.924   9.936  1.00  0.00    -0.462 OA
BRANCH  30  31
ATOM     31  C   UNL     1      20.805  23.286   9.630  1.00  0.00     0.302 C 
ATOM     32  O   UNL     1      21.095  23.712   8.483  1.00  0.00    -0.253 OA
ATOM     33  C   UNL     1      20.343  24.243  10.674  1.00  0.00     0.139 C 
ENDBRANCH  30  31
ENDBRANCH  25  30
ENDBRANCH   2   6
ENDBRANCH   1   2
BRANCH   1  34
ATOM     34  C   UNL     1      13.622  14.418   3.369  1.00  0.00     0.031 C 
BRANCH  34  35
ATOM     35  C   UNL     1      12.853  13.107   3.288  1.00  0.00    -0.075 C 
ATOM     36  C   UNL     1      13.508  11.964   3.578  1.00  0.00     0.008 C 
BRANCH  35  37
ATOM     37  C   UNL     1      11.367  13.155   2.922  1.00  0.00     0.008 C 
ATOM     38  C   UNL     1      10.628  11.977   3.575  1.00  0.00     0.012 C 
ATOM     39  C   UNL     1      10.647  14.466   3.269  1.00  0.00     0.012 C 
ENDBRANCH  35  37
ENDBRANCH  34  35
ENDBRANCH   1  34
TORSDOF 9
ENDMDL
MODEL 9
REMARK VINA RESULT:    -3.867      2.451      9.068
REMARK INTER + INTRA:          -7.590
REMARK INTER:                  -6.206
REMARK INTRA:                  -1.384
REMARK UNBOUND:                -1.802
REMARK SMILES C=C(CC[C@H](C(=O)[O-])[C@H]1[C@H](O)C[C@]2(C)C3=C(CC[C@@]12C)[C@]1(C)CC[C@@H](OC(C)=O)C(C)(C)[C@H]1CC3)C(C)C
REMARK SMILES IDX 4 1 5 2 6 3 7 4 8 5 9 6 10 7 19 8 12 9 13 10 18 11 20 12
REMARK SMILES IDX 14 13 15 14 17 15 16 16 35 17 21 18 34 19 33 20 23 21 22 22
REMARK SMILES IDX 30 23 24 24 25 25 31 26 32 27 11 28 26 30 27 31 29 32 28 33
REMARK SMILES IDX 3 34 2 35 1 36 36 37 37 38 38 39
REMARK H PARENT 11 29
REMARK Flexibility Score: inf
ROOT
ATOM      1  C   UNL     1      14.094  12.104   4.042  1.00  0.00     0.014 C 
ENDROOT
BRANCH   1   2
ATOM      2  C   UNL     1      15.598  12.243   3.677  1.00  0.00     0.042 C 
BRANCH   2   3
ATOM      3  C   UNL     1      16.070  10.930   3.083  1.00  0.00     0.045 C 
ATOM      4  O   UNL     1      15.838   9.848   3.689  1.00  0.00    -0.550 OA
ATOM      5  O   UNL     1      16.806  10.907   1.905  1.00  0.00    -0.550 OA
ENDBRANCH   2   3
BRANCH   2   6
ATOM      6  C   UNL     1      16.438  12.672   4.945  1.00  0.00     0.033 C 
ATOM      7  C   UNL     1      17.980  12.386   4.879  1.00  0.00     0.119 C 
ATOM      8  C   UNL     1      16.330  14.184   5.421  1.00  0.00    -0.017 C 
ATOM      9  C   UNL     1      18.689  13.654   5.379  1.00  0.00     0.043 C 
ATOM     10  C   UNL     1      17.717  14.789   5.041  1.00  0.00    -0.003 C 
ATOM     11  C   UNL     1      15.234  15.128   4.845  1.00  0.00     0.012 C 
ATOM     12  C   UNL     1      16.101  14.139   6.976  1.00  0.00     0.013 C 
ATOM     13  C   UNL     1      17.891  15.108   3.516  1.00  0.00     0.017 C 
ATOM     14  C   UNL     1      17.910  16.100   5.790  1.00  0.00    -0.064 C 
ATOM     15  C   UNL     1      15.518  16.646   5.141  1.00  0.00     0.032 C 
ATOM     16  C   UNL     1      16.903  17.032   5.727  1.00  0.00    -0.064 C 
ATOM     17  C   UNL     1      19.239  16.350   6.496  1.00  0.00     0.032 C 
ATOM     18  C   UNL     1      17.094  18.449   6.324  1.00  0.00    -0.008 C 
ATOM     19  C   UNL     1      19.401  17.732   7.135  1.00  0.00     0.009 C 
ATOM     20  C   UNL     1      18.633  18.798   6.333  1.00  0.00     0.009 C 
ATOM     21  C   UNL     1      16.362  19.494   5.448  1.00  0.00     0.015 C 
ATOM     22  C   UNL     1      16.453  18.420   7.741  1.00  0.00     0.016 C 
ATOM     23  C   UNL     1      19.057  20.297   6.632  1.00  0.00     0.005 C 
ATOM     24  C   UNL     1      16.693  20.944   5.819  1.00  0.00     0.047 C 
ATOM     25  C   UNL     1      18.200  21.230   5.709  1.00  0.00     0.182 C 
ATOM     26  C   UNL     1      18.922  20.716   8.124  1.00  0.00     0.015 C 
ATOM     27  C   UNL     1      20.550  20.503   6.241  1.00  0.00     0.015 C 
BRANCH   7  28
ATOM     28  O   UNL     1      18.327  11.279   5.672  1.00  0.00    -0.393 OA
ATOM     29  H   UNL     1      18.227  11.572   6.621  1.00  0.00     0.210 HD
ENDBRANCH   7  28
BRANCH  25  30
ATOM     30  O   UNL     1      18.430  22.613   6.009  1.00  0.00    -0.462 OA
BRANCH  30  31
ATOM     31  C   UNL     1      19.275  23.446   5.265  1.00  0.00     0.302 C 
ATOM     32  O   UNL     1      20.018  24.283   5.837  1.00  0.00    -0.253 OA
ATOM     33  C   UNL     1      19.290  23.345   3.778  1.00  0.00     0.139 C 
ENDBRANCH  30  31
ENDBRANCH  25  30
ENDBRANCH   2   6
ENDBRANCH   1   2
BRANCH   1  34
ATOM     34  C   UNL     1      13.149  12.109   2.823  1.00  0.00     0.031 C 
BRANCH  34  35
ATOM     35  C   UNL     1      11.764  12.602   3.217  1.00  0.00    -0.075 C 
ATOM     36  C   UNL     1      10.795  11.687   3.421  1.00  0.00     0.008 C 
BRANCH  35  37
ATOM     37  C   UNL     1      11.552  14.107   3.404  1.00  0.00     0.008 C 
ATOM     38  C   UNL     1      12.315  14.884   2.319  1.00  0.00     0.012 C 
ATOM     39  C   UNL     1      10.087  14.566   3.425  1.00  0.00     0.012 C 
ENDBRANCH  35  37
ENDBRANCH  34  35
ENDBRANCH   1  34
TORSDOF 9
ENDMDL
