MODEL 1
REMARK VINA RESULT:    33.901      0.000      0.000
REMARK INTER + INTRA:          37.306
REMARK INTER:                  36.874
REMARK INTRA:                   0.432
REMARK UNBOUND:                 0.432
REMARK SMILES CC(C)c1cc2c(cc1O)[C@@]1(C)CCCC(C)(C)[C@H]1CC2=O
REMARK SMILES IDX 4 1 9 2 8 3 7 4 6 5 5 6 21 7 22 8 20 9 19 10 11 11 13 12
REMARK SMILES IDX 14 13 15 14 16 15 17 16 18 17 12 18 2 19 1 20 3 21 10 22
REMARK H PARENT 10 23
REMARK Flexibility Score: inf
ROOT
ATOM      1  C   UNL     1      11.488  15.361  -3.914  1.00  0.00    -0.003 A 
ATOM      2  C   UNL     1      12.368  16.272  -3.280  1.00  0.00     0.119 A 
ATOM      3  C   UNL     1      12.344  16.410  -1.891  1.00  0.00     0.051 A 
ATOM      4  C   UNL     1      11.491  15.635  -1.080  1.00  0.00    -0.027 A 
ATOM      5  C   UNL     1      10.712  14.633  -1.701  1.00  0.00     0.022 A 
ATOM      6  C   UNL     1      10.712  14.513  -3.101  1.00  0.00     0.020 A 
ATOM      7  C   UNL     1       9.896  13.709  -0.889  1.00  0.00     0.163 C 
ATOM      8  O   UNL     1       9.126  12.875  -1.441  1.00  0.00    -0.294 OA
ATOM      9  C   UNL     1      10.020  13.705   0.596  1.00  0.00     0.086 C 
ATOM     10  C   UNL     1      10.279  15.121   1.165  1.00  0.00     0.013 C 
ATOM     11  C   UNL     1      11.509  15.825   0.451  1.00  0.00    -0.003 C 
ATOM     12  C   UNL     1      11.533  17.355   0.788  1.00  0.00     0.012 C 
ATOM     13  C   UNL     1      10.874  17.677   2.125  1.00  0.00     0.001 C 
ATOM     14  C   UNL     1       9.373  17.356   2.091  1.00  0.00     0.007 C 
ATOM     15  C   UNL     1       8.999  16.043   1.310  1.00  0.00    -0.031 C 
ATOM     16  C   UNL     1       8.384  16.418  -0.062  1.00  0.00     0.011 C 
ATOM     17  C   UNL     1       7.892  15.324   2.124  1.00  0.00     0.011 C 
ATOM     18  C   UNL     1      12.823  15.190   0.975  1.00  0.00     0.017 C 
ENDROOT
BRANCH   1  19
ATOM     19  C   UNL     1      11.431  15.228  -5.433  1.00  0.00     0.017 C 
ATOM     20  C   UNL     1      10.062  14.698  -5.869  1.00  0.00     0.012 C 
ATOM     21  C   UNL     1      11.769  16.537  -6.166  1.00  0.00     0.012 C 
ENDBRANCH   1  19
BRANCH   2  22
ATOM     22  O   UNL     1      13.296  17.042  -3.986  1.00  0.00    -0.508 OA
ATOM     23  H   UNL     1      13.244  17.227  -4.978  1.00  0.00     0.293 HD
ENDBRANCH   2  22
TORSDOF 2
ENDMDL
