MODEL 1
REMARK VINA RESULT:    -4.970      0.000      0.000
REMARK INTER + INTRA:          -5.115
REMARK INTER:                  -5.115
REMARK INTRA:                   0.000
REMARK UNBOUND:                 0.000
REMARK SMILES Cc1ccccc1O
REMARK SMILES IDX 1 1 2 2 3 3 4 4 5 5 6 6 7 7 8 8
REMARK H PARENT 8 9
REMARK Flexibility Score: inf
ROOT
ATOM      1  C   UNL     1     -28.326  19.976  55.250  1.00  0.00     0.048 C 
ATOM      2  C   UNL     1     -27.888  19.141  56.422  1.00  0.00    -0.009 A 
ATOM      3  C   UNL     1     -28.313  19.485  57.717  1.00  0.00     0.007 A 
ATOM      4  C   UNL     1     -27.917  18.723  58.819  1.00  0.00     0.001 A 
ATOM      5  C   UNL     1     -27.095  17.609  58.640  1.00  0.00     0.004 A 
ATOM      6  C   UNL     1     -26.667  17.255  57.359  1.00  0.00     0.046 A 
ATOM      7  C   UNL     1     -27.056  18.010  56.245  1.00  0.00     0.118 A 
ENDROOT
BRANCH   7   8
ATOM      8  O   UNL     1     -26.601  17.616  54.986  1.00  0.00    -0.508 OA
ATOM      9  H   UNL     1     -25.918  16.881  54.852  1.00  0.00     0.293 HD
ENDBRANCH   7   8
TORSDOF 1
ENDMDL
MODEL 2
REMARK VINA RESULT:    -4.966      1.269      3.185
REMARK INTER + INTRA:          -5.111
REMARK INTER:                  -5.111
REMARK INTRA:                   0.000
REMARK UNBOUND:                 0.000
REMARK SMILES Cc1ccccc1O
REMARK SMILES IDX 1 1 2 2 3 3 4 4 5 5 6 6 7 7 8 8
REMARK H PARENT 8 9
REMARK Flexibility Score: inf
ROOT
ATOM      1  C   UNL     1     -27.319  18.816  57.639  1.00  0.00     0.048 C 
ATOM      2  C   UNL     1     -28.017  19.166  56.354  1.00  0.00    -0.009 A 
ATOM      3  C   UNL     1     -29.074  20.094  56.367  1.00  0.00     0.007 A 
ATOM      4  C   UNL     1     -29.735  20.432  55.184  1.00  0.00     0.001 A 
ATOM      5  C   UNL     1     -29.349  19.849  53.976  1.00  0.00     0.004 A 
ATOM      6  C   UNL     1     -28.301  18.927  53.948  1.00  0.00     0.046 A 
ATOM      7  C   UNL     1     -27.629  18.579  55.126  1.00  0.00     0.118 A 
ENDROOT
BRANCH   7   8
ATOM      8  O   UNL     1     -26.588  17.652  55.045  1.00  0.00    -0.508 OA
ATOM      9  H   UNL     1     -25.967  17.588  54.249  1.00  0.00     0.293 HD
ENDBRANCH   7   8
TORSDOF 1
ENDMDL
MODEL 3
REMARK VINA RESULT:    -4.954      2.137      2.868
REMARK INTER + INTRA:          -5.099
REMARK INTER:                  -5.099
REMARK INTRA:                   0.000
REMARK UNBOUND:                 0.000
REMARK SMILES Cc1ccccc1O
REMARK SMILES IDX 1 1 2 2 3 3 4 4 5 5 6 6 7 7 8 8
REMARK H PARENT 8 9
REMARK Flexibility Score: inf
ROOT
ATOM      1  C   UNL     1     -29.352  20.657  57.932  1.00  0.00     0.048 C 
ATOM      2  C   UNL     1     -28.450  19.458  57.826  1.00  0.00    -0.009 A 
ATOM      3  C   UNL     1     -28.126  18.942  56.559  1.00  0.00     0.007 A 
ATOM      4  C   UNL     1     -27.290  17.829  56.439  1.00  0.00     0.001 A 
ATOM      5  C   UNL     1     -26.769  17.219  57.582  1.00  0.00     0.004 A 
ATOM      6  C   UNL     1     -27.083  17.721  58.846  1.00  0.00     0.046 A 
ATOM      7  C   UNL     1     -27.919  18.836  58.981  1.00  0.00     0.118 A 
ENDROOT
BRANCH   7   8
ATOM      8  O   UNL     1     -28.203  19.300  60.267  1.00  0.00    -0.508 OA
ATOM      9  H   UNL     1     -28.388  18.682  61.047  1.00  0.00     0.293 HD
ENDBRANCH   7   8
TORSDOF 1
ENDMDL
MODEL 4
REMARK VINA RESULT:    -4.943      2.713      3.920
REMARK INTER + INTRA:          -5.088
REMARK INTER:                  -5.088
REMARK INTRA:                   0.000
REMARK UNBOUND:                 0.000
REMARK SMILES Cc1ccccc1O
REMARK SMILES IDX 1 1 2 2 3 3 4 4 5 5 6 6 7 7 8 8
REMARK H PARENT 8 9
REMARK Flexibility Score: inf
ROOT
ATOM      1  C   UNL     1     -29.517  20.845  58.039  1.00  0.00     0.048 C 
ATOM      2  C   UNL     1     -29.238  20.174  56.722  1.00  0.00    -0.009 A 
ATOM      3  C   UNL     1     -28.366  19.072  56.675  1.00  0.00     0.007 A 
ATOM      4  C   UNL     1     -28.093  18.435  55.462  1.00  0.00     0.001 A 
ATOM      5  C   UNL     1     -28.687  18.891  54.284  1.00  0.00     0.004 A 
ATOM      6  C   UNL     1     -29.555  19.984  54.316  1.00  0.00     0.046 A 
ATOM      7  C   UNL     1     -29.838  20.632  55.526  1.00  0.00     0.118 A 
ENDROOT
BRANCH   7   8
ATOM      8  O   UNL     1     -30.712  21.720  55.505  1.00  0.00    -0.508 OA
ATOM      9  H   UNL     1     -31.518  21.791  56.113  1.00  0.00     0.293 HD
ENDBRANCH   7   8
TORSDOF 1
ENDMDL
MODEL 5
REMARK VINA RESULT:    -4.864      2.635      3.934
REMARK INTER + INTRA:          -5.007
REMARK INTER:                  -5.007
REMARK INTRA:                   0.000
REMARK UNBOUND:                 0.000
REMARK SMILES Cc1ccccc1O
REMARK SMILES IDX 1 1 2 2 3 3 4 4 5 5 6 6 7 7 8 8
REMARK H PARENT 8 9
REMARK Flexibility Score: inf
ROOT
ATOM      1  C   UNL     1     -27.429  17.577  58.163  1.00  0.00     0.048 C 
ATOM      2  C   UNL     1     -28.516  18.616  58.135  1.00  0.00    -0.009 A 
ATOM      3  C   UNL     1     -29.288  18.783  56.972  1.00  0.00     0.007 A 
ATOM      4  C   UNL     1     -30.302  19.742  56.925  1.00  0.00     0.001 A 
ATOM      5  C   UNL     1     -30.557  20.544  58.039  1.00  0.00     0.004 A 
ATOM      6  C   UNL     1     -29.800  20.389  59.201  1.00  0.00     0.046 A 
ATOM      7  C   UNL     1     -28.780  19.430  59.262  1.00  0.00     0.118 A 
ENDROOT
BRANCH   7   8
ATOM      8  O   UNL     1     -28.050  19.314  60.446  1.00  0.00    -0.508 OA
ATOM      9  H   UNL     1     -27.542  20.086  60.859  1.00  0.00     0.293 HD
ENDBRANCH   7   8
TORSDOF 1
ENDMDL
MODEL 6
REMARK VINA RESULT:    -4.822      9.297      9.425
REMARK INTER + INTRA:          -4.963
REMARK INTER:                  -4.963
REMARK INTRA:                   0.000
REMARK UNBOUND:                 0.000
REMARK SMILES Cc1ccccc1O
REMARK SMILES IDX 1 1 2 2 3 3 4 4 5 5 6 6 7 7 8 8
REMARK H PARENT 8 9
REMARK Flexibility Score: inf
ROOT
ATOM      1  C   UNL     1     -34.523  15.237  55.157  1.00  0.00     0.048 C 
ATOM      2  C   UNL     1     -35.102  14.597  56.389  1.00  0.00    -0.009 A 
ATOM      3  C   UNL     1     -34.395  14.663  57.603  1.00  0.00     0.007 A 
ATOM      4  C   UNL     1     -34.916  14.074  58.758  1.00  0.00     0.001 A 
ATOM      5  C   UNL     1     -36.145  13.415  58.714  1.00  0.00     0.004 A 
ATOM      6  C   UNL     1     -36.857  13.343  57.516  1.00  0.00     0.046 A 
ATOM      7  C   UNL     1     -36.348  13.929  56.350  1.00  0.00     0.118 A 
ENDROOT
BRANCH   7   8
ATOM      8  O   UNL     1     -37.098  13.829  55.176  1.00  0.00    -0.508 OA
ATOM      9  H   UNL     1     -37.290  12.947  54.719  1.00  0.00     0.293 HD
ENDBRANCH   7   8
TORSDOF 1
ENDMDL
MODEL 7
REMARK VINA RESULT:    -4.804      2.649      3.589
REMARK INTER + INTRA:          -4.945
REMARK INTER:                  -4.945
REMARK INTRA:                   0.000
REMARK UNBOUND:                 0.000
REMARK SMILES Cc1ccccc1O
REMARK SMILES IDX 1 1 2 2 3 3 4 4 5 5 6 6 7 7 8 8
REMARK H PARENT 8 9
REMARK Flexibility Score: inf
ROOT
ATOM      1  C   UNL     1     -27.774  20.202  55.642  1.00  0.00     0.048 C 
ATOM      2  C   UNL     1     -28.671  20.311  56.844  1.00  0.00    -0.009 A 
ATOM      3  C   UNL     1     -28.263  19.753  58.068  1.00  0.00     0.007 A 
ATOM      4  C   UNL     1     -29.082  19.842  59.196  1.00  0.00     0.001 A 
ATOM      5  C   UNL     1     -30.316  20.490  59.115  1.00  0.00     0.004 A 
ATOM      6  C   UNL     1     -30.734  21.049  57.906  1.00  0.00     0.046 A 
ATOM      7  C   UNL     1     -29.922  20.967  56.767  1.00  0.00     0.118 A 
ENDROOT
BRANCH   7   8
ATOM      8  O   UNL     1     -30.385  21.542  55.581  1.00  0.00    -0.508 OA
ATOM      9  H   UNL     1     -30.650  22.516  55.508  1.00  0.00     0.293 HD
ENDBRANCH   7   8
TORSDOF 1
ENDMDL
MODEL 8
REMARK VINA RESULT:    -4.794      8.599      9.021
REMARK INTER + INTRA:          -4.934
REMARK INTER:                  -4.934
REMARK INTRA:                   0.000
REMARK UNBOUND:                 0.000
REMARK SMILES Cc1ccccc1O
REMARK SMILES IDX 1 1 2 2 3 3 4 4 5 5 6 6 7 7 8 8
REMARK H PARENT 8 9
REMARK Flexibility Score: inf
ROOT
ATOM      1  C   UNL     1     -34.157  14.834  59.638  1.00  0.00     0.048 C 
ATOM      2  C   UNL     1     -33.821  13.699  58.710  1.00  0.00    -0.009 A 
ATOM      3  C   UNL     1     -32.759  13.839  57.799  1.00  0.00     0.007 A 
ATOM      4  C   UNL     1     -32.431  12.797  56.927  1.00  0.00     0.001 A 
ATOM      5  C   UNL     1     -33.159  11.606  56.956  1.00  0.00     0.004 A 
ATOM      6  C   UNL     1     -34.216  11.454  57.855  1.00  0.00     0.046 A 
ATOM      7  C   UNL     1     -34.555  12.490  58.735  1.00  0.00     0.118 A 
ENDROOT
BRANCH   7   8
ATOM      8  O   UNL     1     -35.620  12.289  59.616  1.00  0.00    -0.508 OA
ATOM      9  H   UNL     1     -36.095  13.048  60.087  1.00  0.00     0.293 HD
ENDBRANCH   7   8
TORSDOF 1
ENDMDL
MODEL 9
REMARK VINA RESULT:    -4.612      9.023      9.326
REMARK INTER + INTRA:          -4.747
REMARK INTER:                  -4.747
REMARK INTRA:                   0.000
REMARK UNBOUND:                 0.000
REMARK SMILES Cc1ccccc1O
REMARK SMILES IDX 1 1 2 2 3 3 4 4 5 5 6 6 7 7 8 8
REMARK H PARENT 8 9
REMARK Flexibility Score: inf
ROOT
ATOM      1  C   UNL     1     -36.991  13.073  58.249  1.00  0.00     0.048 C 
ATOM      2  C   UNL     1     -35.898  13.856  57.575  1.00  0.00    -0.009 A 
ATOM      3  C   UNL     1     -34.745  14.206  58.301  1.00  0.00     0.007 A 
ATOM      4  C   UNL     1     -33.719  14.933  57.693  1.00  0.00     0.001 A 
ATOM      5  C   UNL     1     -33.831  15.319  56.356  1.00  0.00     0.004 A 
ATOM      6  C   UNL     1     -34.970  14.978  55.624  1.00  0.00     0.046 A 
ATOM      7  C   UNL     1     -36.007  14.249  56.220  1.00  0.00     0.118 A 
ENDROOT
BRANCH   7   8
ATOM      8  O   UNL     1     -37.125  13.933  55.445  1.00  0.00    -0.508 OA
ATOM      9  H   UNL     1     -37.060  13.635  54.481  1.00  0.00     0.293 HD
ENDBRANCH   7   8
TORSDOF 1
ENDMDL
