MODEL 1
REMARK VINA RESULT:    -4.639      0.000      0.000
REMARK INTER + INTRA:          -5.831
REMARK INTER:                  -5.588
REMARK INTRA:                  -0.243
REMARK UNBOUND:                -0.243
REMARK SMILES O=c1c(O)c(-c2ccc(O)c(O)c2)oc2cc(O)cc(O)c12
REMARK SMILES IDX 5 1 3 2 2 3 1 4 22 5 20 6 19 7 17 8 16 9 15 10 14 11 6 12
REMARK SMILES IDX 7 13 8 14 9 15 13 16 11 17 10 18 12 20 4 22 21 24 18 26
REMARK H PARENT 10 19 12 21 4 23 21 25 18 27
REMARK Flexibility Score: inf
ROOT
ATOM      1  C   UNL     1       1.425   5.156  -7.821  1.00  0.00     0.180 A 
ATOM      2  C   UNL     1       1.813   5.662  -6.565  1.00  0.00     0.208 A 
ATOM      3  C   UNL     1       3.098   5.367  -6.081  1.00  0.00     0.238 A 
ATOM      4  O   UNL     1       3.460   5.824  -4.965  1.00  0.00    -0.285 OA
ATOM      5  C   UNL     1       3.961   4.557  -6.848  1.00  0.00     0.111 A 
ATOM      6  C   UNL     1       5.268   4.209  -6.431  1.00  0.00     0.134 A 
ATOM      7  C   UNL     1       6.064   3.391  -7.247  1.00  0.00     0.093 A 
ATOM      8  C   UNL     1       5.579   2.913  -8.467  1.00  0.00     0.123 A 
ATOM      9  C   UNL     1       4.288   3.254  -8.884  1.00  0.00     0.094 A 
ATOM     10  C   UNL     1       3.480   4.070  -8.087  1.00  0.00     0.146 A 
ATOM     11  O   UNL     1       2.261   4.383  -8.508  1.00  0.00    -0.452 OA
ENDROOT
BRANCH   1  12
ATOM     12  C   UNL     1       0.095   5.440  -8.407  1.00  0.00     0.025 A 
ATOM     13  C   UNL     1      -0.185   6.727  -8.891  1.00  0.00     0.016 A 
ATOM     14  C   UNL     1      -1.440   7.023  -9.428  1.00  0.00     0.051 A 
ATOM     15  C   UNL     1      -2.438   6.040  -9.476  1.00  0.00     0.157 A 
ATOM     16  C   UNL     1      -0.915   4.462  -8.437  1.00  0.00     0.062 A 
ATOM     17  C   UNL     1      -2.176   4.760  -8.975  1.00  0.00     0.158 A 
BRANCH  15  18
ATOM     18  O   UNL     1      -3.690   6.332 -10.012  1.00  0.00    -0.504 OA
ATOM     19  H   UNL     1      -3.886   7.224 -10.449  1.00  0.00     0.293 HD
ENDBRANCH  15  18
BRANCH  17  20
ATOM     20  O   UNL     1      -3.175   3.788  -9.010  1.00  0.00    -0.504 OA
ATOM     21  H   UNL     1      -3.060   2.892  -8.551  1.00  0.00     0.293 HD
ENDBRANCH  17  20
ENDBRANCH   1  12
BRANCH   2  22
ATOM     22  O   UNL     1       0.921   6.422  -5.804  1.00  0.00    -0.502 OA
ATOM     23  H   UNL     1       1.226   7.013  -5.040  1.00  0.00     0.293 HD
ENDBRANCH   2  22
BRANCH   6  24
ATOM     24  O   UNL     1       5.782   4.668  -5.217  1.00  0.00    -0.507 OA
ATOM     25  H   UNL     1       6.745   4.968  -5.126  1.00  0.00     0.293 HD
ENDBRANCH   6  24
BRANCH   8  26
ATOM     26  O   UNL     1       6.389   2.101  -9.257  1.00  0.00    -0.508 OA
ATOM     27  H   UNL     1       7.280   2.430  -9.615  1.00  0.00     0.293 HD
ENDBRANCH   8  26
TORSDOF 6
ENDMDL
MODEL 2
REMARK VINA RESULT:    -4.574     21.203     22.676
REMARK INTER + INTRA:          -5.753
REMARK INTER:                  -5.538
REMARK INTRA:                  -0.214
REMARK UNBOUND:                -0.243
REMARK SMILES O=c1c(O)c(-c2ccc(O)c(O)c2)oc2cc(O)cc(O)c12
REMARK SMILES IDX 5 1 3 2 2 3 1 4 22 5 20 6 19 7 17 8 16 9 15 10 14 11 6 12
REMARK SMILES IDX 7 13 8 14 9 15 13 16 11 17 10 18 12 20 4 22 21 24 18 26
REMARK H PARENT 10 19 12 21 4 23 21 25 18 27
REMARK Flexibility Score: inf
ROOT
ATOM      1  C   UNL     1      -0.845 -12.123   6.032  1.00  0.00     0.180 A 
ATOM      2  C   UNL     1      -2.204 -12.248   6.385  1.00  0.00     0.208 A 
ATOM      3  C   UNL     1      -3.157 -12.406   5.367  1.00  0.00     0.238 A 
ATOM      4  O   UNL     1      -4.374 -12.531   5.672  1.00  0.00    -0.285 OA
ATOM      5  C   UNL     1      -2.742 -12.416   4.020  1.00  0.00     0.111 A 
ATOM      6  C   UNL     1      -3.639 -12.566   2.935  1.00  0.00     0.134 A 
ATOM      7  C   UNL     1      -3.150 -12.556   1.620  1.00  0.00     0.093 A 
ATOM      8  C   UNL     1      -1.785 -12.397   1.370  1.00  0.00     0.123 A 
ATOM      9  C   UNL     1      -0.893 -12.249   2.438  1.00  0.00     0.094 A 
ATOM     10  C   UNL     1      -1.361 -12.258   3.755  1.00  0.00     0.146 A 
ATOM     11  O   UNL     1      -0.494 -12.121   4.750  1.00  0.00    -0.452 OA
ENDROOT
BRANCH   1  12
ATOM     12  C   UNL     1       0.221 -11.972   7.049  1.00  0.00     0.025 A 
ATOM     13  C   UNL     1       0.532 -13.052   7.889  1.00  0.00     0.016 A 
ATOM     14  C   UNL     1       1.518 -12.926   8.869  1.00  0.00     0.051 A 
ATOM     15  C   UNL     1       2.199 -11.713   9.033  1.00  0.00     0.157 A 
ATOM     16  C   UNL     1       0.892 -10.749   7.231  1.00  0.00     0.062 A 
ATOM     17  C   UNL     1       1.882 -10.621   8.216  1.00  0.00     0.158 A 
BRANCH  15  18
ATOM     18  O   UNL     1       3.186 -11.583  10.009  1.00  0.00    -0.504 OA
ATOM     19  H   UNL     1       3.290 -12.264  10.751  1.00  0.00     0.293 HD
ENDBRANCH  15  18
BRANCH  17  20
ATOM     20  O   UNL     1       2.550  -9.411   8.391  1.00  0.00    -0.504 OA
ATOM     21  H   UNL     1       2.381  -8.618   7.782  1.00  0.00     0.293 HD
ENDBRANCH  17  20
ENDBRANCH   1  12
BRANCH   2  22
ATOM     22  O   UNL     1      -2.594 -12.186   7.725  1.00  0.00    -0.502 OA
ATOM     23  H   UNL     1      -2.562 -12.992   8.338  1.00  0.00     0.293 HD
ENDBRANCH   2  22
BRANCH   6  24
ATOM     24  O   UNL     1      -5.009 -12.725   3.152  1.00  0.00    -0.507 OA
ATOM     25  H   UNL     1      -5.491 -13.583   2.909  1.00  0.00     0.293 HD
ENDBRANCH   6  24
BRANCH   8  26
ATOM     26  O   UNL     1      -1.325 -12.391   0.055  1.00  0.00    -0.508 OA
ATOM     27  H   UNL     1      -1.619 -11.680  -0.606  1.00  0.00     0.293 HD
ENDBRANCH   8  26
TORSDOF 6
ENDMDL
MODEL 3
REMARK VINA RESULT:    -4.553     17.744     19.641
REMARK INTER + INTRA:          -5.728
REMARK INTER:                  -5.983
REMARK INTRA:                   0.255
REMARK UNBOUND:                -0.243
REMARK SMILES O=c1c(O)c(-c2ccc(O)c(O)c2)oc2cc(O)cc(O)c12
REMARK SMILES IDX 5 1 3 2 2 3 1 4 22 5 20 6 19 7 17 8 16 9 15 10 14 11 6 12
REMARK SMILES IDX 7 13 8 14 9 15 13 16 11 17 10 18 12 20 4 22 21 24 18 26
REMARK H PARENT 10 19 12 21 4 23 21 25 18 27
REMARK Flexibility Score: inf
ROOT
ATOM      1  C   UNL     1      -2.749  -0.027   9.418  1.00  0.00     0.180 A 
ATOM      2  C   UNL     1      -4.010   0.472   9.035  1.00  0.00     0.208 A 
ATOM      3  C   UNL     1      -5.090  -0.418   8.937  1.00  0.00     0.238 A 
ATOM      4  O   UNL     1      -6.225   0.019   8.607  1.00  0.00    -0.285 OA
ATOM      5  C   UNL     1      -4.890  -1.789   9.202  1.00  0.00     0.111 A 
ATOM      6  C   UNL     1      -5.925  -2.752   9.121  1.00  0.00     0.134 A 
ATOM      7  C   UNL     1      -5.644  -4.099   9.391  1.00  0.00     0.093 A 
ATOM      8  C   UNL     1      -4.352  -4.502   9.737  1.00  0.00     0.123 A 
ATOM      9  C   UNL     1      -3.325  -3.555   9.819  1.00  0.00     0.094 A 
ATOM     10  C   UNL     1      -3.586  -2.207   9.556  1.00  0.00     0.146 A 
ATOM     11  O   UNL     1      -2.595  -1.328   9.645  1.00  0.00    -0.452 OA
ENDROOT
BRANCH   1  12
ATOM     12  C   UNL     1      -1.566   0.852   9.562  1.00  0.00     0.025 A 
ATOM     13  C   UNL     1      -1.737   2.174  10.002  1.00  0.00     0.016 A 
ATOM     14  C   UNL     1      -0.638   3.027  10.125  1.00  0.00     0.051 A 
ATOM     15  C   UNL     1       0.647   2.575   9.796  1.00  0.00     0.157 A 
ATOM     16  C   UNL     1      -0.278   0.409   9.213  1.00  0.00     0.062 A 
ATOM     17  C   UNL     1       0.826   1.265   9.335  1.00  0.00     0.158 A 
BRANCH  15  18
ATOM     18  O   UNL     1       1.746   3.422   9.919  1.00  0.00    -0.504 OA
ATOM     19  H   UNL     1       1.820   4.088  10.678  1.00  0.00     0.293 HD
ENDBRANCH  15  18
BRANCH  17  20
ATOM     20  O   UNL     1       2.104   0.823   8.994  1.00  0.00    -0.504 OA
ATOM     21  H   UNL     1       2.934   1.233   9.405  1.00  0.00     0.293 HD
ENDBRANCH  17  20
ENDBRANCH   1  12
BRANCH   2  22
ATOM     22  O   UNL     1      -4.170   1.826   8.731  1.00  0.00    -0.502 OA
ATOM     23  H   UNL     1      -3.642   2.554   9.197  1.00  0.00     0.293 HD
ENDBRANCH   2  22
BRANCH   6  24
ATOM     24  O   UNL     1      -7.226  -2.381   8.777  1.00  0.00    -0.507 OA
ATOM     25  H   UNL     1      -7.964  -3.067   8.669  1.00  0.00     0.293 HD
ENDBRANCH   6  24
BRANCH   8  26
ATOM     26  O   UNL     1      -4.099  -5.847   9.999  1.00  0.00    -0.508 OA
ATOM     27  H   UNL     1      -3.390  -6.133  10.666  1.00  0.00     0.293 HD
ENDBRANCH   8  26
TORSDOF 6
ENDMDL
MODEL 4
REMARK VINA RESULT:    -4.203     18.405     19.608
REMARK INTER + INTRA:          -5.306
REMARK INTER:                  -4.974
REMARK INTRA:                  -0.333
REMARK UNBOUND:                -0.243
REMARK SMILES O=c1c(O)c(-c2ccc(O)c(O)c2)oc2cc(O)cc(O)c12
REMARK SMILES IDX 5 1 3 2 2 3 1 4 22 5 20 6 19 7 17 8 16 9 15 10 14 11 6 12
REMARK SMILES IDX 7 13 8 14 9 15 13 16 11 17 10 18 12 20 4 22 21 24 18 26
REMARK H PARENT 10 19 12 21 4 23 21 25 18 27
REMARK Flexibility Score: inf
ROOT
ATOM      1  C   UNL     1      -6.294   0.784   8.867  1.00  0.00     0.180 A 
ATOM      2  C   UNL     1      -4.923   0.521   8.675  1.00  0.00     0.208 A 
ATOM      3  C   UNL     1      -4.462  -0.800   8.793  1.00  0.00     0.238 A 
ATOM      4  O   UNL     1      -3.240  -1.049   8.612  1.00  0.00    -0.285 OA
ATOM      5  C   UNL     1      -5.371  -1.828   9.118  1.00  0.00     0.111 A 
ATOM      6  C   UNL     1      -4.988  -3.183   9.260  1.00  0.00     0.134 A 
ATOM      7  C   UNL     1      -5.950  -4.147   9.594  1.00  0.00     0.093 A 
ATOM      8  C   UNL     1      -7.284  -3.784   9.792  1.00  0.00     0.123 A 
ATOM      9  C   UNL     1      -7.669  -2.446   9.654  1.00  0.00     0.094 A 
ATOM     10  C   UNL     1      -6.725  -1.470   9.318  1.00  0.00     0.146 A 
ATOM     11  O   UNL     1      -7.118  -0.209   9.188  1.00  0.00    -0.452 OA
ENDROOT
BRANCH   1  12
ATOM     12  C   UNL     1      -6.858   2.147   8.741  1.00  0.00     0.025 A 
ATOM     13  C   UNL     1      -7.042   2.927   9.894  1.00  0.00     0.016 A 
ATOM     14  C   UNL     1      -7.592   4.207   9.802  1.00  0.00     0.051 A 
ATOM     15  C   UNL     1      -7.981   4.721   8.557  1.00  0.00     0.157 A 
ATOM     16  C   UNL     1      -7.269   2.658   7.497  1.00  0.00     0.062 A 
ATOM     17  C   UNL     1      -7.824   3.943   7.404  1.00  0.00     0.158 A 
BRANCH  15  18
ATOM     18  O   UNL     1      -8.529   5.998   8.461  1.00  0.00    -0.504 OA
ATOM     19  H   UNL     1      -9.005   6.432   9.243  1.00  0.00     0.293 HD
ENDBRANCH  15  18
BRANCH  17  20
ATOM     20  O   UNL     1      -8.225   4.450   6.170  1.00  0.00    -0.504 OA
ATOM     21  H   UNL     1      -9.155   4.825   6.027  1.00  0.00     0.293 HD
ENDBRANCH  17  20
ENDBRANCH   1  12
BRANCH   2  22
ATOM     22  O   UNL     1      -4.035   1.565   8.401  1.00  0.00    -0.502 OA
ATOM     23  H   UNL     1      -3.068   1.547   8.700  1.00  0.00     0.293 HD
ENDBRANCH   2  22
BRANCH   6  24
ATOM     24  O   UNL     1      -3.662  -3.579   9.070  1.00  0.00    -0.507 OA
ATOM     25  H   UNL     1      -2.949  -3.403   9.768  1.00  0.00     0.293 HD
ENDBRANCH   6  24
BRANCH   8  26
ATOM     26  O   UNL     1      -8.220  -4.760  10.125  1.00  0.00    -0.508 OA
ATOM     27  H   UNL     1      -7.983  -5.536  10.734  1.00  0.00     0.293 HD
ENDBRANCH   8  26
TORSDOF 6
ENDMDL
MODEL 5
REMARK VINA RESULT:    -4.143     16.006     17.556
REMARK INTER + INTRA:          -5.234
REMARK INTER:                  -5.170
REMARK INTRA:                  -0.064
REMARK UNBOUND:                -0.243
REMARK SMILES O=c1c(O)c(-c2ccc(O)c(O)c2)oc2cc(O)cc(O)c12
REMARK SMILES IDX 5 1 3 2 2 3 1 4 22 5 20 6 19 7 17 8 16 9 15 10 14 11 6 12
REMARK SMILES IDX 7 13 8 14 9 15 13 16 11 17 10 18 12 20 4 22 21 24 18 26
REMARK H PARENT 10 19 12 21 4 23 21 25 18 27
REMARK Flexibility Score: inf
ROOT
ATOM      1  C   UNL     1      -8.507   3.821   5.303  1.00  0.00     0.180 A 
ATOM      2  C   UNL     1      -7.488   4.132   6.225  1.00  0.00     0.208 A 
ATOM      3  C   UNL     1      -7.374   3.364   7.395  1.00  0.00     0.238 A 
ATOM      4  O   UNL     1      -6.459   3.626   8.221  1.00  0.00    -0.285 OA
ATOM      5  C   UNL     1      -8.289   2.318   7.633  1.00  0.00     0.111 A 
ATOM      6  C   UNL     1      -8.246   1.501   8.788  1.00  0.00     0.134 A 
ATOM      7  C   UNL     1      -9.198   0.484   8.957  1.00  0.00     0.093 A 
ATOM      8  C   UNL     1     -10.191   0.271   7.997  1.00  0.00     0.123 A 
ATOM      9  C   UNL     1     -10.238   1.075   6.853  1.00  0.00     0.094 A 
ATOM     10  C   UNL     1      -9.297   2.091   6.665  1.00  0.00     0.146 A 
ATOM     11  O   UNL     1      -9.360   2.837   5.569  1.00  0.00    -0.452 OA
ENDROOT
BRANCH   1  12
ATOM     12  C   UNL     1      -8.679   4.571   4.038  1.00  0.00     0.025 A 
ATOM     13  C   UNL     1      -8.897   5.957   4.082  1.00  0.00     0.016 A 
ATOM     14  C   UNL     1      -9.084   6.682   2.903  1.00  0.00     0.051 A 
ATOM     15  C   UNL     1      -9.069   6.030   1.663  1.00  0.00     0.157 A 
ATOM     16  C   UNL     1      -8.686   3.917   2.793  1.00  0.00     0.062 A 
ATOM     17  C   UNL     1      -8.875   4.645   1.609  1.00  0.00     0.158 A 
BRANCH  15  18
ATOM     18  O   UNL     1      -9.253   6.750   0.484  1.00  0.00    -0.504 OA
ATOM     19  H   UNL     1     -10.109   6.677  -0.054  1.00  0.00     0.293 HD
ENDBRANCH  15  18
BRANCH  17  20
ATOM     20  O   UNL     1      -8.875   3.996   0.375  1.00  0.00    -0.504 OA
ATOM     21  H   UNL     1      -8.096   4.076  -0.267  1.00  0.00     0.293 HD
ENDBRANCH  17  20
ENDBRANCH   1  12
BRANCH   2  22
ATOM     22  O   UNL     1      -6.625   5.205   5.988  1.00  0.00    -0.502 OA
ATOM     23  H   UNL     1      -5.626   5.083   5.874  1.00  0.00     0.293 HD
ENDBRANCH   2  22
BRANCH   6  24
ATOM     24  O   UNL     1      -7.268   1.690   9.766  1.00  0.00    -0.507 OA
ATOM     25  H   UNL     1      -6.965   2.616  10.044  1.00  0.00     0.293 HD
ENDBRANCH   6  24
BRANCH   8  26
ATOM     26  O   UNL     1     -11.125  -0.745   8.190  1.00  0.00    -0.508 OA
ATOM     27  H   UNL     1     -10.925  -1.542   8.784  1.00  0.00     0.293 HD
ENDBRANCH   8  26
TORSDOF 6
ENDMDL
MODEL 6
REMARK VINA RESULT:    -4.100     18.051     19.489
REMARK INTER + INTRA:          -5.182
REMARK INTER:                  -5.722
REMARK INTRA:                   0.541
REMARK UNBOUND:                -0.243
REMARK SMILES O=c1c(O)c(-c2ccc(O)c(O)c2)oc2cc(O)cc(O)c12
REMARK SMILES IDX 5 1 3 2 2 3 1 4 22 5 20 6 19 7 17 8 16 9 15 10 14 11 6 12
REMARK SMILES IDX 7 13 8 14 9 15 13 16 11 17 10 18 12 20 4 22 21 24 18 26
REMARK H PARENT 10 19 12 21 4 23 21 25 18 27
REMARK Flexibility Score: inf
ROOT
ATOM      1  C   UNL     1      -3.548  -1.024   9.509  1.00  0.00     0.180 A 
ATOM      2  C   UNL     1      -4.399   0.092   9.392  1.00  0.00     0.208 A 
ATOM      3  C   UNL     1      -3.834   1.377   9.368  1.00  0.00     0.238 A 
ATOM      4  O   UNL     1      -4.585   2.382   9.252  1.00  0.00    -0.285 OA
ATOM      5  C   UNL     1      -2.437   1.525   9.483  1.00  0.00     0.111 A 
ATOM      6  C   UNL     1      -1.788   2.784   9.473  1.00  0.00     0.134 A 
ATOM      7  C   UNL     1      -0.393   2.849   9.601  1.00  0.00     0.093 A 
ATOM      8  C   UNL     1       0.365   1.684   9.741  1.00  0.00     0.123 A 
ATOM      9  C   UNL     1      -0.270   0.437   9.751  1.00  0.00     0.094 A 
ATOM     10  C   UNL     1      -1.659   0.351   9.623  1.00  0.00     0.146 A 
ATOM     11  O   UNL     1      -2.236  -0.845   9.631  1.00  0.00    -0.452 OA
ENDROOT
BRANCH   1  12
ATOM     12  C   UNL     1      -4.067  -2.411   9.522  1.00  0.00     0.025 A 
ATOM     13  C   UNL     1      -5.441  -2.636   9.344  1.00  0.00     0.016 A 
ATOM     14  C   UNL     1      -5.955  -3.934   9.374  1.00  0.00     0.051 A 
ATOM     15  C   UNL     1      -5.105  -5.025   9.596  1.00  0.00     0.157 A 
ATOM     16  C   UNL     1      -3.220  -3.507   9.766  1.00  0.00     0.062 A 
ATOM     17  C   UNL     1      -3.737  -4.811   9.797  1.00  0.00     0.158 A 
BRANCH  15  18
ATOM     18  O   UNL     1      -5.615  -6.322   9.625  1.00  0.00    -0.504 OA
ATOM     19  H   UNL     1      -5.818  -6.793  10.499  1.00  0.00     0.293 HD
ENDBRANCH  15  18
BRANCH  17  20
ATOM     20  O   UNL     1      -2.896  -5.898  10.033  1.00  0.00    -0.504 OA
ATOM     21  H   UNL     1      -3.170  -6.658  10.643  1.00  0.00     0.293 HD
ENDBRANCH  17  20
ENDBRANCH   1  12
BRANCH   2  22
ATOM     22  O   UNL     1      -5.784  -0.080   9.329  1.00  0.00    -0.502 OA
ATOM     23  H   UNL     1      -6.353   0.353   8.612  1.00  0.00     0.293 HD
ENDBRANCH   2  22
BRANCH   6  24
ATOM     24  O   UNL     1      -2.518   3.966   9.336  1.00  0.00    -0.507 OA
ATOM     25  H   UNL     1      -2.252   4.815   9.823  1.00  0.00     0.293 HD
ENDBRANCH   6  24
BRANCH   8  26
ATOM     26  O   UNL     1       1.749   1.777   9.867  1.00  0.00    -0.508 OA
ATOM     27  H   UNL     1       2.343   1.963   9.066  1.00  0.00     0.293 HD
ENDBRANCH   8  26
TORSDOF 6
ENDMDL
MODEL 7
REMARK VINA RESULT:    -4.051     22.032     23.169
REMARK INTER + INTRA:          -5.123
REMARK INTER:                  -5.515
REMARK INTRA:                   0.392
REMARK UNBOUND:                -0.243
REMARK SMILES O=c1c(O)c(-c2ccc(O)c(O)c2)oc2cc(O)cc(O)c12
REMARK SMILES IDX 5 1 3 2 2 3 1 4 22 5 20 6 19 7 17 8 16 9 15 10 14 11 6 12
REMARK SMILES IDX 7 13 8 14 9 15 13 16 11 17 10 18 12 20 4 22 21 24 18 26
REMARK H PARENT 10 19 12 21 4 23 21 25 18 27
REMARK Flexibility Score: inf
ROOT
ATOM      1  C   UNL     1      -3.667 -12.156   5.425  1.00  0.00     0.180 A 
ATOM      2  C   UNL     1      -3.097 -12.149   6.714  1.00  0.00     0.208 A 
ATOM      3  C   UNL     1      -3.946 -12.128   7.831  1.00  0.00     0.238 A 
ATOM      4  O   UNL     1      -3.447 -12.134   8.989  1.00  0.00    -0.285 OA
ATOM      5  C   UNL     1      -5.343 -12.093   7.644  1.00  0.00     0.111 A 
ATOM      6  C   UNL     1      -6.267 -12.066   8.716  1.00  0.00     0.134 A 
ATOM      7  C   UNL     1      -7.643 -12.023   8.448  1.00  0.00     0.093 A 
ATOM      8  C   UNL     1      -8.113 -12.004   7.132  1.00  0.00     0.123 A 
ATOM      9  C   UNL     1      -7.204 -12.031   6.069  1.00  0.00     0.094 A 
ATOM     10  C   UNL     1      -5.829 -12.077   6.315  1.00  0.00     0.146 A 
ATOM     11  O   UNL     1      -4.988 -12.107   5.288  1.00  0.00    -0.452 OA
ENDROOT
BRANCH   1  12
ATOM     12  C   UNL     1      -2.839 -12.196   4.199  1.00  0.00     0.025 A 
ATOM     13  C   UNL     1      -1.530 -12.699   4.266  1.00  0.00     0.016 A 
ATOM     14  C   UNL     1      -0.723 -12.727   3.126  1.00  0.00     0.051 A 
ATOM     15  C   UNL     1      -1.208 -12.240   1.906  1.00  0.00     0.157 A 
ATOM     16  C   UNL     1      -3.315 -11.690   2.976  1.00  0.00     0.062 A 
ATOM     17  C   UNL     1      -2.504 -11.716   1.832  1.00  0.00     0.158 A 
BRANCH  15  18
ATOM     18  O   UNL     1      -0.407 -12.268   0.766  1.00  0.00    -0.504 OA
ATOM     19  H   UNL     1       0.567 -11.990   0.795  1.00  0.00     0.293 HD
ENDBRANCH  15  18
BRANCH  17  20
ATOM     20  O   UNL     1      -2.980 -11.219   0.619  1.00  0.00    -0.504 OA
ATOM     21  H   UNL     1      -2.975 -10.227   0.414  1.00  0.00     0.293 HD
ENDBRANCH  17  20
ENDBRANCH   1  12
BRANCH   2  22
ATOM     22  O   UNL     1      -1.709 -12.135   6.871  1.00  0.00    -0.502 OA
ATOM     23  H   UNL     1      -1.090 -11.700   6.198  1.00  0.00     0.293 HD
ENDBRANCH   2  22
BRANCH   6  24
ATOM     24  O   UNL     1      -5.830 -12.083  10.042  1.00  0.00    -0.507 OA
ATOM     25  H   UNL     1      -5.680 -11.227  10.564  1.00  0.00     0.293 HD
ENDBRANCH   6  24
BRANCH   8  26
ATOM     26  O   UNL     1      -9.484 -11.960   6.893  1.00  0.00    -0.508 OA
ATOM     27  H   UNL     1     -10.033 -11.135   7.107  1.00  0.00     0.293 HD
ENDBRANCH   8  26
TORSDOF 6
ENDMDL
MODEL 8
REMARK VINA RESULT:    -3.950     17.761     19.716
REMARK INTER + INTRA:          -5.002
REMARK INTER:                  -5.186
REMARK INTRA:                   0.185
REMARK UNBOUND:                -0.243
REMARK SMILES O=c1c(O)c(-c2ccc(O)c(O)c2)oc2cc(O)cc(O)c12
REMARK SMILES IDX 5 1 3 2 2 3 1 4 22 5 20 6 19 7 17 8 16 9 15 10 14 11 6 12
REMARK SMILES IDX 7 13 8 14 9 15 13 16 11 17 10 18 12 20 4 22 21 24 18 26
REMARK H PARENT 10 19 12 21 4 23 21 25 18 27
REMARK Flexibility Score: inf
ROOT
ATOM      1  C   UNL     1      -3.415   0.934   9.452  1.00  0.00     0.180 A 
ATOM      2  C   UNL     1      -3.732  -0.420   9.675  1.00  0.00     0.208 A 
ATOM      3  C   UNL     1      -5.061  -0.842   9.513  1.00  0.00     0.238 A 
ATOM      4  O   UNL     1      -5.354  -2.053   9.698  1.00  0.00    -0.285 OA
ATOM      5  C   UNL     1      -6.050   0.097   9.152  1.00  0.00     0.111 A 
ATOM      6  C   UNL     1      -7.413  -0.245   8.973  1.00  0.00     0.134 A 
ATOM      7  C   UNL     1      -8.339   0.748   8.623  1.00  0.00     0.093 A 
ATOM      8  C   UNL     1      -7.932   2.074   8.451  1.00  0.00     0.123 A 
ATOM      9  C   UNL     1      -6.587   2.417   8.626  1.00  0.00     0.094 A 
ATOM     10  C   UNL     1      -5.648   1.441   8.973  1.00  0.00     0.146 A 
ATOM     11  O   UNL     1      -4.377   1.793   9.128  1.00  0.00    -0.452 OA
ENDROOT
BRANCH   1  12
ATOM     12  C   UNL     1      -2.034   1.451   9.584  1.00  0.00     0.025 A 
ATOM     13  C   UNL     1      -1.829   2.772  10.013  1.00  0.00     0.016 A 
ATOM     14  C   UNL     1      -0.536   3.287  10.125  1.00  0.00     0.051 A 
ATOM     15  C   UNL     1       0.571   2.494   9.796  1.00  0.00     0.157 A 
ATOM     16  C   UNL     1      -0.922   0.665   9.234  1.00  0.00     0.062 A 
ATOM     17  C   UNL     1       0.377   1.183   9.345  1.00  0.00     0.158 A 
BRANCH  15  18
ATOM     18  O   UNL     1       1.863   3.004   9.907  1.00  0.00    -0.504 OA
ATOM     19  H   UNL     1       2.042   3.906  10.332  1.00  0.00     0.293 HD
ENDBRANCH  15  18
BRANCH  17  20
ATOM     20  O   UNL     1       1.480   0.401   9.003  1.00  0.00    -0.504 OA
ATOM     21  H   UNL     1       1.655   0.119   8.046  1.00  0.00     0.293 HD
ENDBRANCH  17  20
ENDBRANCH   1  12
BRANCH   2  22
ATOM     22  O   UNL     1      -2.742  -1.320  10.078  1.00  0.00    -0.502 OA
ATOM     23  H   UNL     1      -2.559  -1.525  11.053  1.00  0.00     0.293 HD
ENDBRANCH   2  22
BRANCH   6  24
ATOM     24  O   UNL     1      -7.851  -1.560   9.139  1.00  0.00    -0.507 OA
ATOM     25  H   UNL     1      -8.301  -2.070   8.388  1.00  0.00     0.293 HD
ENDBRANCH   6  24
BRANCH   8  26
ATOM     26  O   UNL     1      -8.872   3.041   8.104  1.00  0.00    -0.508 OA
ATOM     27  H   UNL     1      -9.726   3.165   8.636  1.00  0.00     0.293 HD
ENDBRANCH   8  26
TORSDOF 6
ENDMDL
MODEL 9
REMARK VINA RESULT:    -3.787     18.877     21.569
REMARK INTER + INTRA:          -4.805
REMARK INTER:                  -4.516
REMARK INTRA:                  -0.289
REMARK UNBOUND:                -0.243
REMARK SMILES O=c1c(O)c(-c2ccc(O)c(O)c2)oc2cc(O)cc(O)c12
REMARK SMILES IDX 5 1 3 2 2 3 1 4 22 5 20 6 19 7 17 8 16 9 15 10 14 11 6 12
REMARK SMILES IDX 7 13 8 14 9 15 13 16 11 17 10 18 12 20 4 22 21 24 18 26
REMARK H PARENT 10 19 12 21 4 23 21 25 18 27
REMARK Flexibility Score: inf
ROOT
ATOM      1  C   UNL     1       5.946  -8.449   7.815  1.00  0.00     0.180 A 
ATOM      2  C   UNL     1       6.381  -7.173   8.227  1.00  0.00     0.208 A 
ATOM      3  C   UNL     1       5.591  -6.055   7.922  1.00  0.00     0.238 A 
ATOM      4  O   UNL     1       5.964  -4.911   8.295  1.00  0.00    -0.285 OA
ATOM      5  C   UNL     1       4.394  -6.225   7.195  1.00  0.00     0.111 A 
ATOM      6  C   UNL     1       3.543  -5.151   6.842  1.00  0.00     0.134 A 
ATOM      7  C   UNL     1       2.373  -5.401   6.110  1.00  0.00     0.093 A 
ATOM      8  C   UNL     1       2.040  -6.700   5.721  1.00  0.00     0.123 A 
ATOM      9  C   UNL     1       2.877  -7.767   6.067  1.00  0.00     0.094 A 
ATOM     10  C   UNL     1       4.046  -7.538   6.799  1.00  0.00     0.146 A 
ATOM     11  O   UNL     1       4.820  -8.568   7.119  1.00  0.00    -0.452 OA
ENDROOT
BRANCH   1  12
ATOM     12  C   UNL     1       6.715  -9.678   8.117  1.00  0.00     0.025 A 
ATOM     13  C   UNL     1       6.649 -10.236   9.403  1.00  0.00     0.016 A 
ATOM     14  C   UNL     1       7.382 -11.382   9.716  1.00  0.00     0.051 A 
ATOM     15  C   UNL     1       8.204 -11.980   8.751  1.00  0.00     0.157 A 
ATOM     16  C   UNL     1       7.557 -10.268   7.158  1.00  0.00     0.062 A 
ATOM     17  C   UNL     1       8.295 -11.419   7.472  1.00  0.00     0.158 A 
BRANCH  15  18
ATOM     18  O   UNL     1       8.936 -13.125   9.059  1.00  0.00    -0.504 OA
ATOM     19  H   UNL     1       8.880 -13.960   8.488  1.00  0.00     0.293 HD
ENDBRANCH  15  18
BRANCH  17  20
ATOM     20  O   UNL     1       9.124 -12.007   6.518  1.00  0.00    -0.504 OA
ATOM     21  H   UNL     1       9.875 -11.489   6.076  1.00  0.00     0.293 HD
ENDBRANCH  17  20
ENDBRANCH   1  12
BRANCH   2  22
ATOM     22  O   UNL     1       7.595  -7.026   8.904  1.00  0.00    -0.502 OA
ATOM     23  H   UNL     1       7.895  -6.142   9.295  1.00  0.00     0.293 HD
ENDBRANCH   2  22
BRANCH   6  24
ATOM     24  O   UNL     1       3.849  -3.840   7.214  1.00  0.00    -0.507 OA
ATOM     25  H   UNL     1       3.864  -3.085   6.538  1.00  0.00     0.293 HD
ENDBRANCH   6  24
BRANCH   8  26
ATOM     26  O   UNL     1       0.873  -6.921   4.993  1.00  0.00    -0.508 OA
ATOM     27  H   UNL     1       0.863  -7.525   4.178  1.00  0.00     0.293 HD
ENDBRANCH   8  26
TORSDOF 6
ENDMDL
