MODEL 1
REMARK VINA RESULT:    -4.359      0.000      0.000
REMARK INTER + INTRA:          -6.396
REMARK INTER:                  -6.653
REMARK INTRA:                   0.257
REMARK UNBOUND:                 0.257
REMARK SMILES CC1=CCC[C@@H](C)C(=O)C[C@H](C(C)C)C(=O)C1
REMARK SMILES IDX 8 1 9 2 6 3 7 4 5 5 4 6 3 7 2 8 1 9 10 11 11 12 15 13 16 14
REMARK SMILES IDX 17 15 12 17 13 18 14 19
REMARK H PARENT
REMARK Flexibility Score: 70.00
ROOT
ATOM      1  C   UNL     1      38.188  10.870  28.205  1.00  0.00     0.136 C 
ATOM      2  O   UNL     1      37.843  12.020  28.441  1.00  0.00    -0.299 OA
ENDROOT
BRANCH   1   3
ATOM      3  C   UNL     1      39.584  10.600  27.678  1.00  0.00     0.053 C 
ATOM      4  C   UNL     1      39.776  11.252  26.302  1.00  0.00     0.016 C 
BRANCH   3   5
ATOM      5  C   UNL     1      39.844   9.078  27.610  1.00  0.00     0.015 C 
BRANCH   5   6
ATOM      6  C   UNL     1      40.120   8.598  26.170  1.00  0.00     0.028 C 
BRANCH   6   7
ATOM      7  C   UNL     1      39.458   7.274  25.896  1.00  0.00    -0.028 C 
ATOM      8  C   UNL     1      38.164   7.109  25.532  1.00  0.00    -0.070 CG0
ATOM      9  C   UNL     1      37.685   5.710  25.238  1.00  0.00     0.039 C 
ATOM     10  G   UNL     1      37.182   8.262  25.395  1.00  0.00     0.000 G0
ENDBRANCH   6   7
ENDBRANCH   5   6
ENDBRANCH   3   5
ENDBRANCH   1   3
BRANCH   1  11
ATOM     11  C   UNL     1      37.210   9.744  28.446  1.00  0.00     0.087 C 
BRANCH  11  12
ATOM     12  C   UNL     1      36.109   9.671  27.356  1.00  0.00     0.066 C 
BRANCH  12  13
ATOM     13  C   UNL     1      36.230   8.384  26.546  1.00  0.00     0.140 C 
ATOM     14  O   UNL     1      35.584   7.407  26.896  1.00  0.00    -0.299 OA
BRANCH  13  15
ATOM     15  C   UNL     1      37.175   8.262  25.373  1.00  0.00     0.106 CG0
ATOM     16  G   UNL     1      38.158   7.114  25.543  1.00  0.00     0.000 G0
ENDBRANCH  13  15
ENDBRANCH  12  13
BRANCH  12  17
ATOM     17  C   UNL     1      34.667   9.853  27.931  1.00  0.00    -0.006 C 
ATOM     18  C   UNL     1      33.617   9.833  26.805  1.00  0.00     0.008 C 
ATOM     19  C   UNL     1      34.514  11.162  28.727  1.00  0.00     0.008 C 
ENDBRANCH  12  17
ENDBRANCH  11  12
ENDBRANCH   1  11
TORSDOF 1
ENDMDL
MODEL 2
REMARK VINA RESULT:    -4.182      1.603      3.712
REMARK INTER + INTRA:          -6.125
REMARK INTER:                  -6.558
REMARK INTRA:                   0.433
REMARK UNBOUND:                 0.257
REMARK SMILES CC1=CCC[C@@H](C)C(=O)C[C@H](C(C)C)C(=O)C1
REMARK SMILES IDX 8 1 9 2 6 3 7 4 5 5 4 6 3 7 2 8 1 9 10 11 11 12 15 13 16 14
REMARK SMILES IDX 17 15 12 17 13 18 14 19
REMARK H PARENT
REMARK Flexibility Score: 70.00
ROOT
ATOM      1  C   UNL     1      35.244   8.953  26.063  1.00  0.00     0.136 C 
ATOM      2  O   UNL     1      34.026   8.949  25.939  1.00  0.00    -0.299 OA
ENDROOT
BRANCH   1   3
ATOM      3  C   UNL     1      36.034   7.700  25.740  1.00  0.00     0.053 C 
ATOM      4  C   UNL     1      36.251   6.859  27.006  1.00  0.00     0.016 C 
BRANCH   3   5
ATOM      5  C   UNL     1      37.384   8.074  25.087  1.00  0.00     0.015 C 
BRANCH   5   6
ATOM      6  C   UNL     1      38.588   7.642  25.949  1.00  0.00     0.028 C 
BRANCH   6   7
ATOM      7  C   UNL     1      39.584   8.762  26.103  1.00  0.00    -0.028 C 
ATOM      8  C   UNL     1      39.679   9.577  27.179  1.00  0.00    -0.070 CG0
ATOM      9  C   UNL     1      40.779  10.609  27.188  1.00  0.00     0.039 C 
ATOM     10  G   UNL     1      38.744   9.495  28.375  1.00  0.00     0.000 G0
ENDBRANCH   6   7
ENDBRANCH   5   6
ENDBRANCH   3   5
ENDBRANCH   1   3
BRANCH   1  11
ATOM     11  C   UNL     1      35.931  10.213  26.536  1.00  0.00     0.087 C 
BRANCH  11  12
ATOM     12  C   UNL     1      36.202  10.204  28.062  1.00  0.00     0.066 C 
BRANCH  12  13
ATOM     13  C   UNL     1      37.657  10.553  28.358  1.00  0.00     0.140 C 
ATOM     14  O   UNL     1      37.957  11.727  28.522  1.00  0.00    -0.299 OA
BRANCH  13  15
ATOM     15  C   UNL     1      38.744   9.502  28.384  1.00  0.00     0.106 CG0
ATOM     16  G   UNL     1      39.663   9.595  27.176  1.00  0.00     0.000 G0
ENDBRANCH  13  15
ENDBRANCH  12  13
BRANCH  12  17
ATOM     17  C   UNL     1      35.219  11.117  28.864  1.00  0.00    -0.006 C 
ATOM     18  C   UNL     1      33.777  10.583  28.780  1.00  0.00     0.008 C 
ATOM     19  C   UNL     1      35.235  12.574  28.367  1.00  0.00     0.008 C 
ENDBRANCH  12  17
ENDBRANCH  11  12
ENDBRANCH   1  11
TORSDOF 1
ENDMDL
MODEL 3
REMARK VINA RESULT:    -4.092      2.066      4.737
REMARK INTER + INTRA:          -5.988
REMARK INTER:                  -5.690
REMARK INTRA:                  -0.298
REMARK UNBOUND:                 0.257
REMARK SMILES CC1=CCC[C@@H](C)C(=O)C[C@H](C(C)C)C(=O)C1
REMARK SMILES IDX 8 1 9 2 6 3 7 4 5 5 4 6 3 7 2 8 1 9 10 11 11 12 15 13 16 14
REMARK SMILES IDX 17 15 12 17 13 18 14 19
REMARK H PARENT
REMARK Flexibility Score: 70.00
ROOT
ATOM      1  C   UNL     1      36.416   7.910  27.202  1.00  0.00     0.136 C 
ATOM      2  O   UNL     1      35.526   7.216  26.728  1.00  0.00    -0.299 OA
ENDROOT
BRANCH   1   3
ATOM      3  C   UNL     1      36.319   9.420  27.108  1.00  0.00     0.053 C 
ATOM      4  C   UNL     1      35.079   9.929  27.856  1.00  0.00     0.016 C 
BRANCH   3   5
ATOM      5  C   UNL     1      36.291   9.861  25.627  1.00  0.00     0.015 C 
BRANCH   5   6
ATOM      6  C   UNL     1      37.651   9.649  24.930  1.00  0.00     0.028 C 
BRANCH   6   7
ATOM      7  C   UNL     1      38.763  10.342  25.673  1.00  0.00    -0.028 C 
ATOM      8  C   UNL     1      39.941   9.773  26.022  1.00  0.00    -0.070 CG0
ATOM      9  C   UNL     1      40.966  10.637  26.712  1.00  0.00     0.039 C 
ATOM     10  G   UNL     1      40.280   8.317  25.743  1.00  0.00     0.000 G0
ENDBRANCH   6   7
ENDBRANCH   5   6
ENDBRANCH   3   5
ENDBRANCH   1   3
BRANCH   1  11
ATOM     11  C   UNL     1      37.592   7.241  27.875  1.00  0.00     0.087 C 
BRANCH  11  12
ATOM     12  C   UNL     1      38.583   6.620  26.856  1.00  0.00     0.066 C 
BRANCH  12  13
ATOM     13  C   UNL     1      39.909   7.372  26.860  1.00  0.00     0.140 C 
ATOM     14  O   UNL     1      40.647   7.257  27.828  1.00  0.00    -0.299 OA
BRANCH  13  15
ATOM     15  C   UNL     1      40.303   8.308  25.739  1.00  0.00     0.106 CG0
ATOM     16  G   UNL     1      39.935   9.752  26.040  1.00  0.00     0.000 G0
ENDBRANCH  13  15
ENDBRANCH  12  13
BRANCH  12  17
ATOM     17  C   UNL     1      38.794   5.085  27.065  1.00  0.00    -0.006 C 
ATOM     18  C   UNL     1      39.780   4.517  26.028  1.00  0.00     0.008 C 
ATOM     19  C   UNL     1      37.475   4.295  26.978  1.00  0.00     0.008 C 
ENDBRANCH  12  17
ENDBRANCH  11  12
ENDBRANCH   1  11
TORSDOF 1
ENDMDL
MODEL 4
REMARK VINA RESULT:    -3.960      1.844      3.857
REMARK INTER + INTRA:          -5.787
REMARK INTER:                  -5.824
REMARK INTRA:                   0.038
REMARK UNBOUND:                 0.257
REMARK SMILES CC1=CCC[C@@H](C)C(=O)C[C@H](C(C)C)C(=O)C1
REMARK SMILES IDX 8 1 9 2 6 3 7 4 5 5 4 6 3 7 2 8 1 9 10 11 11 12 15 13 16 14
REMARK SMILES IDX 17 15 12 17 13 18 14 19
REMARK H PARENT
REMARK Flexibility Score: 70.00
ROOT
ATOM      1  C   UNL     1      36.338   6.988  25.544  1.00  0.00     0.136 C 
ATOM      2  O   UNL     1      35.390   6.217  25.478  1.00  0.00    -0.299 OA
ENDROOT
BRANCH   1   3
ATOM      3  C   UNL     1      37.717   6.452  25.878  1.00  0.00     0.053 C 
ATOM      4  C   UNL     1      38.055   5.245  24.992  1.00  0.00     0.016 C 
BRANCH   3   5
ATOM      5  C   UNL     1      37.797   6.079  27.375  1.00  0.00     0.015 C 
BRANCH   5   6
ATOM      6  C   UNL     1      38.522   7.158  28.206  1.00  0.00     0.028 C 
BRANCH   6   7
ATOM      7  C   UNL     1      39.768   7.640  27.512  1.00  0.00    -0.028 C 
ATOM      8  C   UNL     1      39.996   8.914  27.115  1.00  0.00    -0.070 CG0
ATOM      9  C   UNL     1      41.330   9.231  26.487  1.00  0.00     0.039 C 
ATOM     10  G   UNL     1      38.982  10.035  27.281  1.00  0.00     0.000 G0
ENDBRANCH   6   7
ENDBRANCH   5   6
ENDBRANCH   3   5
ENDBRANCH   1   3
BRANCH   1  11
ATOM     11  C   UNL     1      36.110   8.460  25.289  1.00  0.00     0.087 C 
BRANCH  11  12
ATOM     12  C   UNL     1      36.534   9.342  26.492  1.00  0.00     0.066 C 
BRANCH  12  13
ATOM     13  C   UNL     1      37.881  10.008  26.230  1.00  0.00     0.140 C 
ATOM     14  O   UNL     1      38.102  10.468  25.119  1.00  0.00    -0.299 OA
BRANCH  13  15
ATOM     15  C   UNL     1      38.970  10.050  27.277  1.00  0.00     0.106 CG0
ATOM     16  G   UNL     1      39.980   8.926  27.102  1.00  0.00     0.000 G0
ENDBRANCH  13  15
ENDBRANCH  12  13
BRANCH  12  17
ATOM     17  C   UNL     1      35.445  10.389  26.895  1.00  0.00    -0.006 C 
ATOM     18  C   UNL     1      35.738  10.982  28.286  1.00  0.00     0.008 C 
ATOM     19  C   UNL     1      34.028   9.789  26.902  1.00  0.00     0.008 C 
ENDBRANCH  12  17
ENDBRANCH  11  12
ENDBRANCH   1  11
TORSDOF 1
ENDMDL
MODEL 5
REMARK VINA RESULT:    -3.937      1.686      4.130
REMARK INTER + INTRA:          -5.752
REMARK INTER:                  -5.743
REMARK INTRA:                  -0.009
REMARK UNBOUND:                 0.257
REMARK SMILES CC1=CCC[C@@H](C)C(=O)C[C@H](C(C)C)C(=O)C1
REMARK SMILES IDX 8 1 9 2 6 3 7 4 5 5 4 6 3 7 2 8 1 9 10 11 11 12 15 13 16 14
REMARK SMILES IDX 17 15 12 17 13 18 14 19
REMARK H PARENT
REMARK Flexibility Score: 70.00
ROOT
ATOM      1  C   UNL     1      37.164  10.100  27.213  1.00  0.00     0.136 C 
ATOM      2  O   UNL     1      37.379  10.246  28.409  1.00  0.00    -0.299 OA
ENDROOT
BRANCH   1   3
ATOM      3  C   UNL     1      35.767  10.328  26.670  1.00  0.00     0.053 C 
ATOM      4  C   UNL     1      34.787  10.629  27.813  1.00  0.00     0.016 C 
BRANCH   3   5
ATOM      5  C   UNL     1      35.304   9.100  25.854  1.00  0.00     0.015 C 
BRANCH   5   6
ATOM      6  C   UNL     1      35.412   7.790  26.662  1.00  0.00     0.028 C 
BRANCH   6   7
ATOM      7  C   UNL     1      35.744   6.621  25.771  1.00  0.00    -0.028 C 
ATOM      8  C   UNL     1      36.889   5.902  25.824  1.00  0.00    -0.070 CG0
ATOM      9  C   UNL     1      37.027   4.723  24.894  1.00  0.00     0.039 C 
ATOM     10  G   UNL     1      38.030   6.216  26.779  1.00  0.00     0.000 G0
ENDBRANCH   6   7
ENDBRANCH   5   6
ENDBRANCH   3   5
ENDBRANCH   1   3
BRANCH   1  11
ATOM     11  C   UNL     1      38.301   9.695  26.305  1.00  0.00     0.087 C 
BRANCH  11  12
ATOM     12  C   UNL     1      39.202   8.600  26.933  1.00  0.00     0.066 C 
BRANCH  12  13
ATOM     13  C   UNL     1      38.987   7.257  26.244  1.00  0.00     0.140 C 
ATOM     14  O   UNL     1      39.565   7.040  25.188  1.00  0.00    -0.299 OA
BRANCH  13  15
ATOM     15  C   UNL     1      38.030   6.221  26.787  1.00  0.00     0.106 CG0
ATOM     16  G   UNL     1      36.914   5.898  25.806  1.00  0.00     0.000 G0
ENDBRANCH  13  15
ENDBRANCH  12  13
BRANCH  12  17
ATOM     17  C   UNL     1      40.714   8.995  26.962  1.00  0.00    -0.006 C 
ATOM     18  C   UNL     1      41.269   8.953  28.398  1.00  0.00     0.008 C 
ATOM     19  C   UNL     1      40.966  10.396  26.375  1.00  0.00     0.008 C 
ENDBRANCH  12  17
ENDBRANCH  11  12
ENDBRANCH   1  11
TORSDOF 1
ENDMDL
MODEL 6
REMARK VINA RESULT:    -3.910      2.108      3.772
REMARK INTER + INTRA:          -5.710
REMARK INTER:                  -5.736
REMARK INTRA:                   0.026
REMARK UNBOUND:                 0.257
REMARK SMILES CC1=CCC[C@@H](C)C(=O)C[C@H](C(C)C)C(=O)C1
REMARK SMILES IDX 8 1 9 2 6 3 7 4 5 5 4 6 3 7 2 8 1 9 10 11 11 12 15 13 16 14
REMARK SMILES IDX 17 15 12 17 13 18 14 19
REMARK H PARENT
REMARK Flexibility Score: 70.00
ROOT
ATOM      1  C   UNL     1      37.989   8.667  28.738  1.00  0.00     0.136 C 
ATOM      2  O   UNL     1      38.729   8.354  29.661  1.00  0.00    -0.299 OA
ENDROOT
BRANCH   1   3
ATOM      3  C   UNL     1      37.496  10.097  28.627  1.00  0.00     0.053 C 
ATOM      4  C   UNL     1      35.998  10.127  28.296  1.00  0.00     0.016 C 
BRANCH   3   5
ATOM      5  C   UNL     1      38.313  10.861  27.560  1.00  0.00     0.015 C 
BRANCH   5   6
ATOM      6  C   UNL     1      39.831  10.784  27.822  1.00  0.00     0.028 C 
BRANCH   6   7
ATOM      7  C   UNL     1      40.603  10.622  26.539  1.00  0.00    -0.028 C 
ATOM      8  C   UNL     1      40.982   9.439  26.002  1.00  0.00    -0.070 CG0
ATOM      9  C   UNL     1      41.698   9.462  24.675  1.00  0.00     0.039 C 
ATOM     10  G   UNL     1      40.713   8.096  26.663  1.00  0.00     0.000 G0
ENDBRANCH   6   7
ENDBRANCH   5   6
ENDBRANCH   3   5
ENDBRANCH   1   3
BRANCH   1  11
ATOM     11  C   UNL     1      37.585   7.619  27.729  1.00  0.00     0.087 C 
BRANCH  11  12
ATOM     12  C   UNL     1      38.086   7.948  26.299  1.00  0.00     0.066 C 
BRANCH  12  13
ATOM     13  C   UNL     1      39.489   7.396  26.073  1.00  0.00     0.140 C 
ATOM     14  O   UNL     1      39.615   6.343  25.464  1.00  0.00    -0.299 OA
BRANCH  13  15
ATOM     15  C   UNL     1      40.717   8.073  26.639  1.00  0.00     0.106 CG0
ATOM     16  G   UNL     1      40.968   9.432  26.006  1.00  0.00     0.000 G0
ENDBRANCH  13  15
ENDBRANCH  12  13
BRANCH  12  17
ATOM     17  C   UNL     1      37.098   7.478  25.182  1.00  0.00    -0.006 C 
ATOM     18  C   UNL     1      36.109   8.599  24.811  1.00  0.00     0.008 C 
ATOM     19  C   UNL     1      36.297   6.230  25.595  1.00  0.00     0.008 C 
ENDBRANCH  12  17
ENDBRANCH  11  12
ENDBRANCH   1  11
TORSDOF 1
ENDMDL
MODEL 7
REMARK VINA RESULT:    -3.834      1.907      4.523
REMARK INTER + INTRA:          -5.595
REMARK INTER:                  -6.420
REMARK INTRA:                   0.825
REMARK UNBOUND:                 0.257
REMARK SMILES CC1=CCC[C@@H](C)C(=O)C[C@H](C(C)C)C(=O)C1
REMARK SMILES IDX 8 1 9 2 6 3 7 4 5 5 4 6 3 7 2 8 1 9 10 11 11 12 15 13 16 14
REMARK SMILES IDX 17 15 12 17 13 18 14 19
REMARK H PARENT
REMARK Flexibility Score: 70.00
ROOT
ATOM      1  C   UNL     1      35.086   9.359  26.532  1.00  0.00     0.136 C 
ATOM      2  O   UNL     1      34.160   8.685  26.099  1.00  0.00    -0.299 OA
ENDROOT
BRANCH   1   3
ATOM      3  C   UNL     1      34.962  10.014  27.894  1.00  0.00     0.053 C 
ATOM      4  C   UNL     1      33.487  10.262  28.241  1.00  0.00     0.016 C 
BRANCH   3   5
ATOM      5  C   UNL     1      35.767  11.333  27.927  1.00  0.00     0.015 C 
BRANCH   5   6
ATOM      6  C   UNL     1      37.056  11.207  28.764  1.00  0.00     0.028 C 
BRANCH   6   7
ATOM      7  C   UNL     1      38.273  11.577  27.957  1.00  0.00    -0.028 C 
ATOM      8  C   UNL     1      39.099  10.698  27.343  1.00  0.00    -0.070 CG0
ATOM      9  C   UNL     1      40.238  11.251  26.525  1.00  0.00     0.039 C 
ATOM     10  G   UNL     1      38.927   9.189  27.431  1.00  0.00     0.000 G0
ENDBRANCH   6   7
ENDBRANCH   5   6
ENDBRANCH   3   5
ENDBRANCH   1   3
BRANCH   1  11
ATOM     11  C   UNL     1      36.334   9.520  25.696  1.00  0.00     0.087 C 
BRANCH  11  12
ATOM     12  C   UNL     1      37.203   8.236  25.674  1.00  0.00     0.066 C 
BRANCH  12  13
ATOM     13  C   UNL     1      38.633   8.540  26.106  1.00  0.00     0.140 C 
ATOM     14  O   UNL     1      39.552   8.199  25.375  1.00  0.00    -0.299 OA
BRANCH  13  15
ATOM     15  C   UNL     1      38.949   9.182  27.438  1.00  0.00     0.106 CG0
ATOM     16  G   UNL     1      39.104  10.690  27.328  1.00  0.00     0.000 G0
ENDBRANCH  13  15
ENDBRANCH  12  13
BRANCH  12  17
ATOM     17  C   UNL     1      36.587   7.067  26.510  1.00  0.00    -0.006 C 
ATOM     18  C   UNL     1      37.550   6.620  27.626  1.00  0.00     0.008 C 
ATOM     19  C   UNL     1      36.238   5.845  25.641  1.00  0.00     0.008 C 
ENDBRANCH  12  17
ENDBRANCH  11  12
ENDBRANCH   1  11
TORSDOF 1
ENDMDL
MODEL 8
REMARK VINA RESULT:    -3.802      1.638      4.000
REMARK INTER + INTRA:          -5.545
REMARK INTER:                  -5.631
REMARK INTRA:                   0.087
REMARK UNBOUND:                 0.257
REMARK SMILES CC1=CCC[C@@H](C)C(=O)C[C@H](C(C)C)C(=O)C1
REMARK SMILES IDX 8 1 9 2 6 3 7 4 5 5 4 6 3 7 2 8 1 9 10 11 11 12 15 13 16 14
REMARK SMILES IDX 17 15 12 17 13 18 14 19
REMARK H PARENT
REMARK Flexibility Score: 70.00
ROOT
ATOM      1  C   UNL     1      39.609   9.987  26.481  1.00  0.00     0.136 C 
ATOM      2  O   UNL     1      39.616  11.030  25.840  1.00  0.00    -0.299 OA
ENDROOT
BRANCH   1   3
ATOM      3  C   UNL     1      39.905  10.019  27.967  1.00  0.00     0.053 C 
ATOM      4  C   UNL     1      40.708   8.780  28.384  1.00  0.00     0.016 C 
BRANCH   3   5
ATOM      5  C   UNL     1      38.590  10.122  28.772  1.00  0.00     0.015 C 
BRANCH   5   6
ATOM      6  C   UNL     1      37.676  11.252  28.253  1.00  0.00     0.028 C 
BRANCH   6   7
ATOM      7  C   UNL     1      36.237  10.810  28.192  1.00  0.00    -0.028 C 
ATOM      8  C   UNL     1      35.639  10.252  27.113  1.00  0.00    -0.070 CG0
ATOM      9  C   UNL     1      34.203   9.814  27.251  1.00  0.00     0.039 C 
ATOM     10  G   UNL     1      36.345  10.038  25.784  1.00  0.00     0.000 G0
ENDBRANCH   6   7
ENDBRANCH   5   6
ENDBRANCH   3   5
ENDBRANCH   1   3
BRANCH   1  11
ATOM     11  C   UNL     1      39.304   8.689  25.771  1.00  0.00     0.087 C 
BRANCH  11  12
ATOM     12  C   UNL     1      38.003   8.022  26.290  1.00  0.00     0.066 C 
BRANCH  12  13
ATOM     13  C   UNL     1      36.779   8.595  25.585  1.00  0.00     0.140 C 
ATOM     14  O   UNL     1      36.166   7.884  24.801  1.00  0.00    -0.299 OA
BRANCH  13  15
ATOM     15  C   UNL     1      36.346  10.031  25.772  1.00  0.00     0.106 CG0
ATOM     16  G   UNL     1      35.644  10.252  27.102  1.00  0.00     0.000 G0
ENDBRANCH  13  15
ENDBRANCH  12  13
BRANCH  12  17
ATOM     17  C   UNL     1      38.039   6.461  26.198  1.00  0.00    -0.006 C 
ATOM     18  C   UNL     1      37.883   5.823  27.591  1.00  0.00     0.008 C 
ATOM     19  C   UNL     1      39.340   5.941  25.559  1.00  0.00     0.008 C 
ENDBRANCH  12  17
ENDBRANCH  11  12
ENDBRANCH   1  11
TORSDOF 1
ENDMDL
MODEL 9
REMARK VINA RESULT:    -3.669      2.269      4.578
REMARK INTER + INTRA:          -5.342
REMARK INTER:                  -5.145
REMARK INTRA:                  -0.197
REMARK UNBOUND:                 0.257
REMARK SMILES CC1=CCC[C@@H](C)C(=O)C[C@H](C(C)C)C(=O)C1
REMARK SMILES IDX 8 1 9 2 6 3 7 4 5 5 4 6 3 7 2 8 1 9 10 11 11 12 15 13 16 14
REMARK SMILES IDX 17 15 12 17 13 18 14 19
REMARK H PARENT
REMARK Flexibility Score: 70.00
ROOT
ATOM      1  C   UNL     1      40.451   7.195  25.580  1.00  0.00     0.136 C 
ATOM      2  O   UNL     1      40.844   6.188  25.006  1.00  0.00    -0.299 OA
ENDROOT
BRANCH   1   3
ATOM      3  C   UNL     1      41.459   8.209  26.087  1.00  0.00     0.053 C 
ATOM      4  C   UNL     1      41.874   7.883  27.528  1.00  0.00     0.016 C 
BRANCH   3   5
ATOM      5  C   UNL     1      40.875   9.637  25.989  1.00  0.00     0.015 C 
BRANCH   5   6
ATOM      6  C   UNL     1      40.710  10.295  27.375  1.00  0.00     0.028 C 
BRANCH   6   7
ATOM      7  C   UNL     1      39.319  10.843  27.561  1.00  0.00    -0.028 C 
ATOM      8  C   UNL     1      38.306  10.201  28.189  1.00  0.00    -0.070 CG0
ATOM      9  C   UNL     1      36.993  10.928  28.336  1.00  0.00     0.039 C 
ATOM     10  G   UNL     1      38.432   8.797  28.758  1.00  0.00     0.000 G0
ENDBRANCH   6   7
ENDBRANCH   5   6
ENDBRANCH   3   5
ENDBRANCH   1   3
BRANCH   1  11
ATOM     11  C   UNL     1      38.967   7.404  25.770  1.00  0.00     0.087 C 
BRANCH  11  12
ATOM     12  C   UNL     1      38.436   6.742  27.067  1.00  0.00     0.066 C 
BRANCH  12  13
ATOM     13  C   UNL     1      37.698   7.756  27.934  1.00  0.00     0.140 C 
ATOM     14  O   UNL     1      36.476   7.767  27.914  1.00  0.00    -0.299 OA
BRANCH  13  15
ATOM     15  C   UNL     1      38.432   8.791  28.757  1.00  0.00     0.106 CG0
ATOM     16  G   UNL     1      38.307  10.188  28.169  1.00  0.00     0.000 G0
ENDBRANCH  13  15
ENDBRANCH  12  13
BRANCH  12  17
ATOM     17  C   UNL     1      37.559   5.477  26.793  1.00  0.00    -0.006 C 
ATOM     18  C   UNL     1      38.404   4.192  26.866  1.00  0.00     0.008 C 
ATOM     19  C   UNL     1      36.863   5.533  25.420  1.00  0.00     0.008 C 
ENDBRANCH  12  17
ENDBRANCH  11  12
ENDBRANCH   1  11
TORSDOF 1
ENDMDL
