MODEL 1
REMARK VINA RESULT:    -5.816      0.000      0.000
REMARK INTER + INTRA:          -6.156
REMARK INTER:                  -6.156
REMARK INTRA:                   0.000
REMARK UNBOUND:                 0.000
REMARK SMILES O=c1ccc2cc(O)c(O)cc2o1
REMARK SMILES IDX 4 1 3 2 2 3 1 4 13 5 12 6 11 7 9 8 7 9 6 10 5 11 8 12 10 14
REMARK H PARENT 8 13 10 15
REMARK Flexibility Score: inf
ROOT
ATOM      1  C   UNL     1     -35.772  -5.066 -13.364  1.00  0.00     0.019 A 
ATOM      2  C   UNL     1     -36.375  -4.048 -12.624  1.00  0.00     0.094 A 
ATOM      3  C   UNL     1     -37.766  -4.049 -12.477  1.00  0.00     0.336 A 
ATOM      4  O   UNL     1     -38.328  -3.140 -11.813  1.00  0.00    -0.246 OA
ATOM      5  O   UNL     1     -38.501  -5.009 -13.035  1.00  0.00    -0.423 OA
ATOM      6  C   UNL     1     -37.966  -5.997 -13.748  1.00  0.00     0.142 A 
ATOM      7  C   UNL     1     -38.789  -6.977 -14.311  1.00  0.00     0.098 A 
ATOM      8  C   UNL     1     -38.231  -8.021 -15.063  1.00  0.00     0.161 A 
ATOM      9  C   UNL     1     -36.842  -8.084 -15.253  1.00  0.00     0.158 A 
ATOM     10  C   UNL     1     -36.012  -7.104 -14.691  1.00  0.00     0.062 A 
ATOM     11  C   UNL     1     -36.568  -6.060 -13.939  1.00  0.00     0.022 A 
ENDROOT
BRANCH   9  12
ATOM     12  O   UNL     1     -36.296  -9.125 -16.002  1.00  0.00    -0.504 OA
ATOM     13  H   UNL     1     -36.877  -9.729 -16.572  1.00  0.00     0.293 HD
ENDBRANCH   9  12
BRANCH   8  14
ATOM     14  O   UNL     1     -39.048  -9.000 -15.624  1.00  0.00    -0.504 OA
ATOM     15  H   UNL     1     -39.426  -9.758 -15.068  1.00  0.00     0.293 HD
ENDBRANCH   8  14
TORSDOF 2
ENDMDL
MODEL 2
REMARK VINA RESULT:    -5.545      3.299      5.105
REMARK INTER + INTRA:          -5.869
REMARK INTER:                  -5.869
REMARK INTRA:                   0.000
REMARK UNBOUND:                 0.000
REMARK SMILES O=c1ccc2cc(O)c(O)cc2o1
REMARK SMILES IDX 4 1 3 2 2 3 1 4 13 5 12 6 11 7 9 8 7 9 6 10 5 11 8 12 10 14
REMARK H PARENT 8 13 10 15
REMARK Flexibility Score: inf
ROOT
ATOM      1  C   UNL     1     -36.127  -5.857 -14.051  1.00  0.00     0.019 A 
ATOM      2  C   UNL     1     -36.223  -7.247 -14.116  1.00  0.00     0.094 A 
ATOM      3  C   UNL     1     -36.185  -7.872 -15.367  1.00  0.00     0.336 A 
ATOM      4  O   UNL     1     -36.271  -9.125 -15.446  1.00  0.00    -0.246 OA
ATOM      5  O   UNL     1     -36.058  -7.148 -16.477  1.00  0.00    -0.423 OA
ATOM      6  C   UNL     1     -35.963  -5.821 -16.460  1.00  0.00     0.142 A 
ATOM      7  C   UNL     1     -35.832  -5.114 -17.659  1.00  0.00     0.098 A 
ATOM      8  C   UNL     1     -35.732  -3.715 -17.646  1.00  0.00     0.161 A 
ATOM      9  C   UNL     1     -35.762  -3.020 -16.428  1.00  0.00     0.158 A 
ATOM     10  C   UNL     1     -35.894  -3.725 -15.222  1.00  0.00     0.062 A 
ATOM     11  C   UNL     1     -35.995  -5.123 -15.233  1.00  0.00     0.022 A 
ENDROOT
BRANCH   9  12
ATOM     12  O   UNL     1     -35.662  -1.631 -16.425  1.00  0.00    -0.504 OA
ATOM     13  H   UNL     1     -36.485  -1.039 -16.436  1.00  0.00     0.293 HD
ENDBRANCH   9  12
BRANCH   8  14
ATOM     14  O   UNL     1     -35.600  -3.008 -18.839  1.00  0.00    -0.504 OA
ATOM     15  H   UNL     1     -34.730  -3.003 -19.361  1.00  0.00     0.293 HD
ENDBRANCH   8  14
TORSDOF 2
ENDMDL
MODEL 3
REMARK VINA RESULT:    -5.526      1.020      2.229
REMARK INTER + INTRA:          -5.849
REMARK INTER:                  -5.849
REMARK INTRA:                   0.000
REMARK UNBOUND:                 0.000
REMARK SMILES O=c1ccc2cc(O)c(O)cc2o1
REMARK SMILES IDX 4 1 3 2 2 3 1 4 13 5 12 6 11 7 9 8 7 9 6 10 5 11 8 12 10 14
REMARK H PARENT 8 13 10 15
REMARK Flexibility Score: inf
ROOT
ATOM      1  C   UNL     1     -39.067  -5.119 -13.018  1.00  0.00     0.019 A 
ATOM      2  C   UNL     1     -38.312  -4.121 -12.404  1.00  0.00     0.094 A 
ATOM      3  C   UNL     1     -36.921  -4.132 -12.554  1.00  0.00     0.336 A 
ATOM      4  O   UNL     1     -36.222  -3.240 -12.008  1.00  0.00    -0.246 OA
ATOM      5  O   UNL     1     -36.330  -5.083 -13.275  1.00  0.00    -0.423 OA
ATOM      6  C   UNL     1     -37.013  -6.054 -13.877  1.00  0.00     0.142 A 
ATOM      7  C   UNL     1     -36.338  -7.026 -14.620  1.00  0.00     0.098 A 
ATOM      8  C   UNL     1     -37.053  -8.051 -15.257  1.00  0.00     0.161 A 
ATOM      9  C   UNL     1     -38.451  -8.103 -15.150  1.00  0.00     0.158 A 
ATOM     10  C   UNL     1     -39.133  -7.130 -14.405  1.00  0.00     0.062 A 
ATOM     11  C   UNL     1     -38.420  -6.105 -13.768  1.00  0.00     0.022 A 
ENDROOT
BRANCH   9  12
ATOM     12  O   UNL     1     -39.153  -9.125 -15.786  1.00  0.00    -0.504 OA
ATOM     13  H   UNL     1     -38.675  -9.912 -16.210  1.00  0.00     0.293 HD
ENDBRANCH   9  12
BRANCH   8  14
ATOM     14  O   UNL     1     -36.382  -9.021 -16.000  1.00  0.00    -0.504 OA
ATOM     15  H   UNL     1     -35.460  -8.851 -16.384  1.00  0.00     0.293 HD
ENDBRANCH   8  14
TORSDOF 2
ENDMDL
MODEL 4
REMARK VINA RESULT:    -5.520      6.336      7.646
REMARK INTER + INTRA:          -5.843
REMARK INTER:                  -5.843
REMARK INTRA:                   0.000
REMARK UNBOUND:                 0.000
REMARK SMILES O=c1ccc2cc(O)c(O)cc2o1
REMARK SMILES IDX 4 1 3 2 2 3 1 4 13 5 12 6 11 7 9 8 7 9 6 10 5 11 8 12 10 14
REMARK H PARENT 8 13 10 15
REMARK Flexibility Score: inf
ROOT
ATOM      1  C   UNL     1     -35.268  -5.750 -21.276  1.00  0.00     0.019 A 
ATOM      2  C   UNL     1     -36.413  -5.863 -22.064  1.00  0.00     0.094 A 
ATOM      3  C   UNL     1     -37.532  -5.083 -21.751  1.00  0.00     0.336 A 
ATOM      4  O   UNL     1     -38.574  -5.171 -22.451  1.00  0.00    -0.246 OA
ATOM      5  O   UNL     1     -37.500  -4.246 -20.717  1.00  0.00    -0.423 OA
ATOM      6  C   UNL     1     -36.429  -4.108 -19.939  1.00  0.00     0.142 A 
ATOM      7  C   UNL     1     -36.455  -3.213 -18.866  1.00  0.00     0.098 A 
ATOM      8  C   UNL     1     -35.328  -3.064 -18.044  1.00  0.00     0.161 A 
ATOM      9  C   UNL     1     -34.170  -3.814 -18.298  1.00  0.00     0.158 A 
ATOM     10  C   UNL     1     -34.138  -4.713 -19.373  1.00  0.00     0.062 A 
ATOM     11  C   UNL     1     -35.264  -4.864 -20.196  1.00  0.00     0.022 A 
ENDROOT
BRANCH   9  12
ATOM     12  O   UNL     1     -33.055  -3.659 -17.476  1.00  0.00    -0.504 OA
ATOM     13  H   UNL     1     -33.005  -2.919 -16.784  1.00  0.00     0.293 HD
ENDBRANCH   9  12
BRANCH   8  14
ATOM     14  O   UNL     1     -35.350  -2.172 -16.974  1.00  0.00    -0.504 OA
ATOM     15  H   UNL     1     -36.173  -1.619 -16.761  1.00  0.00     0.293 HD
ENDBRANCH   8  14
TORSDOF 2
ENDMDL
MODEL 5
REMARK VINA RESULT:    -5.479      5.451      6.343
REMARK INTER + INTRA:          -5.799
REMARK INTER:                  -5.799
REMARK INTRA:                   0.000
REMARK UNBOUND:                 0.000
REMARK SMILES O=c1ccc2cc(O)c(O)cc2o1
REMARK SMILES IDX 4 1 3 2 2 3 1 4 13 5 12 6 11 7 9 8 7 9 6 10 5 11 8 12 10 14
REMARK H PARENT 8 13 10 15
REMARK Flexibility Score: inf
ROOT
ATOM      1  C   UNL     1     -35.279  -3.925 -16.446  1.00  0.00     0.019 A 
ATOM      2  C   UNL     1     -36.498  -4.538 -16.156  1.00  0.00     0.094 A 
ATOM      3  C   UNL     1     -37.140  -5.279 -17.154  1.00  0.00     0.336 A 
ATOM      4  O   UNL     1     -38.239  -5.839 -16.911  1.00  0.00    -0.246 OA
ATOM      5  O   UNL     1     -36.592  -5.396 -18.362  1.00  0.00    -0.423 OA
ATOM      6  C   UNL     1     -35.432  -4.828 -18.681  1.00  0.00     0.142 A 
ATOM      7  C   UNL     1     -34.907  -4.985 -19.966  1.00  0.00     0.098 A 
ATOM      8  C   UNL     1     -33.684  -4.388 -20.307  1.00  0.00     0.161 A 
ATOM      9  C   UNL     1     -32.984  -3.630 -19.357  1.00  0.00     0.158 A 
ATOM     10  C   UNL     1     -33.506  -3.469 -18.066  1.00  0.00     0.062 A 
ATOM     11  C   UNL     1     -34.728  -4.065 -17.723  1.00  0.00     0.022 A 
ENDROOT
BRANCH   9  12
ATOM     12  O   UNL     1     -31.770  -3.041 -19.705  1.00  0.00    -0.504 OA
ATOM     13  H   UNL     1     -31.729  -2.232 -20.314  1.00  0.00     0.293 HD
ENDBRANCH   9  12
BRANCH   8  14
ATOM     14  O   UNL     1     -33.157  -4.544 -21.588  1.00  0.00    -0.504 OA
ATOM     15  H   UNL     1     -33.333  -3.866 -22.320  1.00  0.00     0.293 HD
ENDBRANCH   8  14
TORSDOF 2
ENDMDL
MODEL 6
REMARK VINA RESULT:    -5.456      1.765      4.341
REMARK INTER + INTRA:          -5.775
REMARK INTER:                  -5.775
REMARK INTRA:                   0.000
REMARK UNBOUND:                 0.000
REMARK SMILES O=c1ccc2cc(O)c(O)cc2o1
REMARK SMILES IDX 4 1 3 2 2 3 1 4 13 5 12 6 11 7 9 8 7 9 6 10 5 11 8 12 10 14
REMARK H PARENT 8 13 10 15
REMARK Flexibility Score: inf
ROOT
ATOM      1  C   UNL     1     -37.238  -8.425 -14.336  1.00  0.00     0.019 A 
ATOM      2  C   UNL     1     -38.447  -9.116 -14.391  1.00  0.00     0.094 A 
ATOM      3  C   UNL     1     -39.618  -8.470 -13.981  1.00  0.00     0.336 A 
ATOM      4  O   UNL     1     -40.719  -9.077 -14.024  1.00  0.00    -0.246 OA
ATOM      5  O   UNL     1     -39.575  -7.212 -13.547  1.00  0.00    -0.423 OA
ATOM      6  C   UNL     1     -38.443  -6.516 -13.478  1.00  0.00     0.142 A 
ATOM      7  C   UNL     1     -38.460  -5.198 -13.012  1.00  0.00     0.098 A 
ATOM      8  C   UNL     1     -37.269  -4.460 -12.938  1.00  0.00     0.161 A 
ATOM      9  C   UNL     1     -36.056  -5.045 -13.332  1.00  0.00     0.158 A 
ATOM     10  C   UNL     1     -36.033  -6.366 -13.800  1.00  0.00     0.062 A 
ATOM     11  C   UNL     1     -37.222  -7.105 -13.875  1.00  0.00     0.022 A 
ENDROOT
BRANCH   9  12
ATOM     12  O   UNL     1     -34.878  -4.304 -13.255  1.00  0.00    -0.504 OA
ATOM     13  H   UNL     1     -34.663  -3.732 -12.446  1.00  0.00     0.293 HD
ENDBRANCH   9  12
BRANCH   8  14
ATOM     14  O   UNL     1     -37.282  -3.146 -12.475  1.00  0.00    -0.504 OA
ATOM     15  H   UNL     1     -38.028  -2.505 -12.722  1.00  0.00     0.293 HD
ENDBRANCH   8  14
TORSDOF 2
ENDMDL
MODEL 7
REMARK VINA RESULT:    -5.383      5.566      6.471
REMARK INTER + INTRA:          -5.697
REMARK INTER:                  -5.697
REMARK INTRA:                   0.000
REMARK UNBOUND:                 0.000
REMARK SMILES O=c1ccc2cc(O)c(O)cc2o1
REMARK SMILES IDX 4 1 3 2 2 3 1 4 13 5 12 6 11 7 9 8 7 9 6 10 5 11 8 12 10 14
REMARK H PARENT 8 13 10 15
REMARK Flexibility Score: inf
ROOT
ATOM      1  C   UNL     1     -36.450  -5.428 -18.375  1.00  0.00     0.019 A 
ATOM      2  C   UNL     1     -36.920  -5.357 -17.063  1.00  0.00     0.094 A 
ATOM      3  C   UNL     1     -36.172  -4.656 -16.112  1.00  0.00     0.336 A 
ATOM      4  O   UNL     1     -36.579  -4.580 -14.924  1.00  0.00    -0.246 OA
ATOM      5  O   UNL     1     -35.029  -4.066 -16.456  1.00  0.00    -0.423 OA
ATOM      6  C   UNL     1     -34.545  -4.109 -17.695  1.00  0.00     0.142 A 
ATOM      7  C   UNL     1     -33.339  -3.471 -17.997  1.00  0.00     0.098 A 
ATOM      8  C   UNL     1     -32.825  -3.513 -19.302  1.00  0.00     0.161 A 
ATOM      9  C   UNL     1     -33.522  -4.199 -20.309  1.00  0.00     0.158 A 
ATOM     10  C   UNL     1     -34.733  -4.841 -20.011  1.00  0.00     0.062 A 
ATOM     11  C   UNL     1     -35.247  -4.800 -18.707  1.00  0.00     0.022 A 
ENDROOT
BRANCH   9  12
ATOM     12  O   UNL     1     -33.004  -4.236 -21.602  1.00  0.00    -0.504 OA
ATOM     13  H   UNL     1     -32.218  -3.656 -21.875  1.00  0.00     0.293 HD
ENDBRANCH   9  12
BRANCH   8  14
ATOM     14  O   UNL     1     -31.624  -2.877 -19.607  1.00  0.00    -0.504 OA
ATOM     15  H   UNL     1     -30.729  -3.293 -19.372  1.00  0.00     0.293 HD
ENDBRANCH   8  14
TORSDOF 2
ENDMDL
MODEL 8
REMARK VINA RESULT:    -5.345      2.310      3.381
REMARK INTER + INTRA:          -5.658
REMARK INTER:                  -5.658
REMARK INTRA:                   0.000
REMARK UNBOUND:                 0.000
REMARK SMILES O=c1ccc2cc(O)c(O)cc2o1
REMARK SMILES IDX 4 1 3 2 2 3 1 4 13 5 12 6 11 7 9 8 7 9 6 10 5 11 8 12 10 14
REMARK H PARENT 8 13 10 15
REMARK Flexibility Score: inf
ROOT
ATOM      1  C   UNL     1     -36.504  -6.809 -16.417  1.00  0.00     0.019 A 
ATOM      2  C   UNL     1     -35.885  -5.630 -16.833  1.00  0.00     0.094 A 
ATOM      3  C   UNL     1     -36.192  -4.434 -16.177  1.00  0.00     0.336 A 
ATOM      4  O   UNL     1     -35.644  -3.360 -16.538  1.00  0.00    -0.246 OA
ATOM      5  O   UNL     1     -37.061  -4.423 -15.168  1.00  0.00    -0.423 OA
ATOM      6  C   UNL     1     -37.674  -5.524 -14.739  1.00  0.00     0.142 A 
ATOM      7  C   UNL     1     -38.578  -5.452 -13.676  1.00  0.00     0.098 A 
ATOM      8  C   UNL     1     -39.226  -6.609 -13.219  1.00  0.00     0.161 A 
ATOM      9  C   UNL     1     -38.967  -7.845 -13.831  1.00  0.00     0.158 A 
ATOM     10  C   UNL     1     -38.061  -7.924 -14.898  1.00  0.00     0.062 A 
ATOM     11  C   UNL     1     -37.413  -6.768 -15.356  1.00  0.00     0.022 A 
ENDROOT
BRANCH   9  12
ATOM     12  O   UNL     1     -39.615  -8.990 -13.371  1.00  0.00    -0.504 OA
ATOM     13  H   UNL     1     -39.158  -9.895 -13.373  1.00  0.00     0.293 HD
ENDBRANCH   9  12
BRANCH   8  14
ATOM     14  O   UNL     1     -40.127  -6.540 -12.159  1.00  0.00    -0.504 OA
ATOM     15  H   UNL     1     -40.698  -5.718 -12.001  1.00  0.00     0.293 HD
ENDBRANCH   8  14
TORSDOF 2
ENDMDL
MODEL 9
REMARK VINA RESULT:    -5.291      2.480      4.178
REMARK INTER + INTRA:          -5.600
REMARK INTER:                  -5.600
REMARK INTRA:                   0.000
REMARK UNBOUND:                 0.000
REMARK SMILES O=c1ccc2cc(O)c(O)cc2o1
REMARK SMILES IDX 4 1 3 2 2 3 1 4 13 5 12 6 11 7 9 8 7 9 6 10 5 11 8 12 10 14
REMARK H PARENT 8 13 10 15
REMARK Flexibility Score: inf
ROOT
ATOM      1  C   UNL     1     -37.500  -8.219 -15.991  1.00  0.00     0.019 A 
ATOM      2  C   UNL     1     -38.476  -8.676 -15.105  1.00  0.00     0.094 A 
ATOM      3  C   UNL     1     -38.958  -7.808 -14.120  1.00  0.00     0.336 A 
ATOM      4  O   UNL     1     -39.838  -8.201 -13.311  1.00  0.00    -0.246 OA
ATOM      5  O   UNL     1     -38.491  -6.564 -14.032  1.00  0.00    -0.423 OA
ATOM      6  C   UNL     1     -37.561  -6.088 -14.856  1.00  0.00     0.142 A 
ATOM      7  C   UNL     1     -37.109  -4.773 -14.716  1.00  0.00     0.098 A 
ATOM      8  C   UNL     1     -36.129  -4.267 -15.583  1.00  0.00     0.161 A 
ATOM      9  C   UNL     1     -35.599  -5.081 -16.595  1.00  0.00     0.158 A 
ATOM     10  C   UNL     1     -36.049  -6.401 -16.740  1.00  0.00     0.062 A 
ATOM     11  C   UNL     1     -37.028  -6.909 -15.875  1.00  0.00     0.022 A 
ENDROOT
BRANCH   9  12
ATOM     12  O   UNL     1     -34.626  -4.570 -17.451  1.00  0.00    -0.504 OA
ATOM     13  H   UNL     1     -33.944  -3.890 -17.132  1.00  0.00     0.293 HD
ENDBRANCH   9  12
BRANCH   8  14
ATOM     14  O   UNL     1     -35.677  -2.956 -15.445  1.00  0.00    -0.504 OA
ATOM     15  H   UNL     1     -35.379  -2.589 -14.548  1.00  0.00     0.293 HD
ENDBRANCH   8  14
TORSDOF 2
ENDMDL
