MODEL 1
REMARK VINA RESULT:    -3.805      0.000      0.000
REMARK INTER + INTRA:          -7.013
REMARK INTER:                  -6.029
REMARK INTRA:                  -0.984
REMARK UNBOUND:                -0.984
REMARK SMILES CCCCCCCCCCCC(=O)[O-]
REMARK SMILES IDX 7 1 8 2 9 3 10 4 11 5 12 6 13 7 14 8 6 9 5 10 4 11 3 12 2 13
REMARK SMILES IDX 1 14
REMARK H PARENT
REMARK Flexibility Score: inf
ROOT
ATOM      1  C   UNL     1      -0.001   7.901  -1.824  1.00  0.00     0.000 C 
ENDROOT
BRANCH   1   2
ATOM      2  C   UNL     1       0.337   7.985  -0.326  1.00  0.00     0.000 C 
BRANCH   2   3
ATOM      3  C   UNL     1       1.076   6.742   0.214  1.00  0.00     0.000 C 
BRANCH   3   4
ATOM      4  C   UNL     1       1.427   6.881   1.706  1.00  0.00     0.006 C 
BRANCH   4   5
ATOM      5  C   UNL     1       0.415   6.166   2.611  1.00  0.00     0.053 C 
BRANCH   5   6
ATOM      6  C   UNL     1       0.698   4.698   2.709  1.00  0.00     0.041 C 
ATOM      7  O   UNL     1       1.842   4.294   3.048  1.00  0.00    -0.550 OA
ATOM      8  O   UNL     1      -0.292   3.778   2.392  1.00  0.00    -0.550 OA
ENDBRANCH   5   6
ENDBRANCH   4   5
ENDBRANCH   3   4
ENDBRANCH   2   3
ENDBRANCH   1   2
BRANCH   1   9
ATOM      9  C   UNL     1       0.605   9.057  -2.638  1.00  0.00     0.000 C 
BRANCH   9  10
ATOM     10  C   UNL     1       1.818   8.618  -3.474  1.00  0.00    -0.000 C 
BRANCH  10  11
ATOM     11  C   UNL     1       1.785   7.121  -3.827  1.00  0.00    -0.000 C 
BRANCH  11  12
ATOM     12  C   UNL     1       3.134   6.426  -3.582  1.00  0.00    -0.000 C 
BRANCH  12  13
ATOM     13  C   UNL     1       3.878   6.996  -2.365  1.00  0.00    -0.003 C 
ATOM     14  C   UNL     1       4.799   5.950  -1.745  1.00  0.00     0.004 C 
ENDBRANCH  12  13
ENDBRANCH  11  12
ENDBRANCH  10  11
ENDBRANCH   9  10
ENDBRANCH   1   9
TORSDOF 10
ENDMDL
MODEL 2
REMARK VINA RESULT:    -3.787      0.939      1.741
REMARK INTER + INTRA:          -6.985
REMARK INTER:                  -5.873
REMARK INTRA:                  -1.112
REMARK UNBOUND:                -0.984
REMARK SMILES CCCCCCCCCCCC(=O)[O-]
REMARK SMILES IDX 7 1 8 2 9 3 10 4 11 5 12 6 13 7 14 8 6 9 5 10 4 11 3 12 2 13
REMARK SMILES IDX 1 14
REMARK H PARENT
REMARK Flexibility Score: inf
ROOT
ATOM      1  C   UNL     1      -0.642   8.928  -0.347  1.00  0.00     0.000 C 
ENDROOT
BRANCH   1   2
ATOM      2  C   UNL     1       0.620   8.503   0.422  1.00  0.00     0.000 C 
BRANCH   2   3
ATOM      3  C   UNL     1       0.965   7.007   0.270  1.00  0.00     0.000 C 
BRANCH   3   4
ATOM      4  C   UNL     1       1.398   6.373   1.603  1.00  0.00     0.006 C 
BRANCH   4   5
ATOM      5  C   UNL     1       0.200   5.974   2.475  1.00  0.00     0.053 C 
BRANCH   5   6
ATOM      6  C   UNL     1       0.162   4.497   2.723  1.00  0.00     0.041 C 
ATOM      7  O   UNL     1      -0.942   3.890   2.763  1.00  0.00    -0.550 OA
ATOM      8  O   UNL     1       1.340   3.799   2.945  1.00  0.00    -0.550 OA
ENDBRANCH   5   6
ENDBRANCH   4   5
ENDBRANCH   3   4
ENDBRANCH   2   3
ENDBRANCH   1   2
BRANCH   1   9
ATOM      9  C   UNL     1      -0.557   8.615  -1.851  1.00  0.00     0.000 C 
BRANCH   9  10
ATOM     10  C   UNL     1       0.406   9.555  -2.595  1.00  0.00    -0.000 C 
BRANCH  10  11
ATOM     11  C   UNL     1       1.381   8.799  -3.515  1.00  0.00    -0.000 C 
BRANCH  11  12
ATOM     12  C   UNL     1       2.714   8.474  -2.823  1.00  0.00    -0.000 C 
BRANCH  12  13
ATOM     13  C   UNL     1       3.033   6.972  -2.833  1.00  0.00    -0.003 C 
ATOM     14  C   UNL     1       1.866   6.167  -3.395  1.00  0.00     0.004 C 
ENDBRANCH  12  13
ENDBRANCH  11  12
ENDBRANCH  10  11
ENDBRANCH   9  10
ENDBRANCH   1   9
TORSDOF 10
ENDMDL
MODEL 3
REMARK VINA RESULT:    -3.732      1.585      2.602
REMARK INTER + INTRA:          -6.898
REMARK INTER:                  -6.284
REMARK INTRA:                  -0.614
REMARK UNBOUND:                -0.984
REMARK SMILES CCCCCCCCCCCC(=O)[O-]
REMARK SMILES IDX 7 1 8 2 9 3 10 4 11 5 12 6 13 7 14 8 6 9 5 10 4 11 3 12 2 13
REMARK SMILES IDX 1 14
REMARK H PARENT
REMARK Flexibility Score: inf
ROOT
ATOM      1  C   UNL     1       0.093   8.423   0.871  1.00  0.00     0.000 C 
ENDROOT
BRANCH   1   2
ATOM      2  C   UNL     1      -0.590   8.321   2.246  1.00  0.00     0.000 C 
BRANCH   2   3
ATOM      3  C   UNL     1      -0.277   7.010   2.998  1.00  0.00     0.000 C 
BRANCH   3   4
ATOM      4  C   UNL     1       0.435   5.983   2.100  1.00  0.00     0.006 C 
BRANCH   4   5
ATOM      5  C   UNL     1       1.010   4.809   2.902  1.00  0.00     0.053 C 
BRANCH   5   6
ATOM      6  C   UNL     1      -0.043   3.798   3.240  1.00  0.00     0.041 C 
ATOM      7  O   UNL     1      -0.732   3.272   2.326  1.00  0.00    -0.550 OA
ATOM      8  O   UNL     1      -0.286   3.464   4.565  1.00  0.00    -0.550 OA
ENDBRANCH   5   6
ENDBRANCH   4   5
ENDBRANCH   3   4
ENDBRANCH   2   3
ENDBRANCH   1   2
BRANCH   1   9
ATOM      9  C   UNL     1      -0.845   8.967  -0.220  1.00  0.00     0.000 C 
BRANCH   9  10
ATOM     10  C   UNL     1      -0.533   8.386  -1.609  1.00  0.00    -0.000 C 
BRANCH  10  11
ATOM     11  C   UNL     1       0.312   9.338  -2.475  1.00  0.00    -0.000 C 
BRANCH  11  12
ATOM     12  C   UNL     1       1.374   8.597  -3.302  1.00  0.00    -0.000 C 
BRANCH  12  13
ATOM     13  C   UNL     1       1.452   7.102  -2.959  1.00  0.00    -0.003 C 
ATOM     14  C   UNL     1       2.346   6.358  -3.946  1.00  0.00     0.004 C 
ENDBRANCH  12  13
ENDBRANCH  11  12
ENDBRANCH  10  11
ENDBRANCH   9  10
ENDBRANCH   1   9
TORSDOF 10
ENDMDL
MODEL 4
REMARK VINA RESULT:    -3.718      0.884      1.635
REMARK INTER + INTRA:          -6.875
REMARK INTER:                  -5.888
REMARK INTRA:                  -0.987
REMARK UNBOUND:                -0.984
REMARK SMILES CCCCCCCCCCCC(=O)[O-]
REMARK SMILES IDX 7 1 8 2 9 3 10 4 11 5 12 6 13 7 14 8 6 9 5 10 4 11 3 12 2 13
REMARK SMILES IDX 1 14
REMARK H PARENT
REMARK Flexibility Score: inf
ROOT
ATOM      1  C   UNL     1       0.580   8.954  -2.659  1.00  0.00     0.000 C 
ENDROOT
BRANCH   1   2
ATOM      2  C   UNL     1      -0.011   7.818  -1.809  1.00  0.00     0.000 C 
BRANCH   2   3
ATOM      3  C   UNL     1       0.361   7.904  -0.313  1.00  0.00     0.000 C 
BRANCH   3   4
ATOM      4  C   UNL     1       1.239   6.723   0.135  1.00  0.00     0.006 C 
BRANCH   4   5
ATOM      5  C   UNL     1       1.464   6.707   1.652  1.00  0.00     0.053 C 
BRANCH   5   6
ATOM      6  C   UNL     1       0.448   5.860   2.356  1.00  0.00     0.041 C 
ATOM      7  O   UNL     1      -0.255   6.349   3.280  1.00  0.00    -0.550 OA
ATOM      8  O   UNL     1       0.304   4.522   2.015  1.00  0.00    -0.550 OA
ENDBRANCH   5   6
ENDBRANCH   4   5
ENDBRANCH   3   4
ENDBRANCH   2   3
ENDBRANCH   1   2
BRANCH   1   9
ATOM      9  C   UNL     1       1.632   8.460  -3.667  1.00  0.00     0.000 C 
BRANCH   9  10
ATOM     10  C   UNL     1       1.729   6.926  -3.713  1.00  0.00    -0.000 C 
BRANCH  10  11
ATOM     11  C   UNL     1       3.182   6.422  -3.685  1.00  0.00    -0.000 C 
BRANCH  11  12
ATOM     12  C   UNL     1       3.942   6.882  -2.431  1.00  0.00    -0.000 C 
BRANCH  12  13
ATOM     13  C   UNL     1       4.839   5.781  -1.847  1.00  0.00    -0.003 C 
ATOM     14  C   UNL     1       5.546   6.261  -0.584  1.00  0.00     0.004 C 
ENDBRANCH  12  13
ENDBRANCH  11  12
ENDBRANCH  10  11
ENDBRANCH   9  10
ENDBRANCH   1   9
TORSDOF 10
ENDMDL
MODEL 5
REMARK VINA RESULT:    -3.661      2.848      6.319
REMARK INTER + INTRA:          -6.785
REMARK INTER:                  -6.141
REMARK INTRA:                  -0.644
REMARK UNBOUND:                -0.984
REMARK SMILES CCCCCCCCCCCC(=O)[O-]
REMARK SMILES IDX 7 1 8 2 9 3 10 4 11 5 12 6 13 7 14 8 6 9 5 10 4 11 3 12 2 13
REMARK SMILES IDX 1 14
REMARK H PARENT
REMARK Flexibility Score: inf
ROOT
ATOM      1  C   UNL     1      -0.617   8.241   2.334  1.00  0.00     0.000 C 
ENDROOT
BRANCH   1   2
ATOM      2  C   UNL     1       0.075   8.343   0.964  1.00  0.00     0.000 C 
BRANCH   2   3
ATOM      3  C   UNL     1      -0.686   9.223  -0.050  1.00  0.00     0.000 C 
BRANCH   3   4
ATOM      4  C   UNL     1      -0.868   8.517  -1.406  1.00  0.00     0.006 C 
BRANCH   4   5
ATOM      5  C   UNL     1       0.356   8.680  -2.316  1.00  0.00     0.053 C 
BRANCH   5   6
ATOM      6  C   UNL     1       0.986   7.360  -2.642  1.00  0.00     0.041 C 
ATOM      7  O   UNL     1       1.683   7.230  -3.683  1.00  0.00    -0.550 OA
ATOM      8  O   UNL     1       0.773   6.266  -1.815  1.00  0.00    -0.550 OA
ENDBRANCH   5   6
ENDBRANCH   4   5
ENDBRANCH   3   4
ENDBRANCH   2   3
ENDBRANCH   1   2
BRANCH   1   9
ATOM      9  C   UNL     1      -0.293   6.929   3.069  1.00  0.00     0.000 C 
BRANCH   9  10
ATOM     10  C   UNL     1       0.412   5.905   2.164  1.00  0.00    -0.000 C 
BRANCH  10  11
ATOM     11  C   UNL     1       0.862   4.647   2.929  1.00  0.00    -0.000 C 
BRANCH  11  12
ATOM     12  C   UNL     1      -0.312   3.719   3.279  1.00  0.00    -0.000 C 
BRANCH  12  13
ATOM     13  C   UNL     1      -0.162   3.074   4.664  1.00  0.00    -0.003 C 
ATOM     14  C   UNL     1      -0.486   4.072   5.772  1.00  0.00     0.004 C 
ENDBRANCH  12  13
ENDBRANCH  11  12
ENDBRANCH  10  11
ENDBRANCH   9  10
ENDBRANCH   1   9
TORSDOF 10
ENDMDL
MODEL 6
REMARK VINA RESULT:    -3.659      2.968      5.828
REMARK INTER + INTRA:          -6.781
REMARK INTER:                  -6.172
REMARK INTRA:                  -0.609
REMARK UNBOUND:                -0.984
REMARK SMILES CCCCCCCCCCCC(=O)[O-]
REMARK SMILES IDX 7 1 8 2 9 3 10 4 11 5 12 6 13 7 14 8 6 9 5 10 4 11 3 12 2 13
REMARK SMILES IDX 1 14
REMARK H PARENT
REMARK Flexibility Score: inf
ROOT
ATOM      1  C   UNL     1      -0.171   8.605  -0.847  1.00  0.00     0.000 C 
ENDROOT
BRANCH   1   2
ATOM      2  C   UNL     1       0.301   7.949  -2.155  1.00  0.00     0.000 C 
BRANCH   2   3
ATOM      3  C   UNL     1       1.090   6.640  -1.942  1.00  0.00     0.000 C 
BRANCH   3   4
ATOM      4  C   UNL     1       2.079   6.366  -3.089  1.00  0.00     0.006 C 
BRANCH   4   5
ATOM      5  C   UNL     1       3.338   7.238  -2.992  1.00  0.00     0.053 C 
BRANCH   5   6
ATOM      6  C   UNL     1       4.589   6.416  -3.055  1.00  0.00     0.041 C 
ATOM      7  O   UNL     1       4.840   5.575  -2.151  1.00  0.00    -0.550 OA
ATOM      8  O   UNL     1       5.493   6.604  -4.091  1.00  0.00    -0.550 OA
ENDBRANCH   5   6
ENDBRANCH   4   5
ENDBRANCH   3   4
ENDBRANCH   2   3
ENDBRANCH   1   2
BRANCH   1   9
ATOM      9  C   UNL     1       0.886   8.538   0.269  1.00  0.00     0.000 C 
BRANCH   9  10
ATOM     10  C   UNL     1       0.332   7.933   1.569  1.00  0.00    -0.000 C 
BRANCH  10  11
ATOM     11  C   UNL     1       0.815   6.491   1.806  1.00  0.00    -0.000 C 
BRANCH  11  12
ATOM     12  C   UNL     1      -0.068   5.731   2.809  1.00  0.00    -0.000 C 
BRANCH  12  13
ATOM     13  C   UNL     1       0.353   4.263   2.970  1.00  0.00    -0.003 C 
ATOM     14  C   UNL     1      -0.833   3.326   2.767  1.00  0.00     0.004 C 
ENDBRANCH  12  13
ENDBRANCH  11  12
ENDBRANCH  10  11
ENDBRANCH   9  10
ENDBRANCH   1   9
TORSDOF 10
ENDMDL
MODEL 7
REMARK VINA RESULT:    -3.638      2.752      4.564
REMARK INTER + INTRA:          -6.749
REMARK INTER:                  -5.689
REMARK INTRA:                  -1.060
REMARK UNBOUND:                -0.984
REMARK SMILES CCCCCCCCCCCC(=O)[O-]
REMARK SMILES IDX 7 1 8 2 9 3 10 4 11 5 12 6 13 7 14 8 6 9 5 10 4 11 3 12 2 13
REMARK SMILES IDX 1 14
REMARK H PARENT
REMARK Flexibility Score: inf
ROOT
ATOM      1  C   UNL     1       2.558   6.516  -3.855  1.00  0.00     0.000 C 
ENDROOT
BRANCH   1   2
ATOM      2  C   UNL     1       4.063   6.420  -3.552  1.00  0.00     0.000 C 
BRANCH   2   3
ATOM      3  C   UNL     1       4.434   6.839  -2.114  1.00  0.00     0.000 C 
BRANCH   3   4
ATOM      4  C   UNL     1       5.160   5.715  -1.353  1.00  0.00     0.006 C 
BRANCH   4   5
ATOM      5  C   UNL     1       5.625   6.162   0.039  1.00  0.00     0.053 C 
BRANCH   5   6
ATOM      6  C   UNL     1       5.658   5.019   1.007  1.00  0.00     0.041 C 
ATOM      7  O   UNL     1       4.934   5.040   2.038  1.00  0.00    -0.550 OA
ATOM      8  O   UNL     1       6.515   3.948   0.789  1.00  0.00    -0.550 OA
ENDBRANCH   5   6
ENDBRANCH   4   5
ENDBRANCH   3   4
ENDBRANCH   2   3
ENDBRANCH   1   2
BRANCH   1   9
ATOM      9  C   UNL     1       1.683   6.027  -2.689  1.00  0.00     0.000 C 
BRANCH   9  10
ATOM     10  C   UNL     1       0.629   7.063  -2.267  1.00  0.00    -0.000 C 
BRANCH  10  11
ATOM     11  C   UNL     1       1.138   8.016  -1.171  1.00  0.00    -0.000 C 
BRANCH  11  12
ATOM     12  C   UNL     1       1.580   9.377  -1.732  1.00  0.00    -0.000 C 
BRANCH  12  13
ATOM     13  C   UNL     1       0.758   9.807  -2.955  1.00  0.00    -0.003 C 
ATOM     14  C   UNL     1       1.663  10.125  -4.141  1.00  0.00     0.004 C 
ENDBRANCH  12  13
ENDBRANCH  11  12
ENDBRANCH  10  11
ENDBRANCH   9  10
ENDBRANCH   1   9
TORSDOF 10
ENDMDL
MODEL 8
REMARK VINA RESULT:    -3.624      1.877      3.130
REMARK INTER + INTRA:          -6.726
REMARK INTER:                  -6.154
REMARK INTRA:                  -0.572
REMARK UNBOUND:                -0.984
REMARK SMILES CCCCCCCCCCCC(=O)[O-]
REMARK SMILES IDX 7 1 8 2 9 3 10 4 11 5 12 6 13 7 14 8 6 9 5 10 4 11 3 12 2 13
REMARK SMILES IDX 1 14
REMARK H PARENT
REMARK Flexibility Score: inf
ROOT
ATOM      1  C   UNL     1      -0.415   8.591   2.118  1.00  0.00     0.000 C 
ENDROOT
BRANCH   1   2
ATOM      2  C   UNL     1      -0.226   7.305   2.939  1.00  0.00     0.000 C 
BRANCH   2   3
ATOM      3  C   UNL     1       0.595   6.219   2.212  1.00  0.00     0.000 C 
BRANCH   3   4
ATOM      4  C   UNL     1       0.189   4.799   2.643  1.00  0.00     0.006 C 
BRANCH   4   5
ATOM      5  C   UNL     1       1.313   4.076   3.396  1.00  0.00     0.053 C 
BRANCH   5   6
ATOM      6  C   UNL     1       1.079   4.073   4.875  1.00  0.00     0.041 C 
ATOM      7  O   UNL     1       1.805   4.769   5.633  1.00  0.00    -0.550 OA
ATOM      8  O   UNL     1       0.082   3.275   5.420  1.00  0.00    -0.550 OA
ENDBRANCH   5   6
ENDBRANCH   4   5
ENDBRANCH   3   4
ENDBRANCH   2   3
ENDBRANCH   1   2
BRANCH   1   9
ATOM      9  C   UNL     1       0.085   8.452   0.670  1.00  0.00     0.000 C 
BRANCH   9  10
ATOM     10  C   UNL     1      -0.948   8.939  -0.360  1.00  0.00    -0.000 C 
BRANCH  10  11
ATOM     11  C   UNL     1      -0.579   8.547  -1.801  1.00  0.00    -0.000 C 
BRANCH  11  12
ATOM     12  C   UNL     1       0.429   7.388  -1.858  1.00  0.00    -0.000 C 
BRANCH  12  13
ATOM     13  C   UNL     1       1.482   7.575  -2.959  1.00  0.00    -0.003 C 
ATOM     14  C   UNL     1       1.828   6.244  -3.620  1.00  0.00     0.004 C 
ENDBRANCH  12  13
ENDBRANCH  11  12
ENDBRANCH  10  11
ENDBRANCH   9  10
ENDBRANCH   1   9
TORSDOF 10
ENDMDL
MODEL 9
REMARK VINA RESULT:    -3.588      1.746      3.356
REMARK INTER + INTRA:          -6.670
REMARK INTER:                  -5.108
REMARK INTRA:                  -1.562
REMARK UNBOUND:                -0.984
REMARK SMILES CCCCCCCCCCCC(=O)[O-]
REMARK SMILES IDX 7 1 8 2 9 3 10 4 11 5 12 6 13 7 14 8 6 9 5 10 4 11 3 12 2 13
REMARK SMILES IDX 1 14
REMARK H PARENT
REMARK Flexibility Score: inf
ROOT
ATOM      1  C   UNL     1       2.533   6.723  -3.748  1.00  0.00     0.000 C 
ENDROOT
BRANCH   1   2
ATOM      2  C   UNL     1       1.640   6.206  -2.608  1.00  0.00     0.000 C 
BRANCH   2   3
ATOM      3  C   UNL     1       0.592   7.232  -2.127  1.00  0.00     0.000 C 
BRANCH   3   4
ATOM      4  C   UNL     1       0.970   7.852  -0.770  1.00  0.00     0.006 C 
BRANCH   4   5
ATOM      5  C   UNL     1       1.645   6.840   0.164  1.00  0.00     0.053 C 
BRANCH   5   6
ATOM      6  C   UNL     1       0.824   6.581   1.390  1.00  0.00     0.041 C 
ATOM      7  O   UNL     1       0.292   7.540   2.011  1.00  0.00    -0.550 OA
ATOM      8  O   UNL     1       0.675   5.286   1.867  1.00  0.00    -0.550 OA
ENDBRANCH   5   6
ENDBRANCH   4   5
ENDBRANCH   3   4
ENDBRANCH   2   3
ENDBRANCH   1   2
BRANCH   1   9
ATOM      9  C   UNL     1       3.991   6.250  -3.625  1.00  0.00     0.000 C 
BRANCH   9  10
ATOM     10  C   UNL     1       4.410   6.005  -2.166  1.00  0.00    -0.000 C 
BRANCH  10  11
ATOM     11  C   UNL     1       5.412   7.054  -1.652  1.00  0.00    -0.000 C 
BRANCH  11  12
ATOM     12  C   UNL     1       4.721   8.320  -1.122  1.00  0.00    -0.000 C 
BRANCH  12  13
ATOM     13  C   UNL     1       4.858   9.511  -2.081  1.00  0.00    -0.003 C 
ATOM     14  C   UNL     1       3.490  10.063  -2.470  1.00  0.00     0.004 C 
ENDBRANCH  12  13
ENDBRANCH  11  12
ENDBRANCH  10  11
ENDBRANCH   9  10
ENDBRANCH   1   9
TORSDOF 10
ENDMDL
