MODEL 1
REMARK VINA RESULT:    -3.585      0.000      0.000
REMARK INTER + INTRA:          -4.251
REMARK INTER:                  -4.213
REMARK INTRA:                  -0.037
REMARK UNBOUND:                -0.037
REMARK SMILES O=C([O-])CCC(=O)[O-]
REMARK SMILES IDX 4 1 2 2 1 3 3 4 5 5 6 6 7 7 8 8
REMARK H PARENT
REMARK Flexibility Score: inf
ROOT
ATOM      1  C   UNL     1      -8.884  11.822 -32.208  1.00  0.00     0.059 C 
ENDROOT
BRANCH   1   2
ATOM      2  C   UNL     1      -9.214  10.710 -33.153  1.00  0.00     0.042 C 
ATOM      3  O   UNL     1      -8.376  10.342 -34.017  1.00  0.00    -0.550 OA
ATOM      4  O   UNL     1     -10.431  10.047 -33.046  1.00  0.00    -0.550 OA
ENDBRANCH   1   2
BRANCH   1   5
ATOM      5  C   UNL     1      -7.371  11.917 -32.002  1.00  0.00     0.059 C 
BRANCH   5   6
ATOM      6  C   UNL     1      -7.054  12.172 -30.562  1.00  0.00     0.042 C 
ATOM      7  O   UNL     1      -7.385  13.261 -30.024  1.00  0.00    -0.550 OA
ATOM      8  O   UNL     1      -6.437  11.187 -29.802  1.00  0.00    -0.550 OA
ENDBRANCH   5   6
ENDBRANCH   1   5
TORSDOF 3
ENDMDL
MODEL 2
REMARK VINA RESULT:    -3.536     17.885     18.338
REMARK INTER + INTRA:          -4.194
REMARK INTER:                  -4.112
REMARK INTRA:                  -0.082
REMARK UNBOUND:                -0.037
REMARK SMILES O=C([O-])CCC(=O)[O-]
REMARK SMILES IDX 4 1 2 2 1 3 3 4 5 5 6 6 7 7 8 8
REMARK H PARENT
REMARK Flexibility Score: inf
ROOT
ATOM      1  C   UNL     1     -14.089  -1.557 -19.207  1.00  0.00     0.059 C 
ENDROOT
BRANCH   1   2
ATOM      2  C   UNL     1     -13.335  -2.717 -19.777  1.00  0.00     0.042 C 
ATOM      3  O   UNL     1     -13.318  -2.913 -21.021  1.00  0.00    -0.550 OA
ATOM      4  O   UNL     1     -12.609  -3.553 -18.937  1.00  0.00    -0.550 OA
ENDBRANCH   1   2
BRANCH   1   5
ATOM      5  C   UNL     1     -14.893  -0.853 -20.302  1.00  0.00     0.059 C 
BRANCH   5   6
ATOM      6  C   UNL     1     -14.486   0.583 -20.408  1.00  0.00     0.042 C 
ATOM      7  O   UNL     1     -14.932   1.430 -19.590  1.00  0.00    -0.550 OA
ATOM      8  O   UNL     1     -13.576   0.977 -21.380  1.00  0.00    -0.550 OA
ENDBRANCH   5   6
ENDBRANCH   1   5
TORSDOF 3
ENDMDL
MODEL 3
REMARK VINA RESULT:    -3.460     17.052     17.598
REMARK INTER + INTRA:          -4.105
REMARK INTER:                  -4.008
REMARK INTRA:                  -0.096
REMARK UNBOUND:                -0.037
REMARK SMILES O=C([O-])CCC(=O)[O-]
REMARK SMILES IDX 4 1 2 2 1 3 3 4 5 5 6 6 7 7 8 8
REMARK H PARENT
REMARK Flexibility Score: inf
ROOT
ATOM      1  C   UNL     1     -14.867   0.466 -19.426  1.00  0.00     0.059 C 
ENDROOT
BRANCH   1   2
ATOM      2  C   UNL     1     -14.670  -0.948 -19.875  1.00  0.00     0.042 C 
ATOM      3  O   UNL     1     -15.282  -1.384 -20.885  1.00  0.00    -0.550 OA
ATOM      4  O   UNL     1     -13.771  -1.770 -19.205  1.00  0.00    -0.550 OA
ENDBRANCH   1   2
BRANCH   1   5
ATOM      5  C   UNL     1     -14.684   1.430 -20.600  1.00  0.00     0.059 C 
BRANCH   5   6
ATOM      6  C   UNL     1     -15.945   2.197 -20.847  1.00  0.00     0.042 C 
ATOM      7  O   UNL     1     -16.663   1.931 -21.846  1.00  0.00    -0.550 OA
ATOM      8  O   UNL     1     -16.351   3.175 -19.948  1.00  0.00    -0.550 OA
ENDBRANCH   5   6
ENDBRANCH   1   5
TORSDOF 3
ENDMDL
MODEL 4
REMARK VINA RESULT:    -3.448     17.044     17.576
REMARK INTER + INTRA:          -4.090
REMARK INTER:                  -3.982
REMARK INTRA:                  -0.108
REMARK UNBOUND:                -0.037
REMARK SMILES O=C([O-])CCC(=O)[O-]
REMARK SMILES IDX 4 1 2 2 1 3 3 4 5 5 6 6 7 7 8 8
REMARK H PARENT
REMARK Flexibility Score: inf
ROOT
ATOM      1  C   UNL     1     -14.553   1.285 -20.587  1.00  0.00     0.059 C 
ENDROOT
BRANCH   1   2
ATOM      2  C   UNL     1     -15.809   1.934 -21.076  1.00  0.00     0.042 C 
ATOM      3  O   UNL     1     -16.441   1.441 -22.047  1.00  0.00    -0.550 OA
ATOM      4  O   UNL     1     -16.308   3.058 -20.428  1.00  0.00    -0.550 OA
ENDBRANCH   1   2
BRANCH   1   5
ATOM      5  C   UNL     1     -14.861   0.325 -19.436  1.00  0.00     0.059 C 
BRANCH   5   6
ATOM      6  C   UNL     1     -14.473  -1.072 -19.802  1.00  0.00     0.042 C 
ATOM      7  O   UNL     1     -13.731  -1.744 -19.039  1.00  0.00    -0.550 OA
ATOM      8  O   UNL     1     -14.971  -1.650 -20.962  1.00  0.00    -0.550 OA
ENDBRANCH   5   6
ENDBRANCH   1   5
TORSDOF 3
ENDMDL
MODEL 5
REMARK VINA RESULT:    -3.420     12.847     13.676
REMARK INTER + INTRA:          -4.058
REMARK INTER:                  -3.937
REMARK INTRA:                  -0.121
REMARK UNBOUND:                -0.037
REMARK SMILES O=C([O-])CCC(=O)[O-]
REMARK SMILES IDX 4 1 2 2 1 3 3 4 5 5 6 6 7 7 8 8
REMARK H PARENT
REMARK Flexibility Score: inf
ROOT
ATOM      1  C   UNL     1     -13.154   7.454 -20.628  1.00  0.00     0.059 C 
ENDROOT
BRANCH   1   2
ATOM      2  C   UNL     1     -13.929   8.549 -19.966  1.00  0.00     0.042 C 
ATOM      3  O   UNL     1     -15.167   8.423 -19.775  1.00  0.00    -0.550 OA
ATOM      4  O   UNL     1     -13.275   9.689 -19.516  1.00  0.00    -0.550 OA
ENDBRANCH   1   2
BRANCH   1   5
ATOM      5  C   UNL     1     -13.964   6.156 -20.638  1.00  0.00     0.059 C 
BRANCH   5   6
ATOM      6  C   UNL     1     -14.367   5.802 -22.035  1.00  0.00     0.042 C 
ATOM      7  O   UNL     1     -15.247   6.477 -22.631  1.00  0.00    -0.550 OA
ATOM      8  O   UNL     1     -13.735   4.757 -22.696  1.00  0.00    -0.550 OA
ENDBRANCH   5   6
ENDBRANCH   1   5
TORSDOF 3
ENDMDL
MODEL 6
REMARK VINA RESULT:    -3.419     16.002     16.510
REMARK INTER + INTRA:          -4.056
REMARK INTER:                  -3.946
REMARK INTRA:                  -0.111
REMARK UNBOUND:                -0.037
REMARK SMILES O=C([O-])CCC(=O)[O-]
REMARK SMILES IDX 4 1 2 2 1 3 3 4 5 5 6 6 7 7 8 8
REMARK H PARENT
REMARK Flexibility Score: inf
ROOT
ATOM      1  C   UNL     1     -14.886   1.376 -19.868  1.00  0.00     0.059 C 
ENDROOT
BRANCH   1   2
ATOM      2  C   UNL     1     -14.040   0.812 -20.966  1.00  0.00     0.042 C 
ATOM      3  O   UNL     1     -13.583  -0.357 -20.877  1.00  0.00    -0.550 OA
ATOM      4  O   UNL     1     -13.798   1.562 -22.111  1.00  0.00    -0.550 OA
ENDBRANCH   1   2
BRANCH   1   5
ATOM      5  C   UNL     1     -15.097   2.877 -20.073  1.00  0.00     0.059 C 
BRANCH   5   6
ATOM      6  C   UNL     1     -16.508   3.155 -20.487  1.00  0.00     0.042 C 
ATOM      7  O   UNL     1     -17.193   4.010 -19.867  1.00  0.00    -0.550 OA
ATOM      8  O   UNL     1     -17.051   2.503 -21.586  1.00  0.00    -0.550 OA
ENDBRANCH   5   6
ENDBRANCH   1   5
TORSDOF 3
ENDMDL
MODEL 7
REMARK VINA RESULT:    -3.419     16.536     17.041
REMARK INTER + INTRA:          -4.056
REMARK INTER:                  -4.012
REMARK INTRA:                  -0.044
REMARK UNBOUND:                -0.037
REMARK SMILES O=C([O-])CCC(=O)[O-]
REMARK SMILES IDX 4 1 2 2 1 3 3 4 5 5 6 6 7 7 8 8
REMARK H PARENT
REMARK Flexibility Score: inf
ROOT
ATOM      1  C   UNL     1     -14.634   0.306 -20.091  1.00  0.00     0.059 C 
ENDROOT
BRANCH   1   2
ATOM      2  C   UNL     1     -14.458  -1.160 -19.850  1.00  0.00     0.042 C 
ATOM      3  O   UNL     1     -14.176  -1.584 -18.698  1.00  0.00    -0.550 OA
ATOM      4  O   UNL     1     -14.654  -2.063 -20.888  1.00  0.00    -0.550 OA
ENDBRANCH   1   2
BRANCH   1   5
ATOM      5  C   UNL     1     -13.819   0.749 -21.308  1.00  0.00     0.059 C 
BRANCH   5   6
ATOM      6  C   UNL     1     -14.407   1.986 -21.909  1.00  0.00     0.042 C 
ATOM      7  O   UNL     1     -15.448   2.496 -21.417  1.00  0.00    -0.550 OA
ATOM      8  O   UNL     1     -13.780   2.602 -22.983  1.00  0.00    -0.550 OA
ENDBRANCH   5   6
ENDBRANCH   1   5
TORSDOF 3
ENDMDL
MODEL 8
REMARK VINA RESULT:    -3.414     16.013     16.536
REMARK INTER + INTRA:          -4.050
REMARK INTER:                  -3.937
REMARK INTRA:                  -0.113
REMARK UNBOUND:                -0.037
REMARK SMILES O=C([O-])CCC(=O)[O-]
REMARK SMILES IDX 4 1 2 2 1 3 3 4 5 5 6 6 7 7 8 8
REMARK H PARENT
REMARK Flexibility Score: inf
ROOT
ATOM      1  C   UNL     1     -15.041   2.844 -20.108  1.00  0.00     0.059 C 
ENDROOT
BRANCH   1   2
ATOM      2  C   UNL     1     -16.449   3.120 -20.531  1.00  0.00     0.042 C 
ATOM      3  O   UNL     1     -17.159   3.929 -19.878  1.00  0.00    -0.550 OA
ATOM      4  O   UNL     1     -16.961   2.520 -21.675  1.00  0.00    -0.550 OA
ENDBRANCH   1   2
BRANCH   1   5
ATOM      5  C   UNL     1     -14.845   1.349 -19.847  1.00  0.00     0.059 C 
BRANCH   5   6
ATOM      6  C   UNL     1     -14.022   0.732 -20.933  1.00  0.00     0.042 C 
ATOM      7  O   UNL     1     -13.614  -0.454 -20.824  1.00  0.00    -0.550 OA
ATOM      8  O   UNL     1     -13.745   1.451 -22.089  1.00  0.00    -0.550 OA
ENDBRANCH   5   6
ENDBRANCH   1   5
TORSDOF 3
ENDMDL
MODEL 9
REMARK VINA RESULT:    -3.412     17.474     18.015
REMARK INTER + INTRA:          -4.047
REMARK INTER:                  -3.989
REMARK INTRA:                  -0.058
REMARK UNBOUND:                -0.037
REMARK SMILES O=C([O-])CCC(=O)[O-]
REMARK SMILES IDX 4 1 2 2 1 3 3 4 5 5 6 6 7 7 8 8
REMARK H PARENT
REMARK Flexibility Score: inf
ROOT
ATOM      1  C   UNL     1     -14.810   0.104 -19.496  1.00  0.00     0.059 C 
ENDROOT
BRANCH   1   2
ATOM      2  C   UNL     1     -14.814   1.474 -20.096  1.00  0.00     0.042 C 
ATOM      3  O   UNL     1     -14.107   1.726 -21.107  1.00  0.00    -0.550 OA
ATOM      4  O   UNL     1     -15.638   2.461 -19.568  1.00  0.00    -0.550 OA
ENDBRANCH   1   2
BRANCH   1   5
ATOM      5  C   UNL     1     -15.007  -0.956 -20.582  1.00  0.00     0.059 C 
BRANCH   5   6
ATOM      6  C   UNL     1     -14.079  -2.109 -20.362  1.00  0.00     0.042 C 
ATOM      7  O   UNL     1     -13.830  -2.910 -21.300  1.00  0.00    -0.550 OA
ATOM      8  O   UNL     1     -13.453  -2.271 -19.133  1.00  0.00    -0.550 OA
ENDBRANCH   5   6
ENDBRANCH   1   5
TORSDOF 3
ENDMDL
