MODEL 1
REMARK VINA RESULT:    -3.803      0.000      0.000
REMARK INTER + INTRA:          -3.803
REMARK INTER:                  -3.803
REMARK INTRA:                   0.000
REMARK UNBOUND:                 0.000
REMARK SMILES O=C1CCCCC1
REMARK SMILES IDX 5 1 4 2 3 3 2 4 1 5 7 6 6 7
REMARK H PARENT
REMARK Flexibility Score: inf
ROOT
ATOM      1  C   UNL     1      16.096  41.717 -13.558  1.00  0.00     0.001 C 
ATOM      2  C   UNL     1      15.473  42.377 -12.318  1.00  0.00     0.008 C 
ATOM      3  C   UNL     1      14.203  43.158 -12.678  1.00  0.00     0.075 C 
ATOM      4  C   UNL     1      14.466  44.082 -13.835  1.00  0.00     0.132 C 
ATOM      5  O   UNL     1      14.033  45.224 -13.822  1.00  0.00    -0.300 OA
ATOM      6  C   UNL     1      15.184  43.557 -15.047  1.00  0.00     0.075 C 
ATOM      7  C   UNL     1      16.430  42.767 -14.629  1.00  0.00     0.008 C 
ENDROOT
TORSDOF 0
ENDMDL
MODEL 2
REMARK VINA RESULT:    -3.795      1.583      2.847
REMARK INTER + INTRA:          -3.795
REMARK INTER:                  -3.795
REMARK INTRA:                   0.000
REMARK UNBOUND:                 0.000
REMARK SMILES O=C1CCCCC1
REMARK SMILES IDX 5 1 4 2 3 3 2 4 1 5 7 6 6 7
REMARK H PARENT
REMARK Flexibility Score: inf
ROOT
ATOM      1  C   UNL     1      13.875  43.260 -12.727  1.00  0.00     0.001 C 
ATOM      2  C   UNL     1      14.205  44.304 -13.803  1.00  0.00     0.008 C 
ATOM      3  C   UNL     1      14.936  43.670 -14.994  1.00  0.00     0.075 C 
ATOM      4  C   UNL     1      16.102  42.850 -14.515  1.00  0.00     0.132 C 
ATOM      5  O   UNL     1      17.177  42.909 -15.094  1.00  0.00    -0.300 OA
ATOM      6  C   UNL     1      15.906  41.886 -13.378  1.00  0.00     0.075 C 
ATOM      7  C   UNL     1      15.151  42.564 -12.228  1.00  0.00     0.008 C 
ENDROOT
TORSDOF 0
ENDMDL
MODEL 3
REMARK VINA RESULT:    -3.705      1.921      2.708
REMARK INTER + INTRA:          -3.705
REMARK INTER:                  -3.705
REMARK INTRA:                   0.000
REMARK UNBOUND:                 0.000
REMARK SMILES O=C1CCCCC1
REMARK SMILES IDX 5 1 4 2 3 3 2 4 1 5 7 6 6 7
REMARK H PARENT
REMARK Flexibility Score: inf
ROOT
ATOM      1  C   UNL     1      14.590  44.392 -14.269  1.00  0.00     0.001 C 
ATOM      2  C   UNL     1      14.045  43.534 -13.118  1.00  0.00     0.008 C 
ATOM      3  C   UNL     1      15.168  42.762 -12.414  1.00  0.00     0.075 C 
ATOM      4  C   UNL     1      16.009  42.026 -13.421  1.00  0.00     0.132 C 
ATOM      5  O   UNL     1      16.363  40.877 -13.207  1.00  0.00    -0.300 OA
ATOM      6  C   UNL     1      16.487  42.751 -14.649  1.00  0.00     0.075 C 
ATOM      7  C   UNL     1      15.332  43.523 -15.297  1.00  0.00     0.008 C 
ENDROOT
TORSDOF 0
ENDMDL
MODEL 4
REMARK VINA RESULT:    -3.547      1.710      2.984
REMARK INTER + INTRA:          -3.547
REMARK INTER:                  -3.547
REMARK INTRA:                   0.000
REMARK UNBOUND:                 0.000
REMARK SMILES O=C1CCCCC1
REMARK SMILES IDX 5 1 4 2 3 3 2 4 1 5 7 6 6 7
REMARK H PARENT
REMARK Flexibility Score: inf
ROOT
ATOM      1  C   UNL     1      14.979  43.621 -15.206  1.00  0.00     0.001 C 
ATOM      2  C   UNL     1      16.423  43.133 -15.023  1.00  0.00     0.008 C 
ATOM      3  C   UNL     1      16.506  42.003 -13.989  1.00  0.00     0.075 C 
ATOM      4  C   UNL     1      15.796  42.397 -12.723  1.00  0.00     0.132 C 
ATOM      5  O   UNL     1      16.297  42.158 -11.635  1.00  0.00    -0.300 OA
ATOM      6  C   UNL     1      14.422  43.002 -12.809  1.00  0.00     0.075 C 
ATOM      7  C   UNL     1      14.390  44.108 -13.872  1.00  0.00     0.008 C 
ENDROOT
TORSDOF 0
ENDMDL
MODEL 5
REMARK VINA RESULT:    -3.441     14.169     15.106
REMARK INTER + INTRA:          -3.441
REMARK INTER:                  -3.441
REMARK INTRA:                   0.000
REMARK UNBOUND:                 0.000
REMARK SMILES O=C1CCCCC1
REMARK SMILES IDX 5 1 4 2 3 3 2 4 1 5 7 6 6 7
REMARK H PARENT
REMARK Flexibility Score: inf
ROOT
ATOM      1  C   UNL     1      16.752  44.712  -0.292  1.00  0.00     0.001 C 
ATOM      2  C   UNL     1      17.972  45.605  -0.563  1.00  0.00     0.008 C 
ATOM      3  C   UNL     1      19.280  44.893  -0.196  1.00  0.00     0.075 C 
ATOM      4  C   UNL     1      19.195  44.326   1.195  1.00  0.00     0.132 C 
ATOM      5  O   UNL     1      20.137  44.437   1.964  1.00  0.00    -0.300 OA
ATOM      6  C   UNL     1      17.977  43.540   1.595  1.00  0.00     0.075 C 
ATOM      7  C   UNL     1      16.702  44.286   1.184  1.00  0.00     0.008 C 
ENDROOT
TORSDOF 0
ENDMDL
MODEL 6
REMARK VINA RESULT:    -3.376     14.183     15.297
REMARK INTER + INTRA:          -3.376
REMARK INTER:                  -3.376
REMARK INTRA:                   0.000
REMARK UNBOUND:                 0.000
REMARK SMILES O=C1CCCCC1
REMARK SMILES IDX 5 1 4 2 3 3 2 4 1 5 7 6 6 7
REMARK H PARENT
REMARK Flexibility Score: inf
ROOT
ATOM      1  C   UNL     1      17.406  43.858   1.481  1.00  0.00     0.001 C 
ATOM      2  C   UNL     1      18.727  44.112   2.223  1.00  0.00     0.008 C 
ATOM      3  C   UNL     1      19.919  44.119   1.259  1.00  0.00     0.075 C 
ATOM      4  C   UNL     1      19.897  42.893   0.389  1.00  0.00     0.132 C 
ATOM      5  O   UNL     1      20.927  42.274   0.169  1.00  0.00    -0.300 OA
ATOM      6  C   UNL     1      18.613  42.492  -0.283  1.00  0.00     0.075 C 
ATOM      7  C   UNL     1      17.453  42.524   0.719  1.00  0.00     0.008 C 
ENDROOT
TORSDOF 0
ENDMDL
MODEL 7
REMARK VINA RESULT:    -3.283     13.723     14.526
REMARK INTER + INTRA:          -3.283
REMARK INTER:                  -3.283
REMARK INTRA:                   0.000
REMARK UNBOUND:                 0.000
REMARK SMILES O=C1CCCCC1
REMARK SMILES IDX 5 1 4 2 3 3 2 4 1 5 7 6 6 7
REMARK H PARENT
REMARK Flexibility Score: inf
ROOT
ATOM      1  C   UNL     1      19.727  44.576   1.105  1.00  0.00     0.001 C 
ATOM      2  C   UNL     1      19.221  45.194  -0.207  1.00  0.00     0.008 C 
ATOM      3  C   UNL     1      17.698  45.063  -0.338  1.00  0.00     0.075 C 
ATOM      4  C   UNL     1      17.272  43.642  -0.090  1.00  0.00     0.132 C 
ATOM      5  O   UNL     1      16.436  43.115  -0.808  1.00  0.00    -0.300 OA
ATOM      6  C   UNL     1      17.814  42.910   1.106  1.00  0.00     0.075 C 
ATOM      7  C   UNL     1      19.334  43.094   1.201  1.00  0.00     0.008 C 
ENDROOT
TORSDOF 0
ENDMDL
MODEL 8
REMARK VINA RESULT:    -3.257     21.497     22.092
REMARK INTER + INTRA:          -3.257
REMARK INTER:                  -3.257
REMARK INTRA:                   0.000
REMARK UNBOUND:                 0.000
REMARK SMILES O=C1CCCCC1
REMARK SMILES IDX 5 1 4 2 3 3 2 4 1 5 7 6 6 7
REMARK H PARENT
REMARK Flexibility Score: inf
ROOT
ATOM      1  C   UNL     1      33.032  56.919 -13.803  1.00  0.00     0.001 C 
ATOM      2  C   UNL     1      33.118  58.452 -13.763  1.00  0.00     0.008 C 
ATOM      3  C   UNL     1      32.086  59.046 -12.796  1.00  0.00     0.075 C 
ATOM      4  C   UNL     1      30.720  58.487 -13.080  1.00  0.00     0.132 C 
ATOM      5  O   UNL     1      29.743  59.220 -13.088  1.00  0.00    -0.300 OA
ATOM      6  C   UNL     1      30.556  57.003 -13.260  1.00  0.00     0.075 C 
ATOM      7  C   UNL     1      31.625  56.459 -14.216  1.00  0.00     0.008 C 
ENDROOT
TORSDOF 0
ENDMDL
MODEL 9
REMARK VINA RESULT:    -3.196     13.969     14.769
REMARK INTER + INTRA:          -3.196
REMARK INTER:                  -3.196
REMARK INTRA:                   0.000
REMARK UNBOUND:                 0.000
REMARK SMILES O=C1CCCCC1
REMARK SMILES IDX 5 1 4 2 3 3 2 4 1 5 7 6 6 7
REMARK H PARENT
REMARK Flexibility Score: inf
ROOT
ATOM      1  C   UNL     1      19.514  44.431   0.018  1.00  0.00     0.001 C 
ATOM      2  C   UNL     1      19.224  43.906   1.432  1.00  0.00     0.008 C 
ATOM      3  C   UNL     1      17.808  43.327   1.536  1.00  0.00     0.075 C 
ATOM      4  C   UNL     1      16.801  44.304   0.995  1.00  0.00     0.132 C 
ATOM      5  O   UNL     1      15.751  44.499   1.588  1.00  0.00    -0.300 OA
ATOM      6  C   UNL     1      17.058  44.967  -0.330  1.00  0.00     0.075 C 
ATOM      7  C   UNL     1      18.493  45.506  -0.388  1.00  0.00     0.008 C 
ENDROOT
TORSDOF 0
ENDMDL
