MODEL 1
REMARK VINA RESULT:    -7.383      0.000      0.000
REMARK INTER + INTRA:          -7.761
REMARK INTER:                  -8.030
REMARK INTRA:                   0.269
REMARK UNBOUND:                 0.269
REMARK SMILES C=C(C)[C@H]1CC[C@]2(C)CC[C@]3(C)[C@H](CC[C@@H]4[C@@]5(C)CC[C@H](O)C(C)(C)[C@@H]5CC[C@@]43C)[C@@H]12
REMARK SMILES IDX 4 1 5 2 6 3 7 4 31 5 13 6 14 7 15 8 16 9 17 10 19 11 20 12
REMARK SMILES IDX 21 13 23 14 26 15 27 16 28 17 29 18 11 19 10 20 9 21 12 22
REMARK SMILES IDX 30 23 24 24 25 25 18 26 8 27 2 28 3 29 1 30 22 31
REMARK H PARENT 22 32
REMARK Flexibility Score: inf
ROOT
ATOM      1  C   UNL     1      31.209  41.958  59.397  1.00  0.00     0.018 C 
ATOM      2  C   UNL     1      31.958  42.793  58.334  1.00  0.00     0.009 C 
ATOM      3  C   UNL     1      33.297  42.076  58.070  1.00  0.00     0.008 C 
ATOM      4  C   UNL     1      33.608  41.341  59.381  1.00  0.00    -0.029 C 
ATOM      5  C   UNL     1      32.214  40.846  59.790  1.00  0.00     0.006 C 
ATOM      6  C   UNL     1      32.189  40.095  61.155  1.00  0.00    -0.000 C 
ATOM      7  C   UNL     1      30.761  39.654  61.507  1.00  0.00     0.005 C 
ATOM      8  C   UNL     1      30.638  38.567  62.586  1.00  0.00     0.005 C 
ATOM      9  C   UNL     1      31.902  38.190  63.442  1.00  0.00     0.002 C 
ATOM     10  C   UNL     1      31.789  38.726  64.940  1.00  0.00    -0.026 C 
ATOM     11  C   UNL     1      30.586  38.035  65.701  1.00  0.00     0.010 C 
ATOM     12  C   UNL     1      30.985  36.807  66.522  1.00  0.00     0.033 C 
ATOM     13  C   UNL     1      31.980  37.157  67.649  1.00  0.00     0.120 C 
ATOM     14  C   UNL     1      33.038  38.265  67.247  1.00  0.00    -0.006 C 
ATOM     15  C   UNL     1      33.124  38.344  65.671  1.00  0.00     0.003 C 
ATOM     16  C   UNL     1      34.339  39.092  65.093  1.00  0.00     0.005 C 
ATOM     17  C   UNL     1      34.247  39.358  63.573  1.00  0.00     0.008 C 
ATOM     18  C   UNL     1      33.344  38.376  62.728  1.00  0.00    -0.024 C 
ATOM     19  C   UNL     1      33.205  38.883  61.193  1.00  0.00    -0.024 C 
ATOM     20  C   UNL     1      34.596  39.331  60.570  1.00  0.00     0.008 C 
ATOM     21  C   UNL     1      34.504  40.095  59.226  1.00  0.00     0.007 C 
ATOM     22  C   UNL     1      32.702  37.701  60.284  1.00  0.00     0.012 C 
ATOM     23  C   UNL     1      34.103  37.002  62.727  1.00  0.00     0.012 C 
ATOM     24  C   UNL     1      34.412  37.838  67.827  1.00  0.00     0.014 C 
ATOM     25  C   UNL     1      32.687  39.633  67.890  1.00  0.00     0.014 C 
ATOM     26  C   UNL     1      31.545  40.276  64.930  1.00  0.00     0.012 C 
ATOM     27  C   UNL     1      34.283  42.356  60.352  1.00  0.00     0.011 C 
ENDROOT
BRANCH   1  28
ATOM     28  C   UNL     1      30.578  42.800  60.514  1.00  0.00    -0.077 C 
ATOM     29  C   UNL     1      31.031  42.721  61.953  1.00  0.00     0.039 C 
ATOM     30  C   UNL     1      29.664  43.733  60.188  1.00  0.00     0.008 C 
ENDBRANCH   1  28
BRANCH  13  31
ATOM     31  O   UNL     1      31.255  37.519  68.799  1.00  0.00    -0.393 OA
ATOM     32  H   UNL     1      30.616  36.776  68.977  1.00  0.00     0.210 HD
ENDBRANCH  13  31
TORSDOF 2
ENDMDL
MODEL 2
REMARK VINA RESULT:    -7.372      2.505      4.474
REMARK INTER + INTRA:          -7.749
REMARK INTER:                  -7.983
REMARK INTRA:                   0.234
REMARK UNBOUND:                 0.269
REMARK SMILES C=C(C)[C@H]1CC[C@]2(C)CC[C@]3(C)[C@H](CC[C@@H]4[C@@]5(C)CC[C@H](O)C(C)(C)[C@@H]5CC[C@@]43C)[C@@H]12
REMARK SMILES IDX 4 1 5 2 6 3 7 4 31 5 13 6 14 7 15 8 16 9 17 10 19 11 20 12
REMARK SMILES IDX 21 13 23 14 26 15 27 16 28 17 29 18 11 19 10 20 9 21 12 22
REMARK SMILES IDX 30 23 24 24 25 25 18 26 8 27 2 28 3 29 1 30 22 31
REMARK H PARENT 22 32
REMARK Flexibility Score: inf
ROOT
ATOM      1  C   UNL     1      32.154  37.504  59.262  1.00  0.00     0.018 C 
ATOM      2  C   UNL     1      32.169  36.264  58.340  1.00  0.00     0.009 C 
ATOM      3  C   UNL     1      31.357  35.168  59.057  1.00  0.00     0.008 C 
ATOM      4  C   UNL     1      31.506  35.491  60.550  1.00  0.00    -0.029 C 
ATOM      5  C   UNL     1      31.422  37.022  60.541  1.00  0.00     0.006 C 
ATOM      6  C   UNL     1      31.610  37.672  61.945  1.00  0.00    -0.000 C 
ATOM      7  C   UNL     1      31.539  39.202  61.850  1.00  0.00     0.005 C 
ATOM      8  C   UNL     1      31.292  39.948  63.171  1.00  0.00     0.005 C 
ATOM      9  C   UNL     1      31.411  39.164  64.528  1.00  0.00     0.002 C 
ATOM     10  C   UNL     1      32.724  39.570  65.339  1.00  0.00    -0.026 C 
ATOM     11  C   UNL     1      32.676  41.090  65.773  1.00  0.00     0.010 C 
ATOM     12  C   UNL     1      32.134  41.323  67.185  1.00  0.00     0.033 C 
ATOM     13  C   UNL     1      33.016  40.660  68.264  1.00  0.00     0.120 C 
ATOM     14  C   UNL     1      33.620  39.263  67.828  1.00  0.00    -0.006 C 
ATOM     15  C   UNL     1      32.762  38.685  66.634  1.00  0.00     0.003 C 
ATOM     16  C   UNL     1      32.963  37.192  66.312  1.00  0.00     0.005 C 
ATOM     17  C   UNL     1      32.299  36.739  64.992  1.00  0.00     0.008 C 
ATOM     18  C   UNL     1      31.063  37.583  64.487  1.00  0.00    -0.024 C 
ATOM     19  C   UNL     1      30.589  37.101  63.011  1.00  0.00    -0.024 C 
ATOM     20  C   UNL     1      30.509  35.519  62.882  1.00  0.00     0.008 C 
ATOM     21  C   UNL     1      30.353  34.979  61.439  1.00  0.00     0.007 C 
ATOM     22  C   UNL     1      29.131  37.617  62.724  1.00  0.00     0.012 C 
ATOM     23  C   UNL     1      29.904  37.279  65.500  1.00  0.00     0.012 C 
ATOM     24  C   UNL     1      33.532  38.309  69.048  1.00  0.00     0.014 C 
ATOM     25  C   UNL     1      35.125  39.390  67.469  1.00  0.00     0.014 C 
ATOM     26  C   UNL     1      33.990  39.351  64.437  1.00  0.00     0.012 C 
ATOM     27  C   UNL     1      32.855  34.884  61.040  1.00  0.00     0.011 C 
ENDROOT
BRANCH   1  28
ATOM     28  C   UNL     1      33.524  38.179  59.416  1.00  0.00    -0.077 C 
ATOM     29  C   UNL     1      34.285  38.199  60.720  1.00  0.00     0.039 C 
ATOM     30  C   UNL     1      34.131  38.675  58.321  1.00  0.00     0.008 C 
ENDBRANCH   1  28
BRANCH  13  31
ATOM     31  O   UNL     1      34.021  41.567  68.649  1.00  0.00    -0.393 OA
ATOM     32  H   UNL     1      34.661  41.620  67.889  1.00  0.00     0.210 HD
ENDBRANCH  13  31
TORSDOF 2
ENDMDL
MODEL 3
REMARK VINA RESULT:    -6.219      2.544      7.279
REMARK INTER + INTRA:          -6.495
REMARK INTER:                  -6.043
REMARK INTRA:                  -0.452
REMARK UNBOUND:                 0.269
REMARK SMILES C=C(C)[C@H]1CC[C@]2(C)CC[C@]3(C)[C@H](CC[C@@H]4[C@@]5(C)CC[C@H](O)C(C)(C)[C@@H]5CC[C@@]43C)[C@@H]12
REMARK SMILES IDX 4 1 5 2 6 3 7 4 31 5 13 6 14 7 15 8 16 9 17 10 19 11 20 12
REMARK SMILES IDX 21 13 23 14 26 15 27 16 28 17 29 18 11 19 10 20 9 21 12 22
REMARK SMILES IDX 30 23 24 24 25 25 18 26 8 27 2 28 3 29 1 30 22 31
REMARK H PARENT 22 32
REMARK Flexibility Score: inf
ROOT
ATOM      1  C   UNL     1      34.126  38.391  66.675  1.00  0.00     0.018 C 
ATOM      2  C   UNL     1      33.670  37.500  67.852  1.00  0.00     0.009 C 
ATOM      3  C   UNL     1      32.796  36.383  67.250  1.00  0.00     0.008 C 
ATOM      4  C   UNL     1      32.197  37.001  65.980  1.00  0.00    -0.029 C 
ATOM      5  C   UNL     1      33.388  37.807  65.443  1.00  0.00     0.006 C 
ATOM      6  C   UNL     1      33.066  38.624  64.156  1.00  0.00    -0.000 C 
ATOM      7  C   UNL     1      34.295  39.420  63.696  1.00  0.00     0.005 C 
ATOM      8  C   UNL     1      34.264  39.930  62.247  1.00  0.00     0.005 C 
ATOM      9  C   UNL     1      32.916  39.866  61.440  1.00  0.00     0.002 C 
ATOM     10  C   UNL     1      32.271  41.311  61.239  1.00  0.00    -0.026 C 
ATOM     11  C   UNL     1      33.207  42.232  60.356  1.00  0.00     0.010 C 
ATOM     12  C   UNL     1      32.860  42.235  58.866  1.00  0.00     0.033 C 
ATOM     13  C   UNL     1      31.443  42.785  58.598  1.00  0.00     0.120 C 
ATOM     14  C   UNL     1      30.379  42.375  59.696  1.00  0.00    -0.006 C 
ATOM     15  C   UNL     1      30.913  41.111  60.480  1.00  0.00     0.003 C 
ATOM     16  C   UNL     1      29.878  40.351  61.329  1.00  0.00     0.005 C 
ATOM     17  C   UNL     1      30.494  39.286  62.265  1.00  0.00     0.008 C 
ATOM     18  C   UNL     1      31.888  38.678  61.837  1.00  0.00    -0.024 C 
ATOM     19  C   UNL     1      32.488  37.714  62.997  1.00  0.00    -0.024 C 
ATOM     20  C   UNL     1      31.397  36.721  63.589  1.00  0.00     0.008 C 
ATOM     21  C   UNL     1      31.810  35.983  64.887  1.00  0.00     0.007 C 
ATOM     22  C   UNL     1      33.611  36.791  62.395  1.00  0.00     0.012 C 
ATOM     23  C   UNL     1      31.594  37.801  60.570  1.00  0.00     0.012 C 
ATOM     24  C   UNL     1      29.058  42.020  58.964  1.00  0.00     0.014 C 
ATOM     25  C   UNL     1      30.060  43.566  60.640  1.00  0.00     0.014 C 
ATOM     26  C   UNL     1      32.071  41.999  62.635  1.00  0.00     0.012 C 
ATOM     27  C   UNL     1      30.944  37.830  66.393  1.00  0.00     0.011 C 
ENDROOT
BRANCH   1  28
ATOM     28  C   UNL     1      34.004  39.895  66.953  1.00  0.00    -0.077 C 
ATOM     29  C   UNL     1      32.693  40.560  67.299  1.00  0.00     0.039 C 
ATOM     30  C   UNL     1      35.125  40.640  67.006  1.00  0.00     0.008 C 
ENDBRANCH   1  28
BRANCH  13  31
ATOM     31  O   UNL     1      31.521  44.181  58.441  1.00  0.00    -0.393 OA
ATOM     32  H   UNL     1      32.427  44.376  58.078  1.00  0.00     0.210 HD
ENDBRANCH  13  31
TORSDOF 2
ENDMDL
MODEL 4
REMARK VINA RESULT:    -5.791      2.581      7.408
REMARK INTER + INTRA:          -6.030
REMARK INTER:                  -5.642
REMARK INTRA:                  -0.387
REMARK UNBOUND:                 0.269
REMARK SMILES C=C(C)[C@H]1CC[C@]2(C)CC[C@]3(C)[C@H](CC[C@@H]4[C@@]5(C)CC[C@H](O)C(C)(C)[C@@H]5CC[C@@]43C)[C@@H]12
REMARK SMILES IDX 4 1 5 2 6 3 7 4 31 5 13 6 14 7 15 8 16 9 17 10 19 11 20 12
REMARK SMILES IDX 21 13 23 14 26 15 27 16 28 17 29 18 11 19 10 20 9 21 12 22
REMARK SMILES IDX 30 23 24 24 25 25 18 26 8 27 2 28 3 29 1 30 22 31
REMARK H PARENT 22 32
REMARK Flexibility Score: inf
ROOT
ATOM      1  C   UNL     1      32.788  37.796  67.238  1.00  0.00     0.018 C 
ATOM      2  C   UNL     1      31.833  37.780  68.453  1.00  0.00     0.009 C 
ATOM      3  C   UNL     1      30.421  37.500  67.903  1.00  0.00     0.008 C 
ATOM      4  C   UNL     1      30.447  38.049  66.470  1.00  0.00    -0.029 C 
ATOM      5  C   UNL     1      31.853  37.638  66.013  1.00  0.00     0.006 C 
ATOM      6  C   UNL     1      32.214  38.124  64.577  1.00  0.00    -0.000 C 
ATOM      7  C   UNL     1      33.640  37.697  64.201  1.00  0.00     0.005 C 
ATOM      8  C   UNL     1      33.982  37.735  62.704  1.00  0.00     0.005 C 
ATOM      9  C   UNL     1      32.997  38.452  61.710  1.00  0.00     0.002 C 
ATOM     10  C   UNL     1      33.588  39.836  61.179  1.00  0.00    -0.026 C 
ATOM     11  C   UNL     1      34.899  39.602  60.325  1.00  0.00     0.010 C 
ATOM     12  C   UNL     1      34.657  39.509  58.817  1.00  0.00     0.033 C 
ATOM     13  C   UNL     1      34.067  40.813  58.238  1.00  0.00     0.120 C 
ATOM     14  C   UNL     1      33.035  41.531  59.201  1.00  0.00    -0.006 C 
ATOM     15  C   UNL     1      32.499  40.479  60.252  1.00  0.00     0.003 C 
ATOM     16  C   UNL     1      31.234  40.883  61.032  1.00  0.00     0.005 C 
ATOM     17  C   UNL     1      30.899  39.944  62.213  1.00  0.00     0.008 C 
ATOM     18  C   UNL     1      31.430  38.459  62.119  1.00  0.00    -0.024 C 
ATOM     19  C   UNL     1      31.156  37.650  63.499  1.00  0.00    -0.024 C 
ATOM     20  C   UNL     1      29.685  37.877  64.057  1.00  0.00     0.008 C 
ATOM     21  C   UNL     1      29.444  37.384  65.506  1.00  0.00     0.007 C 
ATOM     22  C   UNL     1      31.271  36.102  63.242  1.00  0.00     0.012 C 
ATOM     23  C   UNL     1      30.592  37.783  60.977  1.00  0.00     0.012 C 
ATOM     24  C   UNL     1      31.860  42.049  58.330  1.00  0.00     0.014 C 
ATOM     25  C   UNL     1      33.671  42.774  59.878  1.00  0.00     0.014 C 
ATOM     26  C   UNL     1      33.946  40.759  62.397  1.00  0.00     0.012 C 
ATOM     27  C   UNL     1      30.173  39.581  66.538  1.00  0.00     0.011 C 
ENDROOT
BRANCH   1  28
ATOM     28  C   UNL     1      33.786  38.962  67.250  1.00  0.00    -0.077 C 
ATOM     29  C   UNL     1      33.380  40.389  66.964  1.00  0.00     0.039 C 
ATOM     30  C   UNL     1      35.052  38.731  67.643  1.00  0.00     0.008 C 
ENDBRANCH   1  28
BRANCH  13  31
ATOM     31  O   UNL     1      35.125  41.667  57.876  1.00  0.00    -0.393 OA
ATOM     32  H   UNL     1      35.863  41.084  57.552  1.00  0.00     0.210 HD
ENDBRANCH  13  31
TORSDOF 2
ENDMDL
MODEL 5
REMARK VINA RESULT:    -5.285      2.250      4.459
REMARK INTER + INTRA:          -5.479
REMARK INTER:                  -5.450
REMARK INTRA:                  -0.029
REMARK UNBOUND:                 0.269
REMARK SMILES C=C(C)[C@H]1CC[C@]2(C)CC[C@]3(C)[C@H](CC[C@@H]4[C@@]5(C)CC[C@H](O)C(C)(C)[C@@H]5CC[C@@]43C)[C@@H]12
REMARK SMILES IDX 4 1 5 2 6 3 7 4 31 5 13 6 14 7 15 8 16 9 17 10 19 11 20 12
REMARK SMILES IDX 21 13 23 14 26 15 27 16 28 17 29 18 11 19 10 20 9 21 12 22
REMARK SMILES IDX 30 23 24 24 25 25 18 26 8 27 2 28 3 29 1 30 22 31
REMARK H PARENT 22 32
REMARK Flexibility Score: inf
ROOT
ATOM      1  C   UNL     1      32.481  43.679  58.877  1.00  0.00     0.018 C 
ATOM      2  C   UNL     1      31.566  44.480  57.923  1.00  0.00     0.009 C 
ATOM      3  C   UNL     1      30.162  44.491  58.560  1.00  0.00     0.008 C 
ATOM      4  C   UNL     1      30.106  43.204  59.394  1.00  0.00    -0.029 C 
ATOM      5  C   UNL     1      31.523  43.157  59.978  1.00  0.00     0.006 C 
ATOM      6  C   UNL     1      31.805  41.894  60.846  1.00  0.00    -0.000 C 
ATOM      7  C   UNL     1      33.247  41.906  61.373  1.00  0.00     0.005 C 
ATOM      8  C   UNL     1      33.541  40.969  62.554  1.00  0.00     0.005 C 
ATOM      9  C   UNL     1      32.477  39.883  62.954  1.00  0.00     0.002 C 
ATOM     10  C   UNL     1      32.948  38.411  62.557  1.00  0.00    -0.026 C 
ATOM     11  C   UNL     1      34.246  37.995  63.359  1.00  0.00     0.010 C 
ATOM     12  C   UNL     1      33.968  37.202  64.638  1.00  0.00     0.033 C 
ATOM     13  C   UNL     1      33.267  35.857  64.349  1.00  0.00     0.120 C 
ATOM     14  C   UNL     1      32.213  35.925  63.168  1.00  0.00    -0.006 C 
ATOM     15  C   UNL     1      31.787  37.431  62.948  1.00  0.00     0.003 C 
ATOM     16  C   UNL     1      30.521  37.663  62.104  1.00  0.00     0.005 C 
ATOM     17  C   UNL     1      30.290  39.139  61.710  1.00  0.00     0.008 C 
ATOM     18  C   UNL     1      30.926  40.238  62.650  1.00  0.00    -0.024 C 
ATOM     19  C   UNL     1      30.753  41.722  62.016  1.00  0.00    -0.024 C 
ATOM     20  C   UNL     1      29.287  41.981  61.460  1.00  0.00     0.008 C 
ATOM     21  C   UNL     1      29.126  43.249  60.585  1.00  0.00     0.007 C 
ATOM     22  C   UNL     1      30.974  42.808  63.133  1.00  0.00     0.012 C 
ATOM     23  C   UNL     1      30.107  40.175  63.987  1.00  0.00     0.012 C 
ATOM     24  C   UNL     1      30.978  35.086  63.589  1.00  0.00     0.014 C 
ATOM     25  C   UNL     1      32.776  35.274  61.876  1.00  0.00     0.014 C 
ATOM     26  C   UNL     1      33.274  38.357  61.023  1.00  0.00     0.012 C 
ATOM     27  C   UNL     1      29.721  42.032  58.442  1.00  0.00     0.011 C 
ENDROOT
BRANCH   1  28
ATOM     28  C   UNL     1      33.390  42.671  58.162  1.00  0.00    -0.077 C 
ATOM     29  C   UNL     1      34.849  42.941  57.880  1.00  0.00     0.039 C 
ATOM     30  C   UNL     1      32.905  41.448  57.875  1.00  0.00     0.008 C 
ENDBRANCH   1  28
BRANCH  13  31
ATOM     31  O   UNL     1      34.247  34.875  64.118  1.00  0.00    -0.393 OA
ATOM     32  H   UNL     1      34.969  35.313  63.591  1.00  0.00     0.210 HD
ENDBRANCH  13  31
TORSDOF 2
ENDMDL
MODEL 6
REMARK VINA RESULT:    -5.275      1.425      2.284
REMARK INTER + INTRA:          -5.468
REMARK INTER:                  -5.298
REMARK INTRA:                  -0.170
REMARK UNBOUND:                 0.269
REMARK SMILES C=C(C)[C@H]1CC[C@]2(C)CC[C@]3(C)[C@H](CC[C@@H]4[C@@]5(C)CC[C@H](O)C(C)(C)[C@@H]5CC[C@@]43C)[C@@H]12
REMARK SMILES IDX 4 1 5 2 6 3 7 4 31 5 13 6 14 7 15 8 16 9 17 10 19 11 20 12
REMARK SMILES IDX 21 13 23 14 26 15 27 16 28 17 29 18 11 19 10 20 9 21 12 22
REMARK SMILES IDX 30 23 24 24 25 25 18 26 8 27 2 28 3 29 1 30 22 31
REMARK H PARENT 22 32
REMARK Flexibility Score: inf
ROOT
ATOM      1  C   UNL     1      32.705  40.656  59.313  1.00  0.00     0.018 C 
ATOM      2  C   UNL     1      33.671  40.577  58.109  1.00  0.00     0.009 C 
ATOM      3  C   UNL     1      33.965  39.082  57.875  1.00  0.00     0.008 C 
ATOM      4  C   UNL     1      33.795  38.433  59.255  1.00  0.00    -0.029 C 
ATOM      5  C   UNL     1      32.577  39.190  59.800  1.00  0.00     0.006 C 
ATOM      6  C   UNL     1      32.184  38.789  61.253  1.00  0.00    -0.000 C 
ATOM      7  C   UNL     1      30.977  39.604  61.735  1.00  0.00     0.005 C 
ATOM      8  C   UNL     1      30.230  39.045  62.956  1.00  0.00     0.005 C 
ATOM      9  C   UNL     1      30.883  37.882  63.788  1.00  0.00     0.002 C 
ATOM     10  C   UNL     1      31.416  38.387  65.204  1.00  0.00    -0.026 C 
ATOM     11  C   UNL     1      30.223  38.890  66.113  1.00  0.00     0.010 C 
ATOM     12  C   UNL     1      29.673  37.830  67.070  1.00  0.00     0.033 C 
ATOM     13  C   UNL     1      30.734  37.354  68.086  1.00  0.00     0.120 C 
ATOM     14  C   UNL     1      32.195  37.250  67.484  1.00  0.00    -0.006 C 
ATOM     15  C   UNL     1      32.094  37.160  65.909  1.00  0.00     0.003 C 
ATOM     16  C   UNL     1      33.363  36.694  65.172  1.00  0.00     0.005 C 
ATOM     17  C   UNL     1      33.296  36.863  63.637  1.00  0.00     0.008 C 
ATOM     18  C   UNL     1      31.859  36.872  62.981  1.00  0.00    -0.024 C 
ATOM     19  C   UNL     1      31.939  37.232  61.401  1.00  0.00    -0.024 C 
ATOM     20  C   UNL     1      33.091  36.435  60.651  1.00  0.00     0.008 C 
ATOM     21  C   UNL     1      33.421  36.936  59.222  1.00  0.00     0.007 C 
ATOM     22  C   UNL     1      30.603  36.805  60.688  1.00  0.00     0.012 C 
ATOM     23  C   UNL     1      31.321  35.404  63.125  1.00  0.00     0.012 C 
ATOM     24  C   UNL     1      32.844  35.957  68.043  1.00  0.00     0.014 C 
ATOM     25  C   UNL     1      33.081  38.434  67.954  1.00  0.00     0.014 C 
ATOM     26  C   UNL     1      32.419  39.576  64.998  1.00  0.00     0.012 C 
ATOM     27  C   UNL     1      35.125  38.624  60.043  1.00  0.00     0.011 C 
ENDROOT
BRANCH   1  28
ATOM     28  C   UNL     1      33.080  41.735  60.339  1.00  0.00    -0.077 C 
ATOM     29  C   UNL     1      34.504  42.184  60.570  1.00  0.00     0.039 C 
ATOM     30  C   UNL     1      32.096  42.394  60.979  1.00  0.00     0.008 C 
ENDBRANCH   1  28
BRANCH  13  31
ATOM     31  O   UNL     1      30.693  38.196  69.213  1.00  0.00    -0.393 OA
ATOM     32  H   UNL     1      31.439  37.911  69.807  1.00  0.00     0.210 HD
ENDBRANCH  13  31
TORSDOF 2
ENDMDL
