MODEL 1
REMARK VINA RESULT:    -4.021      0.000      0.000
REMARK INTER + INTRA:         -14.726
REMARK INTER:                 -10.132
REMARK INTRA:                  -4.595
REMARK UNBOUND:                -4.595
REMARK SMILES CCCCCCCCCCCCCCCCCCCCCCCCCCCC(=O)[O-]
REMARK SMILES IDX 15 1 16 2 17 3 18 4 19 5 20 6 21 7 22 8 23 9 24 10 25 11
REMARK SMILES IDX 26 12 27 13 28 14 29 15 30 16 14 17 13 18 12 19 11 20 10 21
REMARK SMILES IDX 9 22 8 23 7 24 6 25 5 26 4 27 3 28 2 29 1 30
REMARK H PARENT
REMARK Flexibility Score: inf
ROOT
ATOM      1  C   UNL     1       1.860   6.947  -3.234  1.00  0.00     0.000 C 
ENDROOT
BRANCH   1   2
ATOM      2  C   UNL     1       1.563   8.399  -3.642  1.00  0.00     0.000 C 
BRANCH   2   3
ATOM      3  C   UNL     1       0.586   9.095  -2.682  1.00  0.00     0.000 C 
BRANCH   3   4
ATOM      4  C   UNL     1      -0.164   8.068  -1.823  1.00  0.00     0.000 C 
BRANCH   4   5
ATOM      5  C   UNL     1      -1.107   8.764  -0.831  1.00  0.00     0.000 C 
BRANCH   5   6
ATOM      6  C   UNL     1      -0.402   9.169   0.474  1.00  0.00     0.000 C 
BRANCH   6   7
ATOM      7  C   UNL     1       0.308   7.984   1.156  1.00  0.00     0.000 C 
BRANCH   7   8
ATOM      8  C   UNL     1       0.133   7.987   2.683  1.00  0.00     0.000 C 
BRANCH   8   9
ATOM      9  C   UNL     1      -0.573   6.721   3.200  1.00  0.00     0.000 C 
BRANCH   9  10
ATOM     10  C   UNL     1       0.060   5.432   2.651  1.00  0.00     0.000 C 
BRANCH  10  11
ATOM     11  C   UNL     1      -0.741   4.175   3.033  1.00  0.00     0.000 C 
BRANCH  11  12
ATOM     12  C   UNL     1      -0.076   3.367   4.163  1.00  0.00     0.006 C 
BRANCH  12  13
ATOM     13  C   UNL     1       1.152   4.046   4.792  1.00  0.00     0.053 C 
BRANCH  13  14
ATOM     14  C   UNL     1       0.845   4.627   6.139  1.00  0.00     0.041 C 
ATOM     15  O   UNL     1       1.612   5.486   6.647  1.00  0.00    -0.550 OA
ATOM     16  O   UNL     1      -0.271   4.197   6.847  1.00  0.00    -0.550 OA
ENDBRANCH  13  14
ENDBRANCH  12  13
ENDBRANCH  11  12
ENDBRANCH  10  11
ENDBRANCH   9  10
ENDBRANCH   8   9
ENDBRANCH   7   8
ENDBRANCH   6   7
ENDBRANCH   5   6
ENDBRANCH   4   5
ENDBRANCH   3   4
ENDBRANCH   2   3
ENDBRANCH   1   2
BRANCH   1  17
ATOM     17  C   UNL     1       3.121   6.389  -3.916  1.00  0.00     0.000 C 
BRANCH  17  18
ATOM     18  C   UNL     1       4.310   6.250  -2.940  1.00  0.00     0.000 C 
BRANCH  18  19
ATOM     19  C   UNL     1       5.370   7.359  -3.082  1.00  0.00     0.000 C 
BRANCH  19  20
ATOM     20  C   UNL     1       5.570   8.244  -1.836  1.00  0.00     0.000 C 
BRANCH  20  21
ATOM     21  C   UNL     1       4.512   9.346  -1.633  1.00  0.00     0.000 C 
BRANCH  21  22
ATOM     22  C   UNL     1       3.516   9.024  -0.508  1.00  0.00    -0.000 C 
BRANCH  22  23
ATOM     23  C   UNL     1       4.057   7.988   0.494  1.00  0.00    -0.000 C 
BRANCH  23  24
ATOM     24  C   UNL     1       3.996   8.405   1.975  1.00  0.00    -0.000 C 
BRANCH  24  25
ATOM     25  C   UNL     1       3.634   7.239   2.911  1.00  0.00    -0.000 C 
BRANCH  25  26
ATOM     26  C   UNL     1       3.499   5.901   2.166  1.00  0.00    -0.000 C 
BRANCH  26  27
ATOM     27  C   UNL     1       4.298   4.767   2.826  1.00  0.00    -0.000 C 
BRANCH  27  28
ATOM     28  C   UNL     1       5.807   4.970   2.623  1.00  0.00    -0.000 C 
BRANCH  28  29
ATOM     29  C   UNL     1       6.327   4.311   1.336  1.00  0.00    -0.003 C 
ATOM     30  C   UNL     1       6.565   5.317   0.209  1.00  0.00     0.004 C 
ENDBRANCH  28  29
ENDBRANCH  27  28
ENDBRANCH  26  27
ENDBRANCH  25  26
ENDBRANCH  24  25
ENDBRANCH  23  24
ENDBRANCH  22  23
ENDBRANCH  21  22
ENDBRANCH  20  21
ENDBRANCH  19  20
ENDBRANCH  18  19
ENDBRANCH  17  18
ENDBRANCH   1  17
TORSDOF 26
ENDMDL
MODEL 2
REMARK VINA RESULT:    -3.992      1.316      5.178
REMARK INTER + INTRA:         -14.653
REMARK INTER:                  -9.453
REMARK INTRA:                  -5.201
REMARK UNBOUND:                -4.595
REMARK SMILES CCCCCCCCCCCCCCCCCCCCCCCCCCCC(=O)[O-]
REMARK SMILES IDX 15 1 16 2 17 3 18 4 19 5 20 6 21 7 22 8 23 9 24 10 25 11
REMARK SMILES IDX 26 12 27 13 28 14 29 15 30 16 14 17 13 18 12 19 11 20 10 21
REMARK SMILES IDX 9 22 8 23 7 24 6 25 5 26 4 27 3 28 2 29 1 30
REMARK H PARENT
REMARK Flexibility Score: inf
ROOT
ATOM      1  C   UNL     1       4.168   6.056   1.322  1.00  0.00     0.000 C 
ENDROOT
BRANCH   1   2
ATOM      2  C   UNL     1       4.949   6.732   2.462  1.00  0.00     0.000 C 
BRANCH   2   3
ATOM      3  C   UNL     1       4.415   6.351   3.851  1.00  0.00     0.000 C 
BRANCH   3   4
ATOM      4  C   UNL     1       4.233   7.595   4.729  1.00  0.00     0.000 C 
BRANCH   4   5
ATOM      5  C   UNL     1       3.063   8.455   4.230  1.00  0.00     0.000 C 
BRANCH   5   6
ATOM      6  C   UNL     1       1.702   7.760   4.392  1.00  0.00     0.000 C 
BRANCH   6   7
ATOM      7  C   UNL     1       0.713   8.123   3.269  1.00  0.00     0.000 C 
BRANCH   7   8
ATOM      8  C   UNL     1      -0.317   7.013   3.004  1.00  0.00     0.000 C 
BRANCH   8   9
ATOM      9  C   UNL     1       0.198   5.948   2.021  1.00  0.00     0.000 C 
BRANCH   9  10
ATOM     10  C   UNL     1       0.217   4.541   2.639  1.00  0.00     0.000 C 
BRANCH  10  11
ATOM     11  C   UNL     1       1.576   4.196   3.274  1.00  0.00     0.000 C 
BRANCH  11  12
ATOM     12  C   UNL     1       1.486   3.993   4.798  1.00  0.00     0.006 C 
BRANCH  12  13
ATOM     13  C   UNL     1       0.055   4.028   5.361  1.00  0.00     0.053 C 
BRANCH  13  14
ATOM     14  C   UNL     1      -0.042   3.348   6.692  1.00  0.00     0.041 C 
ATOM     15  O   UNL     1      -0.371   2.134   6.760  1.00  0.00    -0.550 OA
ATOM     16  O   UNL     1       0.199   4.061   7.860  1.00  0.00    -0.550 OA
ENDBRANCH  13  14
ENDBRANCH  12  13
ENDBRANCH  11  12
ENDBRANCH  10  11
ENDBRANCH   9  10
ENDBRANCH   8   9
ENDBRANCH   7   8
ENDBRANCH   6   7
ENDBRANCH   5   6
ENDBRANCH   4   5
ENDBRANCH   3   4
ENDBRANCH   2   3
ENDBRANCH   1   2
BRANCH   1  17
ATOM     17  C   UNL     1       3.208   7.023   0.610  1.00  0.00     0.000 C 
BRANCH  17  18
ATOM     18  C   UNL     1       3.780   8.454   0.503  1.00  0.00     0.000 C 
BRANCH  18  19
ATOM     19  C   UNL     1       4.116   8.890  -0.936  1.00  0.00     0.000 C 
BRANCH  19  20
ATOM     20  C   UNL     1       5.520   8.498  -1.434  1.00  0.00     0.000 C 
BRANCH  20  21
ATOM     21  C   UNL     1       5.554   7.693  -2.747  1.00  0.00     0.000 C 
BRANCH  21  22
ATOM     22  C   UNL     1       4.814   6.350  -2.649  1.00  0.00    -0.000 C 
BRANCH  22  23
ATOM     23  C   UNL     1       3.750   6.170  -3.749  1.00  0.00    -0.000 C 
BRANCH  23  24
ATOM     24  C   UNL     1       2.298   6.447  -3.317  1.00  0.00    -0.000 C 
BRANCH  24  25
ATOM     25  C   UNL     1       1.770   7.798  -3.829  1.00  0.00    -0.000 C 
BRANCH  25  26
ATOM     26  C   UNL     1       1.009   8.584  -2.749  1.00  0.00    -0.000 C 
BRANCH  26  27
ATOM     27  C   UNL     1       0.491   7.690  -1.612  1.00  0.00    -0.000 C 
BRANCH  27  28
ATOM     28  C   UNL     1      -0.155   8.535  -0.503  1.00  0.00    -0.000 C 
BRANCH  28  29
ATOM     29  C   UNL     1      -0.990   9.701  -1.056  1.00  0.00    -0.003 C 
ATOM     30  C   UNL     1      -2.329   9.248  -1.638  1.00  0.00     0.004 C 
ENDBRANCH  28  29
ENDBRANCH  27  28
ENDBRANCH  26  27
ENDBRANCH  25  26
ENDBRANCH  24  25
ENDBRANCH  23  24
ENDBRANCH  22  23
ENDBRANCH  21  22
ENDBRANCH  20  21
ENDBRANCH  19  20
ENDBRANCH  18  19
ENDBRANCH  17  18
ENDBRANCH   1  17
TORSDOF 26
ENDMDL
MODEL 3
REMARK VINA RESULT:    -3.877      2.389      5.701
REMARK INTER + INTRA:         -14.365
REMARK INTER:                  -9.812
REMARK INTRA:                  -4.553
REMARK UNBOUND:                -4.595
REMARK SMILES CCCCCCCCCCCCCCCCCCCCCCCCCCCC(=O)[O-]
REMARK SMILES IDX 15 1 16 2 17 3 18 4 19 5 20 6 21 7 22 8 23 9 24 10 25 11
REMARK SMILES IDX 26 12 27 13 28 14 29 15 30 16 14 17 13 18 12 19 11 20 10 21
REMARK SMILES IDX 9 22 8 23 7 24 6 25 5 26 4 27 3 28 2 29 1 30
REMARK H PARENT
REMARK Flexibility Score: inf
ROOT
ATOM      1  C   UNL     1       1.377   8.537  -3.484  1.00  0.00     0.000 C 
ENDROOT
BRANCH   1   2
ATOM      2  C   UNL     1       1.451   7.010  -3.321  1.00  0.00     0.000 C 
BRANCH   2   3
ATOM      3  C   UNL     1       2.657   6.396  -4.048  1.00  0.00     0.000 C 
BRANCH   3   4
ATOM      4  C   UNL     1       3.818   6.154  -3.075  1.00  0.00     0.000 C 
BRANCH   4   5
ATOM      5  C   UNL     1       5.133   6.711  -3.638  1.00  0.00     0.000 C 
BRANCH   5   6
ATOM      6  C   UNL     1       5.745   7.804  -2.748  1.00  0.00     0.000 C 
BRANCH   6   7
ATOM      7  C   UNL     1       4.680   8.729  -2.129  1.00  0.00     0.000 C 
BRANCH   7   8
ATOM      8  C   UNL     1       4.812   8.847  -0.602  1.00  0.00     0.000 C 
BRANCH   8   9
ATOM      9  C   UNL     1       3.468   8.666   0.125  1.00  0.00     0.000 C 
BRANCH   9  10
ATOM     10  C   UNL     1       2.965   7.215   0.072  1.00  0.00     0.000 C 
BRANCH  10  11
ATOM     11  C   UNL     1       3.033   6.519   1.443  1.00  0.00     0.000 C 
BRANCH  11  12
ATOM     12  C   UNL     1       4.468   6.439   1.997  1.00  0.00     0.006 C 
BRANCH  12  13
ATOM     13  C   UNL     1       5.026   5.011   2.113  1.00  0.00     0.053 C 
BRANCH  13  14
ATOM     14  C   UNL     1       5.972   4.685   0.998  1.00  0.00     0.041 C 
ATOM     15  O   UNL     1       6.884   3.834   1.170  1.00  0.00    -0.550 OA
ATOM     16  O   UNL     1       5.868   5.342  -0.222  1.00  0.00    -0.550 OA
ENDBRANCH  13  14
ENDBRANCH  12  13
ENDBRANCH  11  12
ENDBRANCH  10  11
ENDBRANCH   9  10
ENDBRANCH   8   9
ENDBRANCH   7   8
ENDBRANCH   6   7
ENDBRANCH   5   6
ENDBRANCH   4   5
ENDBRANCH   3   4
ENDBRANCH   2   3
ENDBRANCH   1   2
BRANCH   1  17
ATOM     17  C   UNL     1       0.577   9.213  -2.358  1.00  0.00     0.000 C 
BRANCH  17  18
ATOM     18  C   UNL     1      -0.298   8.212  -1.571  1.00  0.00     0.000 C 
BRANCH  18  19
ATOM     19  C   UNL     1      -1.068   8.843  -0.395  1.00  0.00     0.000 C 
BRANCH  19  20
ATOM     20  C   UNL     1      -0.196   9.349   0.770  1.00  0.00     0.000 C 
BRANCH  20  21
ATOM     21  C   UNL     1      -0.067   8.385   1.965  1.00  0.00     0.000 C 
BRANCH  21  22
ATOM     22  C   UNL     1       0.949   8.862   3.015  1.00  0.00    -0.000 C 
BRANCH  22  23
ATOM     23  C   UNL     1       0.864   8.071   4.334  1.00  0.00    -0.000 C 
BRANCH  23  24
ATOM     24  C   UNL     1      -0.501   8.114   5.045  1.00  0.00    -0.000 C 
BRANCH  24  25
ATOM     25  C   UNL     1      -0.846   6.796   5.759  1.00  0.00    -0.000 C 
BRANCH  25  26
ATOM     26  C   UNL     1       0.395   5.935   6.046  1.00  0.00    -0.000 C 
BRANCH  26  27
ATOM     27  C   UNL     1       0.262   4.499   5.515  1.00  0.00    -0.000 C 
BRANCH  27  28
ATOM     28  C   UNL     1       1.333   4.206   4.454  1.00  0.00    -0.000 C 
BRANCH  28  29
ATOM     29  C   UNL     1       0.782   4.275   3.020  1.00  0.00    -0.003 C 
ATOM     30  C   UNL     1      -0.638   3.723   2.904  1.00  0.00     0.004 C 
ENDBRANCH  28  29
ENDBRANCH  27  28
ENDBRANCH  26  27
ENDBRANCH  25  26
ENDBRANCH  24  25
ENDBRANCH  23  24
ENDBRANCH  22  23
ENDBRANCH  21  22
ENDBRANCH  20  21
ENDBRANCH  19  20
ENDBRANCH  18  19
ENDBRANCH  17  18
ENDBRANCH   1  17
TORSDOF 26
ENDMDL
MODEL 4
REMARK VINA RESULT:    -3.868      1.343      3.712
REMARK INTER + INTRA:         -14.342
REMARK INTER:                  -9.103
REMARK INTRA:                  -5.239
REMARK UNBOUND:                -4.595
REMARK SMILES CCCCCCCCCCCCCCCCCCCCCCCCCCCC(=O)[O-]
REMARK SMILES IDX 15 1 16 2 17 3 18 4 19 5 20 6 21 7 22 8 23 9 24 10 25 11
REMARK SMILES IDX 26 12 27 13 28 14 29 15 30 16 14 17 13 18 12 19 11 20 10 21
REMARK SMILES IDX 9 22 8 23 7 24 6 25 5 26 4 27 3 28 2 29 1 30
REMARK H PARENT
REMARK Flexibility Score: inf
ROOT
ATOM      1  C   UNL     1       0.988   6.974  -0.165  1.00  0.00     0.000 C 
ENDROOT
BRANCH   1   2
ATOM      2  C   UNL     1       2.373   7.058   0.499  1.00  0.00     0.000 C 
BRANCH   2   3
ATOM      3  C   UNL     1       2.596   8.386   1.237  1.00  0.00     0.000 C 
BRANCH   3   4
ATOM      4  C   UNL     1       3.116   8.143   2.659  1.00  0.00     0.000 C 
BRANCH   4   5
ATOM      5  C   UNL     1       2.423   9.073   3.666  1.00  0.00     0.000 C 
BRANCH   5   6
ATOM      6  C   UNL     1       0.899   8.875   3.705  1.00  0.00     0.000 C 
BRANCH   6   7
ATOM      7  C   UNL     1       0.496   7.458   4.155  1.00  0.00     0.000 C 
BRANCH   7   8
ATOM      8  C   UNL     1      -0.497   6.789   3.192  1.00  0.00     0.000 C 
BRANCH   8   9
ATOM      9  C   UNL     1      -0.189   5.300   2.962  1.00  0.00     0.000 C 
BRANCH   9  10
ATOM     10  C   UNL     1       1.281   4.955   3.250  1.00  0.00     0.000 C 
BRANCH  10  11
ATOM     11  C   UNL     1       1.445   4.077   4.503  1.00  0.00     0.000 C 
BRANCH  11  12
ATOM     12  C   UNL     1       0.169   3.285   4.844  1.00  0.00     0.006 C 
BRANCH  12  13
ATOM     13  C   UNL     1      -0.182   3.259   6.341  1.00  0.00     0.053 C 
BRANCH  13  14
ATOM     14  C   UNL     1      -0.179   4.631   6.943  1.00  0.00     0.041 C 
ATOM     15  O   UNL     1      -1.095   5.449   6.660  1.00  0.00    -0.550 OA
ATOM     16  O   UNL     1       0.850   5.019   7.793  1.00  0.00    -0.550 OA
ENDBRANCH  13  14
ENDBRANCH  12  13
ENDBRANCH  11  12
ENDBRANCH  10  11
ENDBRANCH   9  10
ENDBRANCH   8   9
ENDBRANCH   7   8
ENDBRANCH   6   7
ENDBRANCH   5   6
ENDBRANCH   4   5
ENDBRANCH   3   4
ENDBRANCH   2   3
ENDBRANCH   1   2
BRANCH   1  17
ATOM     17  C   UNL     1       0.224   8.307  -0.104  1.00  0.00     0.000 C 
BRANCH  17  18
ATOM     18  C   UNL     1      -0.691   8.521  -1.329  1.00  0.00     0.000 C 
BRANCH  18  19
ATOM     19  C   UNL     1      -0.261   9.690  -2.237  1.00  0.00     0.000 C 
BRANCH  19  20
ATOM     20  C   UNL     1       0.940   9.402  -3.159  1.00  0.00     0.000 C 
BRANCH  20  21
ATOM     21  C   UNL     1       2.286   9.986  -2.690  1.00  0.00     0.000 C 
BRANCH  21  22
ATOM     22  C   UNL     1       3.402   8.932  -2.605  1.00  0.00    -0.000 C 
BRANCH  22  23
ATOM     23  C   UNL     1       3.005   7.586  -3.240  1.00  0.00    -0.000 C 
BRANCH  23  24
ATOM     24  C   UNL     1       4.033   6.451  -3.080  1.00  0.00    -0.000 C 
BRANCH  24  25
ATOM     25  C   UNL     1       5.008   6.686  -1.912  1.00  0.00    -0.000 C 
BRANCH  25  26
ATOM     26  C   UNL     1       5.315   5.400  -1.128  1.00  0.00    -0.000 C 
BRANCH  26  27
ATOM     27  C   UNL     1       6.105   5.662   0.164  1.00  0.00    -0.000 C 
BRANCH  27  28
ATOM     28  C   UNL     1       5.302   5.216   1.396  1.00  0.00    -0.000 C 
BRANCH  28  29
ATOM     29  C   UNL     1       6.161   5.145   2.669  1.00  0.00    -0.003 C 
ATOM     30  C   UNL     1       5.368   5.459   3.937  1.00  0.00     0.004 C 
ENDBRANCH  28  29
ENDBRANCH  27  28
ENDBRANCH  26  27
ENDBRANCH  25  26
ENDBRANCH  24  25
ENDBRANCH  23  24
ENDBRANCH  22  23
ENDBRANCH  21  22
ENDBRANCH  20  21
ENDBRANCH  19  20
ENDBRANCH  18  19
ENDBRANCH  17  18
ENDBRANCH   1  17
TORSDOF 26
ENDMDL
MODEL 5
REMARK VINA RESULT:    -3.868      2.083      6.993
REMARK INTER + INTRA:         -14.341
REMARK INTER:                  -9.262
REMARK INTRA:                  -5.079
REMARK UNBOUND:                -4.595
REMARK SMILES CCCCCCCCCCCCCCCCCCCCCCCCCCCC(=O)[O-]
REMARK SMILES IDX 15 1 16 2 17 3 18 4 19 5 20 6 21 7 22 8 23 9 24 10 25 11
REMARK SMILES IDX 26 12 27 13 28 14 29 15 30 16 14 17 13 18 12 19 11 20 10 21
REMARK SMILES IDX 9 22 8 23 7 24 6 25 5 26 4 27 3 28 2 29 1 30
REMARK H PARENT
REMARK Flexibility Score: inf
ROOT
ATOM      1  C   UNL     1       0.206   3.717   4.329  1.00  0.00     0.000 C 
ENDROOT
BRANCH   1   2
ATOM      2  C   UNL     1      -0.349   4.252   2.998  1.00  0.00     0.000 C 
BRANCH   2   3
ATOM      3  C   UNL     1       0.463   5.436   2.452  1.00  0.00     0.000 C 
BRANCH   3   4
ATOM      4  C   UNL     1       1.946   5.299   2.819  1.00  0.00     0.000 C 
BRANCH   4   5
ATOM      5  C   UNL     1       2.766   6.460   2.238  1.00  0.00     0.000 C 
BRANCH   5   6
ATOM      6  C   UNL     1       2.370   6.804   0.794  1.00  0.00     0.000 C 
BRANCH   6   7
ATOM      7  C   UNL     1       2.996   8.124   0.305  1.00  0.00     0.000 C 
BRANCH   7   8
ATOM      8  C   UNL     1       4.444   7.951  -0.180  1.00  0.00     0.000 C 
BRANCH   8   9
ATOM      9  C   UNL     1       4.653   6.645  -0.967  1.00  0.00     0.000 C 
BRANCH   9  10
ATOM     10  C   UNL     1       5.955   5.928  -0.576  1.00  0.00     0.000 C 
BRANCH  10  11
ATOM     11  C   UNL     1       5.767   4.983   0.624  1.00  0.00     0.000 C 
BRANCH  11  12
ATOM     12  C   UNL     1       6.647   5.368   1.828  1.00  0.00     0.006 C 
BRANCH  12  13
ATOM     13  C   UNL     1       6.146   4.833   3.179  1.00  0.00     0.053 C 
BRANCH  13  14
ATOM     14  C   UNL     1       6.916   5.404   4.331  1.00  0.00     0.041 C 
ATOM     15  O   UNL     1       7.562   6.475   4.191  1.00  0.00    -0.550 OA
ATOM     16  O   UNL     1       6.945   4.737   5.550  1.00  0.00    -0.550 OA
ENDBRANCH  13  14
ENDBRANCH  12  13
ENDBRANCH  11  12
ENDBRANCH  10  11
ENDBRANCH   9  10
ENDBRANCH   8   9
ENDBRANCH   7   8
ENDBRANCH   6   7
ENDBRANCH   5   6
ENDBRANCH   4   5
ENDBRANCH   3   4
ENDBRANCH   2   3
ENDBRANCH   1   2
BRANCH   1  17
ATOM     17  C   UNL     1      -0.343   4.479   5.547  1.00  0.00     0.000 C 
BRANCH  17  18
ATOM     18  C   UNL     1       0.721   5.379   6.211  1.00  0.00     0.000 C 
BRANCH  18  19
ATOM     19  C   UNL     1       0.515   6.885   5.959  1.00  0.00     0.000 C 
BRANCH  19  20
ATOM     20  C   UNL     1      -0.907   7.294   5.529  1.00  0.00     0.000 C 
BRANCH  20  21
ATOM     21  C   UNL     1      -0.980   8.312   4.374  1.00  0.00     0.000 C 
BRANCH  21  22
ATOM     22  C   UNL     1       0.401   8.820   3.932  1.00  0.00    -0.000 C 
BRANCH  22  23
ATOM     23  C   UNL     1       0.367   9.540   2.571  1.00  0.00    -0.000 C 
BRANCH  23  24
ATOM     24  C   UNL     1      -0.562   8.913   1.514  1.00  0.00    -0.000 C 
BRANCH  24  25
ATOM     25  C   UNL     1      -0.324   9.474   0.101  1.00  0.00    -0.000 C 
BRANCH  25  26
ATOM     26  C   UNL     1      -1.085   8.692  -0.982  1.00  0.00    -0.000 C 
BRANCH  26  27
ATOM     27  C   UNL     1      -0.162   7.829  -1.857  1.00  0.00    -0.000 C 
BRANCH  27  28
ATOM     28  C   UNL     1       0.884   8.698  -2.572  1.00  0.00    -0.000 C 
BRANCH  28  29
ATOM     29  C   UNL     1       1.700   7.910  -3.610  1.00  0.00    -0.003 C 
ATOM     30  C   UNL     1       1.827   6.427  -3.262  1.00  0.00     0.004 C 
ENDBRANCH  28  29
ENDBRANCH  27  28
ENDBRANCH  26  27
ENDBRANCH  25  26
ENDBRANCH  24  25
ENDBRANCH  23  24
ENDBRANCH  22  23
ENDBRANCH  21  22
ENDBRANCH  20  21
ENDBRANCH  19  20
ENDBRANCH  18  19
ENDBRANCH  17  18
ENDBRANCH   1  17
TORSDOF 26
ENDMDL
MODEL 6
REMARK VINA RESULT:    -3.865      1.206      4.368
REMARK INTER + INTRA:         -14.334
REMARK INTER:                  -8.819
REMARK INTRA:                  -5.515
REMARK UNBOUND:                -4.595
REMARK SMILES CCCCCCCCCCCCCCCCCCCCCCCCCCCC(=O)[O-]
REMARK SMILES IDX 15 1 16 2 17 3 18 4 19 5 20 6 21 7 22 8 23 9 24 10 25 11
REMARK SMILES IDX 26 12 27 13 28 14 29 15 30 16 14 17 13 18 12 19 11 20 10 21
REMARK SMILES IDX 9 22 8 23 7 24 6 25 5 26 4 27 3 28 2 29 1 30
REMARK H PARENT
REMARK Flexibility Score: inf
ROOT
ATOM      1  C   UNL     1       4.491   5.875   1.496  1.00  0.00     0.000 C 
ENDROOT
BRANCH   1   2
ATOM      2  C   UNL     1       4.706   7.197   2.251  1.00  0.00     0.000 C 
BRANCH   2   3
ATOM      3  C   UNL     1       3.955   7.243   3.590  1.00  0.00     0.000 C 
BRANCH   3   4
ATOM      4  C   UNL     1       3.681   8.690   4.017  1.00  0.00     0.000 C 
BRANCH   4   5
ATOM      5  C   UNL     1       2.172   8.958   4.116  1.00  0.00     0.000 C 
BRANCH   5   6
ATOM      6  C   UNL     1       1.347   7.669   4.258  1.00  0.00     0.000 C 
BRANCH   6   7
ATOM      7  C   UNL     1      -0.031   7.770   3.576  1.00  0.00     0.000 C 
BRANCH   7   8
ATOM      8  C   UNL     1      -0.491   6.434   2.971  1.00  0.00     0.000 C 
BRANCH   8   9
ATOM      9  C   UNL     1       0.652   5.672   2.279  1.00  0.00     0.000 C 
BRANCH   9  10
ATOM     10  C   UNL     1       0.948   4.322   2.953  1.00  0.00     0.000 C 
BRANCH  10  11
ATOM     11  C   UNL     1      -0.327   3.629   3.464  1.00  0.00     0.000 C 
BRANCH  11  12
ATOM     12  C   UNL     1      -0.449   3.664   4.999  1.00  0.00     0.006 C 
BRANCH  12  13
ATOM     13  C   UNL     1       0.801   4.189   5.724  1.00  0.00     0.053 C 
BRANCH  13  14
ATOM     14  C   UNL     1       0.453   5.121   6.843  1.00  0.00     0.041 C 
ATOM     15  O   UNL     1      -0.709   5.601   6.929  1.00  0.00    -0.550 OA
ATOM     16  O   UNL     1       1.418   5.486   7.775  1.00  0.00    -0.550 OA
ENDBRANCH  13  14
ENDBRANCH  12  13
ENDBRANCH  11  12
ENDBRANCH  10  11
ENDBRANCH   9  10
ENDBRANCH   8   9
ENDBRANCH   7   8
ENDBRANCH   6   7
ENDBRANCH   5   6
ENDBRANCH   4   5
ENDBRANCH   3   4
ENDBRANCH   2   3
ENDBRANCH   1   2
BRANCH   1  17
ATOM     17  C   UNL     1       5.376   5.760   0.244  1.00  0.00     0.000 C 
BRANCH  17  18
ATOM     18  C   UNL     1       4.634   6.177  -1.045  1.00  0.00     0.000 C 
BRANCH  18  19
ATOM     19  C   UNL     1       5.488   7.015  -2.017  1.00  0.00     0.000 C 
BRANCH  19  20
ATOM     20  C   UNL     1       5.098   8.502  -2.124  1.00  0.00     0.000 C 
BRANCH  20  21
ATOM     21  C   UNL     1       4.835   9.213  -0.782  1.00  0.00     0.000 C 
BRANCH  21  22
ATOM     22  C   UNL     1       3.534  10.031  -0.779  1.00  0.00    -0.000 C 
BRANCH  22  23
ATOM     23  C   UNL     1       2.627   9.709   0.423  1.00  0.00    -0.000 C 
BRANCH  23  24
ATOM     24  C   UNL     1       1.821   8.401   0.314  1.00  0.00    -0.000 C 
BRANCH  24  25
ATOM     25  C   UNL     1       0.332   8.640   0.012  1.00  0.00    -0.000 C 
BRANCH  25  26
ATOM     26  C   UNL     1      -0.084   8.115  -1.372  1.00  0.00    -0.000 C 
BRANCH  26  27
ATOM     27  C   UNL     1       0.329   9.054  -2.516  1.00  0.00    -0.000 C 
BRANCH  27  28
ATOM     28  C   UNL     1       1.443   8.425  -3.366  1.00  0.00    -0.000 C 
BRANCH  28  29
ATOM     29  C   UNL     1       1.590   6.914  -3.126  1.00  0.00    -0.003 C 
ATOM     30  C   UNL     1       2.519   6.241  -4.137  1.00  0.00     0.004 C 
ENDBRANCH  28  29
ENDBRANCH  27  28
ENDBRANCH  26  27
ENDBRANCH  25  26
ENDBRANCH  24  25
ENDBRANCH  23  24
ENDBRANCH  22  23
ENDBRANCH  21  22
ENDBRANCH  20  21
ENDBRANCH  19  20
ENDBRANCH  18  19
ENDBRANCH  17  18
ENDBRANCH   1  17
TORSDOF 26
ENDMDL
MODEL 7
REMARK VINA RESULT:    -3.856      1.992      5.551
REMARK INTER + INTRA:         -14.312
REMARK INTER:                  -9.482
REMARK INTRA:                  -4.829
REMARK UNBOUND:                -4.595
REMARK SMILES CCCCCCCCCCCCCCCCCCCCCCCCCCCC(=O)[O-]
REMARK SMILES IDX 15 1 16 2 17 3 18 4 19 5 20 6 21 7 22 8 23 9 24 10 25 11
REMARK SMILES IDX 26 12 27 13 28 14 29 15 30 16 14 17 13 18 12 19 11 20 10 21
REMARK SMILES IDX 9 22 8 23 7 24 6 25 5 26 4 27 3 28 2 29 1 30
REMARK H PARENT
REMARK Flexibility Score: inf
ROOT
ATOM      1  C   UNL     1       1.315   8.331  -2.871  1.00  0.00     0.000 C 
ENDROOT
BRANCH   1   2
ATOM      2  C   UNL     1       0.982   6.851  -2.619  1.00  0.00     0.000 C 
BRANCH   2   3
ATOM      3  C   UNL     1       2.128   5.911  -3.023  1.00  0.00     0.000 C 
BRANCH   3   4
ATOM      4  C   UNL     1       3.181   6.654  -3.854  1.00  0.00     0.000 C 
BRANCH   4   5
ATOM      5  C   UNL     1       4.601   6.229  -3.453  1.00  0.00     0.000 C 
BRANCH   5   6
ATOM      6  C   UNL     1       5.490   7.419  -3.062  1.00  0.00     0.000 C 
BRANCH   6   7
ATOM      7  C   UNL     1       4.942   8.196  -1.851  1.00  0.00     0.000 C 
BRANCH   7   8
ATOM      8  C   UNL     1       5.816   8.033  -0.597  1.00  0.00     0.000 C 
BRANCH   8   9
ATOM      9  C   UNL     1       7.027   7.114  -0.834  1.00  0.00     0.000 C 
BRANCH   9  10
ATOM     10  C   UNL     1       7.051   5.918   0.131  1.00  0.00     0.000 C 
BRANCH  10  11
ATOM     11  C   UNL     1       5.663   5.279   0.310  1.00  0.00     0.000 C 
BRANCH  11  12
ATOM     12  C   UNL     1       5.402   4.821   1.757  1.00  0.00     0.006 C 
BRANCH  12  13
ATOM     13  C   UNL     1       6.673   4.538   2.574  1.00  0.00     0.053 C 
BRANCH  13  14
ATOM     14  C   UNL     1       6.614   5.154   3.939  1.00  0.00     0.041 C 
ATOM     15  O   UNL     1       6.410   4.432   4.950  1.00  0.00    -0.550 OA
ATOM     16  O   UNL     1       6.752   6.528   4.091  1.00  0.00    -0.550 OA
ENDBRANCH  13  14
ENDBRANCH  12  13
ENDBRANCH  11  12
ENDBRANCH  10  11
ENDBRANCH   9  10
ENDBRANCH   8   9
ENDBRANCH   7   8
ENDBRANCH   6   7
ENDBRANCH   5   6
ENDBRANCH   4   5
ENDBRANCH   3   4
ENDBRANCH   2   3
ENDBRANCH   1   2
BRANCH   1  17
ATOM     17  C   UNL     1       0.279   9.282  -2.249  1.00  0.00     0.000 C 
BRANCH  17  18
ATOM     18  C   UNL     1      -0.801   8.534  -1.438  1.00  0.00     0.000 C 
BRANCH  18  19
ATOM     19  C   UNL     1      -1.094   9.156  -0.059  1.00  0.00     0.000 C 
BRANCH  19  20
ATOM     20  C   UNL     1      -0.007   8.933   1.010  1.00  0.00     0.000 C 
BRANCH  20  21
ATOM     21  C   UNL     1       0.632   7.531   1.018  1.00  0.00     0.000 C 
BRANCH  21  22
ATOM     22  C   UNL     1       2.135   7.553   0.699  1.00  0.00    -0.000 C 
BRANCH  22  23
ATOM     23  C   UNL     1       2.926   8.516   1.603  1.00  0.00    -0.000 C 
BRANCH  23  24
ATOM     24  C   UNL     1       3.923   7.848   2.568  1.00  0.00    -0.000 C 
BRANCH  24  25
ATOM     25  C   UNL     1       3.389   7.750   4.007  1.00  0.00    -0.000 C 
BRANCH  25  26
ATOM     26  C   UNL     1       2.966   6.322   4.387  1.00  0.00    -0.000 C 
BRANCH  26  27
ATOM     27  C   UNL     1       1.443   6.123   4.366  1.00  0.00    -0.000 C 
BRANCH  27  28
ATOM     28  C   UNL     1       1.077   4.753   3.774  1.00  0.00    -0.000 C 
BRANCH  28  29
ATOM     29  C   UNL     1      -0.426   4.617   3.479  1.00  0.00    -0.003 C 
ATOM     30  C   UNL     1      -0.761   3.361   2.675  1.00  0.00     0.004 C 
ENDBRANCH  28  29
ENDBRANCH  27  28
ENDBRANCH  26  27
ENDBRANCH  25  26
ENDBRANCH  24  25
ENDBRANCH  23  24
ENDBRANCH  22  23
ENDBRANCH  21  22
ENDBRANCH  20  21
ENDBRANCH  19  20
ENDBRANCH  18  19
ENDBRANCH  17  18
ENDBRANCH   1  17
TORSDOF 26
ENDMDL
MODEL 8
REMARK VINA RESULT:    -3.843      1.301      5.478
REMARK INTER + INTRA:         -14.280
REMARK INTER:                  -9.091
REMARK INTRA:                  -5.189
REMARK UNBOUND:                -4.595
REMARK SMILES CCCCCCCCCCCCCCCCCCCCCCCCCCCC(=O)[O-]
REMARK SMILES IDX 15 1 16 2 17 3 18 4 19 5 20 6 21 7 22 8 23 9 24 10 25 11
REMARK SMILES IDX 26 12 27 13 28 14 29 15 30 16 14 17 13 18 12 19 11 20 10 21
REMARK SMILES IDX 9 22 8 23 7 24 6 25 5 26 4 27 3 28 2 29 1 30
REMARK H PARENT
REMARK Flexibility Score: inf
ROOT
ATOM      1  C   UNL     1       7.256   5.216   1.775  1.00  0.00     0.000 C 
ENDROOT
BRANCH   1   2
ATOM      2  C   UNL     1       7.426   4.466   3.107  1.00  0.00     0.000 C 
BRANCH   2   3
ATOM      3  C   UNL     1       6.378   4.872   4.153  1.00  0.00     0.000 C 
BRANCH   3   4
ATOM      4  C   UNL     1       5.702   6.194   3.768  1.00  0.00     0.000 C 
BRANCH   4   5
ATOM      5  C   UNL     1       4.213   6.181   4.142  1.00  0.00     0.000 C 
BRANCH   5   6
ATOM      6  C   UNL     1       3.617   4.765   4.159  1.00  0.00     0.000 C 
BRANCH   6   7
ATOM      7  C   UNL     1       2.855   4.426   2.864  1.00  0.00     0.000 C 
BRANCH   7   8
ATOM      8  C   UNL     1       1.330   4.516   3.032  1.00  0.00     0.000 C 
BRANCH   8   9
ATOM      9  C   UNL     1       0.688   5.541   2.081  1.00  0.00     0.000 C 
BRANCH   9  10
ATOM     10  C   UNL     1       0.993   6.991   2.491  1.00  0.00     0.000 C 
BRANCH  10  11
ATOM     11  C   UNL     1      -0.243   7.715   3.053  1.00  0.00     0.000 C 
BRANCH  11  12
ATOM     12  C   UNL     1      -0.580   7.285   4.493  1.00  0.00     0.006 C 
BRANCH  12  13
ATOM     13  C   UNL     1       0.635   7.192   5.430  1.00  0.00     0.053 C 
BRANCH  13  14
ATOM     14  C   UNL     1       0.581   5.976   6.303  1.00  0.00     0.041 C 
ATOM     15  O   UNL     1       1.620   5.569   6.887  1.00  0.00    -0.550 OA
ATOM     16  O   UNL     1      -0.608   5.272   6.448  1.00  0.00    -0.550 OA
ENDBRANCH  13  14
ENDBRANCH  12  13
ENDBRANCH  11  12
ENDBRANCH  10  11
ENDBRANCH   9  10
ENDBRANCH   8   9
ENDBRANCH   7   8
ENDBRANCH   6   7
ENDBRANCH   5   6
ENDBRANCH   4   5
ENDBRANCH   3   4
ENDBRANCH   2   3
ENDBRANCH   1   2
BRANCH   1  17
ATOM     17  C   UNL     1       6.237   4.539   0.843  1.00  0.00     0.000 C 
BRANCH  17  18
ATOM     18  C   UNL     1       5.624   5.522  -0.178  1.00  0.00     0.000 C 
BRANCH  18  19
ATOM     19  C   UNL     1       4.354   6.237   0.324  1.00  0.00     0.000 C 
BRANCH  19  20
ATOM     20  C   UNL     1       4.531   7.726   0.678  1.00  0.00     0.000 C 
BRANCH  20  21
ATOM     21  C   UNL     1       5.214   8.584  -0.404  1.00  0.00     0.000 C 
BRANCH  21  22
ATOM     22  C   UNL     1       4.222   9.442  -1.206  1.00  0.00    -0.000 C 
BRANCH  22  23
ATOM     23  C   UNL     1       3.980   8.906  -2.629  1.00  0.00    -0.000 C 
BRANCH  23  24
ATOM     24  C   UNL     1       4.861   7.713  -3.045  1.00  0.00    -0.000 C 
BRANCH  24  25
ATOM     25  C   UNL     1       4.047   6.439  -3.331  1.00  0.00    -0.000 C 
BRANCH  25  26
ATOM     26  C   UNL     1       2.595   6.742  -3.734  1.00  0.00    -0.000 C 
BRANCH  26  27
ATOM     27  C   UNL     1       1.567   5.968  -2.894  1.00  0.00    -0.000 C 
BRANCH  27  28
ATOM     28  C   UNL     1       1.200   6.747  -1.622  1.00  0.00    -0.000 C 
BRANCH  28  29
ATOM     29  C   UNL     1       0.487   8.075  -1.925  1.00  0.00    -0.003 C 
ATOM     30  C   UNL     1      -0.288   8.619  -0.724  1.00  0.00     0.004 C 
ENDBRANCH  28  29
ENDBRANCH  27  28
ENDBRANCH  26  27
ENDBRANCH  25  26
ENDBRANCH  24  25
ENDBRANCH  23  24
ENDBRANCH  22  23
ENDBRANCH  21  22
ENDBRANCH  20  21
ENDBRANCH  19  20
ENDBRANCH  18  19
ENDBRANCH  17  18
ENDBRANCH   1  17
TORSDOF 26
ENDMDL
MODEL 9
REMARK VINA RESULT:    -3.779      3.210      7.184
REMARK INTER + INTRA:         -14.117
REMARK INTER:                  -8.205
REMARK INTRA:                  -5.912
REMARK UNBOUND:                -4.595
REMARK SMILES CCCCCCCCCCCCCCCCCCCCCCCCCCCC(=O)[O-]
REMARK SMILES IDX 15 1 16 2 17 3 18 4 19 5 20 6 21 7 22 8 23 9 24 10 25 11
REMARK SMILES IDX 26 12 27 13 28 14 29 15 30 16 14 17 13 18 12 19 11 20 10 21
REMARK SMILES IDX 9 22 8 23 7 24 6 25 5 26 4 27 3 28 2 29 1 30
REMARK H PARENT
REMARK Flexibility Score: inf
ROOT
ATOM      1  C   UNL     1       4.097   6.111   3.494  1.00  0.00     0.000 C 
ENDROOT
BRANCH   1   2
ATOM      2  C   UNL     1       4.489   4.908   2.619  1.00  0.00     0.000 C 
BRANCH   2   3
ATOM      3  C   UNL     1       5.994   4.867   2.310  1.00  0.00     0.000 C 
BRANCH   3   4
ATOM      4  C   UNL     1       6.242   4.520   0.837  1.00  0.00     0.000 C 
BRANCH   4   5
ATOM      5  C   UNL     1       5.705   5.623  -0.087  1.00  0.00     0.000 C 
BRANCH   5   6
ATOM      6  C   UNL     1       6.824   6.470  -0.713  1.00  0.00     0.000 C 
BRANCH   6   7
ATOM      7  C   UNL     1       6.550   7.982  -0.610  1.00  0.00     0.000 C 
BRANCH   7   8
ATOM      8  C   UNL     1       5.597   8.335   0.543  1.00  0.00     0.000 C 
BRANCH   8   9
ATOM      9  C   UNL     1       4.514   9.347   0.128  1.00  0.00     0.000 C 
BRANCH   9  10
ATOM     10  C   UNL     1       4.210   9.294  -1.378  1.00  0.00     0.000 C 
BRANCH  10  11
ATOM     11  C   UNL     1       2.701   9.358  -1.675  1.00  0.00     0.000 C 
BRANCH  11  12
ATOM     12  C   UNL     1       2.177   8.085  -2.366  1.00  0.00     0.006 C 
BRANCH  12  13
ATOM     13  C   UNL     1       3.080   6.852  -2.198  1.00  0.00     0.053 C 
BRANCH  13  14
ATOM     14  C   UNL     1       3.568   6.329  -3.514  1.00  0.00     0.041 C 
ATOM     15  O   UNL     1       2.755   6.122  -4.454  1.00  0.00    -0.550 OA
ATOM     16  O   UNL     1       4.915   6.039  -3.695  1.00  0.00    -0.550 OA
ENDBRANCH  13  14
ENDBRANCH  12  13
ENDBRANCH  11  12
ENDBRANCH  10  11
ENDBRANCH   9  10
ENDBRANCH   8   9
ENDBRANCH   7   8
ENDBRANCH   6   7
ENDBRANCH   5   6
ENDBRANCH   4   5
ENDBRANCH   3   4
ENDBRANCH   2   3
ENDBRANCH   1   2
BRANCH   1  17
ATOM     17  C   UNL     1       3.076   7.032   2.806  1.00  0.00     0.000 C 
BRANCH  17  18
ATOM     18  C   UNL     1       2.571   6.458   1.464  1.00  0.00     0.000 C 
BRANCH  18  19
ATOM     19  C   UNL     1       1.184   6.980   1.041  1.00  0.00     0.000 C 
BRANCH  19  20
ATOM     20  C   UNL     1       0.926   8.473   1.325  1.00  0.00     0.000 C 
BRANCH  20  21
ATOM     21  C   UNL     1      -0.548   8.855   1.558  1.00  0.00     0.000 C 
BRANCH  21  22
ATOM     22  C   UNL     1      -0.859   9.185   3.027  1.00  0.00    -0.000 C 
BRANCH  22  23
ATOM     23  C   UNL     1      -1.608   8.051   3.750  1.00  0.00    -0.000 C 
BRANCH  23  24
ATOM     24  C   UNL     1      -1.065   7.684   5.145  1.00  0.00    -0.000 C 
BRANCH  24  25
ATOM     25  C   UNL     1       0.464   7.820   5.246  1.00  0.00    -0.000 C 
BRANCH  25  26
ATOM     26  C   UNL     1       1.135   6.555   5.806  1.00  0.00    -0.000 C 
BRANCH  26  27
ATOM     27  C   UNL     1       0.337   5.275   5.513  1.00  0.00    -0.000 C 
BRANCH  27  28
ATOM     28  C   UNL     1       1.234   4.207   4.869  1.00  0.00    -0.000 C 
BRANCH  28  29
ATOM     29  C   UNL     1       0.848   3.908   3.411  1.00  0.00    -0.003 C 
ATOM     30  C   UNL     1      -0.502   4.511   3.020  1.00  0.00     0.004 C 
ENDBRANCH  28  29
ENDBRANCH  27  28
ENDBRANCH  26  27
ENDBRANCH  25  26
ENDBRANCH  24  25
ENDBRANCH  23  24
ENDBRANCH  22  23
ENDBRANCH  21  22
ENDBRANCH  20  21
ENDBRANCH  19  20
ENDBRANCH  18  19
ENDBRANCH  17  18
ENDBRANCH   1  17
TORSDOF 26
ENDMDL
