MODEL 1
REMARK VINA RESULT:    -1.133      0.000      0.000
REMARK INTER + INTRA:         -12.291
REMARK INTER:                  -2.689
REMARK INTRA:                  -9.602
REMARK UNBOUND:                -9.602
REMARK SMILES O=C(OC[C@@H]1O[C@@H](OC(=O)c2cc(O)c(O)c(O)c2)[C@@H](OC(=O)c2cc(O)c(O)c(O)c2)[C@H](OC(=O)c2cc(O)c(O)c(O)c2)[C@@H]1OC(=O)c1cc(O)c(O)c(O)c1)c1cc(O)c(O)c(O)c1
REMARK SMILES IDX 5 1 46 2 33 3 20 4 7 5 6 6 4 7 3 8 2 9 1 10 59 11 60 12
REMARK SMILES IDX 61 13 67 14 63 15 65 16 62 17 64 19 66 21 47 23 48 24 49 25
REMARK SMILES IDX 50 26 58 27 51 28 56 29 52 30 54 31 57 32 53 34 55 36 34 38
REMARK SMILES IDX 35 39 36 40 37 41 45 42 38 43 43 44 39 45 41 46 44 47 40 49
REMARK SMILES IDX 42 51 8 53 9 54 10 55 11 56 19 57 12 58 17 59 13 60 15 61
REMARK SMILES IDX 18 62 14 64 16 66 21 68 22 69 23 70 24 71 32 72 25 73 30 74
REMARK SMILES IDX 26 75 28 76 31 77 27 79 29 81
REMARK H PARENT 62 18 64 20 66 22 57 33 53 35 55 37 44 48 40 50 42 52 18 63
REMARK H PARENT 14 65 16 67 31 78 27 80 29 82
REMARK Flexibility Score: inf
ROOT
ATOM      1  C   UNL     1     -19.598 -23.334  82.490  1.00  0.00     0.205 C 
ATOM      2  C   UNL     1     -18.398 -22.601  81.851  1.00  0.00     0.254 C 
ATOM      3  C   UNL     1     -18.907 -21.344  81.116  1.00  0.00     0.267 C 
ATOM      4  C   UNL     1     -20.040 -21.722  80.145  1.00  0.00     0.290 C 
ATOM      5  C   UNL     1     -21.111 -22.551  80.876  1.00  0.00     0.357 C 
ATOM      6  O   UNL     1     -20.546 -23.695  81.496  1.00  0.00    -0.329 OA
ENDROOT
BRANCH   1   7
ATOM      7  C   UNL     1     -19.140 -24.599  83.236  1.00  0.00     0.269 C 
BRANCH   7   8
ATOM      8  O   UNL     1     -19.438 -24.499  84.627  1.00  0.00    -0.459 OA
BRANCH   8   9
ATOM      9  C   UNL     1     -18.882 -23.541  85.482  1.00  0.00     0.338 C 
ATOM     10  O   UNL     1     -17.811 -23.787  86.100  1.00  0.00    -0.246 OA
BRANCH   9  11
ATOM     11  C   UNL     1     -19.540 -22.224  85.631  1.00  0.00     0.067 A 
ATOM     12  C   UNL     1     -18.772 -21.052  85.659  1.00  0.00     0.066 A 
ATOM     13  C   UNL     1     -19.379 -19.804  85.816  1.00  0.00     0.162 A 
ATOM     14  C   UNL     1     -20.934 -22.130  85.752  1.00  0.00     0.066 A 
ATOM     15  C   UNL     1     -20.776 -19.710  85.949  1.00  0.00     0.200 A 
ATOM     16  C   UNL     1     -21.561 -20.889  85.908  1.00  0.00     0.162 A 
BRANCH  13  17
ATOM     17  O   UNL     1     -18.574 -18.664  85.856  1.00  0.00    -0.504 OA
ATOM     18  H   UNL     1     -18.127 -18.345  86.708  1.00  0.00     0.293 HD
ENDBRANCH  13  17
BRANCH  15  19
ATOM     19  O   UNL     1     -21.343 -18.444  86.125  1.00  0.00    -0.502 OA
ATOM     20  H   UNL     1     -22.283 -18.287  86.453  1.00  0.00     0.293 HD
ENDBRANCH  15  19
BRANCH  16  21
ATOM     21  O   UNL     1     -22.955 -20.873  86.008  1.00  0.00    -0.504 OA
ATOM     22  H   UNL     1     -23.582 -20.909  85.221  1.00  0.00     0.293 HD
ENDBRANCH  16  21
ENDBRANCH   9  11
ENDBRANCH   8   9
ENDBRANCH   7   8
ENDBRANCH   1   7
BRANCH   2  23
ATOM     23  O   UNL     1     -17.747 -23.472  80.926  1.00  0.00    -0.452 OA
BRANCH  23  24
ATOM     24  C   UNL     1     -16.368 -23.722  80.923  1.00  0.00     0.338 C 
ATOM     25  O   UNL     1     -15.827 -24.297  79.938  1.00  0.00    -0.246 OA
BRANCH  24  26
ATOM     26  C   UNL     1     -15.550 -23.304  82.079  1.00  0.00     0.067 A 
ATOM     27  C   UNL     1     -14.768 -22.137  82.020  1.00  0.00     0.066 A 
ATOM     28  C   UNL     1     -15.553 -24.066  83.256  1.00  0.00     0.066 A 
ATOM     29  C   UNL     1     -14.001 -21.737  83.118  1.00  0.00     0.162 A 
ATOM     30  C   UNL     1     -14.784 -23.678  84.357  1.00  0.00     0.162 A 
ATOM     31  C   UNL     1     -14.003 -22.511  84.291  1.00  0.00     0.200 A 
BRANCH  29  32
ATOM     32  O   UNL     1     -13.260 -20.558  83.033  1.00  0.00    -0.504 OA
ATOM     33  H   UNL     1     -13.631 -19.722  82.597  1.00  0.00     0.293 HD
ENDBRANCH  29  32
BRANCH  30  34
ATOM     34  O   UNL     1     -14.787 -24.452  85.519  1.00  0.00    -0.504 OA
ATOM     35  H   UNL     1     -15.249 -25.355  85.548  1.00  0.00     0.293 HD
ENDBRANCH  30  34
BRANCH  31  36
ATOM     36  O   UNL     1     -13.234 -22.107  85.384  1.00  0.00    -0.502 OA
ATOM     37  H   UNL     1     -12.571 -22.728  85.839  1.00  0.00     0.293 HD
ENDBRANCH  31  36
ENDBRANCH  24  26
ENDBRANCH  23  24
ENDBRANCH   2  23
BRANCH   3  38
ATOM     38  O   UNL     1     -17.851 -20.725  80.381  1.00  0.00    -0.450 OA
BRANCH  38  39
ATOM     39  C   UNL     1     -17.385 -19.426  80.606  1.00  0.00     0.338 C 
ATOM     40  O   UNL     1     -16.154 -19.169  80.508  1.00  0.00    -0.246 OA
BRANCH  39  41
ATOM     41  C   UNL     1     -18.345 -18.357  80.969  1.00  0.00     0.067 A 
ATOM     42  C   UNL     1     -18.707 -18.127  82.307  1.00  0.00     0.066 A 
ATOM     43  C   UNL     1     -18.916 -17.560  79.964  1.00  0.00     0.066 A 
ATOM     44  C   UNL     1     -19.648 -17.140  82.636  1.00  0.00     0.162 A 
ATOM     45  C   UNL     1     -19.856 -16.575  80.281  1.00  0.00     0.162 A 
ATOM     46  C   UNL     1     -20.230 -16.365  81.618  1.00  0.00     0.200 A 
BRANCH  44  47
ATOM     47  O   UNL     1     -20.009 -16.927  83.969  1.00  0.00    -0.504 OA
ATOM     48  H   UNL     1     -20.359 -16.031  84.292  1.00  0.00     0.293 HD
ENDBRANCH  44  47
BRANCH  45  49
ATOM     49  O   UNL     1     -20.407 -15.809  79.254  1.00  0.00    -0.504 OA
ATOM     50  H   UNL     1     -20.628 -14.829  79.375  1.00  0.00     0.293 HD
ENDBRANCH  45  49
BRANCH  46  51
ATOM     51  O   UNL     1     -21.174 -15.384  81.920  1.00  0.00    -0.502 OA
ATOM     52  H   UNL     1     -21.297 -14.552  81.354  1.00  0.00     0.293 HD
ENDBRANCH  46  51
ENDBRANCH  39  41
ENDBRANCH  38  39
ENDBRANCH   3  38
BRANCH   5  53
ATOM     53  O   UNL     1     -21.809 -21.751  81.833  1.00  0.00    -0.428 OA
BRANCH  53  54
ATOM     54  C   UNL     1     -23.205 -21.655  81.886  1.00  0.00     0.340 C 
ATOM     55  O   UNL     1     -23.921 -22.636  81.547  1.00  0.00    -0.246 OA
BRANCH  54  56
ATOM     56  C   UNL     1     -23.831 -20.384  82.314  1.00  0.00     0.067 A 
ATOM     57  C   UNL     1     -25.216 -20.198  82.170  1.00  0.00     0.066 A 
ATOM     58  C   UNL     1     -23.055 -19.359  82.877  1.00  0.00     0.066 A 
ATOM     59  C   UNL     1     -25.819 -18.998  82.576  1.00  0.00     0.162 A 
ATOM     60  C   UNL     1     -23.652 -18.161  83.291  1.00  0.00     0.162 A 
ATOM     61  C   UNL     1     -25.035 -17.974  83.134  1.00  0.00     0.200 A 
BRANCH  59  62
ATOM     62  O   UNL     1     -27.191 -18.818  82.426  1.00  0.00    -0.504 OA
ATOM     63  H   UNL     1     -27.585 -17.923  82.161  1.00  0.00     0.293 HD
ENDBRANCH  59  62
BRANCH  60  64
ATOM     64  O   UNL     1     -22.859 -17.155  83.844  1.00  0.00    -0.504 OA
ATOM     65  H   UNL     1     -22.225 -17.336  84.614  1.00  0.00     0.293 HD
ENDBRANCH  60  64
BRANCH  61  66
ATOM     66  O   UNL     1     -25.614 -16.769  83.541  1.00  0.00    -0.502 OA
ATOM     67  H   UNL     1     -26.198 -16.707  84.374  1.00  0.00     0.293 HD
ENDBRANCH  61  66
ENDBRANCH  54  56
ENDBRANCH  53  54
ENDBRANCH   5  53
BRANCH   4  68
ATOM     68  O   UNL     1     -20.642 -20.542  79.603  1.00  0.00    -0.448 OA
BRANCH  68  69
ATOM     69  C   UNL     1     -21.698 -20.565  78.680  1.00  0.00     0.339 C 
ATOM     70  O   UNL     1     -21.686 -21.391  77.728  1.00  0.00    -0.246 OA
BRANCH  69  71
ATOM     71  C   UNL     1     -22.845 -19.647  78.844  1.00  0.00     0.067 A 
ATOM     72  C   UNL     1     -24.138 -20.042  78.456  1.00  0.00     0.066 A 
ATOM     73  C   UNL     1     -22.659 -18.369  79.394  1.00  0.00     0.066 A 
ATOM     74  C   UNL     1     -25.232 -19.185  78.646  1.00  0.00     0.162 A 
ATOM     75  C   UNL     1     -23.740 -17.496  79.575  1.00  0.00     0.162 A 
ATOM     76  C   UNL     1     -25.045 -17.917  79.215  1.00  0.00     0.200 A 
BRANCH  74  77
ATOM     77  O   UNL     1     -26.516 -19.592  78.284  1.00  0.00    -0.504 OA
ATOM     78  H   UNL     1     -26.712 -20.545  78.021  1.00  0.00     0.293 HD
ENDBRANCH  74  77
BRANCH  75  79
ATOM     79  O   UNL     1     -23.469 -16.230  80.102  1.00  0.00    -0.504 OA
ATOM     80  H   UNL     1     -22.541 -15.880  80.281  1.00  0.00     0.293 HD
ENDBRANCH  75  79
BRANCH  76  81
ATOM     81  O   UNL     1     -26.169 -17.114  79.417  1.00  0.00    -0.502 OA
ATOM     82  H   UNL     1     -26.625 -16.603  78.681  1.00  0.00     0.293 HD
ENDBRANCH  76  81
ENDBRANCH  69  71
ENDBRANCH  68  69
ENDBRANCH   4  68
TORSDOF 31
ENDMDL
MODEL 2
REMARK VINA RESULT:    -1.115      2.446      3.850
REMARK INTER + INTRA:         -12.248
REMARK INTER:                  -2.628
REMARK INTRA:                  -9.621
REMARK UNBOUND:                -9.602
REMARK SMILES O=C(OC[C@@H]1O[C@@H](OC(=O)c2cc(O)c(O)c(O)c2)[C@@H](OC(=O)c2cc(O)c(O)c(O)c2)[C@H](OC(=O)c2cc(O)c(O)c(O)c2)[C@@H]1OC(=O)c1cc(O)c(O)c(O)c1)c1cc(O)c(O)c(O)c1
REMARK SMILES IDX 5 1 46 2 33 3 20 4 7 5 6 6 4 7 3 8 2 9 1 10 59 11 60 12
REMARK SMILES IDX 61 13 67 14 63 15 65 16 62 17 64 19 66 21 47 23 48 24 49 25
REMARK SMILES IDX 50 26 58 27 51 28 56 29 52 30 54 31 57 32 53 34 55 36 34 38
REMARK SMILES IDX 35 39 36 40 37 41 45 42 38 43 43 44 39 45 41 46 44 47 40 49
REMARK SMILES IDX 42 51 8 53 9 54 10 55 11 56 19 57 12 58 17 59 13 60 15 61
REMARK SMILES IDX 18 62 14 64 16 66 21 68 22 69 23 70 24 71 32 72 25 73 30 74
REMARK SMILES IDX 26 75 28 76 31 77 27 79 29 81
REMARK H PARENT 62 18 64 20 66 22 57 33 53 35 55 37 44 48 40 50 42 52 18 63
REMARK H PARENT 14 65 16 67 31 78 27 80 29 82
REMARK Flexibility Score: inf
ROOT
ATOM      1  C   UNL     1     -17.841 -24.642  80.160  1.00  0.00     0.205 C 
ATOM      2  C   UNL     1     -16.619 -23.721  80.374  1.00  0.00     0.254 C 
ATOM      3  C   UNL     1     -16.856 -22.387  79.638  1.00  0.00     0.267 C 
ATOM      4  C   UNL     1     -17.230 -22.653  78.168  1.00  0.00     0.290 C 
ATOM      5  C   UNL     1     -18.377 -23.676  78.089  1.00  0.00     0.357 C 
ATOM      6  O   UNL     1     -18.050 -24.874  78.775  1.00  0.00    -0.329 OA
ENDROOT
BRANCH   1   7
ATOM      7  C   UNL     1     -17.651 -25.990  80.876  1.00  0.00     0.269 C 
BRANCH   7   8
ATOM      8  O   UNL     1     -18.537 -26.098  81.989  1.00  0.00    -0.459 OA
BRANCH   8   9
ATOM      9  C   UNL     1     -18.240 -25.638  83.277  1.00  0.00     0.338 C 
ATOM     10  O   UNL     1     -17.753 -26.423  84.135  1.00  0.00    -0.246 OA
BRANCH   9  11
ATOM     11  C   UNL     1     -18.467 -24.216  83.615  1.00  0.00     0.067 A 
ATOM     12  C   UNL     1     -17.633 -23.568  84.535  1.00  0.00     0.066 A 
ATOM     13  C   UNL     1     -17.847 -22.231  84.876  1.00  0.00     0.162 A 
ATOM     14  C   UNL     1     -19.520 -23.499  83.028  1.00  0.00     0.066 A 
ATOM     15  C   UNL     1     -18.909 -21.515  84.296  1.00  0.00     0.200 A 
ATOM     16  C   UNL     1     -19.750 -22.158  83.354  1.00  0.00     0.162 A 
BRANCH  13  17
ATOM     17  O   UNL     1     -17.000 -21.631  85.811  1.00  0.00    -0.504 OA
ATOM     18  H   UNL     1     -16.446 -22.170  86.466  1.00  0.00     0.293 HD
ENDBRANCH  13  17
BRANCH  15  19
ATOM     19  O   UNL     1     -19.103 -20.185  84.680  1.00  0.00    -0.502 OA
ATOM     20  H   UNL     1     -18.512 -19.421  84.389  1.00  0.00     0.293 HD
ENDBRANCH  15  19
BRANCH  16  21
ATOM     21  O   UNL     1     -20.810 -21.507  82.718  1.00  0.00    -0.504 OA
ATOM     22  H   UNL     1     -21.072 -21.652  81.756  1.00  0.00     0.293 HD
ENDBRANCH  16  21
ENDBRANCH   9  11
ENDBRANCH   8   9
ENDBRANCH   7   8
ENDBRANCH   1   7
BRANCH   2  23
ATOM     23  O   UNL     1     -15.450 -24.357  79.858  1.00  0.00    -0.452 OA
BRANCH  23  24
ATOM     24  C   UNL     1     -14.271 -24.544  80.594  1.00  0.00     0.338 C 
ATOM     25  O   UNL     1     -13.236 -25.000  80.035  1.00  0.00    -0.246 OA
BRANCH  24  26
ATOM     26  C   UNL     1     -14.247 -24.201  82.031  1.00  0.00     0.067 A 
ATOM     27  C   UNL     1     -13.924 -22.899  82.452  1.00  0.00     0.066 A 
ATOM     28  C   UNL     1     -14.558 -25.174  82.992  1.00  0.00     0.066 A 
ATOM     29  C   UNL     1     -13.912 -22.573  83.810  1.00  0.00     0.162 A 
ATOM     30  C   UNL     1     -14.541 -24.859  84.354  1.00  0.00     0.162 A 
ATOM     31  C   UNL     1     -14.215 -23.556  84.769  1.00  0.00     0.200 A 
BRANCH  29  32
ATOM     32  O   UNL     1     -13.614 -21.264  84.190  1.00  0.00    -0.504 OA
ATOM     33  H   UNL     1     -14.189 -20.480  83.904  1.00  0.00     0.293 HD
ENDBRANCH  29  32
BRANCH  30  34
ATOM     34  O   UNL     1     -14.840 -25.839  85.302  1.00  0.00    -0.504 OA
ATOM     35  H   UNL     1     -15.509 -25.664  86.045  1.00  0.00     0.293 HD
ENDBRANCH  30  34
BRANCH  31  36
ATOM     36  O   UNL     1     -14.199 -23.224  86.124  1.00  0.00    -0.502 OA
ATOM     37  H   UNL     1     -14.228 -23.929  86.855  1.00  0.00     0.293 HD
ENDBRANCH  31  36
ENDBRANCH  24  26
ENDBRANCH  23  24
ENDBRANCH   2  23
BRANCH   3  38
ATOM     38  O   UNL     1     -15.686 -21.570  79.680  1.00  0.00    -0.450 OA
BRANCH  38  39
ATOM     39  C   UNL     1     -15.621 -20.310  80.284  1.00  0.00     0.338 C 
ATOM     40  O   UNL     1     -14.554 -19.930  80.840  1.00  0.00    -0.246 OA
BRANCH  39  41
ATOM     41  C   UNL     1     -16.814 -19.432  80.274  1.00  0.00     0.067 A 
ATOM     42  C   UNL     1     -17.808 -19.542  81.261  1.00  0.00     0.066 A 
ATOM     43  C   UNL     1     -16.967 -18.473  79.260  1.00  0.00     0.066 A 
ATOM     44  C   UNL     1     -18.953 -18.734  81.219  1.00  0.00     0.162 A 
ATOM     45  C   UNL     1     -18.105 -17.664  79.208  1.00  0.00     0.162 A 
ATOM     46  C   UNL     1     -19.106 -17.795  80.184  1.00  0.00     0.200 A 
BRANCH  44  47
ATOM     47  O   UNL     1     -19.941 -18.860  82.199  1.00  0.00    -0.504 OA
ATOM     48  H   UNL     1     -20.019 -19.691  82.777  1.00  0.00     0.293 HD
ENDBRANCH  44  47
BRANCH  45  49
ATOM     49  O   UNL     1     -18.226 -16.729  78.180  1.00  0.00    -0.504 OA
ATOM     50  H   UNL     1     -17.475 -16.096  77.940  1.00  0.00     0.293 HD
ENDBRANCH  45  49
BRANCH  46  51
ATOM     51  O   UNL     1     -20.241 -16.987  80.117  1.00  0.00    -0.502 OA
ATOM     52  H   UNL     1     -20.724 -16.655  80.945  1.00  0.00     0.293 HD
ENDBRANCH  46  51
ENDBRANCH  39  41
ENDBRANCH  38  39
ENDBRANCH   3  38
BRANCH   5  53
ATOM     53  O   UNL     1     -19.591 -23.119  78.597  1.00  0.00    -0.428 OA
BRANCH  53  54
ATOM     54  C   UNL     1     -20.762 -23.000  77.837  1.00  0.00     0.340 C 
ATOM     55  O   UNL     1     -20.990 -23.806  76.894  1.00  0.00    -0.246 OA
BRANCH  54  56
ATOM     56  C   UNL     1     -21.713 -21.905  78.131  1.00  0.00     0.067 A 
ATOM     57  C   UNL     1     -21.553 -21.125  79.288  1.00  0.00     0.066 A 
ATOM     58  C   UNL     1     -22.774 -21.625  77.254  1.00  0.00     0.066 A 
ATOM     59  C   UNL     1     -22.448 -20.084  79.573  1.00  0.00     0.162 A 
ATOM     60  C   UNL     1     -23.667 -20.581  77.530  1.00  0.00     0.162 A 
ATOM     61  C   UNL     1     -23.511 -19.812  78.694  1.00  0.00     0.200 A 
BRANCH  59  62
ATOM     62  O   UNL     1     -22.287 -19.317  80.725  1.00  0.00    -0.504 OA
ATOM     63  H   UNL     1     -22.749 -18.423  80.838  1.00  0.00     0.293 HD
ENDBRANCH  59  62
BRANCH  60  64
ATOM     64  O   UNL     1     -24.715 -20.324  76.646  1.00  0.00    -0.504 OA
ATOM     65  H   UNL     1     -25.201 -21.070  76.161  1.00  0.00     0.293 HD
ENDBRANCH  60  64
BRANCH  61  66
ATOM     66  O   UNL     1     -24.416 -18.782  78.961  1.00  0.00    -0.502 OA
ATOM     67  H   UNL     1     -25.243 -18.630  78.385  1.00  0.00     0.293 HD
ENDBRANCH  61  66
ENDBRANCH  54  56
ENDBRANCH  53  54
ENDBRANCH   5  53
BRANCH   4  68
ATOM     68  O   UNL     1     -17.634 -21.436  77.532  1.00  0.00    -0.448 OA
BRANCH  68  69
ATOM     69  C   UNL     1     -18.027 -21.358  76.187  1.00  0.00     0.339 C 
ATOM     70  O   UNL     1     -17.413 -22.025  75.311  1.00  0.00    -0.246 OA
BRANCH  69  71
ATOM     71  C   UNL     1     -19.185 -20.526  75.801  1.00  0.00     0.067 A 
ATOM     72  C   UNL     1     -19.912 -20.809  74.631  1.00  0.00     0.066 A 
ATOM     73  C   UNL     1     -19.579 -19.442  76.602  1.00  0.00     0.066 A 
ATOM     74  C   UNL     1     -21.033 -20.042  74.285  1.00  0.00     0.162 A 
ATOM     75  C   UNL     1     -20.688 -18.656  76.260  1.00  0.00     0.162 A 
ATOM     76  C   UNL     1     -21.435 -18.972  75.098  1.00  0.00     0.200 A 
BRANCH  74  77
ATOM     77  O   UNL     1     -21.766 -20.343  73.137  1.00  0.00    -0.504 OA
ATOM     78  H   UNL     1     -22.773 -20.391  73.153  1.00  0.00     0.293 HD
ENDBRANCH  74  77
BRANCH  75  79
ATOM     79  O   UNL     1     -20.998 -17.577  77.093  1.00  0.00    -0.504 OA
ATOM     80  H   UNL     1     -20.743 -16.622  76.898  1.00  0.00     0.293 HD
ENDBRANCH  75  79
BRANCH  76  81
ATOM     81  O   UNL     1     -22.579 -18.259  74.731  1.00  0.00    -0.502 OA
ATOM     82  H   UNL     1     -23.007 -17.560  75.312  1.00  0.00     0.293 HD
ENDBRANCH  76  81
ENDBRANCH  69  71
ENDBRANCH  68  69
ENDBRANCH   4  68
TORSDOF 31
ENDMDL
MODEL 3
REMARK VINA RESULT:    -1.086      2.003      7.154
REMARK INTER + INTRA:         -12.181
REMARK INTER:                  -3.088
REMARK INTRA:                  -9.093
REMARK UNBOUND:                -9.602
REMARK SMILES O=C(OC[C@@H]1O[C@@H](OC(=O)c2cc(O)c(O)c(O)c2)[C@@H](OC(=O)c2cc(O)c(O)c(O)c2)[C@H](OC(=O)c2cc(O)c(O)c(O)c2)[C@@H]1OC(=O)c1cc(O)c(O)c(O)c1)c1cc(O)c(O)c(O)c1
REMARK SMILES IDX 5 1 46 2 33 3 20 4 7 5 6 6 4 7 3 8 2 9 1 10 59 11 60 12
REMARK SMILES IDX 61 13 67 14 63 15 65 16 62 17 64 19 66 21 47 23 48 24 49 25
REMARK SMILES IDX 50 26 58 27 51 28 56 29 52 30 54 31 57 32 53 34 55 36 34 38
REMARK SMILES IDX 35 39 36 40 37 41 45 42 38 43 43 44 39 45 41 46 44 47 40 49
REMARK SMILES IDX 42 51 8 53 9 54 10 55 11 56 19 57 12 58 17 59 13 60 15 61
REMARK SMILES IDX 18 62 14 64 16 66 21 68 22 69 23 70 24 71 32 72 25 73 30 74
REMARK SMILES IDX 26 75 28 76 31 77 27 79 29 81
REMARK H PARENT 62 18 64 20 66 22 57 33 53 35 55 37 44 48 40 50 42 52 18 63
REMARK H PARENT 14 65 16 67 31 78 27 80 29 82
REMARK Flexibility Score: inf
ROOT
ATOM      1  C   UNL     1     -18.942 -23.070  82.383  1.00  0.00     0.205 C 
ATOM      2  C   UNL     1     -19.141 -21.658  81.789  1.00  0.00     0.254 C 
ATOM      3  C   UNL     1     -19.508 -20.679  82.923  1.00  0.00     0.267 C 
ATOM      4  C   UNL     1     -20.700 -21.227  83.729  1.00  0.00     0.290 C 
ATOM      5  C   UNL     1     -20.427 -22.680  84.157  1.00  0.00     0.357 C 
ATOM      6  O   UNL     1     -20.124 -23.502  83.041  1.00  0.00    -0.329 OA
ENDROOT
BRANCH   1   7
ATOM      7  C   UNL     1     -18.575 -24.085  81.287  1.00  0.00     0.269 C 
BRANCH   7   8
ATOM      8  O   UNL     1     -17.163 -24.114  81.080  1.00  0.00    -0.459 OA
BRANCH   8   9
ATOM      9  C   UNL     1     -16.522 -23.573  79.959  1.00  0.00     0.338 C 
ATOM     10  O   UNL     1     -16.494 -24.214  78.874  1.00  0.00    -0.246 OA
BRANCH   9  11
ATOM     11  C   UNL     1     -15.909 -22.230  80.046  1.00  0.00     0.067 A 
ATOM     12  C   UNL     1     -15.115 -21.887  81.148  1.00  0.00     0.066 A 
ATOM     13  C   UNL     1     -14.543 -20.617  81.250  1.00  0.00     0.162 A 
ATOM     14  C   UNL     1     -16.116 -21.281  79.034  1.00  0.00     0.066 A 
ATOM     15  C   UNL     1     -14.761 -19.662  80.241  1.00  0.00     0.200 A 
ATOM     16  C   UNL     1     -15.551 -20.004  79.116  1.00  0.00     0.162 A 
BRANCH  13  17
ATOM     17  O   UNL     1     -13.773 -20.314  82.375  1.00  0.00    -0.504 OA
ATOM     18  H   UNL     1     -14.160 -20.306  83.311  1.00  0.00     0.293 HD
ENDBRANCH  13  17
BRANCH  15  19
ATOM     19  O   UNL     1     -14.188 -18.395  80.391  1.00  0.00    -0.502 OA
ATOM     20  H   UNL     1     -13.200 -18.231  80.505  1.00  0.00     0.293 HD
ENDBRANCH  15  19
BRANCH  16  21
ATOM     21  O   UNL     1     -15.792 -19.117  78.062  1.00  0.00    -0.504 OA
ATOM     22  H   UNL     1     -16.097 -18.165  78.180  1.00  0.00     0.293 HD
ENDBRANCH  16  21
ENDBRANCH   9  11
ENDBRANCH   8   9
ENDBRANCH   7   8
ENDBRANCH   1   7
BRANCH   2  23
ATOM     23  O   UNL     1     -20.189 -21.693  80.821  1.00  0.00    -0.452 OA
BRANCH  23  24
ATOM     24  C   UNL     1     -20.002 -21.450  79.453  1.00  0.00     0.338 C 
ATOM     25  O   UNL     1     -19.705 -22.396  78.673  1.00  0.00    -0.246 OA
BRANCH  24  26
ATOM     26  C   UNL     1     -20.157 -20.078  78.929  1.00  0.00     0.067 A 
ATOM     27  C   UNL     1     -21.309 -19.326  79.219  1.00  0.00     0.066 A 
ATOM     28  C   UNL     1     -19.147 -19.507  78.141  1.00  0.00     0.066 A 
ATOM     29  C   UNL     1     -21.450 -18.024  78.730  1.00  0.00     0.162 A 
ATOM     30  C   UNL     1     -19.283 -18.209  77.642  1.00  0.00     0.162 A 
ATOM     31  C   UNL     1     -20.438 -17.461  77.933  1.00  0.00     0.200 A 
BRANCH  29  32
ATOM     32  O   UNL     1     -22.594 -17.296  79.062  1.00  0.00    -0.504 OA
ATOM     33  H   UNL     1     -22.540 -16.368  79.462  1.00  0.00     0.293 HD
ENDBRANCH  29  32
BRANCH  30  34
ATOM     34  O   UNL     1     -18.276 -17.655  76.849  1.00  0.00    -0.504 OA
ATOM     35  H   UNL     1     -18.167 -17.923  75.876  1.00  0.00     0.293 HD
ENDBRANCH  30  34
BRANCH  31  36
ATOM     36  O   UNL     1     -20.586 -16.161  77.448  1.00  0.00    -0.502 OA
ATOM     37  H   UNL     1     -20.284 -15.348  77.977  1.00  0.00     0.293 HD
ENDBRANCH  31  36
ENDBRANCH  24  26
ENDBRANCH  23  24
ENDBRANCH   2  23
BRANCH   3  38
ATOM     38  O   UNL     1     -19.852 -19.399  82.395  1.00  0.00    -0.450 OA
BRANCH  38  39
ATOM     39  C   UNL     1     -19.235 -18.198  82.762  1.00  0.00     0.338 C 
ATOM     40  O   UNL     1     -18.981 -17.962  83.975  1.00  0.00    -0.246 OA
BRANCH  39  41
ATOM     41  C   UNL     1     -18.891 -17.205  81.718  1.00  0.00     0.067 A 
ATOM     42  C   UNL     1     -17.750 -17.361  80.912  1.00  0.00     0.066 A 
ATOM     43  C   UNL     1     -19.707 -16.079  81.528  1.00  0.00     0.066 A 
ATOM     44  C   UNL     1     -17.411 -16.394  79.955  1.00  0.00     0.162 A 
ATOM     45  C   UNL     1     -19.377 -15.108  80.579  1.00  0.00     0.162 A 
ATOM     46  C   UNL     1     -18.224 -15.259  79.791  1.00  0.00     0.200 A 
BRANCH  44  47
ATOM     47  O   UNL     1     -16.268 -16.554  79.166  1.00  0.00    -0.504 OA
ATOM     48  H   UNL     1     -16.233 -16.234  78.204  1.00  0.00     0.293 HD
ENDBRANCH  44  47
BRANCH  45  49
ATOM     49  O   UNL     1     -20.209 -13.999  80.425  1.00  0.00    -0.504 OA
ATOM     50  H   UNL     1     -20.294 -13.511  79.543  1.00  0.00     0.293 HD
ENDBRANCH  45  49
BRANCH  46  51
ATOM     51  O   UNL     1     -17.901 -14.280  78.852  1.00  0.00    -0.502 OA
ATOM     52  H   UNL     1     -18.432 -13.421  78.755  1.00  0.00     0.293 HD
ENDBRANCH  46  51
ENDBRANCH  39  41
ENDBRANCH  38  39
ENDBRANCH   3  38
BRANCH   5  53
ATOM     53  O   UNL     1     -19.377 -22.737  85.126  1.00  0.00    -0.428 OA
BRANCH  53  54
ATOM     54  C   UNL     1     -18.646 -23.899  85.404  1.00  0.00     0.340 C 
ATOM     55  O   UNL     1     -19.197 -24.866  85.998  1.00  0.00    -0.246 OA
BRANCH  54  56
ATOM     56  C   UNL     1     -17.218 -23.969  85.023  1.00  0.00     0.067 A 
ATOM     57  C   UNL     1     -16.668 -25.182  84.574  1.00  0.00     0.066 A 
ATOM     58  C   UNL     1     -16.403 -22.828  85.092  1.00  0.00     0.066 A 
ATOM     59  C   UNL     1     -15.317 -25.257  84.208  1.00  0.00     0.162 A 
ATOM     60  C   UNL     1     -15.053 -22.896  84.720  1.00  0.00     0.162 A 
ATOM     61  C   UNL     1     -14.504 -24.112  84.284  1.00  0.00     0.200 A 
BRANCH  59  62
ATOM     62  O   UNL     1     -14.777 -26.463  83.768  1.00  0.00    -0.504 OA
ATOM     63  H   UNL     1     -13.908 -26.826  84.145  1.00  0.00     0.293 HD
ENDBRANCH  59  62
BRANCH  60  64
ATOM     64  O   UNL     1     -14.262 -21.750  84.801  1.00  0.00    -0.504 OA
ATOM     65  H   UNL     1     -14.657 -20.841  85.014  1.00  0.00     0.293 HD
ENDBRANCH  60  64
BRANCH  61  66
ATOM     66  O   UNL     1     -13.154 -24.167  83.928  1.00  0.00    -0.502 OA
ATOM     67  H   UNL     1     -12.415 -24.221  84.628  1.00  0.00     0.293 HD
ENDBRANCH  61  66
ENDBRANCH  54  56
ENDBRANCH  53  54
ENDBRANCH   5  53
BRANCH   4  68
ATOM     68  O   UNL     1     -20.923 -20.423  84.891  1.00  0.00    -0.448 OA
BRANCH  68  69
ATOM     69  C   UNL     1     -22.134 -19.767  85.158  1.00  0.00     0.339 C 
ATOM     70  O   UNL     1     -22.853 -20.137  86.125  1.00  0.00    -0.246 OA
BRANCH  69  71
ATOM     71  C   UNL     1     -22.549 -18.614  84.331  1.00  0.00     0.067 A 
ATOM     72  C   UNL     1     -22.231 -17.301  84.721  1.00  0.00     0.066 A 
ATOM     73  C   UNL     1     -23.265 -18.817  83.140  1.00  0.00     0.066 A 
ATOM     74  C   UNL     1     -22.592 -16.211  83.917  1.00  0.00     0.162 A 
ATOM     75  C   UNL     1     -23.646 -17.735  82.334  1.00  0.00     0.162 A 
ATOM     76  C   UNL     1     -23.289 -16.418  82.718  1.00  0.00     0.200 A 
BRANCH  74  77
ATOM     77  O   UNL     1     -22.250 -14.913  84.296  1.00  0.00    -0.504 OA
ATOM     78  H   UNL     1     -21.289 -14.638  84.428  1.00  0.00     0.293 HD
ENDBRANCH  74  77
BRANCH  75  79
ATOM     79  O   UNL     1     -24.382 -18.016  81.179  1.00  0.00    -0.504 OA
ATOM     80  H   UNL     1     -24.432 -17.407  80.379  1.00  0.00     0.293 HD
ENDBRANCH  75  79
BRANCH  76  81
ATOM     81  O   UNL     1     -23.596 -15.304  81.934  1.00  0.00    -0.502 OA
ATOM     82  H   UNL     1     -23.741 -15.349  80.940  1.00  0.00     0.293 HD
ENDBRANCH  76  81
ENDBRANCH  69  71
ENDBRANCH  68  69
ENDBRANCH   4  68
TORSDOF 31
ENDMDL
MODEL 4
REMARK VINA RESULT:    -1.081      2.459      5.591
REMARK INTER + INTRA:         -12.167
REMARK INTER:                  -3.015
REMARK INTRA:                  -9.153
REMARK UNBOUND:                -9.602
REMARK SMILES O=C(OC[C@@H]1O[C@@H](OC(=O)c2cc(O)c(O)c(O)c2)[C@@H](OC(=O)c2cc(O)c(O)c(O)c2)[C@H](OC(=O)c2cc(O)c(O)c(O)c2)[C@@H]1OC(=O)c1cc(O)c(O)c(O)c1)c1cc(O)c(O)c(O)c1
REMARK SMILES IDX 5 1 46 2 33 3 20 4 7 5 6 6 4 7 3 8 2 9 1 10 59 11 60 12
REMARK SMILES IDX 61 13 67 14 63 15 65 16 62 17 64 19 66 21 47 23 48 24 49 25
REMARK SMILES IDX 50 26 58 27 51 28 56 29 52 30 54 31 57 32 53 34 55 36 34 38
REMARK SMILES IDX 35 39 36 40 37 41 45 42 38 43 43 44 39 45 41 46 44 47 40 49
REMARK SMILES IDX 42 51 8 53 9 54 10 55 11 56 19 57 12 58 17 59 13 60 15 61
REMARK SMILES IDX 18 62 14 64 16 66 21 68 22 69 23 70 24 71 32 72 25 73 30 74
REMARK SMILES IDX 26 75 28 76 31 77 27 79 29 81
REMARK H PARENT 62 18 64 20 66 22 57 33 53 35 55 37 44 48 40 50 42 52 18 63
REMARK H PARENT 14 65 16 67 31 78 27 80 29 82
REMARK Flexibility Score: inf
ROOT
ATOM      1  C   UNL     1     -19.999 -22.413  83.909  1.00  0.00     0.205 C 
ATOM      2  C   UNL     1     -19.490 -23.168  82.661  1.00  0.00     0.254 C 
ATOM      3  C   UNL     1     -19.271 -22.160  81.515  1.00  0.00     0.267 C 
ATOM      4  C   UNL     1     -20.542 -21.317  81.301  1.00  0.00     0.290 C 
ATOM      5  C   UNL     1     -21.014 -20.721  82.639  1.00  0.00     0.357 C 
ATOM      6  O   UNL     1     -21.209 -21.730  83.617  1.00  0.00    -0.329 OA
ENDROOT
BRANCH   1   7
ATOM      7  C   UNL     1     -20.235 -23.379  85.082  1.00  0.00     0.269 C 
BRANCH   7   8
ATOM      8  O   UNL     1     -19.026 -23.592  85.810  1.00  0.00    -0.459 OA
BRANCH   8   9
ATOM      9  C   UNL     1     -18.135 -24.643  85.562  1.00  0.00     0.338 C 
ATOM     10  O   UNL     1     -18.436 -25.821  85.893  1.00  0.00    -0.246 OA
BRANCH   9  11
ATOM     11  C   UNL     1     -16.853 -24.367  84.878  1.00  0.00     0.067 A 
ATOM     12  C   UNL     1     -16.174 -23.164  85.110  1.00  0.00     0.066 A 
ATOM     13  C   UNL     1     -14.971 -22.884  84.458  1.00  0.00     0.162 A 
ATOM     14  C   UNL     1     -16.302 -25.299  83.985  1.00  0.00     0.066 A 
ATOM     15  C   UNL     1     -14.425 -23.813  83.555  1.00  0.00     0.200 A 
ATOM     16  C   UNL     1     -15.098 -25.039  83.324  1.00  0.00     0.162 A 
BRANCH  13  17
ATOM     17  O   UNL     1     -14.338 -21.664  84.707  1.00  0.00    -0.504 OA
ATOM     18  H   UNL     1     -14.518 -20.836  84.152  1.00  0.00     0.293 HD
ENDBRANCH  13  17
BRANCH  15  19
ATOM     19  O   UNL     1     -13.230 -23.486  82.906  1.00  0.00    -0.502 OA
ATOM     20  H   UNL     1     -12.355 -23.962  83.061  1.00  0.00     0.293 HD
ENDBRANCH  15  19
BRANCH  16  21
ATOM     21  O   UNL     1     -14.605 -26.021  82.459  1.00  0.00    -0.504 OA
ATOM     22  H   UNL     1     -13.988 -25.838  81.685  1.00  0.00     0.293 HD
ENDBRANCH  16  21
ENDBRANCH   9  11
ENDBRANCH   8   9
ENDBRANCH   7   8
ENDBRANCH   1   7
BRANCH   2  23
ATOM     23  O   UNL     1     -20.456 -24.143  82.269  1.00  0.00    -0.452 OA
BRANCH  23  24
ATOM     24  C   UNL     1     -20.210 -25.523  82.245  1.00  0.00     0.338 C 
ATOM     25  O   UNL     1     -20.637 -26.263  83.174  1.00  0.00    -0.246 OA
BRANCH  24  26
ATOM     26  C   UNL     1     -19.450 -26.108  81.123  1.00  0.00     0.067 A 
ATOM     27  C   UNL     1     -18.133 -26.566  81.309  1.00  0.00     0.066 A 
ATOM     28  C   UNL     1     -20.040 -26.221  79.855  1.00  0.00     0.066 A 
ATOM     29  C   UNL     1     -17.418 -27.129  80.248  1.00  0.00     0.162 A 
ATOM     30  C   UNL     1     -19.330 -26.775  78.787  1.00  0.00     0.162 A 
ATOM     31  C   UNL     1     -18.014 -27.230  78.979  1.00  0.00     0.200 A 
BRANCH  29  32
ATOM     32  O   UNL     1     -16.124 -27.599  80.477  1.00  0.00    -0.504 OA
ATOM     33  H   UNL     1     -15.949 -28.458  80.984  1.00  0.00     0.293 HD
ENDBRANCH  29  32
BRANCH  30  34
ATOM     34  O   UNL     1     -19.925 -26.872  77.527  1.00  0.00    -0.504 OA
ATOM     35  H   UNL     1     -19.653 -26.254  76.769  1.00  0.00     0.293 HD
ENDBRANCH  30  34
BRANCH  31  36
ATOM     36  O   UNL     1     -17.293 -27.792  77.923  1.00  0.00    -0.502 OA
ATOM     37  H   UNL     1     -16.291 -27.659  77.821  1.00  0.00     0.293 HD
ENDBRANCH  31  36
ENDBRANCH  24  26
ENDBRANCH  23  24
ENDBRANCH   2  23
BRANCH   3  38
ATOM     38  O   UNL     1     -18.951 -22.836  80.299  1.00  0.00    -0.450 OA
BRANCH  38  39
ATOM     39  C   UNL     1     -17.687 -22.837  79.702  1.00  0.00     0.338 C 
ATOM     40  O   UNL     1     -17.316 -23.822  79.007  1.00  0.00    -0.246 OA
BRANCH  39  41
ATOM     41  C   UNL     1     -16.785 -21.678  79.898  1.00  0.00     0.067 A 
ATOM     42  C   UNL     1     -15.798 -21.685  80.899  1.00  0.00     0.066 A 
ATOM     43  C   UNL     1     -16.914 -20.544  79.081  1.00  0.00     0.066 A 
ATOM     44  C   UNL     1     -14.977 -20.567  81.104  1.00  0.00     0.162 A 
ATOM     45  C   UNL     1     -16.102 -19.424  79.278  1.00  0.00     0.162 A 
ATOM     46  C   UNL     1     -15.133 -19.428  80.295  1.00  0.00     0.200 A 
BRANCH  44  47
ATOM     47  O   UNL     1     -14.006 -20.580  82.110  1.00  0.00    -0.504 OA
ATOM     48  H   UNL     1     -13.507 -19.740  82.384  1.00  0.00     0.293 HD
ENDBRANCH  44  47
BRANCH  45  49
ATOM     49  O   UNL     1     -16.267 -18.313  78.451  1.00  0.00    -0.504 OA
ATOM     50  H   UNL     1     -17.179 -17.924  78.251  1.00  0.00     0.293 HD
ENDBRANCH  45  49
BRANCH  46  51
ATOM     51  O   UNL     1     -14.334 -18.302  80.486  1.00  0.00    -0.502 OA
ATOM     52  H   UNL     1     -14.007 -18.014  81.402  1.00  0.00     0.293 HD
ENDBRANCH  46  51
ENDBRANCH  39  41
ENDBRANCH  38  39
ENDBRANCH   3  38
BRANCH   5  53
ATOM     53  O   UNL     1     -20.093 -19.734  83.109  1.00  0.00    -0.428 OA
BRANCH  53  54
ATOM     54  C   UNL     1     -20.437 -18.392  83.311  1.00  0.00     0.340 C 
ATOM     55  O   UNL     1     -21.239 -18.075  84.232  1.00  0.00    -0.246 OA
BRANCH  54  56
ATOM     56  C   UNL     1     -19.877 -17.354  82.417  1.00  0.00     0.067 A 
ATOM     57  C   UNL     1     -20.701 -16.331  81.921  1.00  0.00     0.066 A 
ATOM     58  C   UNL     1     -18.517 -17.372  82.067  1.00  0.00     0.066 A 
ATOM     59  C   UNL     1     -20.178 -15.342  81.076  1.00  0.00     0.162 A 
ATOM     60  C   UNL     1     -17.986 -16.382  81.229  1.00  0.00     0.162 A 
ATOM     61  C   UNL     1     -18.817 -15.369  80.725  1.00  0.00     0.200 A 
BRANCH  59  62
ATOM     62  O   UNL     1     -21.002 -14.334  80.583  1.00  0.00    -0.504 OA
ATOM     63  H   UNL     1     -21.893 -14.116  81.015  1.00  0.00     0.293 HD
ENDBRANCH  59  62
BRANCH  60  64
ATOM     64  O   UNL     1     -16.634 -16.423  80.891  1.00  0.00    -0.504 OA
ATOM     65  H   UNL     1     -16.320 -16.703  79.968  1.00  0.00     0.293 HD
ENDBRANCH  60  64
BRANCH  61  66
ATOM     66  O   UNL     1     -18.276 -14.396  79.880  1.00  0.00    -0.502 OA
ATOM     67  H   UNL     1     -18.745 -14.106  79.023  1.00  0.00     0.293 HD
ENDBRANCH  61  66
ENDBRANCH  54  56
ENDBRANCH  53  54
ENDBRANCH   5  53
BRANCH   4  68
ATOM     68  O   UNL     1     -20.284 -20.258  80.374  1.00  0.00    -0.448 OA
BRANCH  68  69
ATOM     69  C   UNL     1     -21.219 -19.813  79.427  1.00  0.00     0.339 C 
ATOM     70  O   UNL     1     -22.246 -20.501  79.182  1.00  0.00    -0.246 OA
BRANCH  69  71
ATOM     71  C   UNL     1     -21.023 -18.516  78.746  1.00  0.00     0.067 A 
ATOM     72  C   UNL     1     -22.120 -17.683  78.461  1.00  0.00     0.066 A 
ATOM     73  C   UNL     1     -19.734 -18.095  78.378  1.00  0.00     0.066 A 
ATOM     74  C   UNL     1     -21.929 -16.437  77.849  1.00  0.00     0.162 A 
ATOM     75  C   UNL     1     -19.530 -16.859  77.751  1.00  0.00     0.162 A 
ATOM     76  C   UNL     1     -20.638 -16.011  77.501  1.00  0.00     0.200 A 
BRANCH  74  77
ATOM     77  O   UNL     1     -23.018 -15.603  77.593  1.00  0.00    -0.504 OA
ATOM     78  H   UNL     1     -23.607 -15.263  78.337  1.00  0.00     0.293 HD
ENDBRANCH  74  77
BRANCH  75  79
ATOM     79  O   UNL     1     -18.222 -16.525  77.389  1.00  0.00    -0.504 OA
ATOM     80  H   UNL     1     -17.686 -15.790  77.822  1.00  0.00     0.293 HD
ENDBRANCH  75  79
BRANCH  76  81
ATOM     81  O   UNL     1     -20.495 -14.747  76.925  1.00  0.00    -0.502 OA
ATOM     82  H   UNL     1     -19.831 -14.541  76.200  1.00  0.00     0.293 HD
ENDBRANCH  76  81
ENDBRANCH  69  71
ENDBRANCH  68  69
ENDBRANCH   4  68
TORSDOF 31
ENDMDL
MODEL 5
REMARK VINA RESULT:    -1.074      2.304      6.591
REMARK INTER + INTRA:         -12.151
REMARK INTER:                  -2.964
REMARK INTRA:                  -9.187
REMARK UNBOUND:                -9.602
REMARK SMILES O=C(OC[C@@H]1O[C@@H](OC(=O)c2cc(O)c(O)c(O)c2)[C@@H](OC(=O)c2cc(O)c(O)c(O)c2)[C@H](OC(=O)c2cc(O)c(O)c(O)c2)[C@@H]1OC(=O)c1cc(O)c(O)c(O)c1)c1cc(O)c(O)c(O)c1
REMARK SMILES IDX 5 1 46 2 33 3 20 4 7 5 6 6 4 7 3 8 2 9 1 10 59 11 60 12
REMARK SMILES IDX 61 13 67 14 63 15 65 16 62 17 64 19 66 21 47 23 48 24 49 25
REMARK SMILES IDX 50 26 58 27 51 28 56 29 52 30 54 31 57 32 53 34 55 36 34 38
REMARK SMILES IDX 35 39 36 40 37 41 45 42 38 43 43 44 39 45 41 46 44 47 40 49
REMARK SMILES IDX 42 51 8 53 9 54 10 55 11 56 19 57 12 58 17 59 13 60 15 61
REMARK SMILES IDX 18 62 14 64 16 66 21 68 22 69 23 70 24 71 32 72 25 73 30 74
REMARK SMILES IDX 26 75 28 76 31 77 27 79 29 81
REMARK H PARENT 62 18 64 20 66 22 57 33 53 35 55 37 44 48 40 50 42 52 18 63
REMARK H PARENT 14 65 16 67 31 78 27 80 29 82
REMARK Flexibility Score: inf
ROOT
ATOM      1  C   UNL     1     -18.229 -24.629  81.766  1.00  0.00     0.205 C 
ATOM      2  C   UNL     1     -18.265 -23.260  81.052  1.00  0.00     0.254 C 
ATOM      3  C   UNL     1     -19.247 -22.329  81.792  1.00  0.00     0.267 C 
ATOM      4  C   UNL     1     -20.612 -23.022  81.953  1.00  0.00     0.290 C 
ATOM      5  C   UNL     1     -20.427 -24.424  82.562  1.00  0.00     0.357 C 
ATOM      6  O   UNL     1     -19.526 -25.207  81.795  1.00  0.00    -0.329 OA
ENDROOT
BRANCH   1   7
ATOM      7  C   UNL     1     -17.261 -25.595  81.062  1.00  0.00     0.269 C 
BRANCH   7   8
ATOM      8  O   UNL     1     -15.928 -25.404  81.532  1.00  0.00    -0.459 OA
BRANCH   8   9
ATOM      9  C   UNL     1     -14.909 -24.806  80.782  1.00  0.00     0.338 C 
ATOM     10  O   UNL     1     -14.350 -25.443  79.849  1.00  0.00    -0.246 OA
BRANCH   9  11
ATOM     11  C   UNL     1     -14.516 -23.409  81.068  1.00  0.00     0.067 A 
ATOM     12  C   UNL     1     -14.351 -22.494  80.019  1.00  0.00     0.066 A 
ATOM     13  C   UNL     1     -13.964 -21.177  80.274  1.00  0.00     0.162 A 
ATOM     14  C   UNL     1     -14.296 -22.981  82.386  1.00  0.00     0.066 A 
ATOM     15  C   UNL     1     -13.732 -20.751  81.594  1.00  0.00     0.200 A 
ATOM     16  C   UNL     1     -13.910 -21.666  82.662  1.00  0.00     0.162 A 
BRANCH  13  17
ATOM     17  O   UNL     1     -13.795 -20.304  79.196  1.00  0.00    -0.504 OA
ATOM     18  H   UNL     1     -13.014 -20.379  78.556  1.00  0.00     0.293 HD
ENDBRANCH  13  17
BRANCH  15  19
ATOM     19  O   UNL     1     -13.325 -19.430  81.805  1.00  0.00    -0.502 OA
ATOM     20  H   UNL     1     -13.707 -18.636  81.315  1.00  0.00     0.293 HD
ENDBRANCH  15  19
BRANCH  16  21
ATOM     21  O   UNL     1     -13.722 -21.310  84.001  1.00  0.00    -0.504 OA
ATOM     22  H   UNL     1     -12.947 -21.615  84.567  1.00  0.00     0.293 HD
ENDBRANCH  16  21
ENDBRANCH   9  11
ENDBRANCH   8   9
ENDBRANCH   7   8
ENDBRANCH   1   7
BRANCH   2  23
ATOM     23  O   UNL     1     -18.692 -23.439  79.701  1.00  0.00    -0.452 OA
BRANCH  23  24
ATOM     24  C   UNL     1     -17.886 -23.179  78.584  1.00  0.00     0.338 C 
ATOM     25  O   UNL     1     -17.132 -24.077  78.119  1.00  0.00    -0.246 OA
BRANCH  24  26
ATOM     26  C   UNL     1     -17.928 -21.845  77.951  1.00  0.00     0.067 A 
ATOM     27  C   UNL     1     -16.742 -21.135  77.695  1.00  0.00     0.066 A 
ATOM     28  C   UNL     1     -19.158 -21.276  77.589  1.00  0.00     0.066 A 
ATOM     29  C   UNL     1     -16.782 -19.877  77.088  1.00  0.00     0.162 A 
ATOM     30  C   UNL     1     -19.209 -20.016  76.987  1.00  0.00     0.162 A 
ATOM     31  C   UNL     1     -18.019 -19.309  76.735  1.00  0.00     0.200 A 
BRANCH  29  32
ATOM     32  O   UNL     1     -15.583 -19.213  76.823  1.00  0.00    -0.504 OA
ATOM     33  H   UNL     1     -15.560 -18.235  76.561  1.00  0.00     0.293 HD
ENDBRANCH  29  32
BRANCH  30  34
ATOM     34  O   UNL     1     -20.440 -19.455  76.641  1.00  0.00    -0.504 OA
ATOM     35  H   UNL     1     -20.610 -18.459  76.742  1.00  0.00     0.293 HD
ENDBRANCH  30  34
BRANCH  31  36
ATOM     36  O   UNL     1     -18.052 -18.052  76.130  1.00  0.00    -0.502 OA
ATOM     37  H   UNL     1     -17.243 -17.656  75.660  1.00  0.00     0.293 HD
ENDBRANCH  31  36
ENDBRANCH  24  26
ENDBRANCH  23  24
ENDBRANCH   2  23
BRANCH   3  38
ATOM     38  O   UNL     1     -19.427 -21.109  81.074  1.00  0.00    -0.450 OA
BRANCH  38  39
ATOM     39  C   UNL     1     -19.196 -19.836  81.605  1.00  0.00     0.338 C 
ATOM     40  O   UNL     1     -19.608 -19.549  82.763  1.00  0.00    -0.246 OA
BRANCH  39  41
ATOM     41  C   UNL     1     -18.474 -18.826  80.796  1.00  0.00     0.067 A 
ATOM     42  C   UNL     1     -17.070 -18.807  80.738  1.00  0.00     0.066 A 
ATOM     43  C   UNL     1     -19.196 -17.860  80.077  1.00  0.00     0.066 A 
ATOM     44  C   UNL     1     -16.396 -17.822  80.003  1.00  0.00     0.162 A 
ATOM     45  C   UNL     1     -18.533 -16.873  79.343  1.00  0.00     0.162 A 
ATOM     46  C   UNL     1     -17.130 -16.847  79.307  1.00  0.00     0.200 A 
BRANCH  44  47
ATOM     47  O   UNL     1     -14.998 -17.807  79.961  1.00  0.00    -0.504 OA
ATOM     48  H   UNL     1     -14.464 -18.604  79.631  1.00  0.00     0.293 HD
ENDBRANCH  44  47
BRANCH  45  49
ATOM     49  O   UNL     1     -19.286 -15.925  78.648  1.00  0.00    -0.504 OA
ATOM     50  H   UNL     1     -18.854 -15.164  78.141  1.00  0.00     0.293 HD
ENDBRANCH  45  49
BRANCH  46  51
ATOM     51  O   UNL     1     -16.480 -15.852  78.576  1.00  0.00    -0.502 OA
ATOM     52  H   UNL     1     -16.350 -15.911  77.572  1.00  0.00     0.293 HD
ENDBRANCH  46  51
ENDBRANCH  39  41
ENDBRANCH  38  39
ENDBRANCH   3  38
BRANCH   5  53
ATOM     53  O   UNL     1     -19.989 -24.335  83.920  1.00  0.00    -0.428 OA
BRANCH  53  54
ATOM     54  C   UNL     1     -19.123 -25.262  84.513  1.00  0.00     0.340 C 
ATOM     55  O   UNL     1     -19.503 -26.449  84.708  1.00  0.00    -0.246 OA
BRANCH  54  56
ATOM     56  C   UNL     1     -17.772 -24.830  84.934  1.00  0.00     0.067 A 
ATOM     57  C   UNL     1     -16.738 -25.773  85.061  1.00  0.00     0.066 A 
ATOM     58  C   UNL     1     -17.504 -23.477  85.198  1.00  0.00     0.066 A 
ATOM     59  C   UNL     1     -15.454 -25.372  85.458  1.00  0.00     0.162 A 
ATOM     60  C   UNL     1     -16.221 -23.069  85.587  1.00  0.00     0.162 A 
ATOM     61  C   UNL     1     -15.194 -24.016  85.725  1.00  0.00     0.200 A 
BRANCH  59  62
ATOM     62  O   UNL     1     -14.436 -26.312  85.586  1.00  0.00    -0.504 OA
ATOM     63  H   UNL     1     -13.716 -26.417  84.881  1.00  0.00     0.293 HD
ENDBRANCH  59  62
BRANCH  60  64
ATOM     64  O   UNL     1     -15.981 -21.720  85.848  1.00  0.00    -0.504 OA
ATOM     65  H   UNL     1     -15.056 -21.376  86.077  1.00  0.00     0.293 HD
ENDBRANCH  60  64
BRANCH  61  66
ATOM     66  O   UNL     1     -13.923 -23.596  86.125  1.00  0.00    -0.502 OA
ATOM     67  H   UNL     1     -13.233 -23.260  85.455  1.00  0.00     0.293 HD
ENDBRANCH  61  66
ENDBRANCH  54  56
ENDBRANCH  53  54
ENDBRANCH   5  53
BRANCH   4  68
ATOM     68  O   UNL     1     -21.465 -22.246  82.800  1.00  0.00    -0.448 OA
BRANCH  68  69
ATOM     69  C   UNL     1     -22.706 -21.734  82.390  1.00  0.00     0.339 C 
ATOM     70  O   UNL     1     -23.757 -22.060  83.004  1.00  0.00    -0.246 OA
BRANCH  69  71
ATOM     71  C   UNL     1     -22.777 -20.779  81.264  1.00  0.00     0.067 A 
ATOM     72  C   UNL     1     -22.846 -19.395  81.503  1.00  0.00     0.066 A 
ATOM     73  C   UNL     1     -22.773 -21.243  79.939  1.00  0.00     0.066 A 
ATOM     74  C   UNL     1     -22.876 -18.488  80.434  1.00  0.00     0.162 A 
ATOM     75  C   UNL     1     -22.819 -20.349  78.861  1.00  0.00     0.162 A 
ATOM     76  C   UNL     1     -22.851 -18.954  79.111  1.00  0.00     0.200 A 
BRANCH  74  77
ATOM     77  O   UNL     1     -22.916 -17.115  80.676  1.00  0.00    -0.504 OA
ATOM     78  H   UNL     1     -22.966 -16.746  81.613  1.00  0.00     0.293 HD
ENDBRANCH  74  77
BRANCH  75  79
ATOM     79  O   UNL     1     -22.842 -20.890  77.572  1.00  0.00    -0.504 OA
ATOM     80  H   UNL     1     -23.608 -21.427  77.198  1.00  0.00     0.293 HD
ENDBRANCH  75  79
BRANCH  76  81
ATOM     81  O   UNL     1     -22.847 -18.012  78.081  1.00  0.00    -0.502 OA
ATOM     82  H   UNL     1     -23.361 -17.149  78.116  1.00  0.00     0.293 HD
ENDBRANCH  76  81
ENDBRANCH  69  71
ENDBRANCH  68  69
ENDBRANCH   4  68
TORSDOF 31
ENDMDL
MODEL 6
REMARK VINA RESULT:    -1.047      1.723      8.971
REMARK INTER + INTRA:         -12.088
REMARK INTER:                  -2.779
REMARK INTRA:                  -9.309
REMARK UNBOUND:                -9.602
REMARK SMILES O=C(OC[C@@H]1O[C@@H](OC(=O)c2cc(O)c(O)c(O)c2)[C@@H](OC(=O)c2cc(O)c(O)c(O)c2)[C@H](OC(=O)c2cc(O)c(O)c(O)c2)[C@@H]1OC(=O)c1cc(O)c(O)c(O)c1)c1cc(O)c(O)c(O)c1
REMARK SMILES IDX 5 1 46 2 33 3 20 4 7 5 6 6 4 7 3 8 2 9 1 10 59 11 60 12
REMARK SMILES IDX 61 13 67 14 63 15 65 16 62 17 64 19 66 21 47 23 48 24 49 25
REMARK SMILES IDX 50 26 58 27 51 28 56 29 52 30 54 31 57 32 53 34 55 36 34 38
REMARK SMILES IDX 35 39 36 40 37 41 45 42 38 43 43 44 39 45 41 46 44 47 40 49
REMARK SMILES IDX 42 51 8 53 9 54 10 55 11 56 19 57 12 58 17 59 13 60 15 61
REMARK SMILES IDX 18 62 14 64 16 66 21 68 22 69 23 70 24 71 32 72 25 73 30 74
REMARK SMILES IDX 26 75 28 76 31 77 27 79 29 81
REMARK H PARENT 62 18 64 20 66 22 57 33 53 35 55 37 44 48 40 50 42 52 18 63
REMARK H PARENT 14 65 16 67 31 78 27 80 29 82
REMARK Flexibility Score: inf
ROOT
ATOM      1  C   UNL     1     -22.194 -23.092  81.083  1.00  0.00     0.205 C 
ATOM      2  C   UNL     1     -22.520 -22.114  82.233  1.00  0.00     0.254 C 
ATOM      3  C   UNL     1     -21.237 -21.845  83.047  1.00  0.00     0.267 C 
ATOM      4  C   UNL     1     -20.596 -23.176  83.477  1.00  0.00     0.290 C 
ATOM      5  C   UNL     1     -20.437 -24.106  82.261  1.00  0.00     0.357 C 
ATOM      6  O   UNL     1     -21.675 -24.308  81.598  1.00  0.00    -0.329 OA
ENDROOT
BRANCH   1   7
ATOM      7  C   UNL     1     -23.446 -23.393  80.241  1.00  0.00     0.269 C 
BRANCH   7   8
ATOM      8  O   UNL     1     -23.832 -22.246  79.486  1.00  0.00    -0.459 OA
BRANCH   8   9
ATOM      9  C   UNL     1     -23.029 -21.639  78.513  1.00  0.00     0.338 C 
ATOM     10  O   UNL     1     -22.580 -22.316  77.549  1.00  0.00    -0.246 OA
BRANCH   9  11
ATOM     11  C   UNL     1     -22.740 -20.191  78.604  1.00  0.00     0.067 A 
ATOM     12  C   UNL     1     -23.783 -19.273  78.785  1.00  0.00     0.066 A 
ATOM     13  C   UNL     1     -23.525 -17.903  78.855  1.00  0.00     0.162 A 
ATOM     14  C   UNL     1     -21.423 -19.716  78.505  1.00  0.00     0.066 A 
ATOM     15  C   UNL     1     -22.206 -17.426  78.745  1.00  0.00     0.200 A 
ATOM     16  C   UNL     1     -21.143 -18.348  78.576  1.00  0.00     0.162 A 
BRANCH  13  17
ATOM     17  O   UNL     1     -24.597 -17.023  79.018  1.00  0.00    -0.504 OA
ATOM     18  H   UNL     1     -24.573 -16.254  79.677  1.00  0.00     0.293 HD
ENDBRANCH  13  17
BRANCH  15  19
ATOM     19  O   UNL     1     -21.992 -16.045  78.799  1.00  0.00    -0.502 OA
ATOM     20  H   UNL     1     -21.175 -15.585  78.430  1.00  0.00     0.293 HD
ENDBRANCH  15  19
BRANCH  16  21
ATOM     21  O   UNL     1     -19.806 -17.952  78.483  1.00  0.00    -0.504 OA
ATOM     22  H   UNL     1     -19.488 -17.141  77.978  1.00  0.00     0.293 HD
ENDBRANCH  16  21
ENDBRANCH   9  11
ENDBRANCH   8   9
ENDBRANCH   7   8
ENDBRANCH   1   7
BRANCH   2  23
ATOM     23  O   UNL     1     -23.517 -22.689  83.078  1.00  0.00    -0.452 OA
BRANCH  23  24
ATOM     24  C   UNL     1     -24.619 -21.984  83.582  1.00  0.00     0.338 C 
ATOM     25  O   UNL     1     -25.048 -22.219  84.744  1.00  0.00    -0.246 OA
BRANCH  24  26
ATOM     26  C   UNL     1     -25.273 -20.960  82.742  1.00  0.00     0.067 A 
ATOM     27  C   UNL     1     -24.870 -19.614  82.808  1.00  0.00     0.066 A 
ATOM     28  C   UNL     1     -26.301 -21.324  81.861  1.00  0.00     0.066 A 
ATOM     29  C   UNL     1     -25.483 -18.648  82.006  1.00  0.00     0.162 A 
ATOM     30  C   UNL     1     -26.925 -20.363  81.060  1.00  0.00     0.162 A 
ATOM     31  C   UNL     1     -26.519 -19.019  81.131  1.00  0.00     0.200 A 
BRANCH  29  32
ATOM     32  O   UNL     1     -25.038 -17.327  82.077  1.00  0.00    -0.504 OA
ATOM     33  H   UNL     1     -24.518 -16.980  82.873  1.00  0.00     0.293 HD
ENDBRANCH  29  32
BRANCH  30  34
ATOM     34  O   UNL     1     -27.956 -20.736  80.195  1.00  0.00    -0.504 OA
ATOM     35  H   UNL     1     -27.776 -21.322  79.386  1.00  0.00     0.293 HD
ENDBRANCH  30  34
BRANCH  31  36
ATOM     36  O   UNL     1     -27.128 -18.048  80.334  1.00  0.00    -0.502 OA
ATOM     37  H   UNL     1     -26.757 -17.106  80.249  1.00  0.00     0.293 HD
ENDBRANCH  31  36
ENDBRANCH  24  26
ENDBRANCH  23  24
ENDBRANCH   2  23
BRANCH   3  38
ATOM     38  O   UNL     1     -21.528 -21.071  84.210  1.00  0.00    -0.450 OA
BRANCH  38  39
ATOM     39  C   UNL     1     -20.834 -19.917  84.588  1.00  0.00     0.338 C 
ATOM     40  O   UNL     1     -20.459 -19.767  85.784  1.00  0.00    -0.246 OA
BRANCH  39  41
ATOM     41  C   UNL     1     -20.551 -18.871  83.579  1.00  0.00     0.067 A 
ATOM     42  C   UNL     1     -19.270 -18.725  83.020  1.00  0.00     0.066 A 
ATOM     43  C   UNL     1     -21.572 -17.998  83.171  1.00  0.00     0.066 A 
ATOM     44  C   UNL     1     -19.002 -17.705  82.095  1.00  0.00     0.162 A 
ATOM     45  C   UNL     1     -21.316 -16.977  82.252  1.00  0.00     0.162 A 
ATOM     46  C   UNL     1     -20.028 -16.823  81.714  1.00  0.00     0.200 A 
BRANCH  44  47
ATOM     47  O   UNL     1     -17.721 -17.562  81.554  1.00  0.00    -0.504 OA
ATOM     48  H   UNL     1     -17.528 -17.755  80.577  1.00  0.00     0.293 HD
ENDBRANCH  44  47
BRANCH  45  49
ATOM     49  O   UNL     1     -22.355 -16.125  81.878  1.00  0.00    -0.504 OA
ATOM     50  H   UNL     1     -22.719 -15.417  82.502  1.00  0.00     0.293 HD
ENDBRANCH  45  49
BRANCH  46  51
ATOM     51  O   UNL     1     -19.783 -15.796  80.803  1.00  0.00    -0.502 OA
ATOM     52  H   UNL     1     -18.871 -15.365  80.699  1.00  0.00     0.293 HD
ENDBRANCH  46  51
ENDBRANCH  39  41
ENDBRANCH  38  39
ENDBRANCH   3  38
BRANCH   5  53
ATOM     53  O   UNL     1     -19.456 -23.596  81.355  1.00  0.00    -0.428 OA
BRANCH  53  54
ATOM     54  C   UNL     1     -18.212 -24.203  81.143  1.00  0.00     0.340 C 
ATOM     55  O   UNL     1     -18.138 -25.448  80.958  1.00  0.00    -0.246 OA
BRANCH  54  56
ATOM     56  C   UNL     1     -16.985 -23.376  81.169  1.00  0.00     0.067 A 
ATOM     57  C   UNL     1     -15.721 -23.990  81.175  1.00  0.00     0.066 A 
ATOM     58  C   UNL     1     -17.068 -21.974  81.174  1.00  0.00     0.066 A 
ATOM     59  C   UNL     1     -14.554 -23.213  81.196  1.00  0.00     0.162 A 
ATOM     60  C   UNL     1     -15.905 -21.193  81.188  1.00  0.00     0.162 A 
ATOM     61  C   UNL     1     -14.644 -21.811  81.207  1.00  0.00     0.200 A 
BRANCH  59  62
ATOM     62  O   UNL     1     -13.304 -23.828  81.207  1.00  0.00    -0.504 OA
ATOM     63  H   UNL     1     -13.144 -24.716  80.746  1.00  0.00     0.293 HD
ENDBRANCH  59  62
BRANCH  60  64
ATOM     64  O   UNL     1     -16.013 -19.802  81.197  1.00  0.00    -0.504 OA
ATOM     65  H   UNL     1     -16.034 -19.261  80.340  1.00  0.00     0.293 HD
ENDBRANCH  60  64
BRANCH  61  66
ATOM     66  O   UNL     1     -13.493 -21.019  81.232  1.00  0.00    -0.502 OA
ATOM     67  H   UNL     1     -12.788 -21.118  81.961  1.00  0.00     0.293 HD
ENDBRANCH  61  66
ENDBRANCH  54  56
ENDBRANCH  53  54
ENDBRANCH   5  53
BRANCH   4  68
ATOM     68  O   UNL     1     -19.312 -22.941  84.065  1.00  0.00    -0.448 OA
BRANCH  68  69
ATOM     69  C   UNL     1     -18.634 -23.885  84.850  1.00  0.00     0.339 C 
ATOM     70  O   UNL     1     -19.282 -24.672  85.592  1.00  0.00    -0.246 OA
BRANCH  69  71
ATOM     71  C   UNL     1     -17.161 -23.988  84.778  1.00  0.00     0.067 A 
ATOM     72  C   UNL     1     -16.535 -25.243  84.675  1.00  0.00     0.066 A 
ATOM     73  C   UNL     1     -16.367 -22.830  84.807  1.00  0.00     0.066 A 
ATOM     74  C   UNL     1     -15.141 -25.337  84.568  1.00  0.00     0.162 A 
ATOM     75  C   UNL     1     -14.971 -22.910  84.718  1.00  0.00     0.162 A 
ATOM     76  C   UNL     1     -14.352 -24.178  84.577  1.00  0.00     0.200 A 
BRANCH  74  77
ATOM     77  O   UNL     1     -14.526 -26.583  84.439  1.00  0.00    -0.504 OA
ATOM     78  H   UNL     1     -14.474 -27.055  83.549  1.00  0.00     0.293 HD
ENDBRANCH  74  77
BRANCH  75  79
ATOM     79  O   UNL     1     -14.249 -21.715  84.783  1.00  0.00    -0.504 OA
ATOM     80  H   UNL     1     -14.671 -20.802  84.835  1.00  0.00     0.293 HD
ENDBRANCH  75  79
BRANCH  76  81
ATOM     81  O   UNL     1     -12.970 -24.320  84.434  1.00  0.00    -0.502 OA
ATOM     82  H   UNL     1     -12.326 -24.288  85.205  1.00  0.00     0.293 HD
ENDBRANCH  76  81
ENDBRANCH  69  71
ENDBRANCH  68  69
ENDBRANCH   4  68
TORSDOF 31
ENDMDL
MODEL 7
REMARK VINA RESULT:    -1.019      0.903      2.254
REMARK INTER + INTRA:         -12.021
REMARK INTER:                  -2.803
REMARK INTRA:                  -9.217
REMARK UNBOUND:                -9.602
REMARK SMILES O=C(OC[C@@H]1O[C@@H](OC(=O)c2cc(O)c(O)c(O)c2)[C@@H](OC(=O)c2cc(O)c(O)c(O)c2)[C@H](OC(=O)c2cc(O)c(O)c(O)c2)[C@@H]1OC(=O)c1cc(O)c(O)c(O)c1)c1cc(O)c(O)c(O)c1
REMARK SMILES IDX 5 1 46 2 33 3 20 4 7 5 6 6 4 7 3 8 2 9 1 10 59 11 60 12
REMARK SMILES IDX 61 13 67 14 63 15 65 16 62 17 64 19 66 21 47 23 48 24 49 25
REMARK SMILES IDX 50 26 58 27 51 28 56 29 52 30 54 31 57 32 53 34 55 36 34 38
REMARK SMILES IDX 35 39 36 40 37 41 45 42 38 43 43 44 39 45 41 46 44 47 40 49
REMARK SMILES IDX 42 51 8 53 9 54 10 55 11 56 19 57 12 58 17 59 13 60 15 61
REMARK SMILES IDX 18 62 14 64 16 66 21 68 22 69 23 70 24 71 32 72 25 73 30 74
REMARK SMILES IDX 26 75 28 76 31 77 27 79 29 81
REMARK H PARENT 62 18 64 20 66 22 57 33 53 35 55 37 44 48 40 50 42 52 18 63
REMARK H PARENT 14 65 16 67 31 78 27 80 29 82
REMARK Flexibility Score: inf
ROOT
ATOM      1  C   UNL     1     -19.400 -22.671  81.925  1.00  0.00     0.205 C 
ATOM      2  C   UNL     1     -18.190 -21.918  81.331  1.00  0.00     0.254 C 
ATOM      3  C   UNL     1     -18.673 -20.591  80.712  1.00  0.00     0.267 C 
ATOM      4  C   UNL     1     -19.828 -20.857  79.730  1.00  0.00     0.290 C 
ATOM      5  C   UNL     1     -20.912 -21.717  80.405  1.00  0.00     0.357 C 
ATOM      6  O   UNL     1     -20.370 -22.923  80.919  1.00  0.00    -0.329 OA
ENDROOT
BRANCH   1   7
ATOM      7  C   UNL     1     -18.968 -24.005  82.556  1.00  0.00     0.269 C 
BRANCH   7   8
ATOM      8  O   UNL     1     -19.592 -24.188  83.826  1.00  0.00    -0.459 OA
BRANCH   8   9
ATOM      9  C   UNL     1     -19.225 -23.498  84.987  1.00  0.00     0.338 C 
ATOM     10  O   UNL     1     -18.406 -24.010  85.798  1.00  0.00    -0.246 OA
BRANCH   9  11
ATOM     11  C   UNL     1     -19.779 -22.151  85.242  1.00  0.00     0.067 A 
ATOM     12  C   UNL     1     -21.164 -21.962  85.330  1.00  0.00     0.066 A 
ATOM     13  C   UNL     1     -21.700 -20.692  85.553  1.00  0.00     0.162 A 
ATOM     14  C   UNL     1     -18.929 -21.044  85.392  1.00  0.00     0.066 A 
ATOM     15  C   UNL     1     -20.850 -19.581  85.692  1.00  0.00     0.200 A 
ATOM     16  C   UNL     1     -19.446 -19.764  85.618  1.00  0.00     0.162 A 
BRANCH  13  17
ATOM     17  O   UNL     1     -23.088 -20.549  85.616  1.00  0.00    -0.504 OA
ATOM     18  H   UNL     1     -23.595 -19.908  85.017  1.00  0.00     0.293 HD
ENDBRANCH  13  17
BRANCH  15  19
ATOM     19  O   UNL     1     -21.427 -18.323  85.893  1.00  0.00    -0.502 OA
ATOM     20  H   UNL     1     -22.378 -18.180  86.196  1.00  0.00     0.293 HD
ENDBRANCH  15  19
BRANCH  16  21
ATOM     21  O   UNL     1     -18.538 -18.713  85.771  1.00  0.00    -0.504 OA
ATOM     22  H   UNL     1     -17.805 -18.496  85.115  1.00  0.00     0.293 HD
ENDBRANCH  16  21
ENDBRANCH   9  11
ENDBRANCH   8   9
ENDBRANCH   7   8
ENDBRANCH   1   7
BRANCH   2  23
ATOM     23  O   UNL     1     -17.574 -22.725  80.327  1.00  0.00    -0.452 OA
BRANCH  23  24
ATOM     24  C   UNL     1     -16.215 -23.070  80.323  1.00  0.00     0.338 C 
ATOM     25  O   UNL     1     -15.730 -23.739  79.369  1.00  0.00    -0.246 OA
BRANCH  24  26
ATOM     26  C   UNL     1     -15.352 -22.642  81.443  1.00  0.00     0.067 A 
ATOM     27  C   UNL     1     -15.272 -23.407  82.620  1.00  0.00     0.066 A 
ATOM     28  C   UNL     1     -14.593 -21.467  81.337  1.00  0.00     0.066 A 
ATOM     29  C   UNL     1     -14.448 -23.006  83.675  1.00  0.00     0.162 A 
ATOM     30  C   UNL     1     -13.771 -21.055  82.390  1.00  0.00     0.162 A 
ATOM     31  C   UNL     1     -13.697 -21.823  83.565  1.00  0.00     0.200 A 
BRANCH  29  32
ATOM     32  O   UNL     1     -14.371 -23.805  84.816  1.00  0.00    -0.504 OA
ATOM     33  H   UNL     1     -15.096 -23.796  85.525  1.00  0.00     0.293 HD
ENDBRANCH  29  32
BRANCH  30  34
ATOM     34  O   UNL     1     -13.029 -19.877  82.277  1.00  0.00    -0.504 OA
ATOM     35  H   UNL     1     -13.485 -18.979  82.154  1.00  0.00     0.293 HD
ENDBRANCH  30  34
BRANCH  31  36
ATOM     36  O   UNL     1     -12.876 -21.428  84.623  1.00  0.00    -0.502 OA
ATOM     37  H   UNL     1     -12.959 -21.831  85.552  1.00  0.00     0.293 HD
ENDBRANCH  31  36
ENDBRANCH  24  26
ENDBRANCH  23  24
ENDBRANCH   2  23
BRANCH   3  38
ATOM     38  O   UNL     1     -17.611 -19.941  80.015  1.00  0.00    -0.450 OA
BRANCH  38  39
ATOM     39  C   UNL     1     -17.158 -18.646  80.291  1.00  0.00     0.338 C 
ATOM     40  O   UNL     1     -15.942 -18.353  80.129  1.00  0.00    -0.246 OA
BRANCH  39  41
ATOM     41  C   UNL     1     -18.114 -17.627  80.783  1.00  0.00     0.067 A 
ATOM     42  C   UNL     1     -18.634 -16.642  79.925  1.00  0.00     0.066 A 
ATOM     43  C   UNL     1     -18.508 -17.630  82.130  1.00  0.00     0.066 A 
ATOM     44  C   UNL     1     -19.506 -15.657  80.409  1.00  0.00     0.162 A 
ATOM     45  C   UNL     1     -19.376 -16.652  82.623  1.00  0.00     0.162 A 
ATOM     46  C   UNL     1     -19.874 -15.657  81.766  1.00  0.00     0.200 A 
BRANCH  44  47
ATOM     47  O   UNL     1     -20.009 -14.676  79.549  1.00  0.00    -0.504 OA
ATOM     48  H   UNL     1     -21.005 -14.552  79.402  1.00  0.00     0.293 HD
ENDBRANCH  44  47
BRANCH  45  49
ATOM     49  O   UNL     1     -19.738 -16.683  83.970  1.00  0.00    -0.504 OA
ATOM     50  H   UNL     1     -20.550 -16.192  84.319  1.00  0.00     0.293 HD
ENDBRANCH  45  49
BRANCH  46  51
ATOM     51  O   UNL     1     -20.733 -14.682  82.272  1.00  0.00    -0.502 OA
ATOM     52  H   UNL     1     -20.398 -13.867  82.774  1.00  0.00     0.293 HD
ENDBRANCH  46  51
ENDBRANCH  39  41
ENDBRANCH  38  39
ENDBRANCH   3  38
BRANCH   5  53
ATOM     53  O   UNL     1     -21.576 -20.982  81.436  1.00  0.00    -0.428 OA
BRANCH  53  54
ATOM     54  C   UNL     1     -22.969 -20.896  81.546  1.00  0.00     0.340 C 
ATOM     55  O   UNL     1     -23.691 -21.888  81.252  1.00  0.00    -0.246 OA
BRANCH  54  56
ATOM     56  C   UNL     1     -23.588 -19.624  81.981  1.00  0.00     0.067 A 
ATOM     57  C   UNL     1     -24.944 -19.372  81.714  1.00  0.00     0.066 A 
ATOM     58  C   UNL     1     -22.834 -18.663  82.674  1.00  0.00     0.066 A 
ATOM     59  C   UNL     1     -25.538 -18.170  82.125  1.00  0.00     0.162 A 
ATOM     60  C   UNL     1     -23.424 -17.464  83.095  1.00  0.00     0.162 A 
ATOM     61  C   UNL     1     -24.777 -17.211  82.815  1.00  0.00     0.200 A 
BRANCH  59  62
ATOM     62  O   UNL     1     -26.882 -17.925  81.853  1.00  0.00    -0.504 OA
ATOM     63  H   UNL     1     -27.612 -18.551  82.171  1.00  0.00     0.293 HD
ENDBRANCH  59  62
BRANCH  60  64
ATOM     64  O   UNL     1     -22.654 -16.523  83.778  1.00  0.00    -0.504 OA
ATOM     65  H   UNL     1     -21.843 -16.086  83.355  1.00  0.00     0.293 HD
ENDBRANCH  60  64
BRANCH  61  66
ATOM     66  O   UNL     1     -25.349 -16.005  83.229  1.00  0.00    -0.502 OA
ATOM     67  H   UNL     1     -24.999 -15.104  82.905  1.00  0.00     0.293 HD
ENDBRANCH  61  66
ENDBRANCH  54  56
ENDBRANCH  53  54
ENDBRANCH   5  53
BRANCH   4  68
ATOM     68  O   UNL     1     -20.405 -19.621  79.297  1.00  0.00    -0.448 OA
BRANCH  68  69
ATOM     69  C   UNL     1     -21.490 -19.540  78.411  1.00  0.00     0.339 C 
ATOM     70  O   UNL     1     -21.572 -20.337  77.439  1.00  0.00    -0.246 OA
BRANCH  69  71
ATOM     71  C   UNL     1     -22.560 -18.546  78.640  1.00  0.00     0.067 A 
ATOM     72  C   UNL     1     -22.296 -17.362  79.352  1.00  0.00     0.066 A 
ATOM     73  C   UNL     1     -23.855 -18.769  78.144  1.00  0.00     0.066 A 
ATOM     74  C   UNL     1     -23.302 -16.402  79.536  1.00  0.00     0.162 A 
ATOM     75  C   UNL     1     -24.873 -17.826  78.335  1.00  0.00     0.162 A 
ATOM     76  C   UNL     1     -24.589 -16.620  79.022  1.00  0.00     0.200 A 
BRANCH  74  77
ATOM     77  O   UNL     1     -23.028 -15.218  80.220  1.00  0.00    -0.504 OA
ATOM     78  H   UNL     1     -23.702 -14.803  80.846  1.00  0.00     0.293 HD
ENDBRANCH  74  77
BRANCH  75  79
ATOM     79  O   UNL     1     -26.143 -18.135  77.837  1.00  0.00    -0.504 OA
ATOM     80  H   UNL     1     -26.345 -18.941  77.267  1.00  0.00     0.293 HD
ENDBRANCH  75  79
BRANCH  76  81
ATOM     81  O   UNL     1     -25.547 -15.620  79.201  1.00  0.00    -0.502 OA
ATOM     82  H   UNL     1     -26.131 -15.272  78.460  1.00  0.00     0.293 HD
ENDBRANCH  76  81
ENDBRANCH  69  71
ENDBRANCH  68  69
ENDBRANCH   4  68
TORSDOF 31
ENDMDL
MODEL 8
REMARK VINA RESULT:    -1.018      2.354      7.849
REMARK INTER + INTRA:         -12.019
REMARK INTER:                  -2.794
REMARK INTRA:                  -9.225
REMARK UNBOUND:                -9.602
REMARK SMILES O=C(OC[C@@H]1O[C@@H](OC(=O)c2cc(O)c(O)c(O)c2)[C@@H](OC(=O)c2cc(O)c(O)c(O)c2)[C@H](OC(=O)c2cc(O)c(O)c(O)c2)[C@@H]1OC(=O)c1cc(O)c(O)c(O)c1)c1cc(O)c(O)c(O)c1
REMARK SMILES IDX 5 1 46 2 33 3 20 4 7 5 6 6 4 7 3 8 2 9 1 10 59 11 60 12
REMARK SMILES IDX 61 13 67 14 63 15 65 16 62 17 64 19 66 21 47 23 48 24 49 25
REMARK SMILES IDX 50 26 58 27 51 28 56 29 52 30 54 31 57 32 53 34 55 36 34 38
REMARK SMILES IDX 35 39 36 40 37 41 45 42 38 43 43 44 39 45 41 46 44 47 40 49
REMARK SMILES IDX 42 51 8 53 9 54 10 55 11 56 19 57 12 58 17 59 13 60 15 61
REMARK SMILES IDX 18 62 14 64 16 66 21 68 22 69 23 70 24 71 32 72 25 73 30 74
REMARK SMILES IDX 26 75 28 76 31 77 27 79 29 81
REMARK H PARENT 62 18 64 20 66 22 57 33 53 35 55 37 44 48 40 50 42 52 18 63
REMARK H PARENT 14 65 16 67 31 78 27 80 29 82
REMARK Flexibility Score: inf
ROOT
ATOM      1  C   UNL     1     -18.603 -23.368  78.115  1.00  0.00     0.205 C 
ATOM      2  C   UNL     1     -19.444 -22.318  77.356  1.00  0.00     0.254 C 
ATOM      3  C   UNL     1     -18.534 -21.142  76.947  1.00  0.00     0.267 C 
ATOM      4  C   UNL     1     -17.772 -20.611  78.175  1.00  0.00     0.290 C 
ATOM      5  C   UNL     1     -17.079 -21.772  78.911  1.00  0.00     0.357 C 
ATOM      6  O   UNL     1     -18.005 -22.788  79.264  1.00  0.00    -0.329 OA
ENDROOT
BRANCH   1   7
ATOM      7  C   UNL     1     -19.470 -24.564  78.546  1.00  0.00     0.269 C 
BRANCH   7   8
ATOM      8  O   UNL     1     -19.513 -24.668  79.968  1.00  0.00    -0.459 OA
BRANCH   8   9
ATOM      9  C   UNL     1     -20.472 -24.041  80.772  1.00  0.00     0.338 C 
ATOM     10  O   UNL     1     -21.671 -24.429  80.749  1.00  0.00    -0.246 OA
BRANCH   9  11
ATOM     11  C   UNL     1     -20.063 -22.943  81.675  1.00  0.00     0.067 A 
ATOM     12  C   UNL     1     -18.917 -23.073  82.470  1.00  0.00     0.066 A 
ATOM     13  C   UNL     1     -18.529 -22.051  83.339  1.00  0.00     0.162 A 
ATOM     14  C   UNL     1     -20.817 -21.762  81.754  1.00  0.00     0.066 A 
ATOM     15  C   UNL     1     -19.291 -20.872  83.427  1.00  0.00     0.200 A 
ATOM     16  C   UNL     1     -20.444 -20.725  82.617  1.00  0.00     0.162 A 
BRANCH  13  17
ATOM     17  O   UNL     1     -17.389 -22.232  84.125  1.00  0.00    -0.504 OA
ATOM     18  H   UNL     1     -16.474 -22.398  83.723  1.00  0.00     0.293 HD
ENDBRANCH  13  17
BRANCH  15  19
ATOM     19  O   UNL     1     -18.881 -19.882  84.324  1.00  0.00    -0.502 OA
ATOM     20  H   UNL     1     -19.179 -19.832  85.286  1.00  0.00     0.293 HD
ENDBRANCH  15  19
BRANCH  16  21
ATOM     21  O   UNL     1     -21.237 -19.574  82.630  1.00  0.00    -0.504 OA
ATOM     22  H   UNL     1     -21.861 -19.324  83.379  1.00  0.00     0.293 HD
ENDBRANCH  16  21
ENDBRANCH   9  11
ENDBRANCH   8   9
ENDBRANCH   7   8
ENDBRANCH   1   7
BRANCH   2  23
ATOM     23  O   UNL     1     -20.493 -21.847  78.202  1.00  0.00    -0.452 OA
BRANCH  23  24
ATOM     24  C   UNL     1     -21.857 -22.038  77.939  1.00  0.00     0.338 C 
ATOM     25  O   UNL     1     -22.244 -23.040  77.277  1.00  0.00    -0.246 OA
BRANCH  24  26
ATOM     26  C   UNL     1     -22.840 -21.060  78.446  1.00  0.00     0.067 A 
ATOM     27  C   UNL     1     -24.191 -21.137  78.065  1.00  0.00     0.066 A 
ATOM     28  C   UNL     1     -22.434 -20.044  79.324  1.00  0.00     0.066 A 
ATOM     29  C   UNL     1     -25.122 -20.217  78.553  1.00  0.00     0.162 A 
ATOM     30  C   UNL     1     -23.357 -19.114  79.811  1.00  0.00     0.162 A 
ATOM     31  C   UNL     1     -24.707 -19.196  79.426  1.00  0.00     0.200 A 
BRANCH  29  32
ATOM     32  O   UNL     1     -26.460 -20.342  78.176  1.00  0.00    -0.504 OA
ATOM     33  H   UNL     1     -26.893 -19.705  77.518  1.00  0.00     0.293 HD
ENDBRANCH  29  32
BRANCH  30  34
ATOM     34  O   UNL     1     -22.938 -18.101  80.676  1.00  0.00    -0.504 OA
ATOM     35  H   UNL     1     -22.913 -18.244  81.680  1.00  0.00     0.293 HD
ENDBRANCH  30  34
BRANCH  31  36
ATOM     36  O   UNL     1     -25.642 -18.279  79.908  1.00  0.00    -0.502 OA
ATOM     37  H   UNL     1     -26.375 -18.545  80.559  1.00  0.00     0.293 HD
ENDBRANCH  31  36
ENDBRANCH  24  26
ENDBRANCH  23  24
ENDBRANCH   2  23
BRANCH   3  38
ATOM     38  O   UNL     1     -19.302 -20.080  76.382  1.00  0.00    -0.450 OA
BRANCH  38  39
ATOM     39  C   UNL     1     -20.163 -20.219  75.288  1.00  0.00     0.338 C 
ATOM     40  O   UNL     1     -19.789 -20.856  74.265  1.00  0.00    -0.246 OA
BRANCH  39  41
ATOM     41  C   UNL     1     -21.511 -19.607  75.336  1.00  0.00     0.067 A 
ATOM     42  C   UNL     1     -21.765 -18.463  76.113  1.00  0.00     0.066 A 
ATOM     43  C   UNL     1     -22.564 -20.175  74.603  1.00  0.00     0.066 A 
ATOM     44  C   UNL     1     -23.053 -17.915  76.184  1.00  0.00     0.162 A 
ATOM     45  C   UNL     1     -23.853 -19.639  74.668  1.00  0.00     0.162 A 
ATOM     46  C   UNL     1     -24.104 -18.509  75.464  1.00  0.00     0.200 A 
BRANCH  44  47
ATOM     47  O   UNL     1     -23.296 -16.784  76.969  1.00  0.00    -0.504 OA
ATOM     48  H   UNL     1     -24.120 -16.707  77.557  1.00  0.00     0.293 HD
ENDBRANCH  44  47
BRANCH  45  49
ATOM     49  O   UNL     1     -24.875 -20.238  73.931  1.00  0.00    -0.504 OA
ATOM     50  H   UNL     1     -25.805 -19.843  73.885  1.00  0.00     0.293 HD
ENDBRANCH  45  49
BRANCH  46  51
ATOM     51  O   UNL     1     -25.396 -17.987  75.526  1.00  0.00    -0.502 OA
ATOM     52  H   UNL     1     -25.812 -17.664  76.393  1.00  0.00     0.293 HD
ENDBRANCH  46  51
ENDBRANCH  39  41
ENDBRANCH  38  39
ENDBRANCH   3  38
BRANCH   5  53
ATOM     53  O   UNL     1     -16.014 -22.310  78.124  1.00  0.00    -0.428 OA
BRANCH  53  54
ATOM     54  C   UNL     1     -14.721 -22.522  78.619  1.00  0.00     0.340 C 
ATOM     55  O   UNL     1     -13.838 -23.040  77.882  1.00  0.00    -0.246 OA
BRANCH  54  56
ATOM     56  C   UNL     1     -14.409 -22.162  80.020  1.00  0.00     0.067 A 
ATOM     57  C   UNL     1     -13.833 -20.916  80.315  1.00  0.00     0.066 A 
ATOM     58  C   UNL     1     -14.696 -23.053  81.067  1.00  0.00     0.066 A 
ATOM     59  C   UNL     1     -13.536 -20.566  81.641  1.00  0.00     0.162 A 
ATOM     60  C   UNL     1     -14.410 -22.705  82.394  1.00  0.00     0.162 A 
ATOM     61  C   UNL     1     -13.822 -21.464  82.684  1.00  0.00     0.200 A 
BRANCH  59  62
ATOM     62  O   UNL     1     -12.960 -19.331  81.926  1.00  0.00    -0.504 OA
ATOM     63  H   UNL     1     -12.244 -18.928  81.334  1.00  0.00     0.293 HD
ENDBRANCH  59  62
BRANCH  60  64
ATOM     64  O   UNL     1     -14.700 -23.608  83.417  1.00  0.00    -0.504 OA
ATOM     65  H   UNL     1     -14.116 -24.416  83.600  1.00  0.00     0.293 HD
ENDBRANCH  60  64
BRANCH  61  66
ATOM     66  O   UNL     1     -13.531 -21.136  84.011  1.00  0.00    -0.502 OA
ATOM     67  H   UNL     1     -12.572 -21.048  84.345  1.00  0.00     0.293 HD
ENDBRANCH  61  66
ENDBRANCH  54  56
ENDBRANCH  53  54
ENDBRANCH   5  53
BRANCH   4  68
ATOM     68  O   UNL     1     -16.791 -19.651  77.772  1.00  0.00    -0.448 OA
BRANCH  68  69
ATOM     69  C   UNL     1     -16.758 -18.331  78.245  1.00  0.00     0.339 C 
ATOM     70  O   UNL     1     -15.872 -17.534  77.834  1.00  0.00    -0.246 OA
BRANCH  69  71
ATOM     71  C   UNL     1     -17.788 -17.860  79.196  1.00  0.00     0.067 A 
ATOM     72  C   UNL     1     -17.567 -17.930  80.583  1.00  0.00     0.066 A 
ATOM     73  C   UNL     1     -19.000 -17.330  78.724  1.00  0.00     0.066 A 
ATOM     74  C   UNL     1     -18.528 -17.448  81.483  1.00  0.00     0.162 A 
ATOM     75  C   UNL     1     -19.976 -16.860  79.613  1.00  0.00     0.162 A 
ATOM     76  C   UNL     1     -19.729 -16.902  81.008  1.00  0.00     0.200 A 
BRANCH  74  77
ATOM     77  O   UNL     1     -18.293 -17.496  82.857  1.00  0.00    -0.504 OA
ATOM     78  H   UNL     1     -18.881 -17.000  83.509  1.00  0.00     0.293 HD
ENDBRANCH  74  77
BRANCH  75  79
ATOM     79  O   UNL     1     -21.169 -16.376  79.067  1.00  0.00    -0.504 OA
ATOM     80  H   UNL     1     -21.467 -16.547  78.120  1.00  0.00     0.293 HD
ENDBRANCH  75  79
BRANCH  76  81
ATOM     81  O   UNL     1     -20.641 -16.404  81.941  1.00  0.00    -0.502 OA
ATOM     82  H   UNL     1     -21.577 -16.755  82.044  1.00  0.00     0.293 HD
ENDBRANCH  76  81
ENDBRANCH  69  71
ENDBRANCH  68  69
ENDBRANCH   4  68
TORSDOF 31
ENDMDL
MODEL 9
REMARK VINA RESULT:    -0.936      2.960      8.370
REMARK INTER + INTRA:         -11.824
REMARK INTER:                  -2.690
REMARK INTRA:                  -9.135
REMARK UNBOUND:                -9.602
REMARK SMILES O=C(OC[C@@H]1O[C@@H](OC(=O)c2cc(O)c(O)c(O)c2)[C@@H](OC(=O)c2cc(O)c(O)c(O)c2)[C@H](OC(=O)c2cc(O)c(O)c(O)c2)[C@@H]1OC(=O)c1cc(O)c(O)c(O)c1)c1cc(O)c(O)c(O)c1
REMARK SMILES IDX 5 1 46 2 33 3 20 4 7 5 6 6 4 7 3 8 2 9 1 10 59 11 60 12
REMARK SMILES IDX 61 13 67 14 63 15 65 16 62 17 64 19 66 21 47 23 48 24 49 25
REMARK SMILES IDX 50 26 58 27 51 28 56 29 52 30 54 31 57 32 53 34 55 36 34 38
REMARK SMILES IDX 35 39 36 40 37 41 45 42 38 43 43 44 39 45 41 46 44 47 40 49
REMARK SMILES IDX 42 51 8 53 9 54 10 55 11 56 19 57 12 58 17 59 13 60 15 61
REMARK SMILES IDX 18 62 14 64 16 66 21 68 22 69 23 70 24 71 32 72 25 73 30 74
REMARK SMILES IDX 26 75 28 76 31 77 27 79 29 81
REMARK H PARENT 62 18 64 20 66 22 57 33 53 35 55 37 44 48 40 50 42 52 18 63
REMARK H PARENT 14 65 16 67 31 78 27 80 29 82
REMARK Flexibility Score: inf
ROOT
ATOM      1  C   UNL     1     -18.884 -20.516  80.546  1.00  0.00     0.205 C 
ATOM      2  C   UNL     1     -19.287 -19.605  79.366  1.00  0.00     0.254 C 
ATOM      3  C   UNL     1     -18.070 -19.409  78.440  1.00  0.00     0.267 C 
ATOM      4  C   UNL     1     -16.857 -18.928  79.256  1.00  0.00     0.290 C 
ATOM      5  C   UNL     1     -16.636 -19.848  80.470  1.00  0.00     0.357 C 
ATOM      6  O   UNL     1     -17.804 -19.943  81.269  1.00  0.00    -0.329 OA
ENDROOT
BRANCH   1   7
ATOM      7  C   UNL     1     -20.068 -20.741  81.501  1.00  0.00     0.269 C 
BRANCH   7   8
ATOM      8  O   UNL     1     -19.847 -20.076  82.743  1.00  0.00    -0.459 OA
BRANCH   8   9
ATOM      9  C   UNL     1     -20.724 -19.137  83.299  1.00  0.00     0.338 C 
ATOM     10  O   UNL     1     -21.814 -19.511  83.808  1.00  0.00    -0.246 OA
BRANCH   9  11
ATOM     11  C   UNL     1     -20.348 -17.706  83.315  1.00  0.00     0.067 A 
ATOM     12  C   UNL     1     -21.336 -16.718  83.416  1.00  0.00     0.066 A 
ATOM     13  C   UNL     1     -20.996 -15.364  83.416  1.00  0.00     0.162 A 
ATOM     14  C   UNL     1     -19.003 -17.318  83.225  1.00  0.00     0.066 A 
ATOM     15  C   UNL     1     -19.649 -14.974  83.314  1.00  0.00     0.200 A 
ATOM     16  C   UNL     1     -18.641 -15.966  83.225  1.00  0.00     0.162 A 
BRANCH  13  17
ATOM     17  O   UNL     1     -22.016 -14.414  83.501  1.00  0.00    -0.504 OA
ATOM     18  H   UNL     1     -22.520 -14.084  82.686  1.00  0.00     0.293 HD
ENDBRANCH  13  17
BRANCH  15  19
ATOM     19  O   UNL     1     -19.352 -13.608  83.296  1.00  0.00    -0.502 OA
ATOM     20  H   UNL     1     -19.794 -12.941  82.682  1.00  0.00     0.293 HD
ENDBRANCH  15  19
BRANCH  16  21
ATOM     21  O   UNL     1     -17.280 -15.657  83.145  1.00  0.00    -0.504 OA
ATOM     22  H   UNL     1     -16.651 -15.655  83.931  1.00  0.00     0.293 HD
ENDBRANCH  16  21
ENDBRANCH   9  11
ENDBRANCH   8   9
ENDBRANCH   7   8
ENDBRANCH   1   7
BRANCH   2  23
ATOM     23  O   UNL     1     -19.723 -18.341  79.868  1.00  0.00    -0.452 OA
BRANCH  23  24
ATOM     24  C   UNL     1     -21.033 -17.858  79.742  1.00  0.00     0.338 C 
ATOM     25  O   UNL     1     -22.001 -18.660  79.642  1.00  0.00    -0.246 OA
BRANCH  24  26
ATOM     26  C   UNL     1     -21.273 -16.401  79.732  1.00  0.00     0.067 A 
ATOM     27  C   UNL     1     -22.569 -15.889  79.546  1.00  0.00     0.066 A 
ATOM     28  C   UNL     1     -20.205 -15.510  79.917  1.00  0.00     0.066 A 
ATOM     29  C   UNL     1     -22.797 -14.510  79.546  1.00  0.00     0.162 A 
ATOM     30  C   UNL     1     -20.422 -14.129  79.911  1.00  0.00     0.162 A 
ATOM     31  C   UNL     1     -21.720 -13.623  79.723  1.00  0.00     0.200 A 
BRANCH  29  32
ATOM     32  O   UNL     1     -24.101 -14.038  79.388  1.00  0.00    -0.504 OA
ATOM     33  H   UNL     1     -24.659 -13.735  80.177  1.00  0.00     0.293 HD
ENDBRANCH  29  32
BRANCH  30  34
ATOM     34  O   UNL     1     -19.350 -13.252  80.085  1.00  0.00    -0.504 OA
ATOM     35  H   UNL     1     -19.363 -12.544  80.812  1.00  0.00     0.293 HD
ENDBRANCH  30  34
BRANCH  31  36
ATOM     36  O   UNL     1     -21.955 -12.247  79.721  1.00  0.00    -0.502 OA
ATOM     37  H   UNL     1     -22.873 -11.854  79.534  1.00  0.00     0.293 HD
ENDBRANCH  31  36
ENDBRANCH  24  26
ENDBRANCH  23  24
ENDBRANCH   2  23
BRANCH   3  38
ATOM     38  O   UNL     1     -18.357 -18.448  77.423  1.00  0.00    -0.450 OA
BRANCH  38  39
ATOM     39  C   UNL     1     -19.431 -18.534  76.532  1.00  0.00     0.338 C 
ATOM     40  O   UNL     1     -19.656 -19.611  75.914  1.00  0.00    -0.246 OA
BRANCH  39  41
ATOM     41  C   UNL     1     -20.296 -17.351  76.313  1.00  0.00     0.067 A 
ATOM     42  C   UNL     1     -19.780 -16.046  76.398  1.00  0.00     0.066 A 
ATOM     43  C   UNL     1     -21.658 -17.525  76.024  1.00  0.00     0.066 A 
ATOM     44  C   UNL     1     -20.615 -14.933  76.230  1.00  0.00     0.162 A 
ATOM     45  C   UNL     1     -22.500 -16.422  75.856  1.00  0.00     0.162 A 
ATOM     46  C   UNL     1     -21.983 -15.120  75.964  1.00  0.00     0.200 A 
BRANCH  44  47
ATOM     47  O   UNL     1     -20.094 -13.639  76.327  1.00  0.00    -0.504 OA
ATOM     48  H   UNL     1     -20.648 -12.864  76.676  1.00  0.00     0.293 HD
ENDBRANCH  44  47
BRANCH  45  49
ATOM     49  O   UNL     1     -23.850 -16.635  75.578  1.00  0.00    -0.504 OA
ATOM     50  H   UNL     1     -24.369 -16.038  74.948  1.00  0.00     0.293 HD
ENDBRANCH  45  49
BRANCH  46  51
ATOM     51  O   UNL     1     -22.834 -14.028  75.802  1.00  0.00    -0.502 OA
ATOM     52  H   UNL     1     -23.335 -13.606  76.577  1.00  0.00     0.293 HD
ENDBRANCH  46  51
ENDBRANCH  39  41
ENDBRANCH  38  39
ENDBRANCH   3  38
BRANCH   5  53
ATOM     53  O   UNL     1     -16.204 -21.145  80.052  1.00  0.00    -0.428 OA
BRANCH  53  54
ATOM     54  C   UNL     1     -15.088 -21.797  80.593  1.00  0.00     0.340 C 
ATOM     55  O   UNL     1     -14.114 -22.105  79.853  1.00  0.00    -0.246 OA
BRANCH  54  56
ATOM     56  C   UNL     1     -15.076 -22.149  82.030  1.00  0.00     0.067 A 
ATOM     57  C   UNL     1     -13.983 -21.786  82.835  1.00  0.00     0.066 A 
ATOM     58  C   UNL     1     -16.157 -22.834  82.608  1.00  0.00     0.066 A 
ATOM     59  C   UNL     1     -13.964 -22.113  84.198  1.00  0.00     0.162 A 
ATOM     60  C   UNL     1     -16.148 -23.156  83.972  1.00  0.00     0.162 A 
ATOM     61  C   UNL     1     -15.047 -22.803  84.769  1.00  0.00     0.200 A 
BRANCH  59  62
ATOM     62  O   UNL     1     -12.875 -21.755  84.989  1.00  0.00    -0.504 OA
ATOM     63  H   UNL     1     -11.934 -22.058  84.768  1.00  0.00     0.293 HD
ENDBRANCH  59  62
BRANCH  60  64
ATOM     64  O   UNL     1     -17.231 -23.840  84.522  1.00  0.00    -0.504 OA
ATOM     65  H   UNL     1     -18.143 -23.408  84.621  1.00  0.00     0.293 HD
ENDBRANCH  60  64
BRANCH  61  66
ATOM     66  O   UNL     1     -15.047 -23.141  86.125  1.00  0.00    -0.502 OA
ATOM     67  H   UNL     1     -15.457 -22.532  86.832  1.00  0.00     0.293 HD
ENDBRANCH  61  66
ENDBRANCH  54  56
ENDBRANCH  53  54
ENDBRANCH   5  53
BRANCH   4  68
ATOM     68  O   UNL     1     -15.680 -18.925  78.441  1.00  0.00    -0.448 OA
BRANCH  68  69
ATOM     69  C   UNL     1     -14.899 -17.783  78.212  1.00  0.00     0.339 C 
ATOM     70  O   UNL     1     -13.850 -17.865  77.518  1.00  0.00    -0.246 OA
BRANCH  69  71
ATOM     71  C   UNL     1     -15.325 -16.474  78.750  1.00  0.00     0.067 A 
ATOM     72  C   UNL     1     -14.877 -16.039  80.010  1.00  0.00     0.066 A 
ATOM     73  C   UNL     1     -16.180 -15.645  78.006  1.00  0.00     0.066 A 
ATOM     74  C   UNL     1     -15.252 -14.781  80.504  1.00  0.00     0.162 A 
ATOM     75  C   UNL     1     -16.575 -14.393  78.494  1.00  0.00     0.162 A 
ATOM     76  C   UNL     1     -16.090 -13.947  79.749  1.00  0.00     0.200 A 
BRANCH  74  77
ATOM     77  O   UNL     1     -14.784 -14.342  81.742  1.00  0.00    -0.504 OA
ATOM     78  H   UNL     1     -14.993 -14.844  82.592  1.00  0.00     0.293 HD
ENDBRANCH  74  77
BRANCH  75  79
ATOM     79  O   UNL     1     -17.452 -13.639  77.708  1.00  0.00    -0.504 OA
ATOM     80  H   UNL     1     -18.426 -13.499  77.923  1.00  0.00     0.293 HD
ENDBRANCH  75  79
BRANCH  76  81
ATOM     81  O   UNL     1     -16.407 -12.689  80.267  1.00  0.00    -0.502 OA
ATOM     82  H   UNL     1     -15.957 -12.292  81.073  1.00  0.00     0.293 HD
ENDBRANCH  76  81
ENDBRANCH  69  71
ENDBRANCH  68  69
ENDBRANCH   4  68
TORSDOF 31
ENDMDL
