MODEL 1
REMARK VINA RESULT:    -4.062      0.000      0.000
REMARK INTER + INTRA:          -9.312
REMARK INTER:                  -7.624
REMARK INTRA:                  -1.688
REMARK UNBOUND:                -1.688
REMARK SMILES O=C([O-])CCCCCCCCCCCCCCC(=O)[O-]
REMARK SMILES IDX 10 1 9 2 8 3 7 4 6 5 5 6 4 7 2 8 1 9 3 10 11 11 12 12 13 13
REMARK SMILES IDX 14 14 15 15 16 16 17 17 18 18 19 19 20 20
REMARK H PARENT
REMARK Flexibility Score: inf
ROOT
ATOM      1  C   UNL     1      -1.276  -4.675  -0.762  1.00  0.00     0.000 C 
ENDROOT
BRANCH   1   2
ATOM      2  C   UNL     1      -0.187  -5.612  -1.306  1.00  0.00     0.000 C 
BRANCH   2   3
ATOM      3  C   UNL     1       0.854  -6.007  -0.242  1.00  0.00     0.000 C 
BRANCH   3   4
ATOM      4  C   UNL     1       0.540  -5.539   1.192  1.00  0.00     0.000 C 
BRANCH   4   5
ATOM      5  C   UNL     1       1.428  -4.369   1.650  1.00  0.00     0.000 C 
BRANCH   5   6
ATOM      6  C   UNL     1       2.930  -4.671   1.503  1.00  0.00     0.006 C 
BRANCH   6   7
ATOM      7  C   UNL     1       3.855  -3.545   1.993  1.00  0.00     0.053 C 
BRANCH   7   8
ATOM      8  C   UNL     1       4.173  -3.672   3.451  1.00  0.00     0.041 C 
ATOM      9  O   UNL     1       4.152  -4.802   4.008  1.00  0.00    -0.550 OA
ATOM     10  O   UNL     1       4.461  -2.540   4.203  1.00  0.00    -0.550 OA
ENDBRANCH   7   8
ENDBRANCH   6   7
ENDBRANCH   5   6
ENDBRANCH   4   5
ENDBRANCH   3   4
ENDBRANCH   2   3
ENDBRANCH   1   2
BRANCH   1  11
ATOM     11  C   UNL     1      -0.997  -3.219  -1.159  1.00  0.00     0.000 C 
BRANCH  11  12
ATOM     12  C   UNL     1      -1.130  -2.236   0.020  1.00  0.00     0.000 C 
BRANCH  12  13
ATOM     13  C   UNL     1      -1.969  -2.750   1.206  1.00  0.00     0.000 C 
BRANCH  13  14
ATOM     14  C   UNL     1      -3.221  -1.910   1.524  1.00  0.00     0.000 C 
BRANCH  14  15
ATOM     15  C   UNL     1      -4.480  -2.760   1.816  1.00  0.00     0.000 C 
BRANCH  15  16
ATOM     16  C   UNL     1      -4.301  -4.261   1.519  1.00  0.00     0.006 C 
BRANCH  16  17
ATOM     17  C   UNL     1      -4.600  -5.173   2.721  1.00  0.00     0.053 C 
BRANCH  17  18
ATOM     18  C   UNL     1      -3.539  -5.076   3.773  1.00  0.00     0.041 C 
ATOM     19  O   UNL     1      -2.331  -5.274   3.476  1.00  0.00    -0.550 OA
ATOM     20  O   UNL     1      -3.879  -4.740   5.078  1.00  0.00    -0.550 OA
ENDBRANCH  17  18
ENDBRANCH  16  17
ENDBRANCH  15  16
ENDBRANCH  14  15
ENDBRANCH  13  14
ENDBRANCH  12  13
ENDBRANCH  11  12
ENDBRANCH   1  11
TORSDOF 15
ENDMDL
MODEL 2
REMARK VINA RESULT:    -3.997      3.792      5.400
REMARK INTER + INTRA:          -9.190
REMARK INTER:                  -8.064
REMARK INTRA:                  -1.126
REMARK UNBOUND:                -1.688
REMARK SMILES O=C([O-])CCCCCCCCCCCCCCC(=O)[O-]
REMARK SMILES IDX 10 1 9 2 8 3 7 4 6 5 5 6 4 7 2 8 1 9 3 10 11 11 12 12 13 13
REMARK SMILES IDX 14 14 15 15 16 16 17 17 18 18 19 19 20 20
REMARK H PARENT
REMARK Flexibility Score: inf
ROOT
ATOM      1  C   UNL     1      -2.425  -2.738   1.662  1.00  0.00     0.000 C 
ENDROOT
BRANCH   1   2
ATOM      2  C   UNL     1      -1.717  -2.160   0.427  1.00  0.00     0.000 C 
BRANCH   2   3
ATOM      3  C   UNL     1      -0.198  -2.417   0.428  1.00  0.00     0.000 C 
BRANCH   3   4
ATOM      4  C   UNL     1       0.248  -3.713   1.131  1.00  0.00     0.000 C 
BRANCH   4   5
ATOM      5  C   UNL     1       0.009  -4.972   0.279  1.00  0.00     0.000 C 
BRANCH   5   6
ATOM      6  C   UNL     1      -0.002  -6.263   1.117  1.00  0.00     0.006 C 
BRANCH   6   7
ATOM      7  C   UNL     1      -1.332  -6.541   1.837  1.00  0.00     0.053 C 
BRANCH   7   8
ATOM      8  C   UNL     1      -1.324  -6.038   3.248  1.00  0.00     0.041 C 
ATOM      9  O   UNL     1      -0.262  -6.065   3.924  1.00  0.00    -0.550 OA
ATOM     10  O   UNL     1      -2.496  -5.569   3.827  1.00  0.00    -0.550 OA
ENDBRANCH   7   8
ENDBRANCH   6   7
ENDBRANCH   5   6
ENDBRANCH   4   5
ENDBRANCH   3   4
ENDBRANCH   2   3
ENDBRANCH   1   2
BRANCH   1  11
ATOM     11  C   UNL     1      -3.779  -2.051   1.890  1.00  0.00     0.000 C 
BRANCH  11  12
ATOM     12  C   UNL     1      -4.976  -2.919   1.460  1.00  0.00     0.000 C 
BRANCH  12  13
ATOM     13  C   UNL     1      -4.691  -4.432   1.382  1.00  0.00     0.000 C 
BRANCH  13  14
ATOM     14  C   UNL     1      -5.753  -5.252   0.626  1.00  0.00     0.000 C 
BRANCH  14  15
ATOM     15  C   UNL     1      -7.149  -5.222   1.291  1.00  0.00     0.000 C 
BRANCH  15  16
ATOM     16  C   UNL     1      -8.304  -5.566   0.331  1.00  0.00     0.006 C 
BRANCH  16  17
ATOM     17  C   UNL     1      -8.901  -4.343  -0.387  1.00  0.00     0.053 C 
BRANCH  17  18
ATOM     18  C   UNL     1     -10.398  -4.361  -0.371  1.00  0.00     0.041 C 
ATOM     19  O   UNL     1     -11.021  -4.362   0.724  1.00  0.00    -0.550 OA
ATOM     20  O   UNL     1     -11.108  -4.349  -1.565  1.00  0.00    -0.550 OA
ENDBRANCH  17  18
ENDBRANCH  16  17
ENDBRANCH  15  16
ENDBRANCH  14  15
ENDBRANCH  13  14
ENDBRANCH  12  13
ENDBRANCH  11  12
ENDBRANCH   1  11
TORSDOF 15
ENDMDL
MODEL 3
REMARK VINA RESULT:    -3.991      4.406      9.040
REMARK INTER + INTRA:          -9.180
REMARK INTER:                  -8.104
REMARK INTRA:                  -1.075
REMARK UNBOUND:                -1.688
REMARK SMILES O=C([O-])CCCCCCCCCCCCCCC(=O)[O-]
REMARK SMILES IDX 10 1 9 2 8 3 7 4 6 5 5 6 4 7 2 8 1 9 3 10 11 11 12 12 13 13
REMARK SMILES IDX 14 14 15 15 16 16 17 17 18 18 19 19 20 20
REMARK H PARENT
REMARK Flexibility Score: inf
ROOT
ATOM      1  C   UNL     1      -5.151  -4.305   1.286  1.00  0.00     0.000 C 
ENDROOT
BRANCH   1   2
ATOM      2  C   UNL     1      -6.543  -4.891   1.006  1.00  0.00     0.000 C 
BRANCH   2   3
ATOM      3  C   UNL     1      -6.629  -5.619  -0.349  1.00  0.00     0.000 C 
BRANCH   3   4
ATOM      4  C   UNL     1      -7.625  -5.014  -1.357  1.00  0.00     0.000 C 
BRANCH   4   5
ATOM      5  C   UNL     1      -8.383  -3.798  -0.797  1.00  0.00     0.000 C 
BRANCH   5   6
ATOM      6  C   UNL     1      -9.908  -4.008  -0.772  1.00  0.00     0.006 C 
BRANCH   6   7
ATOM      7  C   UNL     1     -10.409  -4.884   0.387  1.00  0.00     0.053 C 
BRANCH   7   8
ATOM      8  C   UNL     1     -11.138  -6.100  -0.099  1.00  0.00     0.041 C 
ATOM      9  O   UNL     1     -11.586  -6.140  -1.275  1.00  0.00    -0.550 OA
ATOM     10  O   UNL     1     -11.350  -7.173   0.756  1.00  0.00    -0.550 OA
ENDBRANCH   7   8
ENDBRANCH   6   7
ENDBRANCH   5   6
ENDBRANCH   4   5
ENDBRANCH   3   4
ENDBRANCH   2   3
ENDBRANCH   1   2
BRANCH   1  11
ATOM     11  C   UNL     1      -5.227  -2.786   1.497  1.00  0.00     0.000 C 
BRANCH  11  12
ATOM     12  C   UNL     1      -3.907  -2.182   2.011  1.00  0.00     0.000 C 
BRANCH  12  13
ATOM     13  C   UNL     1      -2.639  -2.978   1.646  1.00  0.00     0.000 C 
BRANCH  13  14
ATOM     14  C   UNL     1      -1.665  -2.247   0.702  1.00  0.00     0.000 C 
BRANCH  14  15
ATOM     15  C   UNL     1      -0.223  -2.802   0.748  1.00  0.00     0.000 C 
BRANCH  15  16
ATOM     16  C   UNL     1      -0.122  -4.304   0.419  1.00  0.00     0.006 C 
BRANCH  16  17
ATOM     17  C   UNL     1       0.669  -5.117   1.458  1.00  0.00     0.053 C 
BRANCH  17  18
ATOM     18  C   UNL     1      -0.231  -5.765   2.465  1.00  0.00     0.041 C 
ATOM     19  O   UNL     1       0.125  -5.854   3.670  1.00  0.00    -0.550 OA
ATOM     20  O   UNL     1      -1.475  -6.247   2.079  1.00  0.00    -0.550 OA
ENDBRANCH  17  18
ENDBRANCH  16  17
ENDBRANCH  15  16
ENDBRANCH  14  15
ENDBRANCH  13  14
ENDBRANCH  12  13
ENDBRANCH  11  12
ENDBRANCH   1  11
TORSDOF 15
ENDMDL
MODEL 4
REMARK VINA RESULT:    -3.985      4.790      6.685
REMARK INTER + INTRA:          -9.168
REMARK INTER:                  -7.857
REMARK INTRA:                  -1.311
REMARK UNBOUND:                -1.688
REMARK SMILES O=C([O-])CCCCCCCCCCCCCCC(=O)[O-]
REMARK SMILES IDX 10 1 9 2 8 3 7 4 6 5 5 6 4 7 2 8 1 9 3 10 11 11 12 12 13 13
REMARK SMILES IDX 14 14 15 15 16 16 17 17 18 18 19 19 20 20
REMARK H PARENT
REMARK Flexibility Score: inf
ROOT
ATOM      1  C   UNL     1      -4.210  -5.677   1.280  1.00  0.00     0.000 C 
ENDROOT
BRANCH   1   2
ATOM      2  C   UNL     1      -4.373  -4.480   2.228  1.00  0.00     0.000 C 
BRANCH   2   3
ATOM      3  C   UNL     1      -4.516  -3.137   1.487  1.00  0.00     0.000 C 
BRANCH   3   4
ATOM      4  C   UNL     1      -3.323  -2.174   1.636  1.00  0.00     0.000 C 
BRANCH   4   5
ATOM      5  C   UNL     1      -1.962  -2.878   1.500  1.00  0.00     0.000 C 
BRANCH   5   6
ATOM      6  C   UNL     1      -1.070  -2.241   0.418  1.00  0.00     0.006 C 
BRANCH   6   7
ATOM      7  C   UNL     1      -1.045  -3.006  -0.915  1.00  0.00     0.053 C 
BRANCH   7   8
ATOM      8  C   UNL     1      -0.863  -4.480  -0.717  1.00  0.00     0.041 C 
ATOM      9  O   UNL     1       0.171  -4.919  -0.149  1.00  0.00    -0.550 OA
ATOM     10  O   UNL     1      -1.821  -5.369  -1.187  1.00  0.00    -0.550 OA
ENDBRANCH   7   8
ENDBRANCH   6   7
ENDBRANCH   5   6
ENDBRANCH   4   5
ENDBRANCH   3   4
ENDBRANCH   2   3
ENDBRANCH   1   2
BRANCH   1  11
ATOM     11  C   UNL     1      -5.516  -5.960   0.523  1.00  0.00     0.000 C 
BRANCH  11  12
ATOM     12  C   UNL     1      -6.755  -5.963   1.438  1.00  0.00     0.000 C 
BRANCH  12  13
ATOM     13  C   UNL     1      -8.000  -5.266   0.854  1.00  0.00     0.000 C 
BRANCH  13  14
ATOM     14  C   UNL     1      -7.697  -4.100  -0.106  1.00  0.00     0.000 C 
BRANCH  14  15
ATOM     15  C   UNL     1      -8.896  -3.704  -0.998  1.00  0.00     0.000 C 
BRANCH  15  16
ATOM     16  C   UNL     1     -10.263  -4.135  -0.433  1.00  0.00     0.006 C 
BRANCH  16  17
ATOM     17  C   UNL     1     -11.131  -4.916  -1.434  1.00  0.00     0.053 C 
BRANCH  17  18
ATOM     18  C   UNL     1     -10.327  -5.903  -2.222  1.00  0.00     0.041 C 
ATOM     19  O   UNL     1      -9.924  -6.968  -1.683  1.00  0.00    -0.550 OA
ATOM     20  O   UNL     1     -10.045  -5.662  -3.561  1.00  0.00    -0.550 OA
ENDBRANCH  17  18
ENDBRANCH  16  17
ENDBRANCH  15  16
ENDBRANCH  14  15
ENDBRANCH  13  14
ENDBRANCH  12  13
ENDBRANCH  11  12
ENDBRANCH   1  11
TORSDOF 15
ENDMDL
MODEL 5
REMARK VINA RESULT:    -3.984      4.051      5.050
REMARK INTER + INTRA:          -9.165
REMARK INTER:                  -8.355
REMARK INTRA:                  -0.810
REMARK UNBOUND:                -1.688
REMARK SMILES O=C([O-])CCCCCCCCCCCCCCC(=O)[O-]
REMARK SMILES IDX 10 1 9 2 8 3 7 4 6 5 5 6 4 7 2 8 1 9 3 10 11 11 12 12 13 13
REMARK SMILES IDX 14 14 15 15 16 16 17 17 18 18 19 19 20 20
REMARK H PARENT
REMARK Flexibility Score: inf
ROOT
ATOM      1  C   UNL     1      -3.488  -2.004   1.808  1.00  0.00     0.000 C 
ENDROOT
BRANCH   1   2
ATOM      2  C   UNL     1      -2.334  -2.947   1.438  1.00  0.00     0.000 C 
BRANCH   2   3
ATOM      3  C   UNL     1      -1.311  -2.303   0.483  1.00  0.00     0.000 C 
BRANCH   3   4
ATOM      4  C   UNL     1       0.158  -2.695   0.731  1.00  0.00     0.000 C 
BRANCH   4   5
ATOM      5  C   UNL     1       0.303  -4.017   1.506  1.00  0.00     0.000 C 
BRANCH   5   6
ATOM      6  C   UNL     1       1.645  -4.720   1.234  1.00  0.00     0.006 C 
BRANCH   6   7
ATOM      7  C   UNL     1       2.666  -4.603   2.377  1.00  0.00     0.053 C 
BRANCH   7   8
ATOM      8  C   UNL     1       3.828  -3.734   2.009  1.00  0.00     0.041 C 
ATOM      9  O   UNL     1       4.947  -4.250   1.748  1.00  0.00    -0.550 OA
ATOM     10  O   UNL     1       3.685  -2.353   1.985  1.00  0.00    -0.550 OA
ENDBRANCH   7   8
ENDBRANCH   6   7
ENDBRANCH   5   6
ENDBRANCH   4   5
ENDBRANCH   3   4
ENDBRANCH   2   3
ENDBRANCH   1   2
BRANCH   1  11
ATOM     11  C   UNL     1      -4.847  -2.678   1.569  1.00  0.00     0.000 C 
BRANCH  11  12
ATOM     12  C   UNL     1      -4.789  -4.212   1.694  1.00  0.00     0.000 C 
BRANCH  12  13
ATOM     13  C   UNL     1      -5.641  -4.983   0.667  1.00  0.00     0.000 C 
BRANCH  13  14
ATOM     14  C   UNL     1      -7.144  -4.649   0.692  1.00  0.00     0.000 C 
BRANCH  14  15
ATOM     15  C   UNL     1      -7.692  -4.154  -0.666  1.00  0.00     0.000 C 
BRANCH  15  16
ATOM     16  C   UNL     1      -8.630  -5.158  -1.364  1.00  0.00     0.006 C 
BRANCH  16  17
ATOM     17  C   UNL     1      -9.694  -5.765  -0.433  1.00  0.00     0.053 C 
BRANCH  17  18
ATOM     18  C   UNL     1     -10.874  -4.859  -0.267  1.00  0.00     0.041 C 
ATOM     19  O   UNL     1     -11.299  -4.576   0.885  1.00  0.00    -0.550 OA
ATOM     20  O   UNL     1     -11.489  -4.302  -1.381  1.00  0.00    -0.550 OA
ENDBRANCH  17  18
ENDBRANCH  16  17
ENDBRANCH  15  16
ENDBRANCH  14  15
ENDBRANCH  13  14
ENDBRANCH  12  13
ENDBRANCH  11  12
ENDBRANCH   1  11
TORSDOF 15
ENDMDL
MODEL 6
REMARK VINA RESULT:    -3.976      4.066      8.442
REMARK INTER + INTRA:          -9.150
REMARK INTER:                  -7.461
REMARK INTRA:                  -1.688
REMARK UNBOUND:                -1.688
REMARK SMILES O=C([O-])CCCCCCCCCCCCCCC(=O)[O-]
REMARK SMILES IDX 10 1 9 2 8 3 7 4 6 5 5 6 4 7 2 8 1 9 3 10 11 11 12 12 13 13
REMARK SMILES IDX 14 14 15 15 16 16 17 17 18 18 19 19 20 20
REMARK H PARENT
REMARK Flexibility Score: inf
ROOT
ATOM      1  C   UNL     1      -3.683  -5.520   2.192  1.00  0.00     0.000 C 
ENDROOT
BRANCH   1   2
ATOM      2  C   UNL     1      -3.838  -5.575   0.665  1.00  0.00     0.000 C 
BRANCH   2   3
ATOM      3  C   UNL     1      -5.219  -6.088   0.216  1.00  0.00     0.000 C 
BRANCH   3   4
ATOM      4  C   UNL     1      -6.323  -6.027   1.288  1.00  0.00     0.000 C 
BRANCH   4   5
ATOM      5  C   UNL     1      -7.388  -4.957   0.992  1.00  0.00     0.000 C 
BRANCH   5   6
ATOM      6  C   UNL     1      -7.481  -4.609  -0.505  1.00  0.00     0.006 C 
BRANCH   6   7
ATOM      7  C   UNL     1      -8.618  -3.639  -0.861  1.00  0.00     0.053 C 
BRANCH   7   8
ATOM      8  C   UNL     1      -9.953  -4.317  -0.880  1.00  0.00     0.041 C 
ATOM      9  O   UNL     1     -10.738  -4.198   0.097  1.00  0.00    -0.550 OA
ATOM     10  O   UNL     1     -10.317  -5.108  -1.963  1.00  0.00    -0.550 OA
ENDBRANCH   7   8
ENDBRANCH   6   7
ENDBRANCH   5   6
ENDBRANCH   4   5
ENDBRANCH   3   4
ENDBRANCH   2   3
ENDBRANCH   1   2
BRANCH   1  11
ATOM     11  C   UNL     1      -3.180  -4.142   2.644  1.00  0.00     0.000 C 
BRANCH  11  12
ATOM     12  C   UNL     1      -3.693  -2.992   1.757  1.00  0.00     0.000 C 
BRANCH  12  13
ATOM     13  C   UNL     1      -2.598  -2.071   1.184  1.00  0.00     0.000 C 
BRANCH  13  14
ATOM     14  C   UNL     1      -1.536  -2.785   0.326  1.00  0.00     0.000 C 
BRANCH  14  15
ATOM     15  C   UNL     1      -0.089  -2.575   0.828  1.00  0.00     0.000 C 
BRANCH  15  16
ATOM     16  C   UNL     1       0.650  -3.885   1.163  1.00  0.00     0.006 C 
BRANCH  16  17
ATOM     17  C   UNL     1      -0.108  -5.154   0.737  1.00  0.00     0.053 C 
BRANCH  17  18
ATOM     18  C   UNL     1       0.564  -5.849  -0.407  1.00  0.00     0.041 C 
ATOM     19  O   UNL     1      -0.003  -5.916  -1.530  1.00  0.00    -0.550 OA
ATOM     20  O   UNL     1       1.829  -6.399  -0.242  1.00  0.00    -0.550 OA
ENDBRANCH  17  18
ENDBRANCH  16  17
ENDBRANCH  15  16
ENDBRANCH  14  15
ENDBRANCH  13  14
ENDBRANCH  12  13
ENDBRANCH  11  12
ENDBRANCH   1  11
TORSDOF 15
ENDMDL
MODEL 7
REMARK VINA RESULT:    -3.949      3.626      5.753
REMARK INTER + INTRA:          -9.101
REMARK INTER:                  -8.357
REMARK INTRA:                  -0.744
REMARK UNBOUND:                -1.688
REMARK SMILES O=C([O-])CCCCCCCCCCCCCCC(=O)[O-]
REMARK SMILES IDX 10 1 9 2 8 3 7 4 6 5 5 6 4 7 2 8 1 9 3 10 11 11 12 12 13 13
REMARK SMILES IDX 14 14 15 15 16 16 17 17 18 18 19 19 20 20
REMARK H PARENT
REMARK Flexibility Score: inf
ROOT
ATOM      1  C   UNL     1       4.556  -3.995   2.784  1.00  0.00     0.000 C 
ENDROOT
BRANCH   1   2
ATOM      2  C   UNL     1       4.510  -3.515   4.243  1.00  0.00     0.000 C 
BRANCH   2   3
ATOM      3  C   UNL     1       4.359  -1.988   4.372  1.00  0.00     0.000 C 
BRANCH   3   4
ATOM      4  C   UNL     1       4.429  -1.440   5.810  1.00  0.00     0.000 C 
BRANCH   4   5
ATOM      5  C   UNL     1       4.350   0.095   5.871  1.00  0.00     0.000 C 
BRANCH   5   6
ATOM      6  C   UNL     1       3.444   0.598   7.010  1.00  0.00     0.006 C 
BRANCH   6   7
ATOM      7  C   UNL     1       2.426  -0.437   7.516  1.00  0.00     0.053 C 
BRANCH   7   8
ATOM      8  C   UNL     1       1.088   0.177   7.794  1.00  0.00     0.041 C 
ATOM      9  O   UNL     1       0.995   1.411   8.028  1.00  0.00    -0.550 OA
ATOM     10  O   UNL     1      -0.049  -0.618   7.828  1.00  0.00    -0.550 OA
ENDBRANCH   7   8
ENDBRANCH   6   7
ENDBRANCH   5   6
ENDBRANCH   4   5
ENDBRANCH   3   4
ENDBRANCH   2   3
ENDBRANCH   1   2
BRANCH   1  11
ATOM     11  C   UNL     1       3.243  -3.670   2.057  1.00  0.00     0.000 C 
BRANCH  11  12
ATOM     12  C   UNL     1       2.201  -4.799   2.161  1.00  0.00     0.000 C 
BRANCH  12  13
ATOM     13  C   UNL     1       0.858  -4.515   1.460  1.00  0.00     0.000 C 
BRANCH  13  14
ATOM     14  C   UNL     1       0.640  -3.045   1.052  1.00  0.00     0.000 C 
BRANCH  14  15
ATOM     15  C   UNL     1      -0.649  -2.815   0.231  1.00  0.00     0.000 C 
BRANCH  15  16
ATOM     16  C   UNL     1      -1.777  -2.126   1.022  1.00  0.00     0.006 C 
BRANCH  16  17
ATOM     17  C   UNL     1      -2.817  -3.101   1.600  1.00  0.00     0.053 C 
BRANCH  17  18
ATOM     18  C   UNL     1      -4.132  -2.431   1.854  1.00  0.00     0.041 C 
ATOM     19  O   UNL     1      -5.195  -2.924   1.392  1.00  0.00    -0.550 OA
ATOM     20  O   UNL     1      -4.189  -1.277   2.626  1.00  0.00    -0.550 OA
ENDBRANCH  17  18
ENDBRANCH  16  17
ENDBRANCH  15  16
ENDBRANCH  14  15
ENDBRANCH  13  14
ENDBRANCH  12  13
ENDBRANCH  11  12
ENDBRANCH   1  11
TORSDOF 15
ENDMDL
MODEL 8
REMARK VINA RESULT:    -3.905      4.295      5.941
REMARK INTER + INTRA:          -9.017
REMARK INTER:                  -7.660
REMARK INTRA:                  -1.357
REMARK UNBOUND:                -1.688
REMARK SMILES O=C([O-])CCCCCCCCCCCCCCC(=O)[O-]
REMARK SMILES IDX 10 1 9 2 8 3 7 4 6 5 5 6 4 7 2 8 1 9 3 10 11 11 12 12 13 13
REMARK SMILES IDX 14 14 15 15 16 16 17 17 18 18 19 19 20 20
REMARK H PARENT
REMARK Flexibility Score: inf
ROOT
ATOM      1  C   UNL     1      -4.398  -2.853   1.594  1.00  0.00     0.000 C 
ENDROOT
BRANCH   1   2
ATOM      2  C   UNL     1      -3.111  -2.020   1.502  1.00  0.00     0.000 C 
BRANCH   2   3
ATOM      3  C   UNL     1      -1.836  -2.883   1.443  1.00  0.00     0.000 C 
BRANCH   3   4
ATOM      4  C   UNL     1      -0.834  -2.499   0.338  1.00  0.00     0.000 C 
BRANCH   4   5
ATOM      5  C   UNL     1      -0.917  -3.419  -0.893  1.00  0.00     0.000 C 
BRANCH   5   6
ATOM      6  C   UNL     1      -1.627  -4.752  -0.591  1.00  0.00     0.006 C 
BRANCH   6   7
ATOM      7  C   UNL     1      -0.782  -6.002  -0.887  1.00  0.00     0.053 C 
BRANCH   7   8
ATOM      8  C   UNL     1       0.492  -6.021  -0.099  1.00  0.00     0.041 C 
ATOM      9  O   UNL     1       0.460  -5.929   1.156  1.00  0.00    -0.550 OA
ATOM     10  O   UNL     1       1.714  -6.109  -0.753  1.00  0.00    -0.550 OA
ENDBRANCH   7   8
ENDBRANCH   6   7
ENDBRANCH   5   6
ENDBRANCH   4   5
ENDBRANCH   3   4
ENDBRANCH   2   3
ENDBRANCH   1   2
BRANCH   1  11
ATOM     11  C   UNL     1      -4.200  -4.070   2.509  1.00  0.00     0.000 C 
BRANCH  11  12
ATOM     12  C   UNL     1      -5.100  -5.262   2.130  1.00  0.00     0.000 C 
BRANCH  12  13
ATOM     13  C   UNL     1      -5.681  -5.212   0.703  1.00  0.00     0.000 C 
BRANCH  13  14
ATOM     14  C   UNL     1      -7.198  -4.955   0.632  1.00  0.00     0.000 C 
BRANCH  14  15
ATOM     15  C   UNL     1      -7.569  -3.618  -0.051  1.00  0.00     0.000 C 
BRANCH  15  16
ATOM     16  C   UNL     1      -8.637  -3.756  -1.153  1.00  0.00     0.006 C 
BRANCH  16  17
ATOM     17  C   UNL     1      -9.605  -4.932  -0.937  1.00  0.00     0.053 C 
BRANCH  17  18
ATOM     18  C   UNL     1     -10.988  -4.465  -0.604  1.00  0.00     0.041 C 
ATOM     19  O   UNL     1     -11.360  -4.388   0.597  1.00  0.00    -0.550 OA
ATOM     20  O   UNL     1     -11.858  -4.086  -1.618  1.00  0.00    -0.550 OA
ENDBRANCH  17  18
ENDBRANCH  16  17
ENDBRANCH  15  16
ENDBRANCH  14  15
ENDBRANCH  13  14
ENDBRANCH  12  13
ENDBRANCH  11  12
ENDBRANCH   1  11
TORSDOF 15
ENDMDL
MODEL 9
REMARK VINA RESULT:    -3.847      4.583      9.300
REMARK INTER + INTRA:          -8.908
REMARK INTER:                  -7.658
REMARK INTRA:                  -1.250
REMARK UNBOUND:                -1.688
REMARK SMILES O=C([O-])CCCCCCCCCCCCCCC(=O)[O-]
REMARK SMILES IDX 10 1 9 2 8 3 7 4 6 5 5 6 4 7 2 8 1 9 3 10 11 11 12 12 13 13
REMARK SMILES IDX 14 14 15 15 16 16 17 17 18 18 19 19 20 20
REMARK H PARENT
REMARK Flexibility Score: inf
ROOT
ATOM      1  C   UNL     1      -5.110  -5.457   0.965  1.00  0.00     0.000 C 
ENDROOT
BRANCH   1   2
ATOM      2  C   UNL     1      -6.459  -4.721   0.959  1.00  0.00     0.000 C 
BRANCH   2   3
ATOM      3  C   UNL     1      -7.533  -5.436   0.118  1.00  0.00     0.000 C 
BRANCH   3   4
ATOM      4  C   UNL     1      -7.966  -4.695  -1.162  1.00  0.00     0.000 C 
BRANCH   4   5
ATOM      5  C   UNL     1      -9.120  -3.707  -0.921  1.00  0.00     0.000 C 
BRANCH   5   6
ATOM      6  C   UNL     1     -10.505  -4.372  -1.033  1.00  0.00     0.006 C 
BRANCH   6   7
ATOM      7  C   UNL     1     -11.270  -4.470   0.297  1.00  0.00     0.053 C 
BRANCH   7   8
ATOM      8  C   UNL     1     -11.266  -5.863   0.849  1.00  0.00     0.041 C 
ATOM      9  O   UNL     1     -10.835  -6.818   0.151  1.00  0.00    -0.550 OA
ATOM     10  O   UNL     1     -11.768  -6.109   2.120  1.00  0.00    -0.550 OA
ENDBRANCH   7   8
ENDBRANCH   6   7
ENDBRANCH   5   6
ENDBRANCH   4   5
ENDBRANCH   3   4
ENDBRANCH   2   3
ENDBRANCH   1   2
BRANCH   1  11
ATOM     11  C   UNL     1      -3.972  -4.515   1.383  1.00  0.00     0.000 C 
BRANCH  11  12
ATOM     12  C   UNL     1      -4.442  -3.065   1.608  1.00  0.00     0.000 C 
BRANCH  12  13
ATOM     13  C   UNL     1      -3.337  -1.996   1.499  1.00  0.00     0.000 C 
BRANCH  13  14
ATOM     14  C   UNL     1      -1.899  -2.548   1.531  1.00  0.00     0.000 C 
BRANCH  14  15
ATOM     15  C   UNL     1      -1.167  -2.452   0.172  1.00  0.00     0.000 C 
BRANCH  15  16
ATOM     16  C   UNL     1      -0.535  -3.779  -0.290  1.00  0.00     0.006 C 
BRANCH  16  17
ATOM     17  C   UNL     1      -1.203  -4.387  -1.535  1.00  0.00     0.053 C 
BRANCH  17  18
ATOM     18  C   UNL     1      -1.565  -5.825  -1.329  1.00  0.00     0.041 C 
ATOM     19  O   UNL     1      -2.734  -6.226  -1.572  1.00  0.00    -0.550 OA
ATOM     20  O   UNL     1      -0.605  -6.731  -0.896  1.00  0.00    -0.550 OA
ENDBRANCH  17  18
ENDBRANCH  16  17
ENDBRANCH  15  16
ENDBRANCH  14  15
ENDBRANCH  13  14
ENDBRANCH  12  13
ENDBRANCH  11  12
ENDBRANCH   1  11
TORSDOF 15
ENDMDL
