MODEL 1
REMARK VINA RESULT:    -3.905      0.000      0.000
REMARK INTER + INTRA:          -4.525
REMARK INTER:                  -4.475
REMARK INTRA:                  -0.050
REMARK UNBOUND:                -0.050
REMARK SMILES CC(C)[C@H]([NH3+])C(=O)[O-]
REMARK SMILES IDX 4 1 5 2 6 6 7 7 8 8 2 9 1 10 3 11
REMARK H PARENT 5 3 5 4 5 5
REMARK Flexibility Score: inf
ROOT
ATOM      1  C   UNL     1     -30.049 -40.936  25.856  1.00  0.00     0.230 C 
ENDROOT
BRANCH   1   2
ATOM      2  N   UNL     1     -29.234 -41.855  25.045  1.00  0.00    -0.350 N 
ATOM      3  H   UNL     1     -29.837 -42.383  24.375  1.00  0.00     0.345 HD
ATOM      4  H   UNL     1     -28.546 -41.303  24.481  1.00  0.00     0.345 HD
ATOM      5  H   UNL     1     -28.706 -42.528  25.644  1.00  0.00     0.345 HD
ENDBRANCH   1   2
BRANCH   1   6
ATOM      6  C   UNL     1     -31.359 -40.635  25.168  1.00  0.00     0.099 C 
ATOM      7  O   UNL     1     -32.433 -40.670  25.824  1.00  0.00    -0.544 OA
ATOM      8  O   UNL     1     -31.390 -40.272  23.827  1.00  0.00    -0.544 OA
ENDBRANCH   1   6
BRANCH   1   9
ATOM      9  C   UNL     1     -29.299 -39.620  26.222  1.00  0.00     0.047 C 
ATOM     10  C   UNL     1     -27.768 -39.767  26.240  1.00  0.00     0.014 C 
ATOM     11  C   UNL     1     -29.791 -39.031  27.553  1.00  0.00     0.014 C 
ENDBRANCH   1   9
TORSDOF 3
ENDMDL
MODEL 2
REMARK VINA RESULT:    -3.875      2.502      3.054
REMARK INTER + INTRA:          -4.491
REMARK INTER:                  -4.444
REMARK INTRA:                  -0.047
REMARK UNBOUND:                -0.050
REMARK SMILES CC(C)[C@H]([NH3+])C(=O)[O-]
REMARK SMILES IDX 4 1 5 2 6 6 7 7 8 8 2 9 1 10 3 11
REMARK H PARENT 5 3 5 4 5 5
REMARK Flexibility Score: inf
ROOT
ATOM      1  C   UNL     1     -28.149 -40.290  26.675  1.00  0.00     0.230 C 
ENDROOT
BRANCH   1   2
ATOM      2  N   UNL     1     -27.984 -39.002  25.982  1.00  0.00    -0.350 N 
ATOM      3  H   UNL     1     -28.348 -38.221  26.572  1.00  0.00     0.345 HD
ATOM      4  H   UNL     1     -26.965 -38.825  25.818  1.00  0.00     0.345 HD
ATOM      5  H   UNL     1     -28.473 -38.999  25.059  1.00  0.00     0.345 HD
ENDBRANCH   1   2
BRANCH   1   6
ATOM      6  C   UNL     1     -28.418 -41.398  25.686  1.00  0.00     0.099 C 
ATOM      7  O   UNL     1     -27.574 -42.321  25.535  1.00  0.00    -0.544 OA
ATOM      8  O   UNL     1     -29.610 -41.439  24.972  1.00  0.00    -0.544 OA
ENDBRANCH   1   6
BRANCH   1   9
ATOM      9  C   UNL     1     -29.250 -40.251  27.778  1.00  0.00     0.047 C 
ATOM     10  C   UNL     1     -29.953 -38.888  27.899  1.00  0.00     0.014 C 
ATOM     11  C   UNL     1     -28.705 -40.689  29.146  1.00  0.00     0.014 C 
ENDBRANCH   1   9
TORSDOF 3
ENDMDL
MODEL 3
REMARK VINA RESULT:    -3.846      1.293      1.676
REMARK INTER + INTRA:          -4.458
REMARK INTER:                  -4.429
REMARK INTRA:                  -0.029
REMARK UNBOUND:                -0.050
REMARK SMILES CC(C)[C@H]([NH3+])C(=O)[O-]
REMARK SMILES IDX 4 1 5 2 6 6 7 7 8 8 2 9 1 10 3 11
REMARK H PARENT 5 3 5 4 5 5
REMARK Flexibility Score: inf
ROOT
ATOM      1  C   UNL     1     -29.477 -41.497  25.365  1.00  0.00     0.230 C 
ENDROOT
BRANCH   1   2
ATOM      2  N   UNL     1     -28.225 -42.258  25.228  1.00  0.00    -0.350 N 
ATOM      3  H   UNL     1     -27.943 -42.665  26.147  1.00  0.00     0.345 HD
ATOM      4  H   UNL     1     -28.374 -43.054  24.564  1.00  0.00     0.345 HD
ATOM      5  H   UNL     1     -27.452 -41.661  24.859  1.00  0.00     0.345 HD
ENDBRANCH   1   2
BRANCH   1   6
ATOM      6  C   UNL     1     -30.256 -41.513  24.072  1.00  0.00     0.099 C 
ATOM      7  O   UNL     1     -29.978 -42.361  23.183  1.00  0.00    -0.544 OA
ATOM      8  O   UNL     1     -31.311 -40.632  23.867  1.00  0.00    -0.544 OA
ENDBRANCH   1   6
BRANCH   1   9
ATOM      9  C   UNL     1     -29.250 -40.035  25.858  1.00  0.00     0.047 C 
ATOM     10  C   UNL     1     -27.795 -39.740  26.261  1.00  0.00     0.014 C 
ATOM     11  C   UNL     1     -30.203 -39.662  27.003  1.00  0.00     0.014 C 
ENDBRANCH   1   9
TORSDOF 3
ENDMDL
MODEL 4
REMARK VINA RESULT:    -3.744      2.903      3.371
REMARK INTER + INTRA:          -4.341
REMARK INTER:                  -4.407
REMARK INTRA:                   0.066
REMARK UNBOUND:                -0.050
REMARK SMILES CC(C)[C@H]([NH3+])C(=O)[O-]
REMARK SMILES IDX 4 1 5 2 6 6 7 7 8 8 2 9 1 10 3 11
REMARK H PARENT 5 3 5 4 5 5
REMARK Flexibility Score: inf
ROOT
ATOM      1  C   UNL     1     -28.909 -41.361  27.454  1.00  0.00     0.230 C 
ENDROOT
BRANCH   1   2
ATOM      2  N   UNL     1     -28.219 -41.112  28.730  1.00  0.00    -0.350 N 
ATOM      3  H   UNL     1     -28.462 -41.852  29.426  1.00  0.00     0.345 HD
ATOM      4  H   UNL     1     -27.184 -41.150  28.578  1.00  0.00     0.345 HD
ATOM      5  H   UNL     1     -28.462 -40.174  29.120  1.00  0.00     0.345 HD
ENDBRANCH   1   2
BRANCH   1   6
ATOM      6  C   UNL     1     -27.942 -41.270  26.298  1.00  0.00     0.099 C 
ATOM      7  O   UNL     1     -27.302 -40.204  26.098  1.00  0.00    -0.544 OA
ATOM      8  O   UNL     1     -27.711 -42.367  25.477  1.00  0.00    -0.544 OA
ENDBRANCH   1   6
BRANCH   1   9
ATOM      9  C   UNL     1     -30.132 -40.421  27.229  1.00  0.00     0.047 C 
ATOM     10  C   UNL     1     -30.619 -40.382  25.771  1.00  0.00     0.014 C 
ATOM     11  C   UNL     1     -29.860 -38.996  27.735  1.00  0.00     0.014 C 
ENDBRANCH   1   9
TORSDOF 3
ENDMDL
MODEL 5
REMARK VINA RESULT:    -3.734      2.575      3.081
REMARK INTER + INTRA:          -4.330
REMARK INTER:                  -4.273
REMARK INTRA:                  -0.057
REMARK UNBOUND:                -0.050
REMARK SMILES CC(C)[C@H]([NH3+])C(=O)[O-]
REMARK SMILES IDX 4 1 5 2 6 6 7 7 8 8 2 9 1 10 3 11
REMARK H PARENT 5 3 5 4 5 5
REMARK Flexibility Score: inf
ROOT
ATOM      1  C   UNL     1     -29.368 -41.005  27.881  1.00  0.00     0.230 C 
ENDROOT
BRANCH   1   2
ATOM      2  N   UNL     1     -28.273 -41.434  28.765  1.00  0.00    -0.350 N 
ATOM      3  H   UNL     1     -28.372 -40.995  29.707  1.00  0.00     0.345 HD
ATOM      4  H   UNL     1     -28.319 -42.472  28.894  1.00  0.00     0.345 HD
ATOM      5  H   UNL     1     -27.340 -41.191  28.364  1.00  0.00     0.345 HD
ENDBRANCH   1   2
BRANCH   1   6
ATOM      6  C   UNL     1     -30.511 -41.991  27.928  1.00  0.00     0.099 C 
ATOM      7  O   UNL     1     -31.467 -41.881  27.115  1.00  0.00    -0.544 OA
ATOM      8  O   UNL     1     -30.499 -43.050  28.828  1.00  0.00    -0.544 OA
ENDBRANCH   1   6
BRANCH   1   9
ATOM      9  C   UNL     1     -28.906 -40.761  26.412  1.00  0.00     0.047 C 
ATOM     10  C   UNL     1     -27.738 -41.662  25.977  1.00  0.00     0.014 C 
ATOM     11  C   UNL     1     -28.560 -39.286  26.158  1.00  0.00     0.014 C 
ENDBRANCH   1   9
TORSDOF 3
ENDMDL
MODEL 6
REMARK VINA RESULT:    -3.731      2.989      3.468
REMARK INTER + INTRA:          -4.326
REMARK INTER:                  -4.278
REMARK INTRA:                  -0.048
REMARK UNBOUND:                -0.050
REMARK SMILES CC(C)[C@H]([NH3+])C(=O)[O-]
REMARK SMILES IDX 4 1 5 2 6 6 7 7 8 8 2 9 1 10 3 11
REMARK H PARENT 5 3 5 4 5 5
REMARK Flexibility Score: inf
ROOT
ATOM      1  C   UNL     1     -28.972 -41.249  27.265  1.00  0.00     0.230 C 
ENDROOT
BRANCH   1   2
ATOM      2  N   UNL     1     -28.401 -41.216  28.621  1.00  0.00    -0.350 N 
ATOM      3  H   UNL     1     -28.242 -42.185  28.974  1.00  0.00     0.345 HD
ATOM      4  H   UNL     1     -27.471 -40.734  28.594  1.00  0.00     0.345 HD
ATOM      5  H   UNL     1     -29.021 -40.700  29.285  1.00  0.00     0.345 HD
ENDBRANCH   1   2
BRANCH   1   6
ATOM      6  C   UNL     1     -27.879 -41.206  26.225  1.00  0.00     0.099 C 
ATOM      7  O   UNL     1     -27.265 -40.128  26.004  1.00  0.00    -0.544 OA
ATOM      8  O   UNL     1     -27.507 -42.355  25.537  1.00  0.00    -0.544 OA
ENDBRANCH   1   6
BRANCH   1   9
ATOM      9  C   UNL     1     -30.018 -40.120  27.018  1.00  0.00     0.047 C 
ATOM     10  C   UNL     1     -29.982 -39.003  28.074  1.00  0.00     0.014 C 
ATOM     11  C   UNL     1     -31.443 -40.680  26.886  1.00  0.00     0.014 C 
ENDBRANCH   1   9
TORSDOF 3
ENDMDL
MODEL 7
REMARK VINA RESULT:    -3.707      2.552      3.336
REMARK INTER + INTRA:          -4.299
REMARK INTER:                  -4.251
REMARK INTRA:                  -0.048
REMARK UNBOUND:                -0.050
REMARK SMILES CC(C)[C@H]([NH3+])C(=O)[O-]
REMARK SMILES IDX 4 1 5 2 6 6 7 7 8 8 2 9 1 10 3 11
REMARK H PARENT 5 3 5 4 5 5
REMARK Flexibility Score: inf
ROOT
ATOM      1  C   UNL     1     -29.021 -39.656  26.258  1.00  0.00     0.230 C 
ENDROOT
BRANCH   1   2
ATOM      2  N   UNL     1     -27.630 -39.217  26.069  1.00  0.00    -0.350 N 
ATOM      3  H   UNL     1     -27.393 -38.455  26.743  1.00  0.00     0.345 HD
ATOM      4  H   UNL     1     -26.984 -40.019  26.260  1.00  0.00     0.345 HD
ATOM      5  H   UNL     1     -27.463 -38.883  25.093  1.00  0.00     0.345 HD
ENDBRANCH   1   2
BRANCH   1   6
ATOM      6  C   UNL     1     -29.469 -39.416  27.680  1.00  0.00     0.099 C 
ATOM      7  O   UNL     1     -30.251 -38.463  27.938  1.00  0.00    -0.544 OA
ATOM      8  O   UNL     1     -29.065 -40.263  28.705  1.00  0.00    -0.544 OA
ENDBRANCH   1   6
BRANCH   1   9
ATOM      9  C   UNL     1     -29.252 -41.142  25.847  1.00  0.00     0.047 C 
ATOM     10  C   UNL     1     -27.957 -41.892  25.494  1.00  0.00     0.014 C 
ATOM     11  C   UNL     1     -30.268 -41.269  24.701  1.00  0.00     0.014 C 
ENDBRANCH   1   9
TORSDOF 3
ENDMDL
MODEL 8
REMARK VINA RESULT:    -3.667      2.829      3.305
REMARK INTER + INTRA:          -4.252
REMARK INTER:                  -4.188
REMARK INTRA:                  -0.065
REMARK UNBOUND:                -0.050
REMARK SMILES CC(C)[C@H]([NH3+])C(=O)[O-]
REMARK SMILES IDX 4 1 5 2 6 6 7 7 8 8 2 9 1 10 3 11
REMARK H PARENT 5 3 5 4 5 5
REMARK Flexibility Score: inf
ROOT
ATOM      1  C   UNL     1     -28.698 -40.799  28.159  1.00  0.00     0.230 C 
ENDROOT
BRANCH   1   2
ATOM      2  N   UNL     1     -27.594 -41.439  27.426  1.00  0.00    -0.350 N 
ATOM      3  H   UNL     1     -27.149 -40.759  26.770  1.00  0.00     0.345 HD
ATOM      4  H   UNL     1     -26.859 -41.747  28.106  1.00  0.00     0.345 HD
ATOM      5  H   UNL     1     -27.922 -42.274  26.892  1.00  0.00     0.345 HD
ENDBRANCH   1   2
BRANCH   1   6
ATOM      6  C   UNL     1     -29.604 -41.838  28.773  1.00  0.00     0.099 C 
ATOM      7  O   UNL     1     -29.468 -42.149  29.986  1.00  0.00    -0.544 OA
ATOM      8  O   UNL     1     -30.621 -42.423  28.028  1.00  0.00    -0.544 OA
ENDBRANCH   1   6
BRANCH   1   9
ATOM      9  C   UNL     1     -29.512 -39.800  27.282  1.00  0.00     0.047 C 
ATOM     10  C   UNL     1     -28.698 -39.184  26.132  1.00  0.00     0.014 C 
ATOM     11  C   UNL     1     -30.159 -38.692  28.126  1.00  0.00     0.014 C 
ENDBRANCH   1   9
TORSDOF 3
ENDMDL
MODEL 9
REMARK VINA RESULT:    -3.613      2.285      3.548
REMARK INTER + INTRA:          -4.190
REMARK INTER:                  -4.177
REMARK INTRA:                  -0.014
REMARK UNBOUND:                -0.050
REMARK SMILES CC(C)[C@H]([NH3+])C(=O)[O-]
REMARK SMILES IDX 4 1 5 2 6 6 7 7 8 8 2 9 1 10 3 11
REMARK H PARENT 5 3 5 4 5 5
REMARK Flexibility Score: inf
ROOT
ATOM      1  C   UNL     1     -29.585 -41.119  25.879  1.00  0.00     0.230 C 
ENDROOT
BRANCH   1   2
ATOM      2  N   UNL     1     -29.969 -41.986  27.005  1.00  0.00    -0.350 N 
ATOM      3  H   UNL     1     -29.275 -41.905  27.780  1.00  0.00     0.345 HD
ATOM      4  H   UNL     1     -30.897 -41.677  27.379  1.00  0.00     0.345 HD
ATOM      5  H   UNL     1     -30.048 -42.984  26.709  1.00  0.00     0.345 HD
ENDBRANCH   1   2
BRANCH   1   6
ATOM      6  C   UNL     1     -28.858 -39.892  26.375  1.00  0.00     0.099 C 
ATOM      7  O   UNL     1     -27.669 -39.680  26.015  1.00  0.00    -0.544 OA
ATOM      8  O   UNL     1     -29.500 -38.965  27.187  1.00  0.00    -0.544 OA
ENDBRANCH   1   6
BRANCH   1   9
ATOM      9  C   UNL     1     -30.792 -40.722  24.977  1.00  0.00     0.047 C 
ATOM     10  C   UNL     1     -32.123 -40.616  25.739  1.00  0.00     0.014 C 
ATOM     11  C   UNL     1     -30.943 -41.666  23.774  1.00  0.00     0.014 C 
ENDBRANCH   1   9
TORSDOF 3
ENDMDL
