MODEL 1
REMARK VINA RESULT:    -4.630      0.000      0.000
REMARK INTER + INTRA:         -13.865
REMARK INTER:                 -10.585
REMARK INTRA:                  -3.280
REMARK UNBOUND:                -3.280
REMARK SMILES CCCCCCCCCCCCCCCCCCCCCCCC(=O)[O-]
REMARK SMILES IDX 13 1 14 2 15 3 16 4 17 5 18 6 19 7 20 8 21 9 22 10 23 11
REMARK SMILES IDX 24 12 25 13 26 14 12 15 11 16 10 17 9 18 8 19 7 20 6 21 5 22
REMARK SMILES IDX 4 23 3 24 2 25 1 26
REMARK H PARENT
REMARK Flexibility Score: inf
ROOT
ATOM      1  C   UNL     1      57.365  -4.299  30.299  1.00  0.00     0.000 C 
ENDROOT
BRANCH   1   2
ATOM      2  C   UNL     1      58.370  -3.313  29.692  1.00  0.00     0.000 C 
BRANCH   2   3
ATOM      3  C   UNL     1      59.731  -3.987  29.467  1.00  0.00     0.000 C 
BRANCH   3   4
ATOM      4  C   UNL     1      60.642  -3.185  28.525  1.00  0.00     0.000 C 
BRANCH   4   5
ATOM      5  C   UNL     1      61.447  -2.100  29.264  1.00  0.00     0.000 C 
BRANCH   5   6
ATOM      6  C   UNL     1      61.795  -2.504  30.706  1.00  0.00     0.000 C 
BRANCH   6   7
ATOM      7  C   UNL     1      63.310  -2.675  30.922  1.00  0.00     0.000 C 
BRANCH   7   8
ATOM      8  C   UNL     1      64.107  -2.541  29.615  1.00  0.00     0.000 C 
BRANCH   8   9
ATOM      9  C   UNL     1      64.648  -3.891  29.115  1.00  0.00     0.000 C 
BRANCH   9  10
ATOM     10  C   UNL     1      65.006  -3.872  27.618  1.00  0.00     0.006 C 
BRANCH  10  11
ATOM     11  C   UNL     1      63.796  -3.710  26.683  1.00  0.00     0.053 C 
BRANCH  11  12
ATOM     12  C   UNL     1      63.808  -2.392  25.974  1.00  0.00     0.041 C 
ATOM     13  O   UNL     1      62.845  -2.063  25.232  1.00  0.00    -0.550 OA
ATOM     14  O   UNL     1      64.902  -1.545  26.095  1.00  0.00    -0.550 OA
ENDBRANCH  11  12
ENDBRANCH  10  11
ENDBRANCH   9  10
ENDBRANCH   8   9
ENDBRANCH   7   8
ENDBRANCH   6   7
ENDBRANCH   5   6
ENDBRANCH   4   5
ENDBRANCH   3   4
ENDBRANCH   2   3
ENDBRANCH   1   2
BRANCH   1  15
ATOM     15  C   UNL     1      56.711  -3.717  31.560  1.00  0.00     0.000 C 
BRANCH  15  16
ATOM     16  C   UNL     1      55.330  -4.326  31.854  1.00  0.00     0.000 C 
BRANCH  16  17
ATOM     17  C   UNL     1      54.197  -3.281  31.934  1.00  0.00     0.000 C 
BRANCH  17  18
ATOM     18  C   UNL     1      54.667  -1.881  31.503  1.00  0.00    -0.000 C 
BRANCH  18  19
ATOM     19  C   UNL     1      53.712  -1.218  30.498  1.00  0.00    -0.000 C 
BRANCH  19  20
ATOM     20  C   UNL     1      54.126  -1.465  29.040  1.00  0.00    -0.000 C 
BRANCH  20  21
ATOM     21  C   UNL     1      55.635  -1.251  28.856  1.00  0.00    -0.000 C 
BRANCH  21  22
ATOM     22  C   UNL     1      55.970   0.068  28.136  1.00  0.00    -0.000 C 
BRANCH  22  23
ATOM     23  C   UNL     1      56.832   1.054  28.949  1.00  0.00    -0.000 C 
BRANCH  23  24
ATOM     24  C   UNL     1      57.168   0.602  30.385  1.00  0.00    -0.000 C 
BRANCH  24  25
ATOM     25  C   UNL     1      58.561  -0.025  30.553  1.00  0.00    -0.003 C 
ATOM     26  C   UNL     1      58.867  -0.415  31.999  1.00  0.00     0.004 C 
ENDBRANCH  24  25
ENDBRANCH  23  24
ENDBRANCH  22  23
ENDBRANCH  21  22
ENDBRANCH  20  21
ENDBRANCH  19  20
ENDBRANCH  18  19
ENDBRANCH  17  18
ENDBRANCH  16  17
ENDBRANCH  15  16
ENDBRANCH   1  15
TORSDOF 22
ENDMDL
MODEL 2
REMARK VINA RESULT:    -4.560      2.190      2.908
REMARK INTER + INTRA:         -13.705
REMARK INTER:                 -10.378
REMARK INTRA:                  -3.327
REMARK UNBOUND:                -3.280
REMARK SMILES CCCCCCCCCCCCCCCCCCCCCCCC(=O)[O-]
REMARK SMILES IDX 13 1 14 2 15 3 16 4 17 5 18 6 19 7 20 8 21 9 22 10 23 11
REMARK SMILES IDX 24 12 25 13 26 14 12 15 11 16 10 17 9 18 8 19 7 20 6 21 5 22
REMARK SMILES IDX 4 23 3 24 2 25 1 26
REMARK H PARENT
REMARK Flexibility Score: inf
ROOT
ATOM      1  C   UNL     1      58.934  -3.679  30.537  1.00  0.00     0.000 C 
ENDROOT
BRANCH   1   2
ATOM      2  C   UNL     1      59.479  -3.500  29.114  1.00  0.00     0.000 C 
BRANCH   2   3
ATOM      3  C   UNL     1      61.009  -3.629  29.094  1.00  0.00     0.000 C 
BRANCH   3   4
ATOM      4  C   UNL     1      61.720  -2.289  29.337  1.00  0.00     0.000 C 
BRANCH   4   5
ATOM      5  C   UNL     1      63.243  -2.449  29.501  1.00  0.00     0.000 C 
BRANCH   5   6
ATOM      6  C   UNL     1      64.036  -1.636  28.465  1.00  0.00     0.000 C 
BRANCH   6   7
ATOM      7  C   UNL     1      64.639  -2.519  27.358  1.00  0.00     0.000 C 
BRANCH   7   8
ATOM      8  C   UNL     1      63.673  -2.721  26.179  1.00  0.00     0.000 C 
BRANCH   8   9
ATOM      9  C   UNL     1      63.148  -4.164  26.088  1.00  0.00     0.000 C 
BRANCH   9  10
ATOM     10  C   UNL     1      64.053  -5.173  26.818  1.00  0.00     0.006 C 
BRANCH  10  11
ATOM     11  C   UNL     1      63.303  -6.114  27.775  1.00  0.00     0.053 C 
BRANCH  11  12
ATOM     12  C   UNL     1      63.576  -7.555  27.473  1.00  0.00     0.041 C 
ATOM     13  O   UNL     1      64.281  -8.244  28.256  1.00  0.00    -0.550 OA
ATOM     14  O   UNL     1      63.089  -8.126  26.304  1.00  0.00    -0.550 OA
ENDBRANCH  11  12
ENDBRANCH  10  11
ENDBRANCH   9  10
ENDBRANCH   8   9
ENDBRANCH   7   8
ENDBRANCH   6   7
ENDBRANCH   5   6
ENDBRANCH   4   5
ENDBRANCH   3   4
ENDBRANCH   2   3
ENDBRANCH   1   2
BRANCH   1  15
ATOM     15  C   UNL     1      57.512  -4.256  30.515  1.00  0.00     0.000 C 
BRANCH  15  16
ATOM     16  C   UNL     1      56.733  -3.975  31.811  1.00  0.00     0.000 C 
BRANCH  16  17
ATOM     17  C   UNL     1      55.288  -4.518  31.795  1.00  0.00     0.000 C 
BRANCH  17  18
ATOM     18  C   UNL     1      54.245  -3.396  31.939  1.00  0.00    -0.000 C 
BRANCH  18  19
ATOM     19  C   UNL     1      54.766  -2.036  31.450  1.00  0.00    -0.000 C 
BRANCH  19  20
ATOM     20  C   UNL     1      53.790  -1.340  30.490  1.00  0.00    -0.000 C 
BRANCH  20  21
ATOM     21  C   UNL     1      54.390  -1.231  29.081  1.00  0.00    -0.000 C 
BRANCH  21  22
ATOM     22  C   UNL     1      55.919  -1.413  29.066  1.00  0.00    -0.000 C 
BRANCH  22  23
ATOM     23  C   UNL     1      56.729  -0.106  28.956  1.00  0.00    -0.000 C 
BRANCH  23  24
ATOM     24  C   UNL     1      58.024  -0.064  29.793  1.00  0.00    -0.000 C 
BRANCH  24  25
ATOM     25  C   UNL     1      57.811  -0.161  31.313  1.00  0.00    -0.003 C 
ATOM     26  C   UNL     1      59.115  -0.371  32.083  1.00  0.00     0.004 C 
ENDBRANCH  24  25
ENDBRANCH  23  24
ENDBRANCH  22  23
ENDBRANCH  21  22
ENDBRANCH  20  21
ENDBRANCH  19  20
ENDBRANCH  18  19
ENDBRANCH  17  18
ENDBRANCH  16  17
ENDBRANCH  15  16
ENDBRANCH   1  15
TORSDOF 22
ENDMDL
MODEL 3
REMARK VINA RESULT:    -4.510     15.664     18.890
REMARK INTER + INTRA:         -13.591
REMARK INTER:                  -8.837
REMARK INTRA:                  -4.753
REMARK UNBOUND:                -3.280
REMARK SMILES CCCCCCCCCCCCCCCCCCCCCCCC(=O)[O-]
REMARK SMILES IDX 13 1 14 2 15 3 16 4 17 5 18 6 19 7 20 8 21 9 22 10 23 11
REMARK SMILES IDX 24 12 25 13 26 14 12 15 11 16 10 17 9 18 8 19 7 20 6 21 5 22
REMARK SMILES IDX 4 23 3 24 2 25 1 26
REMARK H PARENT
REMARK Flexibility Score: inf
ROOT
ATOM      1  C   UNL     1      61.490 -11.656  15.799  1.00  0.00     0.000 C 
ENDROOT
BRANCH   1   2
ATOM      2  C   UNL     1      62.342 -11.358  14.558  1.00  0.00     0.000 C 
BRANCH   2   3
ATOM      3  C   UNL     1      62.617 -12.642  13.762  1.00  0.00     0.000 C 
BRANCH   3   4
ATOM      4  C   UNL     1      64.064 -12.725  13.252  1.00  0.00     0.000 C 
BRANCH   4   5
ATOM      5  C   UNL     1      65.033 -11.867  14.085  1.00  0.00     0.000 C 
BRANCH   5   6
ATOM      6  C   UNL     1      66.053 -12.714  14.863  1.00  0.00     0.000 C 
BRANCH   6   7
ATOM      7  C   UNL     1      66.053 -12.402  16.370  1.00  0.00     0.000 C 
BRANCH   7   8
ATOM      8  C   UNL     1      65.217 -11.157  16.710  1.00  0.00     0.000 C 
BRANCH   8   9
ATOM      9  C   UNL     1      64.645 -11.206  18.137  1.00  0.00     0.000 C 
BRANCH   9  10
ATOM     10  C   UNL     1      65.037 -12.488  18.893  1.00  0.00     0.006 C 
BRANCH  10  11
ATOM     11  C   UNL     1      63.841 -13.301  19.416  1.00  0.00     0.053 C 
BRANCH  11  12
ATOM     12  C   UNL     1      64.064 -13.789  20.814  1.00  0.00     0.041 C 
ATOM     13  O   UNL     1      64.060 -15.024  21.062  1.00  0.00    -0.550 OA
ATOM     14  O   UNL     1      64.231 -12.881  21.851  1.00  0.00    -0.550 OA
ENDBRANCH  11  12
ENDBRANCH  10  11
ENDBRANCH   9  10
ENDBRANCH   8   9
ENDBRANCH   7   8
ENDBRANCH   6   7
ENDBRANCH   5   6
ENDBRANCH   4   5
ENDBRANCH   3   4
ENDBRANCH   2   3
ENDBRANCH   1   2
BRANCH   1  15
ATOM     15  C   UNL     1      61.893 -12.992  16.438  1.00  0.00     0.000 C 
BRANCH  15  16
ATOM     16  C   UNL     1      60.716 -13.707  17.122  1.00  0.00     0.000 C 
BRANCH  16  17
ATOM     17  C   UNL     1      60.440 -15.119  16.563  1.00  0.00     0.000 C 
BRANCH  17  18
ATOM     18  C   UNL     1      60.189 -15.103  15.045  1.00  0.00    -0.000 C 
BRANCH  18  19
ATOM     19  C   UNL     1      59.743 -16.471  14.504  1.00  0.00    -0.000 C 
BRANCH  19  20
ATOM     20  C   UNL     1      60.823 -17.551  14.668  1.00  0.00    -0.000 C 
BRANCH  20  21
ATOM     21  C   UNL     1      61.614 -17.736  13.365  1.00  0.00    -0.000 C 
BRANCH  21  22
ATOM     22  C   UNL     1      62.867 -16.845  13.293  1.00  0.00    -0.000 C 
BRANCH  22  23
ATOM     23  C   UNL     1      63.822 -16.966  14.498  1.00  0.00    -0.000 C 
BRANCH  23  24
ATOM     24  C   UNL     1      63.954 -15.694  15.360  1.00  0.00    -0.000 C 
BRANCH  24  25
ATOM     25  C   UNL     1      64.638 -15.907  16.721  1.00  0.00    -0.003 C 
ATOM     26  C   UNL     1      63.733 -16.601  17.739  1.00  0.00     0.004 C 
ENDBRANCH  24  25
ENDBRANCH  23  24
ENDBRANCH  22  23
ENDBRANCH  21  22
ENDBRANCH  20  21
ENDBRANCH  19  20
ENDBRANCH  18  19
ENDBRANCH  17  18
ENDBRANCH  16  17
ENDBRANCH  15  16
ENDBRANCH   1  15
TORSDOF 22
ENDMDL
MODEL 4
REMARK VINA RESULT:    -4.404      3.229      3.811
REMARK INTER + INTRA:         -13.349
REMARK INTER:                 -10.723
REMARK INTRA:                  -2.625
REMARK UNBOUND:                -3.280
REMARK SMILES CCCCCCCCCCCCCCCCCCCCCCCC(=O)[O-]
REMARK SMILES IDX 13 1 14 2 15 3 16 4 17 5 18 6 19 7 20 8 21 9 22 10 23 11
REMARK SMILES IDX 24 12 25 13 26 14 12 15 11 16 10 17 9 18 8 19 7 20 6 21 5 22
REMARK SMILES IDX 4 23 3 24 2 25 1 26
REMARK H PARENT
REMARK Flexibility Score: inf
ROOT
ATOM      1  C   UNL     1      58.664  -3.829  30.594  1.00  0.00     0.000 C 
ENDROOT
BRANCH   1   2
ATOM      2  C   UNL     1      59.086  -3.522  29.151  1.00  0.00     0.000 C 
BRANCH   2   3
ATOM      3  C   UNL     1      60.615  -3.557  29.009  1.00  0.00     0.000 C 
BRANCH   3   4
ATOM      4  C   UNL     1      61.140  -2.525  27.999  1.00  0.00     0.000 C 
BRANCH   4   5
ATOM      5  C   UNL     1      62.604  -2.784  27.598  1.00  0.00     0.000 C 
BRANCH   5   6
ATOM      6  C   UNL     1      62.984  -4.271  27.677  1.00  0.00     0.000 C 
BRANCH   6   7
ATOM      7  C   UNL     1      63.551  -4.806  26.350  1.00  0.00     0.000 C 
BRANCH   7   8
ATOM      8  C   UNL     1      64.184  -6.199  26.504  1.00  0.00     0.000 C 
BRANCH   8   9
ATOM      9  C   UNL     1      63.553  -7.009  27.649  1.00  0.00     0.000 C 
BRANCH   9  10
ATOM     10  C   UNL     1      63.238  -8.462  27.247  1.00  0.00     0.006 C 
BRANCH  10  11
ATOM     11  C   UNL     1      63.500  -8.777  25.765  1.00  0.00     0.053 C 
BRANCH  11  12
ATOM     12  C   UNL     1      62.802 -10.026  25.326  1.00  0.00     0.041 C 
ATOM     13  O   UNL     1      63.310 -11.153  25.566  1.00  0.00    -0.550 OA
ATOM     14  O   UNL     1      61.614  -9.946  24.611  1.00  0.00    -0.550 OA
ENDBRANCH  11  12
ENDBRANCH  10  11
ENDBRANCH   9  10
ENDBRANCH   8   9
ENDBRANCH   7   8
ENDBRANCH   6   7
ENDBRANCH   5   6
ENDBRANCH   4   5
ENDBRANCH   3   4
ENDBRANCH   2   3
ENDBRANCH   1   2
BRANCH   1  15
ATOM     15  C   UNL     1      57.183  -4.227  30.664  1.00  0.00     0.000 C 
BRANCH  15  16
ATOM     16  C   UNL     1      56.420  -3.498  31.783  1.00  0.00     0.000 C 
BRANCH  16  17
ATOM     17  C   UNL     1      54.988  -4.031  32.004  1.00  0.00     0.000 C 
BRANCH  17  18
ATOM     18  C   UNL     1      53.933  -2.916  31.906  1.00  0.00    -0.000 C 
BRANCH  18  19
ATOM     19  C   UNL     1      54.511  -1.599  31.366  1.00  0.00    -0.000 C 
BRANCH  19  20
ATOM     20  C   UNL     1      53.833  -1.148  30.063  1.00  0.00    -0.000 C 
BRANCH  20  21
ATOM     21  C   UNL     1      54.615  -1.645  28.839  1.00  0.00    -0.000 C 
BRANCH  21  22
ATOM     22  C   UNL     1      56.087  -1.194  28.843  1.00  0.00    -0.000 C 
BRANCH  22  23
ATOM     23  C   UNL     1      56.306   0.316  28.623  1.00  0.00    -0.000 C 
BRANCH  23  24
ATOM     24  C   UNL     1      57.545   0.908  29.323  1.00  0.00    -0.000 C 
BRANCH  24  25
ATOM     25  C   UNL     1      58.469  -0.129  29.984  1.00  0.00    -0.003 C 
ATOM     26  C   UNL     1      58.293  -0.200  31.501  1.00  0.00     0.004 C 
ENDBRANCH  24  25
ENDBRANCH  23  24
ENDBRANCH  22  23
ENDBRANCH  21  22
ENDBRANCH  20  21
ENDBRANCH  19  20
ENDBRANCH  18  19
ENDBRANCH  17  18
ENDBRANCH  16  17
ENDBRANCH  15  16
ENDBRANCH   1  15
TORSDOF 22
ENDMDL
MODEL 5
REMARK VINA RESULT:    -4.355      3.198      4.603
REMARK INTER + INTRA:         -13.236
REMARK INTER:                 -10.367
REMARK INTRA:                  -2.869
REMARK UNBOUND:                -3.280
REMARK SMILES CCCCCCCCCCCCCCCCCCCCCCCC(=O)[O-]
REMARK SMILES IDX 13 1 14 2 15 3 16 4 17 5 18 6 19 7 20 8 21 9 22 10 23 11
REMARK SMILES IDX 24 12 25 13 26 14 12 15 11 16 10 17 9 18 8 19 7 20 6 21 5 22
REMARK SMILES IDX 4 23 3 24 2 25 1 26
REMARK H PARENT
REMARK Flexibility Score: inf
ROOT
ATOM      1  C   UNL     1      58.711  -3.855  30.262  1.00  0.00     0.000 C 
ENDROOT
BRANCH   1   2
ATOM      2  C   UNL     1      60.088  -3.885  29.587  1.00  0.00     0.000 C 
BRANCH   2   3
ATOM      3  C   UNL     1      60.246  -2.708  28.613  1.00  0.00     0.000 C 
BRANCH   3   4
ATOM      4  C   UNL     1      61.664  -2.115  28.624  1.00  0.00     0.000 C 
BRANCH   4   5
ATOM      5  C   UNL     1      62.722  -3.106  28.105  1.00  0.00     0.000 C 
BRANCH   5   6
ATOM      6  C   UNL     1      62.533  -3.445  26.618  1.00  0.00     0.000 C 
BRANCH   6   7
ATOM      7  C   UNL     1      63.427  -4.611  26.160  1.00  0.00     0.000 C 
BRANCH   7   8
ATOM      8  C   UNL     1      63.470  -5.754  27.186  1.00  0.00     0.000 C 
BRANCH   8   9
ATOM      9  C   UNL     1      63.699  -7.126  26.530  1.00  0.00     0.000 C 
BRANCH   9  10
ATOM     10  C   UNL     1      63.299  -8.298  27.445  1.00  0.00     0.006 C 
BRANCH  10  11
ATOM     11  C   UNL     1      62.980  -7.887  28.892  1.00  0.00     0.053 C 
BRANCH  11  12
ATOM     12  C   UNL     1      63.317  -8.970  29.870  1.00  0.00     0.041 C 
ATOM     13  O   UNL     1      62.414  -9.487  30.578  1.00  0.00    -0.550 OA
ATOM     14  O   UNL     1      64.636  -9.377  30.031  1.00  0.00    -0.550 OA
ENDBRANCH  11  12
ENDBRANCH  10  11
ENDBRANCH   9  10
ENDBRANCH   8   9
ENDBRANCH   7   8
ENDBRANCH   6   7
ENDBRANCH   5   6
ENDBRANCH   4   5
ENDBRANCH   3   4
ENDBRANCH   2   3
ENDBRANCH   1   2
BRANCH   1  15
ATOM     15  C   UNL     1      58.830  -3.479  31.745  1.00  0.00     0.000 C 
BRANCH  15  16
ATOM     16  C   UNL     1      58.201  -2.113  32.068  1.00  0.00     0.000 C 
BRANCH  16  17
ATOM     17  C   UNL     1      59.055  -0.913  31.604  1.00  0.00     0.000 C 
BRANCH  17  18
ATOM     18  C   UNL     1      58.192   0.222  31.024  1.00  0.00    -0.000 C 
BRANCH  18  19
ATOM     19  C   UNL     1      58.183   0.232  29.488  1.00  0.00    -0.000 C 
BRANCH  19  20
ATOM     20  C   UNL     1      56.766   0.113  28.905  1.00  0.00    -0.000 C 
BRANCH  20  21
ATOM     21  C   UNL     1      56.192  -1.290  29.145  1.00  0.00    -0.000 C 
BRANCH  21  22
ATOM     22  C   UNL     1      54.683  -1.378  28.856  1.00  0.00    -0.000 C 
BRANCH  22  23
ATOM     23  C   UNL     1      53.781  -1.418  30.106  1.00  0.00    -0.000 C 
BRANCH  23  24
ATOM     24  C   UNL     1      54.499  -1.788  31.420  1.00  0.00    -0.000 C 
BRANCH  24  25
ATOM     25  C   UNL     1      54.090  -3.145  32.018  1.00  0.00    -0.003 C 
ATOM     26  C   UNL     1      55.132  -4.238  31.780  1.00  0.00     0.004 C 
ENDBRANCH  24  25
ENDBRANCH  23  24
ENDBRANCH  22  23
ENDBRANCH  21  22
ENDBRANCH  20  21
ENDBRANCH  19  20
ENDBRANCH  18  19
ENDBRANCH  17  18
ENDBRANCH  16  17
ENDBRANCH  15  16
ENDBRANCH   1  15
TORSDOF 22
ENDMDL
MODEL 6
REMARK VINA RESULT:    -4.289      2.462      3.968
REMARK INTER + INTRA:         -13.086
REMARK INTER:                  -9.762
REMARK INTRA:                  -3.324
REMARK UNBOUND:                -3.280
REMARK SMILES CCCCCCCCCCCCCCCCCCCCCCCC(=O)[O-]
REMARK SMILES IDX 13 1 14 2 15 3 16 4 17 5 18 6 19 7 20 8 21 9 22 10 23 11
REMARK SMILES IDX 24 12 25 13 26 14 12 15 11 16 10 17 9 18 8 19 7 20 6 21 5 22
REMARK SMILES IDX 4 23 3 24 2 25 1 26
REMARK H PARENT
REMARK Flexibility Score: inf
ROOT
ATOM      1  C   UNL     1      58.885  -4.180  30.035  1.00  0.00     0.000 C 
ENDROOT
BRANCH   1   2
ATOM      2  C   UNL     1      59.040  -3.140  28.918  1.00  0.00     0.000 C 
BRANCH   2   3
ATOM      3  C   UNL     1      60.492  -3.087  28.418  1.00  0.00     0.000 C 
BRANCH   3   4
ATOM      4  C   UNL     1      61.089  -1.673  28.481  1.00  0.00     0.000 C 
BRANCH   4   5
ATOM      5  C   UNL     1      62.530  -1.664  29.022  1.00  0.00     0.000 C 
BRANCH   5   6
ATOM      6  C   UNL     1      63.137  -3.073  29.107  1.00  0.00     0.000 C 
BRANCH   6   7
ATOM      7  C   UNL     1      64.376  -3.238  28.209  1.00  0.00     0.000 C 
BRANCH   7   8
ATOM      8  C   UNL     1      64.036  -3.125  26.714  1.00  0.00     0.000 C 
BRANCH   8   9
ATOM      9  C   UNL     1      63.469  -4.434  26.139  1.00  0.00     0.000 C 
BRANCH   9  10
ATOM     10  C   UNL     1      64.281  -5.671  26.562  1.00  0.00     0.006 C 
BRANCH  10  11
ATOM     11  C   UNL     1      63.423  -6.899  26.911  1.00  0.00     0.053 C 
BRANCH  11  12
ATOM     12  C   UNL     1      64.079  -8.178  26.494  1.00  0.00     0.041 C 
ATOM     13  O   UNL     1      64.912  -8.184  25.549  1.00  0.00    -0.550 OA
ATOM     14  O   UNL     1      63.739  -9.371  27.118  1.00  0.00    -0.550 OA
ENDBRANCH  11  12
ENDBRANCH  10  11
ENDBRANCH   9  10
ENDBRANCH   8   9
ENDBRANCH   7   8
ENDBRANCH   6   7
ENDBRANCH   5   6
ENDBRANCH   4   5
ENDBRANCH   3   4
ENDBRANCH   2   3
ENDBRANCH   1   2
BRANCH   1  15
ATOM     15  C   UNL     1      58.684  -3.502  31.397  1.00  0.00     0.000 C 
BRANCH  15  16
ATOM     16  C   UNL     1      59.962  -2.827  31.923  1.00  0.00     0.000 C 
BRANCH  16  17
ATOM     17  C   UNL     1      59.854  -1.290  32.023  1.00  0.00     0.000 C 
BRANCH  17  18
ATOM     18  C   UNL     1      58.393  -0.809  32.003  1.00  0.00    -0.000 C 
BRANCH  18  19
ATOM     19  C   UNL     1      58.096   0.134  30.828  1.00  0.00    -0.000 C 
BRANCH  19  20
ATOM     20  C   UNL     1      56.604   0.176  30.466  1.00  0.00    -0.000 C 
BRANCH  20  21
ATOM     21  C   UNL     1      56.297  -0.772  29.298  1.00  0.00    -0.000 C 
BRANCH  21  22
ATOM     22  C   UNL     1      54.987  -1.557  29.493  1.00  0.00    -0.000 C 
BRANCH  22  23
ATOM     23  C   UNL     1      54.286  -1.330  30.847  1.00  0.00    -0.000 C 
BRANCH  23  24
ATOM     24  C   UNL     1      54.114  -2.591  31.717  1.00  0.00    -0.000 C 
BRANCH  24  25
ATOM     25  C   UNL     1      55.389  -3.434  31.888  1.00  0.00    -0.003 C 
ATOM     26  C   UNL     1      55.134  -4.934  31.744  1.00  0.00     0.004 C 
ENDBRANCH  24  25
ENDBRANCH  23  24
ENDBRANCH  22  23
ENDBRANCH  21  22
ENDBRANCH  20  21
ENDBRANCH  19  20
ENDBRANCH  18  19
ENDBRANCH  17  18
ENDBRANCH  16  17
ENDBRANCH  15  16
ENDBRANCH   1  15
TORSDOF 22
ENDMDL
MODEL 7
REMARK VINA RESULT:    -4.261      1.060      3.323
REMARK INTER + INTRA:         -13.022
REMARK INTER:                  -9.453
REMARK INTRA:                  -3.568
REMARK UNBOUND:                -3.280
REMARK SMILES CCCCCCCCCCCCCCCCCCCCCCCC(=O)[O-]
REMARK SMILES IDX 13 1 14 2 15 3 16 4 17 5 18 6 19 7 20 8 21 9 22 10 23 11
REMARK SMILES IDX 24 12 25 13 26 14 12 15 11 16 10 17 9 18 8 19 7 20 6 21 5 22
REMARK SMILES IDX 4 23 3 24 2 25 1 26
REMARK H PARENT
REMARK Flexibility Score: inf
ROOT
ATOM      1  C   UNL     1      59.282  -0.667  28.902  1.00  0.00     0.000 C 
ENDROOT
BRANCH   1   2
ATOM      2  C   UNL     1      60.726  -1.170  29.025  1.00  0.00     0.000 C 
BRANCH   2   3
ATOM      3  C   UNL     1      60.820  -2.659  28.662  1.00  0.00     0.000 C 
BRANCH   3   4
ATOM      4  C   UNL     1      61.774  -3.434  29.583  1.00  0.00     0.000 C 
BRANCH   4   5
ATOM      5  C   UNL     1      61.788  -2.880  31.020  1.00  0.00     0.000 C 
BRANCH   5   6
ATOM      6  C   UNL     1      63.212  -2.718  31.575  1.00  0.00     0.000 C 
BRANCH   6   7
ATOM      7  C   UNL     1      64.291  -3.183  30.580  1.00  0.00     0.000 C 
BRANCH   7   8
ATOM      8  C   UNL     1      65.152  -2.019  30.064  1.00  0.00     0.000 C 
BRANCH   8   9
ATOM      9  C   UNL     1      64.475  -1.248  28.919  1.00  0.00     0.000 C 
BRANCH   9  10
ATOM     10  C   UNL     1      65.032  -1.626  27.534  1.00  0.00     0.006 C 
BRANCH  10  11
ATOM     11  C   UNL     1      64.684  -3.054  27.083  1.00  0.00     0.053 C 
BRANCH  11  12
ATOM     12  C   UNL     1      63.520  -3.076  26.141  1.00  0.00     0.041 C 
ATOM     13  O   UNL     1      62.820  -4.116  26.024  1.00  0.00    -0.550 OA
ATOM     14  O   UNL     1      63.235  -1.963  25.360  1.00  0.00    -0.550 OA
ENDBRANCH  11  12
ENDBRANCH  10  11
ENDBRANCH   9  10
ENDBRANCH   8   9
ENDBRANCH   7   8
ENDBRANCH   6   7
ENDBRANCH   5   6
ENDBRANCH   4   5
ENDBRANCH   3   4
ENDBRANCH   2   3
ENDBRANCH   1   2
BRANCH   1  15
ATOM     15  C   UNL     1      58.684  -0.359  30.281  1.00  0.00     0.000 C 
BRANCH  15  16
ATOM     16  C   UNL     1      57.280   0.263  30.200  1.00  0.00     0.000 C 
BRANCH  16  17
ATOM     17  C   UNL     1      56.850   0.635  28.765  1.00  0.00     0.000 C 
BRANCH  17  18
ATOM     18  C   UNL     1      55.613  -0.158  28.306  1.00  0.00    -0.000 C 
BRANCH  18  19
ATOM     19  C   UNL     1      55.435  -1.475  29.076  1.00  0.00    -0.000 C 
BRANCH  19  20
ATOM     20  C   UNL     1      54.114  -1.530  29.856  1.00  0.00    -0.000 C 
BRANCH  20  21
ATOM     21  C   UNL     1      54.371  -1.733  31.356  1.00  0.00    -0.000 C 
BRANCH  21  22
ATOM     22  C   UNL     1      54.188  -3.195  31.803  1.00  0.00    -0.000 C 
BRANCH  22  23
ATOM     23  C   UNL     1      55.498  -3.979  32.016  1.00  0.00    -0.000 C 
BRANCH  23  24
ATOM     24  C   UNL     1      56.786  -3.134  31.959  1.00  0.00    -0.000 C 
BRANCH  24  25
ATOM     25  C   UNL     1      58.021  -3.876  31.423  1.00  0.00    -0.003 C 
ATOM     26  C   UNL     1      57.975  -4.091  29.910  1.00  0.00     0.004 C 
ENDBRANCH  24  25
ENDBRANCH  23  24
ENDBRANCH  22  23
ENDBRANCH  21  22
ENDBRANCH  20  21
ENDBRANCH  19  20
ENDBRANCH  18  19
ENDBRANCH  17  18
ENDBRANCH  16  17
ENDBRANCH  15  16
ENDBRANCH   1  15
TORSDOF 22
ENDMDL
MODEL 8
REMARK VINA RESULT:    -4.248     15.754     19.208
REMARK INTER + INTRA:         -12.991
REMARK INTER:                  -8.215
REMARK INTRA:                  -4.775
REMARK UNBOUND:                -3.280
REMARK SMILES CCCCCCCCCCCCCCCCCCCCCCCC(=O)[O-]
REMARK SMILES IDX 13 1 14 2 15 3 16 4 17 5 18 6 19 7 20 8 21 9 22 10 23 11
REMARK SMILES IDX 24 12 25 13 26 14 12 15 11 16 10 17 9 18 8 19 7 20 6 21 5 22
REMARK SMILES IDX 4 23 3 24 2 25 1 26
REMARK H PARENT
REMARK Flexibility Score: inf
ROOT
ATOM      1  C   UNL     1      60.443 -14.353  16.872  1.00  0.00     0.000 C 
ENDROOT
BRANCH   1   2
ATOM      2  C   UNL     1      60.738 -15.824  16.552  1.00  0.00     0.000 C 
BRANCH   2   3
ATOM      3  C   UNL     1      59.740 -16.370  15.521  1.00  0.00     0.000 C 
BRANCH   3   4
ATOM      4  C   UNL     1      60.368 -16.565  14.132  1.00  0.00     0.000 C 
BRANCH   4   5
ATOM      5  C   UNL     1      61.521 -17.584  14.143  1.00  0.00     0.000 C 
BRANCH   5   6
ATOM      6  C   UNL     1      62.737 -17.107  13.332  1.00  0.00     0.000 C 
BRANCH   6   7
ATOM      7  C   UNL     1      64.070 -17.371  14.056  1.00  0.00     0.000 C 
BRANCH   7   8
ATOM      8  C   UNL     1      63.951 -17.213  15.580  1.00  0.00     0.000 C 
BRANCH   8   9
ATOM      9  C   UNL     1      64.555 -15.892  16.083  1.00  0.00     0.000 C 
BRANCH   9  10
ATOM     10  C   UNL     1      64.446 -15.731  17.611  1.00  0.00     0.006 C 
BRANCH  10  11
ATOM     11  C   UNL     1      63.818 -16.937  18.328  1.00  0.00     0.053 C 
BRANCH  11  12
ATOM     12  C   UNL     1      63.188 -16.550  19.629  1.00  0.00     0.041 C 
ATOM     13  O   UNL     1      62.394 -15.574  19.683  1.00  0.00    -0.550 OA
ATOM     14  O   UNL     1      63.511 -17.238  20.792  1.00  0.00    -0.550 OA
ENDBRANCH  11  12
ENDBRANCH  10  11
ENDBRANCH   9  10
ENDBRANCH   8   9
ENDBRANCH   7   8
ENDBRANCH   6   7
ENDBRANCH   5   6
ENDBRANCH   4   5
ENDBRANCH   3   4
ENDBRANCH   2   3
ENDBRANCH   1   2
BRANCH   1  15
ATOM     15  C   UNL     1      61.700 -13.488  16.703  1.00  0.00     0.000 C 
BRANCH  15  16
ATOM     16  C   UNL     1      61.413 -12.144  16.012  1.00  0.00     0.000 C 
BRANCH  16  17
ATOM     17  C   UNL     1      61.960 -12.060  14.571  1.00  0.00     0.000 C 
BRANCH  17  18
ATOM     18  C   UNL     1      62.273 -13.450  13.988  1.00  0.00    -0.000 C 
BRANCH  18  19
ATOM     19  C   UNL     1      63.718 -13.567  13.480  1.00  0.00    -0.000 C 
BRANCH  19  20
ATOM     20  C   UNL     1      64.495 -12.248  13.601  1.00  0.00    -0.000 C 
BRANCH  20  21
ATOM     21  C   UNL     1      65.749 -12.429  14.469  1.00  0.00    -0.000 C 
BRANCH  21  22
ATOM     22  C   UNL     1      65.441 -12.413  15.977  1.00  0.00    -0.000 C 
BRANCH  22  23
ATOM     23  C   UNL     1      65.097 -11.026  16.557  1.00  0.00    -0.000 C 
BRANCH  23  24
ATOM     24  C   UNL     1      64.303 -11.047  17.879  1.00  0.00    -0.000 C 
BRANCH  24  25
ATOM     25  C   UNL     1      65.067 -11.631  19.080  1.00  0.00    -0.003 C 
ATOM     26  C   UNL     1      64.244 -12.650  19.869  1.00  0.00     0.004 C 
ENDBRANCH  24  25
ENDBRANCH  23  24
ENDBRANCH  22  23
ENDBRANCH  21  22
ENDBRANCH  20  21
ENDBRANCH  19  20
ENDBRANCH  18  19
ENDBRANCH  17  18
ENDBRANCH  16  17
ENDBRANCH  15  16
ENDBRANCH   1  15
TORSDOF 22
ENDMDL
MODEL 9
REMARK VINA RESULT:    -4.199     14.597     18.567
REMARK INTER + INTRA:         -12.879
REMARK INTER:                  -8.109
REMARK INTRA:                  -4.770
REMARK UNBOUND:                -3.280
REMARK SMILES CCCCCCCCCCCCCCCCCCCCCCCC(=O)[O-]
REMARK SMILES IDX 13 1 14 2 15 3 16 4 17 5 18 6 19 7 20 8 21 9 22 10 23 11
REMARK SMILES IDX 24 12 25 13 26 14 12 15 11 16 10 17 9 18 8 19 7 20 6 21 5 22
REMARK SMILES IDX 4 23 3 24 2 25 1 26
REMARK H PARENT
REMARK Flexibility Score: inf
ROOT
ATOM      1  C   UNL     1      61.359 -11.851  16.306  1.00  0.00     0.000 C 
ENDROOT
BRANCH   1   2
ATOM      2  C   UNL     1      61.629 -13.323  16.645  1.00  0.00     0.000 C 
BRANCH   2   3
ATOM      3  C   UNL     1      60.313 -14.095  16.819  1.00  0.00     0.000 C 
BRANCH   3   4
ATOM      4  C   UNL     1      60.447 -15.583  16.461  1.00  0.00     0.000 C 
BRANCH   4   5
ATOM      5  C   UNL     1      60.082 -15.873  14.993  1.00  0.00     0.000 C 
BRANCH   5   6
ATOM      6  C   UNL     1      61.321 -16.091  14.110  1.00  0.00     0.000 C 
BRANCH   6   7
ATOM      7  C   UNL     1      62.466 -16.793  14.861  1.00  0.00     0.000 C 
BRANCH   7   8
ATOM      8  C   UNL     1      63.766 -15.972  14.846  1.00  0.00     0.000 C 
BRANCH   8   9
ATOM      9  C   UNL     1      64.284 -15.666  16.262  1.00  0.00     0.000 C 
BRANCH   9  10
ATOM     10  C   UNL     1      63.806 -16.692  17.306  1.00  0.00     0.006 C 
BRANCH  10  11
ATOM     11  C   UNL     1      64.055 -16.270  18.763  1.00  0.00     0.053 C 
BRANCH  11  12
ATOM     12  C   UNL     1      62.786 -16.215  19.555  1.00  0.00     0.041 C 
ATOM     13  O   UNL     1      62.130 -15.143  19.625  1.00  0.00    -0.550 OA
ATOM     14  O   UNL     1      62.351 -17.334  20.253  1.00  0.00    -0.550 OA
ENDBRANCH  11  12
ENDBRANCH  10  11
ENDBRANCH   9  10
ENDBRANCH   8   9
ENDBRANCH   7   8
ENDBRANCH   6   7
ENDBRANCH   5   6
ENDBRANCH   4   5
ENDBRANCH   3   4
ENDBRANCH   2   3
ENDBRANCH   1   2
BRANCH   1  15
ATOM     15  C   UNL     1      62.084 -11.439  15.018  1.00  0.00     0.000 C 
BRANCH  15  16
ATOM     16  C   UNL     1      62.365 -12.628  14.083  1.00  0.00     0.000 C 
BRANCH  16  17
ATOM     17  C   UNL     1      63.724 -12.536  13.356  1.00  0.00     0.000 C 
BRANCH  17  18
ATOM     18  C   UNL     1      64.748 -11.701  14.145  1.00  0.00    -0.000 C 
BRANCH  18  19
ATOM     19  C   UNL     1      65.835 -12.565  14.803  1.00  0.00    -0.000 C 
BRANCH  19  20
ATOM     20  C   UNL     1      65.897 -12.378  16.326  1.00  0.00    -0.000 C 
BRANCH  20  21
ATOM     21  C   UNL     1      65.185 -11.085  16.748  1.00  0.00    -0.000 C 
BRANCH  21  22
ATOM     22  C   UNL     1      64.706 -11.114  18.211  1.00  0.00    -0.000 C 
BRANCH  22  23
ATOM     23  C   UNL     1      64.299 -12.506  18.735  1.00  0.00    -0.000 C 
BRANCH  23  24
ATOM     24  C   UNL     1      64.969 -12.931  20.057  1.00  0.00    -0.000 C 
BRANCH  24  25
ATOM     25  C   UNL     1      64.127 -12.673  21.318  1.00  0.00    -0.003 C 
ATOM     26  C   UNL     1      64.580 -11.434  22.092  1.00  0.00     0.004 C 
ENDBRANCH  24  25
ENDBRANCH  23  24
ENDBRANCH  22  23
ENDBRANCH  21  22
ENDBRANCH  20  21
ENDBRANCH  19  20
ENDBRANCH  18  19
ENDBRANCH  17  18
ENDBRANCH  16  17
ENDBRANCH  15  16
ENDBRANCH   1  15
TORSDOF 22
ENDMDL
