MODEL 1
REMARK VINA RESULT:    -4.178      0.000      0.000
REMARK INTER + INTRA:          -8.744
REMARK INTER:                  -7.108
REMARK INTRA:                  -1.636
REMARK UNBOUND:                -1.636
REMARK SMILES CCCCCCCCCCCCCC(=O)[O-]
REMARK SMILES IDX 8 1 9 2 10 3 11 4 12 5 13 6 14 7 15 8 16 9 7 10 6 11 5 12
REMARK SMILES IDX 4 13 3 14 2 15 1 16
REMARK H PARENT
REMARK Flexibility Score: inf
ROOT
ATOM      1  C   UNL     1      17.298   2.214  -1.146  1.00  0.00     0.000 C 
ENDROOT
BRANCH   1   2
ATOM      2  C   UNL     1      17.260   0.942  -2.008  1.00  0.00     0.000 C 
BRANCH   2   3
ATOM      3  C   UNL     1      15.846   0.603  -2.503  1.00  0.00     0.000 C 
BRANCH   3   4
ATOM      4  C   UNL     1      15.106  -0.279  -1.489  1.00  0.00     0.000 C 
BRANCH   4   5
ATOM      5  C   UNL     1      13.574  -0.198  -1.621  1.00  0.00     0.006 C 
BRANCH   5   6
ATOM      6  C   UNL     1      13.070   1.112  -2.253  1.00  0.00     0.053 C 
BRANCH   6   7
ATOM      7  C   UNL     1      12.414   2.020  -1.257  1.00  0.00     0.041 C 
ATOM      8  O   UNL     1      12.400   3.265  -1.445  1.00  0.00    -0.550 OA
ATOM      9  O   UNL     1      11.849   1.493  -0.103  1.00  0.00    -0.550 OA
ENDBRANCH   6   7
ENDBRANCH   5   6
ENDBRANCH   4   5
ENDBRANCH   3   4
ENDBRANCH   2   3
ENDBRANCH   1   2
BRANCH   1  10
ATOM     10  C   UNL     1      16.114   3.156  -1.427  1.00  0.00     0.000 C 
BRANCH  10  11
ATOM     11  C   UNL     1      15.585   3.827  -0.141  1.00  0.00    -0.000 C 
BRANCH  11  12
ATOM     12  C   UNL     1      15.374   2.845   1.024  1.00  0.00    -0.000 C 
BRANCH  12  13
ATOM     13  C   UNL     1      14.148   3.193   1.885  1.00  0.00    -0.000 C 
BRANCH  13  14
ATOM     14  C   UNL     1      13.637   4.624   1.619  1.00  0.00    -0.000 C 
BRANCH  14  15
ATOM     15  C   UNL     1      12.111   4.765   1.739  1.00  0.00    -0.003 C 
ATOM     16  C   UNL     1      11.605   4.596   3.170  1.00  0.00     0.004 C 
ENDBRANCH  14  15
ENDBRANCH  13  14
ENDBRANCH  12  13
ENDBRANCH  11  12
ENDBRANCH  10  11
ENDBRANCH   1  10
TORSDOF 12
ENDMDL
MODEL 2
REMARK VINA RESULT:    -4.159      1.542      4.457
REMARK INTER + INTRA:          -8.712
REMARK INTER:                  -6.835
REMARK INTRA:                  -1.877
REMARK UNBOUND:                -1.636
REMARK SMILES CCCCCCCCCCCCCC(=O)[O-]
REMARK SMILES IDX 8 1 9 2 10 3 11 4 12 5 13 6 14 7 15 8 16 9 7 10 6 11 5 12
REMARK SMILES IDX 4 13 3 14 2 15 1 16
REMARK H PARENT
REMARK Flexibility Score: inf
ROOT
ATOM      1  C   UNL     1      16.277   3.670  -0.486  1.00  0.00     0.000 C 
ENDROOT
BRANCH   1   2
ATOM      2  C   UNL     1      15.322   4.111   0.634  1.00  0.00     0.000 C 
BRANCH   2   3
ATOM      3  C   UNL     1      14.909   2.951   1.552  1.00  0.00     0.000 C 
BRANCH   3   4
ATOM      4  C   UNL     1      13.596   3.268   2.280  1.00  0.00     0.000 C 
BRANCH   4   5
ATOM      5  C   UNL     1      12.929   4.566   1.788  1.00  0.00     0.006 C 
BRANCH   5   6
ATOM      6  C   UNL     1      11.536   4.820   2.390  1.00  0.00     0.053 C 
BRANCH   6   7
ATOM      7  C   UNL     1      10.445   4.769   1.364  1.00  0.00     0.041 C 
ATOM      8  O   UNL     1       9.808   5.814   1.060  1.00  0.00    -0.550 OA
ATOM      9  O   UNL     1      10.106   3.561   0.767  1.00  0.00    -0.550 OA
ENDBRANCH   6   7
ENDBRANCH   5   6
ENDBRANCH   4   5
ENDBRANCH   3   4
ENDBRANCH   2   3
ENDBRANCH   1   2
BRANCH   1  10
ATOM     10  C   UNL     1      16.510   2.150  -0.502  1.00  0.00     0.000 C 
BRANCH  10  11
ATOM     11  C   UNL     1      16.810   1.621  -1.921  1.00  0.00    -0.000 C 
BRANCH  11  12
ATOM     12  C   UNL     1      15.898   0.459  -2.351  1.00  0.00    -0.000 C 
BRANCH  12  13
ATOM     13  C   UNL     1      14.800   0.146  -1.320  1.00  0.00    -0.000 C 
BRANCH  13  14
ATOM     14  C   UNL     1      13.390   0.470  -1.855  1.00  0.00    -0.000 C 
BRANCH  14  15
ATOM     15  C   UNL     1      12.635   1.511  -1.011  1.00  0.00    -0.003 C 
ATOM     16  C   UNL     1      12.754   2.930  -1.565  1.00  0.00     0.004 C 
ENDBRANCH  14  15
ENDBRANCH  13  14
ENDBRANCH  12  13
ENDBRANCH  11  12
ENDBRANCH  10  11
ENDBRANCH   1  10
TORSDOF 12
ENDMDL
MODEL 3
REMARK VINA RESULT:    -4.126      1.579      4.651
REMARK INTER + INTRA:          -8.656
REMARK INTER:                  -6.806
REMARK INTRA:                  -1.850
REMARK UNBOUND:                -1.636
REMARK SMILES CCCCCCCCCCCCCC(=O)[O-]
REMARK SMILES IDX 8 1 9 2 10 3 11 4 12 5 13 6 14 7 15 8 16 9 7 10 6 11 5 12
REMARK SMILES IDX 4 13 3 14 2 15 1 16
REMARK H PARENT
REMARK Flexibility Score: inf
ROOT
ATOM      1  C   UNL     1      16.117   3.784  -0.705  1.00  0.00     0.000 C 
ENDROOT
BRANCH   1   2
ATOM      2  C   UNL     1      15.358   4.060   0.603  1.00  0.00     0.000 C 
BRANCH   2   3
ATOM      3  C   UNL     1      15.642   3.009   1.686  1.00  0.00     0.000 C 
BRANCH   3   4
ATOM      4  C   UNL     1      14.429   2.093   1.894  1.00  0.00     0.000 C 
BRANCH   4   5
ATOM      5  C   UNL     1      13.214   2.825   2.495  1.00  0.00     0.006 C 
BRANCH   5   6
ATOM      6  C   UNL     1      11.970   2.819   1.589  1.00  0.00     0.053 C 
BRANCH   6   7
ATOM      7  C   UNL     1      11.604   4.187   1.101  1.00  0.00     0.041 C 
ATOM      8  O   UNL     1      11.979   5.210   1.734  1.00  0.00    -0.550 OA
ATOM      9  O   UNL     1      10.817   4.333  -0.035  1.00  0.00    -0.550 OA
ENDBRANCH   6   7
ENDBRANCH   5   6
ENDBRANCH   4   5
ENDBRANCH   3   4
ENDBRANCH   2   3
ENDBRANCH   1   2
BRANCH   1  10
ATOM     10  C   UNL     1      15.192   3.749  -1.932  1.00  0.00     0.000 C 
BRANCH  10  11
ATOM     11  C   UNL     1      13.838   3.074  -1.624  1.00  0.00    -0.000 C 
BRANCH  11  12
ATOM     12  C   UNL     1      13.497   1.916  -2.577  1.00  0.00    -0.000 C 
BRANCH  12  13
ATOM     13  C   UNL     1      13.945   0.546  -2.040  1.00  0.00    -0.000 C 
BRANCH  13  14
ATOM     14  C   UNL     1      15.166  -0.007  -2.805  1.00  0.00    -0.000 C 
BRANCH  14  15
ATOM     15  C   UNL     1      16.514   0.386  -2.178  1.00  0.00    -0.003 C 
ATOM     16  C   UNL     1      16.520   0.275  -0.655  1.00  0.00     0.004 C 
ENDBRANCH  14  15
ENDBRANCH  13  14
ENDBRANCH  12  13
ENDBRANCH  11  12
ENDBRANCH  10  11
ENDBRANCH   1  10
TORSDOF 12
ENDMDL
MODEL 4
REMARK VINA RESULT:    -4.117      3.350      5.908
REMARK INTER + INTRA:          -8.641
REMARK INTER:                  -7.649
REMARK INTRA:                  -0.991
REMARK UNBOUND:                -1.636
REMARK SMILES CCCCCCCCCCCCCC(=O)[O-]
REMARK SMILES IDX 8 1 9 2 10 3 11 4 12 5 13 6 14 7 15 8 16 9 7 10 6 11 5 12
REMARK SMILES IDX 4 13 3 14 2 15 1 16
REMARK H PARENT
REMARK Flexibility Score: inf
ROOT
ATOM      1  C   UNL     1      10.977   5.250   0.997  1.00  0.00     0.000 C 
ENDROOT
BRANCH   1   2
ATOM      2  C   UNL     1      11.606   4.808   2.328  1.00  0.00     0.000 C 
BRANCH   2   3
ATOM      3  C   UNL     1      12.777   3.832   2.134  1.00  0.00     0.000 C 
BRANCH   3   4
ATOM      4  C   UNL     1      13.934   4.506   1.384  1.00  0.00     0.000 C 
BRANCH   4   5
ATOM      5  C   UNL     1      14.998   3.507   0.892  1.00  0.00     0.006 C 
BRANCH   5   6
ATOM      6  C   UNL     1      15.960   4.087  -0.160  1.00  0.00     0.053 C 
BRANCH   6   7
ATOM      7  C   UNL     1      15.752   3.498  -1.522  1.00  0.00     0.041 C 
ATOM      8  O   UNL     1      14.984   4.060  -2.348  1.00  0.00    -0.550 OA
ATOM      9  O   UNL     1      16.379   2.308  -1.868  1.00  0.00    -0.550 OA
ENDBRANCH   6   7
ENDBRANCH   5   6
ENDBRANCH   4   5
ENDBRANCH   3   4
ENDBRANCH   2   3
ENDBRANCH   1   2
BRANCH   1  10
ATOM     10  C   UNL     1       9.866   4.299   0.520  1.00  0.00     0.000 C 
BRANCH  10  11
ATOM     11  C   UNL     1       9.978   3.981  -0.986  1.00  0.00    -0.000 C 
BRANCH  11  12
ATOM     12  C   UNL     1       9.975   5.231  -1.882  1.00  0.00    -0.000 C 
BRANCH  12  13
ATOM     13  C   UNL     1       8.661   6.025  -1.797  1.00  0.00    -0.000 C 
BRANCH  13  14
ATOM     14  C   UNL     1       8.901   7.549  -1.806  1.00  0.00    -0.000 C 
BRANCH  14  15
ATOM     15  C   UNL     1       8.157   8.296  -0.686  1.00  0.00    -0.003 C 
ATOM     16  C   UNL     1       8.034   7.477   0.598  1.00  0.00     0.004 C 
ENDBRANCH  14  15
ENDBRANCH  13  14
ENDBRANCH  12  13
ENDBRANCH  11  12
ENDBRANCH  10  11
ENDBRANCH   1  10
TORSDOF 12
ENDMDL
MODEL 5
REMARK VINA RESULT:    -4.106      2.277      5.642
REMARK INTER + INTRA:          -8.623
REMARK INTER:                  -6.871
REMARK INTRA:                  -1.752
REMARK UNBOUND:                -1.636
REMARK SMILES CCCCCCCCCCCCCC(=O)[O-]
REMARK SMILES IDX 8 1 9 2 10 3 11 4 12 5 13 6 14 7 15 8 16 9 7 10 6 11 5 12
REMARK SMILES IDX 4 13 3 14 2 15 1 16
REMARK H PARENT
REMARK Flexibility Score: inf
ROOT
ATOM      1  C   UNL     1      11.301   5.364   1.383  1.00  0.00     0.000 C 
ENDROOT
BRANCH   1   2
ATOM      2  C   UNL     1      11.514   4.298   2.469  1.00  0.00     0.000 C 
BRANCH   2   3
ATOM      3  C   UNL     1      12.876   3.597   2.352  1.00  0.00     0.000 C 
BRANCH   3   4
ATOM      4  C   UNL     1      13.790   4.335   1.365  1.00  0.00     0.000 C 
BRANCH   4   5
ATOM      5  C   UNL     1      15.074   3.554   1.028  1.00  0.00     0.006 C 
BRANCH   5   6
ATOM      6  C   UNL     1      15.916   4.188  -0.092  1.00  0.00     0.053 C 
BRANCH   6   7
ATOM      7  C   UNL     1      15.700   3.531  -1.422  1.00  0.00     0.041 C 
ATOM      8  O   UNL     1      14.834   3.979  -2.219  1.00  0.00    -0.550 OA
ATOM      9  O   UNL     1      16.432   2.402  -1.766  1.00  0.00    -0.550 OA
ENDBRANCH   6   7
ENDBRANCH   5   6
ENDBRANCH   4   5
ENDBRANCH   3   4
ENDBRANCH   2   3
ENDBRANCH   1   2
BRANCH   1  10
ATOM     10  C   UNL     1       9.839   5.449   0.912  1.00  0.00     0.000 C 
BRANCH  10  11
ATOM     11  C   UNL     1       9.726   5.896  -0.561  1.00  0.00    -0.000 C 
BRANCH  11  12
ATOM     12  C   UNL     1       9.586   4.727  -1.551  1.00  0.00    -0.000 C 
BRANCH  12  13
ATOM     13  C   UNL     1       9.142   3.419  -0.874  1.00  0.00    -0.000 C 
BRANCH  13  14
ATOM     14  C   UNL     1      10.111   2.255  -1.168  1.00  0.00    -0.000 C 
BRANCH  14  15
ATOM     15  C   UNL     1      11.594   2.662  -1.120  1.00  0.00    -0.003 C 
ATOM     16  C   UNL     1      12.520   1.503  -0.755  1.00  0.00     0.004 C 
ENDBRANCH  14  15
ENDBRANCH  13  14
ENDBRANCH  12  13
ENDBRANCH  11  12
ENDBRANCH  10  11
ENDBRANCH   1  10
TORSDOF 12
ENDMDL
MODEL 6
REMARK VINA RESULT:    -4.093     14.898     16.201
REMARK INTER + INTRA:          -8.601
REMARK INTER:                  -7.083
REMARK INTRA:                  -1.517
REMARK UNBOUND:                -1.636
REMARK SMILES CCCCCCCCCCCCCC(=O)[O-]
REMARK SMILES IDX 8 1 9 2 10 3 11 4 12 5 13 6 14 7 15 8 16 9 7 10 6 11 5 12
REMARK SMILES IDX 4 13 3 14 2 15 1 16
REMARK H PARENT
REMARK Flexibility Score: inf
ROOT
ATOM      1  C   UNL     1      14.999  16.894  -1.658  1.00  0.00     0.000 C 
ENDROOT
BRANCH   1   2
ATOM      2  C   UNL     1      14.822  17.300  -0.187  1.00  0.00     0.000 C 
BRANCH   2   3
ATOM      3  C   UNL     1      15.322  18.724   0.099  1.00  0.00     0.000 C 
BRANCH   3   4
ATOM      4  C   UNL     1      16.152  18.766   1.389  1.00  0.00     0.000 C 
BRANCH   4   5
ATOM      5  C   UNL     1      17.035  17.518   1.581  1.00  0.00     0.006 C 
BRANCH   5   6
ATOM      6  C   UNL     1      18.514  17.738   1.215  1.00  0.00     0.053 C 
BRANCH   6   7
ATOM      7  C   UNL     1      19.044  16.683   0.292  1.00  0.00     0.041 C 
ATOM      8  O   UNL     1      18.308  16.199  -0.609  1.00  0.00    -0.550 OA
ATOM      9  O   UNL     1      20.340  16.209   0.448  1.00  0.00    -0.550 OA
ENDBRANCH   6   7
ENDBRANCH   5   6
ENDBRANCH   4   5
ENDBRANCH   3   4
ENDBRANCH   2   3
ENDBRANCH   1   2
BRANCH   1  10
ATOM     10  C   UNL     1      15.770  17.944  -2.475  1.00  0.00     0.000 C 
BRANCH  10  11
ATOM     11  C   UNL     1      14.853  18.717  -3.447  1.00  0.00    -0.000 C 
BRANCH  11  12
ATOM     12  C   UNL     1      14.101  17.811  -4.436  1.00  0.00    -0.000 C 
BRANCH  12  13
ATOM     13  C   UNL     1      12.599  18.132  -4.520  1.00  0.00    -0.000 C 
BRANCH  13  14
ATOM     14  C   UNL     1      11.771  17.308  -3.512  1.00  0.00    -0.000 C 
BRANCH  14  15
ATOM     15  C   UNL     1      10.918  18.170  -2.567  1.00  0.00    -0.003 C 
ATOM     16  C   UNL     1      11.718  18.750  -1.402  1.00  0.00     0.004 C 
ENDBRANCH  14  15
ENDBRANCH  13  14
ENDBRANCH  12  13
ENDBRANCH  11  12
ENDBRANCH  10  11
ENDBRANCH   1  10
TORSDOF 12
ENDMDL
MODEL 7
REMARK VINA RESULT:    -4.092      1.897      2.680
REMARK INTER + INTRA:          -8.598
REMARK INTER:                  -6.819
REMARK INTRA:                  -1.779
REMARK UNBOUND:                -1.636
REMARK SMILES CCCCCCCCCCCCCC(=O)[O-]
REMARK SMILES IDX 8 1 9 2 10 3 11 4 12 5 13 6 14 7 15 8 16 9 7 10 6 11 5 12
REMARK SMILES IDX 4 13 3 14 2 15 1 16
REMARK H PARENT
REMARK Flexibility Score: inf
ROOT
ATOM      1  C   UNL     1      16.377   2.807  -1.272  1.00  0.00     0.000 C 
ENDROOT
BRANCH   1   2
ATOM      2  C   UNL     1      15.204   3.790  -1.406  1.00  0.00     0.000 C 
BRANCH   2   3
ATOM      3  C   UNL     1      14.127   3.298  -2.384  1.00  0.00     0.000 C 
BRANCH   3   4
ATOM      4  C   UNL     1      13.019   2.537  -1.642  1.00  0.00     0.000 C 
BRANCH   4   5
ATOM      5  C   UNL     1      12.863   1.080  -2.118  1.00  0.00     0.006 C 
BRANCH   5   6
ATOM      6  C   UNL     1      13.510   0.044  -1.181  1.00  0.00     0.053 C 
BRANCH   6   7
ATOM      7  C   UNL     1      14.808  -0.484  -1.711  1.00  0.00     0.041 C 
ATOM      8  O   UNL     1      15.594  -1.116  -0.955  1.00  0.00    -0.550 OA
ATOM      9  O   UNL     1      15.168  -0.248  -3.032  1.00  0.00    -0.550 OA
ENDBRANCH   6   7
ENDBRANCH   5   6
ENDBRANCH   4   5
ENDBRANCH   3   4
ENDBRANCH   2   3
ENDBRANCH   1   2
BRANCH   1  10
ATOM     10  C   UNL     1      16.434   2.137   0.112  1.00  0.00     0.000 C 
BRANCH  10  11
ATOM     11  C   UNL     1      15.750   2.990   1.202  1.00  0.00    -0.000 C 
BRANCH  11  12
ATOM     12  C   UNL     1      14.789   2.189   2.097  1.00  0.00    -0.000 C 
BRANCH  12  13
ATOM     13  C   UNL     1      13.519   2.975   2.466  1.00  0.00    -0.000 C 
BRANCH  13  14
ATOM     14  C   UNL     1      13.321   4.214   1.567  1.00  0.00    -0.000 C 
BRANCH  14  15
ATOM     15  C   UNL     1      12.010   4.969   1.842  1.00  0.00    -0.003 C 
ATOM     16  C   UNL     1      11.432   4.681   3.226  1.00  0.00     0.004 C 
ENDBRANCH  14  15
ENDBRANCH  13  14
ENDBRANCH  12  13
ENDBRANCH  11  12
ENDBRANCH  10  11
ENDBRANCH   1  10
TORSDOF 12
ENDMDL
MODEL 8
REMARK VINA RESULT:    -4.020      1.815      3.692
REMARK INTER + INTRA:          -8.475
REMARK INTER:                  -6.611
REMARK INTRA:                  -1.864
REMARK UNBOUND:                -1.636
REMARK SMILES CCCCCCCCCCCCCC(=O)[O-]
REMARK SMILES IDX 8 1 9 2 10 3 11 4 12 5 13 6 14 7 15 8 16 9 7 10 6 11 5 12
REMARK SMILES IDX 4 13 3 14 2 15 1 16
REMARK H PARENT
REMARK Flexibility Score: inf
ROOT
ATOM      1  C   UNL     1      14.612   0.072  -2.391  1.00  0.00     0.000 C 
ENDROOT
BRANCH   1   2
ATOM      2  C   UNL     1      13.486   1.118  -2.383  1.00  0.00     0.000 C 
BRANCH   2   3
ATOM      3  C   UNL     1      12.927   1.376  -0.975  1.00  0.00     0.000 C 
BRANCH   3   4
ATOM      4  C   UNL     1      12.293   2.770  -0.884  1.00  0.00     0.000 C 
BRANCH   4   5
ATOM      5  C   UNL     1      11.591   3.028   0.463  1.00  0.00     0.006 C 
BRANCH   5   6
ATOM      6  C   UNL     1      11.326   4.516   0.754  1.00  0.00     0.053 C 
BRANCH   6   7
ATOM      7  C   UNL     1      10.058   5.011   0.130  1.00  0.00     0.041 C 
ATOM      8  O   UNL     1      10.086   5.613  -0.977  1.00  0.00    -0.550 OA
ATOM      9  O   UNL     1       8.846   4.840   0.787  1.00  0.00    -0.550 OA
ENDBRANCH   6   7
ENDBRANCH   5   6
ENDBRANCH   4   5
ENDBRANCH   3   4
ENDBRANCH   2   3
ENDBRANCH   1   2
BRANCH   1  10
ATOM     10  C   UNL     1      15.744   0.411  -1.406  1.00  0.00     0.000 C 
BRANCH  10  11
ATOM     11  C   UNL     1      16.670   1.524  -1.942  1.00  0.00    -0.000 C 
BRANCH  11  12
ATOM     12  C   UNL     1      17.008   2.601  -0.897  1.00  0.00    -0.000 C 
BRANCH  12  13
ATOM     13  C   UNL     1      15.964   3.729  -0.841  1.00  0.00    -0.000 C 
BRANCH  13  14
ATOM     14  C   UNL     1      15.381   3.911   0.576  1.00  0.00    -0.000 C 
BRANCH  14  15
ATOM     15  C   UNL     1      15.712   2.753   1.531  1.00  0.00    -0.003 C 
ATOM     16  C   UNL     1      14.579   2.441   2.508  1.00  0.00     0.004 C 
ENDBRANCH  14  15
ENDBRANCH  13  14
ENDBRANCH  12  13
ENDBRANCH  11  12
ENDBRANCH  10  11
ENDBRANCH   1  10
TORSDOF 12
ENDMDL
MODEL 9
REMARK VINA RESULT:    -4.019      1.582      4.562
REMARK INTER + INTRA:          -8.474
REMARK INTER:                  -6.566
REMARK INTRA:                  -1.908
REMARK UNBOUND:                -1.636
REMARK SMILES CCCCCCCCCCCCCC(=O)[O-]
REMARK SMILES IDX 8 1 9 2 10 3 11 4 12 5 13 6 14 7 15 8 16 9 7 10 6 11 5 12
REMARK SMILES IDX 4 13 3 14 2 15 1 16
REMARK H PARENT
REMARK Flexibility Score: inf
ROOT
ATOM      1  C   UNL     1      15.144   2.501   1.854  1.00  0.00     0.000 C 
ENDROOT
BRANCH   1   2
ATOM      2  C   UNL     1      15.007   3.936   1.320  1.00  0.00     0.000 C 
BRANCH   2   3
ATOM      3  C   UNL     1      13.579   4.485   1.457  1.00  0.00     0.000 C 
BRANCH   3   4
ATOM      4  C   UNL     1      12.788   3.700   2.513  1.00  0.00     0.000 C 
BRANCH   4   5
ATOM      5  C   UNL     1      11.417   4.326   2.830  1.00  0.00     0.006 C 
BRANCH   5   6
ATOM      6  C   UNL     1      10.835   5.171   1.683  1.00  0.00     0.053 C 
BRANCH   6   7
ATOM      7  C   UNL     1      10.074   4.348   0.688  1.00  0.00     0.041 C 
ATOM      8  O   UNL     1      10.219   4.550  -0.548  1.00  0.00    -0.550 OA
ATOM      9  O   UNL     1       9.178   3.381   1.125  1.00  0.00    -0.550 OA
ENDBRANCH   6   7
ENDBRANCH   5   6
ENDBRANCH   4   5
ENDBRANCH   3   4
ENDBRANCH   2   3
ENDBRANCH   1   2
BRANCH   1  10
ATOM     10  C   UNL     1      15.786   1.547   0.833  1.00  0.00     0.000 C 
BRANCH  10  11
ATOM     11  C   UNL     1      16.422   2.303  -0.353  1.00  0.00    -0.000 C 
BRANCH  11  12
ATOM     12  C   UNL     1      16.100   1.684  -1.724  1.00  0.00    -0.000 C 
BRANCH  12  13
ATOM     13  C   UNL     1      14.824   0.825  -1.707  1.00  0.00    -0.000 C 
BRANCH  13  14
ATOM     14  C   UNL     1      13.640   1.528  -2.403  1.00  0.00    -0.000 C 
BRANCH  14  15
ATOM     15  C   UNL     1      12.666   2.205  -1.424  1.00  0.00    -0.003 C 
ATOM     16  C   UNL     1      12.241   1.292  -0.276  1.00  0.00     0.004 C 
ENDBRANCH  14  15
ENDBRANCH  13  14
ENDBRANCH  12  13
ENDBRANCH  11  12
ENDBRANCH  10  11
ENDBRANCH   1  10
TORSDOF 12
ENDMDL
