MODEL 1
REMARK VINA RESULT:    -5.576      0.000      0.000
REMARK INTER + INTRA:          -6.678
REMARK INTER:                  -6.554
REMARK INTRA:                  -0.124
REMARK UNBOUND:                -0.124
REMARK SMILES O=C([O-])C=Cc1ccc(O)c(O)c1
REMARK SMILES IDX 6 1 13 2 7 3 11 4 8 5 9 6 5 7 4 8 2 9 1 10 3 11 12 12 10 14
REMARK H PARENT 12 13 10 15
REMARK Flexibility Score: inf
ROOT
ATOM      1  C   UNL     1     -13.223 -29.046 -20.601  1.00  0.00    -0.022 A 
ATOM      2  C   UNL     1     -13.920 -30.265 -20.727  1.00  0.00     0.058 A 
ATOM      3  C   UNL     1     -13.847 -27.974 -19.945  1.00  0.00     0.012 A 
ATOM      4  C   UNL     1     -15.202 -30.412 -20.185  1.00  0.00     0.157 A 
ATOM      5  C   UNL     1     -15.125 -28.119 -19.402  1.00  0.00     0.051 A 
ATOM      6  C   UNL     1     -15.808 -29.337 -19.516  1.00  0.00     0.157 A 
ENDROOT
BRANCH   1   7
ATOM      7  C   UNL     1     -11.867 -28.840 -21.169  1.00  0.00     0.010 C 
ATOM      8  C   UNL     1     -10.748 -29.342 -20.628  1.00  0.00     0.025 C 
BRANCH   8   9
ATOM      9  C   UNL     1      -9.417 -29.106 -21.213  1.00  0.00     0.064 C 
ATOM     10  O   UNL     1      -8.696 -28.147 -20.826  1.00  0.00    -0.545 OA
ATOM     11  O   UNL     1      -8.950 -29.952 -22.210  1.00  0.00    -0.545 OA
ENDBRANCH   8   9
ENDBRANCH   1   7
BRANCH   4  12
ATOM     12  O   UNL     1     -15.861 -31.634 -20.326  1.00  0.00    -0.504 OA
ATOM     13  H   UNL     1     -16.641 -31.896 -19.736  1.00  0.00     0.293 HD
ENDBRANCH   4  12
BRANCH   6  14
ATOM     14  O   UNL     1     -17.083 -29.479 -18.971  1.00  0.00    -0.504 OA
ATOM     15  H   UNL     1     -17.299 -30.217 -18.312  1.00  0.00     0.293 HD
ENDBRANCH   6  14
TORSDOF 4
ENDMDL
MODEL 2
REMARK VINA RESULT:    -5.195      2.819      4.015
REMARK INTER + INTRA:          -6.230
REMARK INTER:                  -6.110
REMARK INTRA:                  -0.121
REMARK UNBOUND:                -0.124
REMARK SMILES O=C([O-])C=Cc1ccc(O)c(O)c1
REMARK SMILES IDX 6 1 13 2 7 3 11 4 8 5 9 6 5 7 4 8 2 9 1 10 3 11 12 12 10 14
REMARK H PARENT 12 13 10 15
REMARK Flexibility Score: inf
ROOT
ATOM      1  C   UNL     1     -13.996 -27.905 -20.146  1.00  0.00    -0.022 A 
ATOM      2  C   UNL     1     -15.235 -28.130 -19.513  1.00  0.00     0.058 A 
ATOM      3  C   UNL     1     -13.363 -28.976 -20.797  1.00  0.00     0.012 A 
ATOM      4  C   UNL     1     -15.837 -29.393 -19.553  1.00  0.00     0.157 A 
ATOM      5  C   UNL     1     -13.963 -30.236 -20.839  1.00  0.00     0.051 A 
ATOM      6  C   UNL     1     -15.202 -30.451 -20.221  1.00  0.00     0.157 A 
ENDROOT
BRANCH   1   7
ATOM      7  C   UNL     1     -13.313 -26.587 -20.120  1.00  0.00     0.010 C 
ATOM      8  C   UNL     1     -13.915 -25.430 -20.429  1.00  0.00     0.025 C 
BRANCH   8   9
ATOM      9  C   UNL     1     -13.203 -24.141 -20.404  1.00  0.00     0.064 C 
ATOM     10  O   UNL     1     -13.674 -23.147 -19.791  1.00  0.00    -0.545 OA
ATOM     11  O   UNL     1     -11.991 -24.019 -21.071  1.00  0.00    -0.545 OA
ENDBRANCH   8   9
ENDBRANCH   1   7
BRANCH   4  12
ATOM     12  O   UNL     1     -17.066 -29.577 -18.918  1.00  0.00    -0.504 OA
ATOM     13  H   UNL     1     -17.698 -28.808 -18.736  1.00  0.00     0.293 HD
ENDBRANCH   4  12
BRANCH   6  14
ATOM     14  O   UNL     1     -15.799 -31.710 -20.268  1.00  0.00    -0.504 OA
ATOM     15  H   UNL     1     -15.274 -32.554 -20.071  1.00  0.00     0.293 HD
ENDBRANCH   6  14
TORSDOF 4
ENDMDL
MODEL 3
REMARK VINA RESULT:    -5.118      3.307      4.677
REMARK INTER + INTRA:          -6.139
REMARK INTER:                  -5.996
REMARK INTRA:                  -0.143
REMARK UNBOUND:                -0.124
REMARK SMILES O=C([O-])C=Cc1ccc(O)c(O)c1
REMARK SMILES IDX 6 1 13 2 7 3 11 4 8 5 9 6 5 7 4 8 2 9 1 10 3 11 12 12 10 14
REMARK H PARENT 12 13 10 15
REMARK Flexibility Score: inf
ROOT
ATOM      1  C   UNL     1     -15.129 -28.123 -19.963  1.00  0.00    -0.022 A 
ATOM      2  C   UNL     1     -16.282 -28.744 -20.485  1.00  0.00     0.058 A 
ATOM      3  C   UNL     1     -13.897 -28.788 -20.062  1.00  0.00     0.012 A 
ATOM      4  C   UNL     1     -16.196 -29.992 -21.114  1.00  0.00     0.157 A 
ATOM      5  C   UNL     1     -13.810 -30.032 -20.691  1.00  0.00     0.051 A 
ATOM      6  C   UNL     1     -14.955 -30.639 -21.221  1.00  0.00     0.157 A 
ENDROOT
BRANCH   1   7
ATOM      7  C   UNL     1     -15.172 -26.806 -19.278  1.00  0.00     0.010 C 
ATOM      8  C   UNL     1     -14.218 -25.872 -19.398  1.00  0.00     0.025 C 
BRANCH   8   9
ATOM      9  C   UNL     1     -14.289 -24.582 -18.692  1.00  0.00     0.064 C 
ATOM     10  O   UNL     1     -13.937 -23.511 -19.256  1.00  0.00    -0.545 OA
ATOM     11  O   UNL     1     -14.747 -24.544 -17.382  1.00  0.00    -0.545 OA
ENDBRANCH   8   9
ENDBRANCH   1   7
BRANCH   4  12
ATOM     12  O   UNL     1     -17.358 -30.575 -21.621  1.00  0.00    -0.504 OA
ATOM     13  H   UNL     1     -18.280 -30.297 -21.309  1.00  0.00     0.293 HD
ENDBRANCH   4  12
BRANCH   6  14
ATOM     14  O   UNL     1     -14.864 -31.880 -21.850  1.00  0.00    -0.504 OA
ATOM     15  H   UNL     1     -14.079 -32.500 -21.688  1.00  0.00     0.293 HD
ENDBRANCH   6  14
TORSDOF 4
ENDMDL
MODEL 4
REMARK VINA RESULT:    -4.994      3.746      5.806
REMARK INTER + INTRA:          -5.993
REMARK INTER:                  -5.840
REMARK INTRA:                  -0.153
REMARK UNBOUND:                -0.124
REMARK SMILES O=C([O-])C=Cc1ccc(O)c(O)c1
REMARK SMILES IDX 6 1 13 2 7 3 11 4 8 5 9 6 5 7 4 8 2 9 1 10 3 11 12 12 10 14
REMARK H PARENT 12 13 10 15
REMARK Flexibility Score: inf
ROOT
ATOM      1  C   UNL     1     -14.750 -26.568 -19.614  1.00  0.00    -0.022 A 
ATOM      2  C   UNL     1     -14.861 -25.831 -18.417  1.00  0.00     0.058 A 
ATOM      3  C   UNL     1     -14.284 -25.919 -20.769  1.00  0.00     0.012 A 
ATOM      4  C   UNL     1     -14.490 -24.482 -18.374  1.00  0.00     0.157 A 
ATOM      5  C   UNL     1     -13.912 -24.574 -20.727  1.00  0.00     0.051 A 
ATOM      6  C   UNL     1     -14.010 -23.850 -19.532  1.00  0.00     0.157 A 
ENDROOT
BRANCH   1   7
ATOM      7  C   UNL     1     -15.143 -27.997 -19.711  1.00  0.00     0.010 C 
ATOM      8  C   UNL     1     -15.121 -28.699 -20.853  1.00  0.00     0.025 C 
BRANCH   8   9
ATOM      9  C   UNL     1     -15.530 -30.112 -20.914  1.00  0.00     0.064 C 
ATOM     10  O   UNL     1     -15.422 -30.866 -19.910  1.00  0.00    -0.545 OA
ATOM     11  O   UNL     1     -16.040 -30.624 -22.100  1.00  0.00    -0.545 OA
ENDBRANCH   8   9
ENDBRANCH   1   7
BRANCH   4  12
ATOM     12  O   UNL     1     -14.610 -23.785 -17.171  1.00  0.00    -0.504 OA
ATOM     13  H   UNL     1     -14.309 -22.823 -17.074  1.00  0.00     0.293 HD
ENDBRANCH   4  12
BRANCH   6  14
ATOM     14  O   UNL     1     -13.635 -22.508 -19.493  1.00  0.00    -0.504 OA
ATOM     15  H   UNL     1     -13.253 -22.040 -20.307  1.00  0.00     0.293 HD
ENDBRANCH   6  14
TORSDOF 4
ENDMDL
MODEL 5
REMARK VINA RESULT:    -4.967     14.132     15.672
REMARK INTER + INTRA:          -5.962
REMARK INTER:                  -5.838
REMARK INTRA:                  -0.125
REMARK UNBOUND:                -0.124
REMARK SMILES O=C([O-])C=Cc1ccc(O)c(O)c1
REMARK SMILES IDX 6 1 13 2 7 3 11 4 8 5 9 6 5 7 4 8 2 9 1 10 3 11 12 12 10 14
REMARK H PARENT 12 13 10 15
REMARK Flexibility Score: inf
ROOT
ATOM      1  C   UNL     1      -4.779 -22.647 -30.813  1.00  0.00    -0.022 A 
ATOM      2  C   UNL     1      -3.391 -22.853 -30.942  1.00  0.00     0.058 A 
ATOM      3  C   UNL     1      -5.615 -23.761 -30.636  1.00  0.00     0.012 A 
ATOM      4  C   UNL     1      -2.851 -24.142 -30.869  1.00  0.00     0.157 A 
ATOM      5  C   UNL     1      -5.079 -25.048 -30.561  1.00  0.00     0.051 A 
ATOM      6  C   UNL     1      -3.697 -25.246 -30.675  1.00  0.00     0.157 A 
ENDROOT
BRANCH   1   7
ATOM      7  C   UNL     1      -5.398 -21.300 -30.895  1.00  0.00     0.010 C 
ATOM      8  C   UNL     1      -5.413 -20.424 -29.881  1.00  0.00     0.025 C 
BRANCH   8   9
ATOM      9  C   UNL     1      -6.047 -19.100 -29.994  1.00  0.00     0.064 C 
ATOM     10  O   UNL     1      -7.301 -18.977 -30.003  1.00  0.00    -0.545 OA
ATOM     11  O   UNL     1      -5.250 -17.967 -30.097  1.00  0.00    -0.545 OA
ENDBRANCH   8   9
ENDBRANCH   1   7
BRANCH   4  12
ATOM     12  O   UNL     1      -1.472 -24.307 -30.998  1.00  0.00    -0.504 OA
ATOM     13  H   UNL     1      -0.956 -23.935 -31.785  1.00  0.00     0.293 HD
ENDBRANCH   4  12
BRANCH   6  14
ATOM     14  O   UNL     1      -3.165 -26.532 -30.598  1.00  0.00    -0.504 OA
ATOM     15  H   UNL     1      -2.770 -26.892 -29.737  1.00  0.00     0.293 HD
ENDBRANCH   6  14
TORSDOF 4
ENDMDL
MODEL 6
REMARK VINA RESULT:    -4.940      6.529      9.093
REMARK INTER + INTRA:          -5.931
REMARK INTER:                  -5.808
REMARK INTRA:                  -0.123
REMARK UNBOUND:                -0.124
REMARK SMILES O=C([O-])C=Cc1ccc(O)c(O)c1
REMARK SMILES IDX 6 1 13 2 7 3 11 4 8 5 9 6 5 7 4 8 2 9 1 10 3 11 12 12 10 14
REMARK H PARENT 12 13 10 15
REMARK Flexibility Score: inf
ROOT
ATOM      1  C   UNL     1      -6.684 -27.566 -25.415  1.00  0.00    -0.022 A 
ATOM      2  C   UNL     1      -5.810 -28.509 -24.838  1.00  0.00     0.058 A 
ATOM      3  C   UNL     1      -7.897 -27.281 -24.767  1.00  0.00     0.012 A 
ATOM      4  C   UNL     1      -6.132 -29.132 -23.627  1.00  0.00     0.157 A 
ATOM      5  C   UNL     1      -8.220 -27.901 -23.558  1.00  0.00     0.051 A 
ATOM      6  C   UNL     1      -7.341 -28.826 -22.981  1.00  0.00     0.157 A 
ENDROOT
BRANCH   1   7
ATOM      7  C   UNL     1      -6.391 -26.888 -26.703  1.00  0.00     0.010 C 
ATOM      8  C   UNL     1      -5.183 -26.412 -27.036  1.00  0.00     0.025 C 
BRANCH   8   9
ATOM      9  C   UNL     1      -4.931 -25.734 -28.319  1.00  0.00     0.064 C 
ATOM     10  O   UNL     1      -3.762 -25.437 -28.681  1.00  0.00    -0.545 OA
ATOM     11  O   UNL     1      -6.003 -25.413 -29.142  1.00  0.00    -0.545 OA
ENDBRANCH   8   9
ENDBRANCH   1   7
BRANCH   4  12
ATOM     12  O   UNL     1      -5.241 -30.058 -23.083  1.00  0.00    -0.504 OA
ATOM     13  H   UNL     1      -4.237 -29.946 -23.159  1.00  0.00     0.293 HD
ENDBRANCH   4  12
BRANCH   6  14
ATOM     14  O   UNL     1      -7.665 -29.441 -21.773  1.00  0.00    -0.504 OA
ATOM     15  H   UNL     1      -8.536 -29.245 -21.294  1.00  0.00     0.293 HD
ENDBRANCH   6  14
TORSDOF 4
ENDMDL
MODEL 7
REMARK VINA RESULT:    -4.919     11.255     14.888
REMARK INTER + INTRA:          -5.906
REMARK INTER:                  -5.754
REMARK INTRA:                  -0.152
REMARK UNBOUND:                -0.124
REMARK SMILES O=C([O-])C=Cc1ccc(O)c(O)c1
REMARK SMILES IDX 6 1 13 2 7 3 11 4 8 5 9 6 5 7 4 8 2 9 1 10 3 11 12 12 10 14
REMARK H PARENT 12 13 10 15
REMARK Flexibility Score: inf
ROOT
ATOM      1  C   UNL     1      -4.575 -24.062 -29.785  1.00  0.00    -0.022 A 
ATOM      2  C   UNL     1      -3.614 -23.078 -30.095  1.00  0.00     0.058 A 
ATOM      3  C   UNL     1      -4.259 -25.412 -30.009  1.00  0.00     0.012 A 
ATOM      4  C   UNL     1      -2.357 -23.441 -30.593  1.00  0.00     0.157 A 
ATOM      5  C   UNL     1      -3.005 -25.776 -30.504  1.00  0.00     0.051 A 
ATOM      6  C   UNL     1      -2.048 -24.796 -30.796  1.00  0.00     0.157 A 
ENDROOT
BRANCH   1   7
ATOM      7  C   UNL     1      -5.925 -23.725 -29.267  1.00  0.00     0.010 C 
ATOM      8  C   UNL     1      -6.949 -24.590 -29.237  1.00  0.00     0.025 C 
BRANCH   8   9
ATOM      9  C   UNL     1      -8.278 -24.216 -28.726  1.00  0.00     0.064 C 
ATOM     10  O   UNL     1      -9.301 -24.893 -29.015  1.00  0.00    -0.545 OA
ATOM     11  O   UNL     1      -8.408 -23.097 -27.915  1.00  0.00    -0.545 OA
ENDBRANCH   8   9
ENDBRANCH   1   7
BRANCH   4  12
ATOM     12  O   UNL     1      -1.430 -22.441 -30.885  1.00  0.00    -0.504 OA
ATOM     13  H   UNL     1      -0.435 -22.572 -30.748  1.00  0.00     0.293 HD
ENDBRANCH   4  12
BRANCH   6  14
ATOM     14  O   UNL     1      -0.796 -25.163 -31.287  1.00  0.00    -0.504 OA
ATOM     15  H   UNL     1      -0.006 -25.310 -30.670  1.00  0.00     0.293 HD
ENDBRANCH   6  14
TORSDOF 4
ENDMDL
MODEL 8
REMARK VINA RESULT:    -4.907      1.304      2.110
REMARK INTER + INTRA:          -5.891
REMARK INTER:                  -5.740
REMARK INTRA:                  -0.151
REMARK UNBOUND:                -0.124
REMARK SMILES O=C([O-])C=Cc1ccc(O)c(O)c1
REMARK SMILES IDX 6 1 13 2 7 3 11 4 8 5 9 6 5 7 4 8 2 9 1 10 3 11 12 12 10 14
REMARK H PARENT 12 13 10 15
REMARK Flexibility Score: inf
ROOT
ATOM      1  C   UNL     1     -13.767 -29.366 -20.611  1.00  0.00    -0.022 A 
ATOM      2  C   UNL     1     -14.760 -29.223 -19.621  1.00  0.00     0.058 A 
ATOM      3  C   UNL     1     -14.152 -29.751 -21.905  1.00  0.00     0.012 A 
ATOM      4  C   UNL     1     -16.109 -29.436 -19.928  1.00  0.00     0.157 A 
ATOM      5  C   UNL     1     -15.497 -29.963 -22.214  1.00  0.00     0.051 A 
ATOM      6  C   UNL     1     -16.482 -29.805 -21.230  1.00  0.00     0.157 A 
ENDROOT
BRANCH   1   7
ATOM      7  C   UNL     1     -12.324 -29.161 -20.331  1.00  0.00     0.010 C 
ATOM      8  C   UNL     1     -11.374 -29.160 -21.277  1.00  0.00     0.025 C 
BRANCH   8   9
ATOM      9  C   UNL     1      -9.949 -28.967 -20.959  1.00  0.00     0.064 C 
ATOM     10  O   UNL     1      -9.079 -29.798 -21.334  1.00  0.00    -0.545 OA
ATOM     11  O   UNL     1      -9.557 -27.851 -20.231  1.00  0.00    -0.545 OA
ENDBRANCH   8   9
ENDBRANCH   1   7
BRANCH   4  12
ATOM     12  O   UNL     1     -17.065 -29.282 -18.923  1.00  0.00    -0.504 OA
ATOM     13  H   UNL     1     -17.864 -29.898 -18.841  1.00  0.00     0.293 HD
ENDBRANCH   4  12
BRANCH   6  14
ATOM     14  O   UNL     1     -17.824 -30.015 -21.542  1.00  0.00    -0.504 OA
ATOM     15  H   UNL     1     -18.282 -30.898 -21.348  1.00  0.00     0.293 HD
ENDBRANCH   6  14
TORSDOF 4
ENDMDL
MODEL 9
REMARK VINA RESULT:    -4.877      2.333      6.680
REMARK INTER + INTRA:          -5.856
REMARK INTER:                  -5.705
REMARK INTRA:                  -0.151
REMARK UNBOUND:                -0.124
REMARK SMILES O=C([O-])C=Cc1ccc(O)c(O)c1
REMARK SMILES IDX 6 1 13 2 7 3 11 4 8 5 9 6 5 7 4 8 2 9 1 10 3 11 12 12 10 14
REMARK H PARENT 12 13 10 15
REMARK Flexibility Score: inf
ROOT
ATOM      1  C   UNL     1     -10.208 -29.172 -22.119  1.00  0.00    -0.022 A 
ATOM      2  C   UNL     1      -8.844 -29.183 -21.764  1.00  0.00     0.058 A 
ATOM      3  C   UNL     1     -10.554 -29.158 -23.480  1.00  0.00     0.012 A 
ATOM      4  C   UNL     1      -7.851 -29.206 -22.750  1.00  0.00     0.157 A 
ATOM      5  C   UNL     1      -9.564 -29.183 -24.465  1.00  0.00     0.051 A 
ATOM      6  C   UNL     1      -8.210 -29.209 -24.107  1.00  0.00     0.157 A 
ENDROOT
BRANCH   1   7
ATOM      7  C   UNL     1     -11.297 -29.135 -21.110  1.00  0.00     0.010 C 
ATOM      8  C   UNL     1     -12.601 -29.147 -21.420  1.00  0.00     0.025 C 
BRANCH   8   9
ATOM      9  C   UNL     1     -13.654 -29.097 -20.392  1.00  0.00     0.064 C 
ATOM     10  O   UNL     1     -13.739 -28.126 -19.593  1.00  0.00    -0.545 OA
ATOM     11  O   UNL     1     -14.566 -30.140 -20.298  1.00  0.00    -0.545 OA
ENDBRANCH   8   9
ENDBRANCH   1   7
BRANCH   4  12
ATOM     12  O   UNL     1      -6.511 -29.220 -22.360  1.00  0.00    -0.504 OA
ATOM     13  H   UNL     1      -6.192 -29.734 -21.548  1.00  0.00     0.293 HD
ENDBRANCH   4  12
BRANCH   6  14
ATOM     14  O   UNL     1      -7.225 -29.236 -25.093  1.00  0.00    -0.504 OA
ATOM     15  H   UNL     1      -7.395 -28.871 -26.022  1.00  0.00     0.293 HD
ENDBRANCH   6  14
TORSDOF 4
ENDMDL
