MODEL 1
REMARK VINA RESULT:    -4.875      0.000      0.000
REMARK INTER + INTRA:          -6.615
REMARK INTER:                  -6.300
REMARK INTRA:                  -0.315
REMARK UNBOUND:                -0.315
REMARK SMILES CCCCCCC(=O)[O-]
REMARK SMILES IDX 5 1 6 2 7 3 8 4 9 5 4 6 3 7 2 8 1 9
REMARK H PARENT
REMARK Flexibility Score: inf
ROOT
ATOM      1  C   UNL     1      53.997  52.153   5.050  1.00  0.00     0.006 C 
ENDROOT
BRANCH   1   2
ATOM      2  C   UNL     1      54.822  52.498   6.294  1.00  0.00     0.053 C 
BRANCH   2   3
ATOM      3  C   UNL     1      54.104  52.068   7.534  1.00  0.00     0.041 C 
ATOM      4  O   UNL     1      53.719  52.925   8.372  1.00  0.00    -0.550 OA
ATOM      5  O   UNL     1      53.815  50.725   7.740  1.00  0.00    -0.550 OA
ENDBRANCH   2   3
ENDBRANCH   1   2
BRANCH   1   6
ATOM      6  C   UNL     1      54.633  50.994   4.272  1.00  0.00     0.000 C 
BRANCH   6   7
ATOM      7  C   UNL     1      53.732  49.750   4.304  1.00  0.00    -0.000 C 
BRANCH   7   8
ATOM      8  C   UNL     1      52.262  50.094   4.591  1.00  0.00    -0.003 C 
ATOM      9  C   UNL     1      51.286  49.174   3.858  1.00  0.00     0.004 C 
ENDBRANCH   7   8
ENDBRANCH   6   7
ENDBRANCH   1   6
TORSDOF 5
ENDMDL
MODEL 2
REMARK VINA RESULT:    -4.853      3.794      5.209
REMARK INTER + INTRA:          -6.586
REMARK INTER:                  -6.384
REMARK INTRA:                  -0.202
REMARK UNBOUND:                -0.315
REMARK SMILES CCCCCCC(=O)[O-]
REMARK SMILES IDX 5 1 6 2 7 3 8 4 9 5 4 6 3 7 2 8 1 9
REMARK H PARENT
REMARK Flexibility Score: inf
ROOT
ATOM      1  C   UNL     1      51.195  50.173   4.672  1.00  0.00     0.006 C 
ENDROOT
BRANCH   1   2
ATOM      2  C   UNL     1      51.234  48.992   3.697  1.00  0.00     0.053 C 
BRANCH   2   3
ATOM      3  C   UNL     1      49.920  48.849   2.996  1.00  0.00     0.041 C 
ATOM      4  O   UNL     1      49.443  49.813   2.340  1.00  0.00    -0.550 OA
ATOM      5  O   UNL     1      49.244  47.636   3.026  1.00  0.00    -0.550 OA
ENDBRANCH   2   3
ENDBRANCH   1   2
BRANCH   1   6
ATOM      6  C   UNL     1      52.598  50.758   4.884  1.00  0.00     0.000 C 
BRANCH   6   7
ATOM      7  C   UNL     1      53.679  49.778   4.404  1.00  0.00    -0.000 C 
BRANCH   7   8
ATOM      8  C   UNL     1      54.965  50.492   3.958  1.00  0.00    -0.003 C 
ATOM      9  C   UNL     1      55.103  51.890   4.558  1.00  0.00     0.004 C 
ENDBRANCH   7   8
ENDBRANCH   6   7
ENDBRANCH   1   6
TORSDOF 5
ENDMDL
MODEL 3
REMARK VINA RESULT:    -4.785      1.088      1.711
REMARK INTER + INTRA:          -6.499
REMARK INTER:                  -6.306
REMARK INTRA:                  -0.192
REMARK UNBOUND:                -0.315
REMARK SMILES CCCCCCC(=O)[O-]
REMARK SMILES IDX 5 1 6 2 7 3 8 4 9 5 4 6 3 7 2 8 1 9
REMARK H PARENT
REMARK Flexibility Score: inf
ROOT
ATOM      1  C   UNL     1      54.368  50.919   4.256  1.00  0.00     0.006 C 
ENDROOT
BRANCH   1   2
ATOM      2  C   UNL     1      53.776  52.102   5.029  1.00  0.00     0.053 C 
BRANCH   2   3
ATOM      3  C   UNL     1      54.094  51.986   6.486  1.00  0.00     0.041 C 
ATOM      4  O   UNL     1      55.292  51.969   6.874  1.00  0.00    -0.550 OA
ATOM      5  O   UNL     1      53.068  51.946   7.421  1.00  0.00    -0.550 OA
ENDBRANCH   2   3
ENDBRANCH   1   2
BRANCH   1   6
ATOM      6  C   UNL     1      53.487  49.671   4.400  1.00  0.00     0.000 C 
BRANCH   6   7
ATOM      7  C   UNL     1      51.999  50.031   4.266  1.00  0.00    -0.000 C 
BRANCH   7   8
ATOM      8  C   UNL     1      51.152  48.854   3.758  1.00  0.00    -0.003 C 
ATOM      9  C   UNL     1      50.067  49.289   2.772  1.00  0.00     0.004 C 
ENDBRANCH   7   8
ENDBRANCH   6   7
ENDBRANCH   1   6
TORSDOF 5
ENDMDL
MODEL 4
REMARK VINA RESULT:    -4.775      2.216      3.274
REMARK INTER + INTRA:          -6.487
REMARK INTER:                  -6.340
REMARK INTRA:                  -0.147
REMARK UNBOUND:                -0.315
REMARK SMILES CCCCCCC(=O)[O-]
REMARK SMILES IDX 5 1 6 2 7 3 8 4 9 5 4 6 3 7 2 8 1 9
REMARK H PARENT
REMARK Flexibility Score: inf
ROOT
ATOM      1  C   UNL     1      53.115  50.211   5.317  1.00  0.00     0.006 C 
ENDROOT
BRANCH   1   2
ATOM      2  C   UNL     1      54.204  50.191   4.240  1.00  0.00     0.053 C 
BRANCH   2   3
ATOM      3  C   UNL     1      55.023  51.441   4.299  1.00  0.00     0.041 C 
ATOM      4  O   UNL     1      56.211  51.442   3.881  1.00  0.00    -0.550 OA
ATOM      5  O   UNL     1      54.459  52.620   4.772  1.00  0.00    -0.550 OA
ENDBRANCH   2   3
ENDBRANCH   1   2
BRANCH   1   6
ATOM      6  C   UNL     1      51.717  50.231   4.685  1.00  0.00     0.000 C 
BRANCH   6   7
ATOM      7  C   UNL     1      51.518  49.027   3.752  1.00  0.00    -0.000 C 
BRANCH   7   8
ATOM      8  C   UNL     1      50.039  48.648   3.584  1.00  0.00    -0.003 C 
ATOM      9  C   UNL     1      49.373  49.370   2.413  1.00  0.00     0.004 C 
ENDBRANCH   7   8
ENDBRANCH   6   7
ENDBRANCH   1   6
TORSDOF 5
ENDMDL
MODEL 5
REMARK VINA RESULT:    -4.766      1.998      3.169
REMARK INTER + INTRA:          -6.475
REMARK INTER:                  -6.262
REMARK INTRA:                  -0.213
REMARK UNBOUND:                -0.315
REMARK SMILES CCCCCCC(=O)[O-]
REMARK SMILES IDX 5 1 6 2 7 3 8 4 9 5 4 6 3 7 2 8 1 9
REMARK H PARENT
REMARK Flexibility Score: inf
ROOT
ATOM      1  C   UNL     1      52.190  50.291   4.795  1.00  0.00     0.006 C 
ENDROOT
BRANCH   1   2
ATOM      2  C   UNL     1      51.896  51.706   5.303  1.00  0.00     0.053 C 
BRANCH   2   3
ATOM      3  C   UNL     1      51.207  51.654   6.629  1.00  0.00     0.041 C 
ATOM      4  O   UNL     1      51.110  52.692   7.335  1.00  0.00    -0.550 OA
ATOM      5  O   UNL     1      50.628  50.469   7.066  1.00  0.00    -0.550 OA
ENDBRANCH   2   3
ENDBRANCH   1   2
BRANCH   1   6
ATOM      6  C   UNL     1      53.671  50.135   4.428  1.00  0.00     0.000 C 
BRANCH   6   7
ATOM      7  C   UNL     1      54.440  51.441   4.678  1.00  0.00    -0.000 C 
BRANCH   7   8
ATOM      8  C   UNL     1      55.845  51.427   4.055  1.00  0.00    -0.003 C 
ATOM      9  C   UNL     1      56.222  50.062   3.482  1.00  0.00     0.004 C 
ENDBRANCH   7   8
ENDBRANCH   6   7
ENDBRANCH   1   6
TORSDOF 5
ENDMDL
MODEL 6
REMARK VINA RESULT:    -4.717      1.190      2.716
REMARK INTER + INTRA:          -6.411
REMARK INTER:                  -6.143
REMARK INTRA:                  -0.269
REMARK UNBOUND:                -0.315
REMARK SMILES CCCCCCC(=O)[O-]
REMARK SMILES IDX 5 1 6 2 7 3 8 4 9 5 4 6 3 7 2 8 1 9
REMARK H PARENT
REMARK Flexibility Score: inf
ROOT
ATOM      1  C   UNL     1      52.409  51.361   5.532  1.00  0.00     0.006 C 
ENDROOT
BRANCH   1   2
ATOM      2  C   UNL     1      52.347  50.989   7.017  1.00  0.00     0.053 C 
BRANCH   2   3
ATOM      3  C   UNL     1      53.645  51.304   7.690  1.00  0.00     0.041 C 
ATOM      4  O   UNL     1      54.313  50.389   8.240  1.00  0.00    -0.550 OA
ATOM      5  O   UNL     1      54.142  52.601   7.669  1.00  0.00    -0.550 OA
ENDBRANCH   2   3
ENDBRANCH   1   2
BRANCH   1   6
ATOM      6  C   UNL     1      52.623  50.117   4.661  1.00  0.00     0.000 C 
BRANCH   6   7
ATOM      7  C   UNL     1      54.097  49.982   4.248  1.00  0.00    -0.000 C 
BRANCH   7   8
ATOM      8  C   UNL     1      54.848  51.322   4.299  1.00  0.00    -0.003 C 
ATOM      9  C   UNL     1      56.319  51.189   3.906  1.00  0.00     0.004 C 
ENDBRANCH   7   8
ENDBRANCH   6   7
ENDBRANCH   1   6
TORSDOF 5
ENDMDL
MODEL 7
REMARK VINA RESULT:    -4.712      3.288      4.953
REMARK INTER + INTRA:          -6.405
REMARK INTER:                  -6.252
REMARK INTRA:                  -0.153
REMARK UNBOUND:                -0.315
REMARK SMILES CCCCCCC(=O)[O-]
REMARK SMILES IDX 5 1 6 2 7 3 8 4 9 5 4 6 3 7 2 8 1 9
REMARK H PARENT
REMARK Flexibility Score: inf
ROOT
ATOM      1  C   UNL     1      51.968  50.295   4.669  1.00  0.00     0.006 C 
ENDROOT
BRANCH   1   2
ATOM      2  C   UNL     1      51.463  49.115   3.833  1.00  0.00     0.053 C 
BRANCH   2   3
ATOM      3  C   UNL     1      50.017  49.293   3.495  1.00  0.00     0.041 C 
ATOM      4  O   UNL     1      49.639  49.271   2.294  1.00  0.00    -0.550 OA
ATOM      5  O   UNL     1      49.079  49.435   4.510  1.00  0.00    -0.550 OA
ENDBRANCH   2   3
ENDBRANCH   1   2
BRANCH   1   6
ATOM      6  C   UNL     1      53.489  50.224   4.858  1.00  0.00     0.000 C 
BRANCH   6   7
ATOM      7  C   UNL     1      54.128  51.612   4.691  1.00  0.00    -0.000 C 
BRANCH   7   8
ATOM      8  C   UNL     1      55.593  51.534   4.235  1.00  0.00    -0.003 C 
ATOM      9  C   UNL     1      55.940  50.195   3.585  1.00  0.00     0.004 C 
ENDBRANCH   7   8
ENDBRANCH   6   7
ENDBRANCH   1   6
TORSDOF 5
ENDMDL
MODEL 8
REMARK VINA RESULT:    -4.598      2.678      4.060
REMARK INTER + INTRA:          -6.258
REMARK INTER:                  -6.042
REMARK INTRA:                  -0.216
REMARK UNBOUND:                -0.315
REMARK SMILES CCCCCCC(=O)[O-]
REMARK SMILES IDX 5 1 6 2 7 3 8 4 9 5 4 6 3 7 2 8 1 9
REMARK H PARENT
REMARK Flexibility Score: inf
ROOT
ATOM      1  C   UNL     1      52.002  49.887   4.248  1.00  0.00     0.006 C 
ENDROOT
BRANCH   1   2
ATOM      2  C   UNL     1      51.141  50.277   5.453  1.00  0.00     0.053 C 
BRANCH   2   3
ATOM      3  C   UNL     1      50.251  51.429   5.108  1.00  0.00     0.041 C 
ATOM      4  O   UNL     1      49.006  51.262   5.013  1.00  0.00    -0.550 OA
ATOM      5  O   UNL     1      50.789  52.699   4.940  1.00  0.00    -0.550 OA
ENDBRANCH   2   3
ENDBRANCH   1   2
BRANCH   1   6
ATOM      6  C   UNL     1      53.493  49.906   4.607  1.00  0.00     0.000 C 
BRANCH   6   7
ATOM      7  C   UNL     1      54.041  51.342   4.601  1.00  0.00    -0.000 C 
BRANCH   7   8
ATOM      8  C   UNL     1      55.519  51.407   4.185  1.00  0.00    -0.003 C 
ATOM      9  C   UNL     1      56.008  50.112   3.537  1.00  0.00     0.004 C 
ENDBRANCH   7   8
ENDBRANCH   6   7
ENDBRANCH   1   6
TORSDOF 5
ENDMDL
MODEL 9
REMARK VINA RESULT:    -4.525      2.704      3.957
REMARK INTER + INTRA:          -6.163
REMARK INTER:                  -5.939
REMARK INTRA:                  -0.224
REMARK UNBOUND:                -0.315
REMARK SMILES CCCCCCC(=O)[O-]
REMARK SMILES IDX 5 1 6 2 7 3 8 4 9 5 4 6 3 7 2 8 1 9
REMARK H PARENT
REMARK Flexibility Score: inf
ROOT
ATOM      1  C   UNL     1      51.656  49.774   4.320  1.00  0.00     0.006 C 
ENDROOT
BRANCH   1   2
ATOM      2  C   UNL     1      51.153  50.579   5.522  1.00  0.00     0.053 C 
BRANCH   2   3
ATOM      3  C   UNL     1      50.397  51.786   5.064  1.00  0.00     0.041 C 
ATOM      4  O   UNL     1      50.967  52.908   5.012  1.00  0.00    -0.550 OA
ATOM      5  O   UNL     1      49.077  51.664   4.649  1.00  0.00    -0.550 OA
ENDBRANCH   2   3
ENDBRANCH   1   2
BRANCH   1   6
ATOM      6  C   UNL     1      53.189  49.719   4.297  1.00  0.00     0.000 C 
BRANCH   6   7
ATOM      7  C   UNL     1      53.790  50.720   5.296  1.00  0.00    -0.000 C 
BRANCH   7   8
ATOM      8  C   UNL     1      54.622  51.814   4.607  1.00  0.00    -0.003 C 
ATOM      9  C   UNL     1      55.897  51.268   3.964  1.00  0.00     0.004 C 
ENDBRANCH   7   8
ENDBRANCH   6   7
ENDBRANCH   1   6
TORSDOF 5
ENDMDL
