MODEL 1
REMARK VINA RESULT:    -3.931      0.000      0.000
REMARK INTER + INTRA:          -4.941
REMARK INTER:                  -4.850
REMARK INTRA:                  -0.091
REMARK UNBOUND:                -0.091
REMARK SMILES CCCCCC(C)=O
REMARK SMILES IDX 4 1 3 2 2 3 1 4 5 5 6 6 8 7 7 8
REMARK H PARENT
REMARK Flexibility Score: inf
ROOT
ATOM      1  C   UNL     1      27.579  46.989  -0.594  1.00  0.00     0.008 C 
ENDROOT
BRANCH   1   2
ATOM      2  C   UNL     1      27.302  47.767  -1.898  1.00  0.00     0.000 C 
BRANCH   2   3
ATOM      3  C   UNL     1      26.004  47.375  -2.623  1.00  0.00    -0.003 C 
ATOM      4  C   UNL     1      24.829  48.290  -2.282  1.00  0.00     0.004 C 
ENDBRANCH   2   3
ENDBRANCH   1   2
BRANCH   1   5
ATOM      5  C   UNL     1      28.069  45.548  -0.808  1.00  0.00     0.075 C 
BRANCH   5   6
ATOM      6  C   UNL     1      29.340  45.263  -0.051  1.00  0.00     0.129 C 
ATOM      7  O   UNL     1      29.643  45.963   0.902  1.00  0.00    -0.300 OA
ATOM      8  C   UNL     1      30.252  44.140  -0.450  1.00  0.00     0.087 C 
ENDBRANCH   5   6
ENDBRANCH   1   5
TORSDOF 4
ENDMDL
MODEL 2
REMARK VINA RESULT:    -3.919      1.383      1.900
REMARK INTER + INTRA:          -4.927
REMARK INTER:                  -4.879
REMARK INTRA:                  -0.049
REMARK UNBOUND:                -0.091
REMARK SMILES CCCCCC(C)=O
REMARK SMILES IDX 4 1 3 2 2 3 1 4 5 5 6 6 8 7 7 8
REMARK H PARENT
REMARK Flexibility Score: inf
ROOT
ATOM      1  C   UNL     1      28.523  45.642  -0.593  1.00  0.00     0.008 C 
ENDROOT
BRANCH   1   2
ATOM      2  C   UNL     1      27.583  46.864  -0.560  1.00  0.00     0.000 C 
BRANCH   2   3
ATOM      3  C   UNL     1      27.411  47.586  -1.908  1.00  0.00    -0.003 C 
ATOM      4  C   UNL     1      25.958  47.954  -2.208  1.00  0.00     0.004 C 
ENDBRANCH   2   3
ENDBRANCH   1   2
BRANCH   1   5
ATOM      5  C   UNL     1      29.694  45.717   0.400  1.00  0.00     0.075 C 
BRANCH   5   6
ATOM      6  C   UNL     1      30.658  44.570   0.229  1.00  0.00     0.129 C 
ATOM      7  O   UNL     1      30.539  43.823  -0.730  1.00  0.00    -0.300 OA
ATOM      8  C   UNL     1      31.756  44.319   1.219  1.00  0.00     0.087 C 
ENDBRANCH   5   6
ENDBRANCH   1   5
TORSDOF 4
ENDMDL
MODEL 3
REMARK VINA RESULT:    -3.801      2.039      4.992
REMARK INTER + INTRA:          -4.781
REMARK INTER:                  -4.720
REMARK INTRA:                  -0.062
REMARK UNBOUND:                -0.091
REMARK SMILES CCCCCC(C)=O
REMARK SMILES IDX 4 1 3 2 2 3 1 4 5 5 6 6 8 7 7 8
REMARK H PARENT
REMARK Flexibility Score: inf
ROOT
ATOM      1  C   UNL     1      27.555  45.893  -0.979  1.00  0.00     0.008 C 
ENDROOT
BRANCH   1   2
ATOM      2  C   UNL     1      28.919  45.993  -0.264  1.00  0.00     0.000 C 
BRANCH   2   3
ATOM      3  C   UNL     1      29.700  44.671  -0.169  1.00  0.00    -0.003 C 
ATOM      4  C   UNL     1      30.887  44.745   0.790  1.00  0.00     0.004 C 
ENDBRANCH   2   3
ENDBRANCH   1   2
BRANCH   1   5
ATOM      5  C   UNL     1      26.705  47.171  -0.903  1.00  0.00     0.075 C 
BRANCH   5   6
ATOM      6  C   UNL     1      26.032  47.484  -2.214  1.00  0.00     0.129 C 
ATOM      7  O   UNL     1      26.541  47.103  -3.257  1.00  0.00    -0.300 OA
ATOM      8  C   UNL     1      24.752  48.264  -2.269  1.00  0.00     0.087 C 
ENDBRANCH   5   6
ENDBRANCH   1   5
TORSDOF 4
ENDMDL
MODEL 4
REMARK VINA RESULT:    -3.767     12.570     14.478
REMARK INTER + INTRA:          -4.739
REMARK INTER:                  -4.672
REMARK INTRA:                  -0.067
REMARK UNBOUND:                -0.091
REMARK SMILES CCCCCC(C)=O
REMARK SMILES IDX 4 1 3 2 2 3 1 4 5 5 6 6 8 7 7 8
REMARK H PARENT
REMARK Flexibility Score: inf
ROOT
ATOM      1  C   UNL     1      25.871  56.996  -8.900  1.00  0.00     0.008 C 
ENDROOT
BRANCH   1   2
ATOM      2  C   UNL     1      24.626  56.090  -8.803  1.00  0.00     0.000 C 
BRANCH   2   3
ATOM      3  C   UNL     1      24.160  55.780  -7.370  1.00  0.00    -0.003 C 
ATOM      4  C   UNL     1      22.856  54.984  -7.325  1.00  0.00     0.004 C 
ENDBRANCH   2   3
ENDBRANCH   1   2
BRANCH   1   5
ATOM      5  C   UNL     1      25.557  58.477  -9.165  1.00  0.00     0.075 C 
BRANCH   5   6
ATOM      6  C   UNL     1      26.640  59.153  -9.966  1.00  0.00     0.129 C 
ATOM      7  O   UNL     1      27.277  58.505 -10.782  1.00  0.00    -0.300 OA
ATOM      8  C   UNL     1      26.963  60.605  -9.774  1.00  0.00     0.087 C 
ENDBRANCH   5   6
ENDBRANCH   1   5
TORSDOF 4
ENDMDL
MODEL 5
REMARK VINA RESULT:    -3.750     12.139     14.133
REMARK INTER + INTRA:          -4.718
REMARK INTER:                  -4.668
REMARK INTRA:                  -0.050
REMARK UNBOUND:                -0.091
REMARK SMILES CCCCCC(C)=O
REMARK SMILES IDX 4 1 3 2 2 3 1 4 5 5 6 6 8 7 7 8
REMARK H PARENT
REMARK Flexibility Score: inf
ROOT
ATOM      1  C   UNL     1      25.956  57.364  -9.283  1.00  0.00     0.008 C 
ENDROOT
BRANCH   1   2
ATOM      2  C   UNL     1      26.293  58.853  -9.506  1.00  0.00     0.000 C 
BRANCH   2   3
ATOM      3  C   UNL     1      27.469  59.115 -10.463  1.00  0.00    -0.003 C 
ATOM      4  C   UNL     1      27.838  60.595 -10.564  1.00  0.00     0.004 C 
ENDBRANCH   2   3
ENDBRANCH   1   2
BRANCH   1   5
ATOM      5  C   UNL     1      24.610  57.117  -8.584  1.00  0.00     0.075 C 
BRANCH   5   6
ATOM      6  C   UNL     1      24.529  55.740  -7.978  1.00  0.00     0.129 C 
ATOM      7  O   UNL     1      25.525  55.033  -7.955  1.00  0.00    -0.300 OA
ATOM      8  C   UNL     1      23.246  55.210  -7.411  1.00  0.00     0.087 C 
ENDBRANCH   5   6
ENDBRANCH   1   5
TORSDOF 4
ENDMDL
MODEL 6
REMARK VINA RESULT:    -3.615     13.540     15.340
REMARK INTER + INTRA:          -4.552
REMARK INTER:                  -4.497
REMARK INTRA:                  -0.055
REMARK UNBOUND:                -0.091
REMARK SMILES CCCCCC(C)=O
REMARK SMILES IDX 4 1 3 2 2 3 1 4 5 5 6 6 8 7 7 8
REMARK H PARENT
REMARK Flexibility Score: inf
ROOT
ATOM      1  C   UNL     1      26.181  58.579  -9.429  1.00  0.00     0.008 C 
ENDROOT
BRANCH   1   2
ATOM      2  C   UNL     1      25.910  57.145  -8.929  1.00  0.00     0.000 C 
BRANCH   2   3
ATOM      3  C   UNL     1      24.430  56.822  -8.658  1.00  0.00    -0.003 C 
ATOM      4  C   UNL     1      24.211  55.394  -8.161  1.00  0.00     0.004 C 
ENDBRANCH   2   3
ENDBRANCH   1   2
BRANCH   1   5
ATOM      5  C   UNL     1      27.276  58.679 -10.504  1.00  0.00     0.075 C 
BRANCH   5   6
ATOM      6  C   UNL     1      27.971  60.016 -10.483  1.00  0.00     0.129 C 
ATOM      7  O   UNL     1      27.372  60.999 -10.077  1.00  0.00    -0.300 OA
ATOM      8  C   UNL     1      29.385  60.168 -10.962  1.00  0.00     0.087 C 
ENDBRANCH   5   6
ENDBRANCH   1   5
TORSDOF 4
ENDMDL
MODEL 7
REMARK VINA RESULT:    -3.536      2.249      3.525
REMARK INTER + INTRA:          -4.454
REMARK INTER:                  -4.339
REMARK INTRA:                  -0.115
REMARK UNBOUND:                -0.091
REMARK SMILES CCCCCC(C)=O
REMARK SMILES IDX 4 1 3 2 2 3 1 4 5 5 6 6 8 7 7 8
REMARK H PARENT
REMARK Flexibility Score: inf
ROOT
ATOM      1  C   UNL     1      30.243  44.536  -0.037  1.00  0.00     0.008 C 
ENDROOT
BRANCH   1   2
ATOM      2  C   UNL     1      29.328  45.770   0.108  1.00  0.00     0.000 C 
BRANCH   2   3
ATOM      3  C   UNL     1      28.070  45.752  -0.777  1.00  0.00    -0.003 C 
ATOM      4  C   UNL     1      27.486  47.144  -1.014  1.00  0.00     0.004 C 
ENDBRANCH   2   3
ENDBRANCH   1   2
BRANCH   1   5
ATOM      5  C   UNL     1      31.307  44.404   1.065  1.00  0.00     0.075 C 
BRANCH   5   6
ATOM      6  C   UNL     1      32.237  45.589   1.100  1.00  0.00     0.129 C 
ATOM      7  O   UNL     1      32.782  45.957   0.071  1.00  0.00    -0.300 OA
ATOM      8  C   UNL     1      32.519  46.323   2.378  1.00  0.00     0.087 C 
ENDBRANCH   5   6
ENDBRANCH   1   5
TORSDOF 4
ENDMDL
MODEL 8
REMARK VINA RESULT:    -3.489      2.054      5.105
REMARK INTER + INTRA:          -4.397
REMARK INTER:                  -4.290
REMARK INTRA:                  -0.107
REMARK UNBOUND:                -0.091
REMARK SMILES CCCCCC(C)=O
REMARK SMILES IDX 4 1 3 2 2 3 1 4 5 5 6 6 8 7 7 8
REMARK H PARENT
REMARK Flexibility Score: inf
ROOT
ATOM      1  C   UNL     1      29.556  44.697  -0.302  1.00  0.00     0.008 C 
ENDROOT
BRANCH   1   2
ATOM      2  C   UNL     1      30.849  44.426   0.495  1.00  0.00     0.000 C 
BRANCH   2   3
ATOM      3  C   UNL     1      31.293  45.574   1.418  1.00  0.00    -0.003 C 
ATOM      4  C   UNL     1      32.807  45.781   1.427  1.00  0.00     0.004 C 
ENDBRANCH   2   3
ENDBRANCH   1   2
BRANCH   1   5
ATOM      5  C   UNL     1      28.951  46.092  -0.073  1.00  0.00     0.075 C 
BRANCH   5   6
ATOM      6  C   UNL     1      27.749  46.340  -0.948  1.00  0.00     0.129 C 
ATOM      7  O   UNL     1      26.891  45.476  -1.050  1.00  0.00    -0.300 OA
ATOM      8  C   UNL     1      27.586  47.624  -1.706  1.00  0.00     0.087 C 
ENDBRANCH   5   6
ENDBRANCH   1   5
TORSDOF 4
ENDMDL
MODEL 9
REMARK VINA RESULT:    -3.368     16.133     17.270
REMARK INTER + INTRA:          -4.247
REMARK INTER:                  -4.092
REMARK INTRA:                  -0.156
REMARK UNBOUND:                -0.091
REMARK SMILES CCCCCC(C)=O
REMARK SMILES IDX 4 1 3 2 2 3 1 4 5 5 6 6 8 7 7 8
REMARK H PARENT
REMARK Flexibility Score: inf
ROOT
ATOM      1  C   UNL     1      30.342  59.398 -12.380  1.00  0.00     0.008 C 
ENDROOT
BRANCH   1   2
ATOM      2  C   UNL     1      30.005  58.082 -13.112  1.00  0.00     0.000 C 
BRANCH   2   3
ATOM      3  C   UNL     1      31.202  57.143 -13.341  1.00  0.00    -0.003 C 
ATOM      4  C   UNL     1      32.305  57.776 -14.189  1.00  0.00     0.004 C 
ENDBRANCH   2   3
ENDBRANCH   1   2
BRANCH   1   5
ATOM      5  C   UNL     1      29.894  59.437 -10.910  1.00  0.00     0.075 C 
BRANCH   5   6
ATOM      6  C   UNL     1      28.455  59.863 -10.767  1.00  0.00     0.129 C 
ATOM      7  O   UNL     1      28.166  61.046 -10.859  1.00  0.00    -0.300 OA
ATOM      8  C   UNL     1      27.368  58.864 -10.502  1.00  0.00     0.087 C 
ENDBRANCH   5   6
ENDBRANCH   1   5
TORSDOF 4
ENDMDL
