MODEL 1
REMARK VINA RESULT:    -3.497      0.000      0.000
REMARK INTER + INTRA:          -8.242
REMARK INTER:                  -7.587
REMARK INTRA:                  -0.656
REMARK UNBOUND:                -0.656
REMARK SMILES CCCCCCCCCCCCCCCCCCCCCC(=O)[O-]
REMARK SMILES IDX 12 1 11 2 10 3 9 4 8 5 7 6 6 7 5 8 4 9 3 10 2 11 1 12 13 13
REMARK SMILES IDX 14 14 15 15 16 16 17 17 18 18 19 19 20 20 21 21 22 22 23 23
REMARK SMILES IDX 24 24
REMARK H PARENT
REMARK Flexibility Score: inf
ROOT
ATOM      1  C   UNL     1      10.529   6.705   8.464  1.00  0.00     0.000 C 
ENDROOT
BRANCH   1   2
ATOM      2  C   UNL     1      10.210   8.131   8.952  1.00  0.00     0.000 C 
BRANCH   2   3
ATOM      3  C   UNL     1       8.848   8.698   8.511  1.00  0.00     0.000 C 
BRANCH   3   4
ATOM      4  C   UNL     1       7.921   9.032   9.691  1.00  0.00    -0.000 C 
BRANCH   4   5
ATOM      5  C   UNL     1       7.472  10.503   9.699  1.00  0.00    -0.000 C 
BRANCH   5   6
ATOM      6  C   UNL     1       6.606  10.895   8.482  1.00  0.00    -0.000 C 
BRANCH   6   7
ATOM      7  C   UNL     1       6.043  12.322   8.606  1.00  0.00    -0.000 C 
BRANCH   7   8
ATOM      8  C   UNL     1       5.052  12.675   7.483  1.00  0.00    -0.000 C 
BRANCH   8   9
ATOM      9  C   UNL     1       3.621  12.142   7.690  1.00  0.00    -0.000 C 
BRANCH   9  10
ATOM     10  C   UNL     1       3.020  12.421   9.081  1.00  0.00    -0.000 C 
BRANCH  10  11
ATOM     11  C   UNL     1       1.864  11.470   9.459  1.00  0.00    -0.003 C 
ATOM     12  C   UNL     1       1.839  10.207   8.597  1.00  0.00     0.004 C 
ENDBRANCH  10  11
ENDBRANCH   9  10
ENDBRANCH   8   9
ENDBRANCH   7   8
ENDBRANCH   6   7
ENDBRANCH   5   6
ENDBRANCH   4   5
ENDBRANCH   3   4
ENDBRANCH   2   3
ENDBRANCH   1   2
BRANCH   1  13
ATOM     13  C   UNL     1      10.346   5.638   9.555  1.00  0.00     0.000 C 
BRANCH  13  14
ATOM     14  C   UNL     1       9.013   4.879   9.427  1.00  0.00     0.000 C 
BRANCH  14  15
ATOM     15  C   UNL     1       9.092   3.408   9.891  1.00  0.00     0.000 C 
BRANCH  15  16
ATOM     16  C   UNL     1       7.698   2.799  10.121  1.00  0.00     0.000 C 
BRANCH  16  17
ATOM     17  C   UNL     1       6.561   3.785   9.808  1.00  0.00     0.000 C 
BRANCH  17  18
ATOM     18  C   UNL     1       5.887   3.499   8.453  1.00  0.00     0.000 C 
BRANCH  18  19
ATOM     19  C   UNL     1       4.362   3.675   8.503  1.00  0.00     0.000 C 
BRANCH  19  20
ATOM     20  C   UNL     1       3.642   2.434   9.061  1.00  0.00     0.006 C 
BRANCH  20  21
ATOM     21  C   UNL     1       4.294   1.127   8.589  1.00  0.00     0.053 C 
BRANCH  21  22
ATOM     22  C   UNL     1       4.497   1.111   7.105  1.00  0.00     0.041 C 
ATOM     23  O   UNL     1       5.620   0.806   6.622  1.00  0.00    -0.550 OA
ATOM     24  O   UNL     1       3.455   1.459   6.256  1.00  0.00    -0.550 OA
ENDBRANCH  21  22
ENDBRANCH  20  21
ENDBRANCH  19  20
ENDBRANCH  18  19
ENDBRANCH  17  18
ENDBRANCH  16  17
ENDBRANCH  15  16
ENDBRANCH  14  15
ENDBRANCH  13  14
ENDBRANCH   1  13
TORSDOF 20
ENDMDL
MODEL 2
REMARK VINA RESULT:    -3.344      2.567      3.522
REMARK INTER + INTRA:          -7.908
REMARK INTER:                  -6.717
REMARK INTRA:                  -1.191
REMARK UNBOUND:                -0.656
REMARK SMILES CCCCCCCCCCCCCCCCCCCCCC(=O)[O-]
REMARK SMILES IDX 12 1 11 2 10 3 9 4 8 5 7 6 6 7 5 8 4 9 3 10 2 11 1 12 13 13
REMARK SMILES IDX 14 14 15 15 16 16 17 17 18 18 19 19 20 20 21 21 22 22 23 23
REMARK SMILES IDX 24 24
REMARK H PARENT
REMARK Flexibility Score: inf
ROOT
ATOM      1  C   UNL     1       8.704   5.368   9.143  1.00  0.00     0.000 C 
ENDROOT
BRANCH   1   2
ATOM      2  C   UNL     1       8.787   6.472   8.071  1.00  0.00     0.000 C 
BRANCH   2   3
ATOM      3  C   UNL     1       8.895   7.912   8.605  1.00  0.00     0.000 C 
BRANCH   3   4
ATOM      4  C   UNL     1       7.905   8.211   9.742  1.00  0.00    -0.000 C 
BRANCH   4   5
ATOM      5  C   UNL     1       7.815   9.711  10.076  1.00  0.00    -0.000 C 
BRANCH   5   6
ATOM      6  C   UNL     1       6.516  10.381   9.580  1.00  0.00    -0.000 C 
BRANCH   6   7
ATOM      7  C   UNL     1       6.735  11.181   8.283  1.00  0.00    -0.000 C 
BRANCH   7   8
ATOM      8  C   UNL     1       5.527  12.061   7.912  1.00  0.00    -0.000 C 
BRANCH   8   9
ATOM      9  C   UNL     1       4.381  12.056   8.941  1.00  0.00    -0.000 C 
BRANCH   9  10
ATOM     10  C   UNL     1       3.096  11.340   8.479  1.00  0.00    -0.000 C 
BRANCH  10  11
ATOM     11  C   UNL     1       1.829  11.792   9.236  1.00  0.00    -0.003 C 
ATOM     12  C   UNL     1       1.474  13.253   8.963  1.00  0.00     0.004 C 
ENDBRANCH  10  11
ENDBRANCH   9  10
ENDBRANCH   8   9
ENDBRANCH   7   8
ENDBRANCH   6   7
ENDBRANCH   5   6
ENDBRANCH   4   5
ENDBRANCH   3   4
ENDBRANCH   2   3
ENDBRANCH   1   2
BRANCH   1  13
ATOM     13  C   UNL     1       7.454   4.484   9.006  1.00  0.00     0.000 C 
BRANCH  13  14
ATOM     14  C   UNL     1       6.427   4.728  10.125  1.00  0.00     0.000 C 
BRANCH  14  15
ATOM     15  C   UNL     1       5.100   3.964   9.925  1.00  0.00     0.000 C 
BRANCH  15  16
ATOM     16  C   UNL     1       5.243   2.810   8.918  1.00  0.00     0.000 C 
BRANCH  16  17
ATOM     17  C   UNL     1       3.932   2.504   8.176  1.00  0.00     0.000 C 
BRANCH  17  18
ATOM     18  C   UNL     1       3.092   1.424   8.884  1.00  0.00     0.000 C 
BRANCH  18  19
ATOM     19  C   UNL     1       2.133   2.013   9.929  1.00  0.00     0.000 C 
BRANCH  19  20
ATOM     20  C   UNL     1       1.290   3.173   9.370  1.00  0.00     0.006 C 
BRANCH  20  21
ATOM     21  C   UNL     1      -0.106   3.231  10.005  1.00  0.00     0.053 C 
BRANCH  21  22
ATOM     22  C   UNL     1      -0.975   4.258   9.345  1.00  0.00     0.041 C 
ATOM     23  O   UNL     1      -1.921   3.901   8.594  1.00  0.00    -0.550 OA
ATOM     24  O   UNL     1      -0.723   5.610   9.539  1.00  0.00    -0.550 OA
ENDBRANCH  21  22
ENDBRANCH  20  21
ENDBRANCH  19  20
ENDBRANCH  18  19
ENDBRANCH  17  18
ENDBRANCH  16  17
ENDBRANCH  15  16
ENDBRANCH  14  15
ENDBRANCH  13  14
ENDBRANCH   1  13
TORSDOF 20
ENDMDL
MODEL 3
REMARK VINA RESULT:    -3.342      2.932      4.586
REMARK INTER + INTRA:          -7.905
REMARK INTER:                  -6.793
REMARK INTRA:                  -1.113
REMARK UNBOUND:                -0.656
REMARK SMILES CCCCCCCCCCCCCCCCCCCCCC(=O)[O-]
REMARK SMILES IDX 12 1 11 2 10 3 9 4 8 5 7 6 6 7 5 8 4 9 3 10 2 11 1 12 13 13
REMARK SMILES IDX 14 14 15 15 16 16 17 17 18 18 19 19 20 20 21 21 22 22 23 23
REMARK SMILES IDX 24 24
REMARK H PARENT
REMARK Flexibility Score: inf
ROOT
ATOM      1  C   UNL     1       6.642   4.680   9.503  1.00  0.00     0.000 C 
ENDROOT
BRANCH   1   2
ATOM      2  C   UNL     1       7.621   5.730  10.063  1.00  0.00     0.000 C 
BRANCH   2   3
ATOM      3  C   UNL     1       9.116   5.415   9.873  1.00  0.00     0.000 C 
BRANCH   3   4
ATOM      4  C   UNL     1       9.714   6.059   8.611  1.00  0.00    -0.000 C 
BRANCH   4   5
ATOM      5  C   UNL     1       9.359   7.551   8.479  1.00  0.00    -0.000 C 
BRANCH   5   6
ATOM      6  C   UNL     1       9.469   8.335   9.804  1.00  0.00    -0.000 C 
BRANCH   6   7
ATOM      7  C   UNL     1       8.434   9.472   9.892  1.00  0.00    -0.000 C 
BRANCH   7   8
ATOM      8  C   UNL     1       7.687   9.705   8.566  1.00  0.00    -0.000 C 
BRANCH   8   9
ATOM      9  C   UNL     1       7.021  11.087   8.432  1.00  0.00    -0.000 C 
BRANCH   9  10
ATOM     10  C   UNL     1       5.808  11.317   9.355  1.00  0.00    -0.000 C 
BRANCH  10  11
ATOM     11  C   UNL     1       4.644  12.067   8.674  1.00  0.00    -0.003 C 
ATOM     12  C   UNL     1       4.521  11.731   7.187  1.00  0.00     0.004 C 
ENDBRANCH  10  11
ENDBRANCH   9  10
ENDBRANCH   8   9
ENDBRANCH   7   8
ENDBRANCH   6   7
ENDBRANCH   5   6
ENDBRANCH   4   5
ENDBRANCH   3   4
ENDBRANCH   2   3
ENDBRANCH   1   2
BRANCH   1  13
ATOM     13  C   UNL     1       7.191   3.245   9.571  1.00  0.00     0.000 C 
BRANCH  13  14
ATOM     14  C   UNL     1       6.249   2.217   8.921  1.00  0.00     0.000 C 
BRANCH  14  15
ATOM     15  C   UNL     1       5.448   1.380   9.942  1.00  0.00     0.000 C 
BRANCH  15  16
ATOM     16  C   UNL     1       4.007   1.893  10.108  1.00  0.00     0.000 C 
BRANCH  16  17
ATOM     17  C   UNL     1       3.607   2.898   9.016  1.00  0.00     0.000 C 
BRANCH  17  18
ATOM     18  C   UNL     1       2.214   3.510   9.259  1.00  0.00     0.000 C 
BRANCH  18  19
ATOM     19  C   UNL     1       1.228   2.507   9.876  1.00  0.00     0.000 C 
BRANCH  19  20
ATOM     20  C   UNL     1      -0.237   2.839   9.542  1.00  0.00     0.006 C 
BRANCH  20  21
ATOM     21  C   UNL     1      -0.489   4.351   9.481  1.00  0.00     0.053 C 
BRANCH  21  22
ATOM     22  C   UNL     1      -1.778   4.674   8.790  1.00  0.00     0.041 C 
ATOM     23  O   UNL     1      -2.629   3.769   8.580  1.00  0.00    -0.550 OA
ATOM     24  O   UNL     1      -2.029   5.969   8.355  1.00  0.00    -0.550 OA
ENDBRANCH  21  22
ENDBRANCH  20  21
ENDBRANCH  19  20
ENDBRANCH  18  19
ENDBRANCH  17  18
ENDBRANCH  16  17
ENDBRANCH  15  16
ENDBRANCH  14  15
ENDBRANCH  13  14
ENDBRANCH   1  13
TORSDOF 20
ENDMDL
MODEL 4
REMARK VINA RESULT:    -3.304      1.552      2.200
REMARK INTER + INTRA:          -7.822
REMARK INTER:                  -6.759
REMARK INTRA:                  -1.063
REMARK UNBOUND:                -0.656
REMARK SMILES CCCCCCCCCCCCCCCCCCCCCC(=O)[O-]
REMARK SMILES IDX 12 1 11 2 10 3 9 4 8 5 7 6 6 7 5 8 4 9 3 10 2 11 1 12 13 13
REMARK SMILES IDX 14 14 15 15 16 16 17 17 18 18 19 19 20 20 21 21 22 22 23 23
REMARK SMILES IDX 24 24
REMARK H PARENT
REMARK Flexibility Score: inf
ROOT
ATOM      1  C   UNL     1       9.009   7.336   7.622  1.00  0.00     0.000 C 
ENDROOT
BRANCH   1   2
ATOM      2  C   UNL     1       8.795   8.841   7.867  1.00  0.00     0.000 C 
BRANCH   2   3
ATOM      3  C   UNL     1       8.620   9.258   9.340  1.00  0.00     0.000 C 
BRANCH   3   4
ATOM      4  C   UNL     1       7.453  10.235   9.557  1.00  0.00    -0.000 C 
BRANCH   4   5
ATOM      5  C   UNL     1       7.058  10.986   8.273  1.00  0.00    -0.000 C 
BRANCH   5   6
ATOM      6  C   UNL     1       6.171  12.224   8.526  1.00  0.00    -0.000 C 
BRANCH   6   7
ATOM      7  C   UNL     1       5.584  12.235   9.950  1.00  0.00    -0.000 C 
BRANCH   7   8
ATOM      8  C   UNL     1       4.365  13.166  10.087  1.00  0.00    -0.000 C 
BRANCH   8   9
ATOM      9  C   UNL     1       3.787  13.676   8.754  1.00  0.00    -0.000 C 
BRANCH   9  10
ATOM     10  C   UNL     1       2.508  12.957   8.281  1.00  0.00    -0.000 C 
BRANCH  10  11
ATOM     11  C   UNL     1       2.659  11.424   8.186  1.00  0.00    -0.003 C 
ATOM     12  C   UNL     1       1.815  10.686   9.225  1.00  0.00     0.004 C 
ENDBRANCH  10  11
ENDBRANCH   9  10
ENDBRANCH   8   9
ENDBRANCH   7   8
ENDBRANCH   6   7
ENDBRANCH   5   6
ENDBRANCH   4   5
ENDBRANCH   3   4
ENDBRANCH   2   3
ENDBRANCH   1   2
BRANCH   1  13
ATOM     13  C   UNL     1      10.061   6.715   8.556  1.00  0.00     0.000 C 
BRANCH  13  14
ATOM     14  C   UNL     1       9.466   5.658   9.502  1.00  0.00     0.000 C 
BRANCH  14  15
ATOM     15  C   UNL     1       7.967   5.869   9.802  1.00  0.00     0.000 C 
BRANCH  15  16
ATOM     16  C   UNL     1       7.250   4.547  10.125  1.00  0.00     0.000 C 
BRANCH  16  17
ATOM     17  C   UNL     1       8.133   3.316   9.871  1.00  0.00     0.000 C 
BRANCH  17  18
ATOM     18  C   UNL     1       7.320   2.010   9.803  1.00  0.00     0.000 C 
BRANCH  18  19
ATOM     19  C   UNL     1       5.808   2.260   9.701  1.00  0.00     0.000 C 
BRANCH  19  20
ATOM     20  C   UNL     1       5.201   1.692   8.406  1.00  0.00     0.006 C 
BRANCH  20  21
ATOM     21  C   UNL     1       4.177   2.648   7.780  1.00  0.00     0.053 C 
BRANCH  21  22
ATOM     22  C   UNL     1       3.260   3.234   8.810  1.00  0.00     0.041 C 
ATOM     23  O   UNL     1       2.040   2.923   8.823  1.00  0.00    -0.550 OA
ATOM     24  O   UNL     1       3.749   4.143   9.739  1.00  0.00    -0.550 OA
ENDBRANCH  21  22
ENDBRANCH  20  21
ENDBRANCH  19  20
ENDBRANCH  18  19
ENDBRANCH  17  18
ENDBRANCH  16  17
ENDBRANCH  15  16
ENDBRANCH  14  15
ENDBRANCH  13  14
ENDBRANCH   1  13
TORSDOF 20
ENDMDL
MODEL 5
REMARK VINA RESULT:    -3.256      3.198      8.826
REMARK INTER + INTRA:          -7.718
REMARK INTER:                  -6.420
REMARK INTRA:                  -1.299
REMARK UNBOUND:                -0.656
REMARK SMILES CCCCCCCCCCCCCCCCCCCCCC(=O)[O-]
REMARK SMILES IDX 12 1 11 2 10 3 9 4 8 5 7 6 6 7 5 8 4 9 3 10 2 11 1 12 13 13
REMARK SMILES IDX 14 14 15 15 16 16 17 17 18 18 19 19 20 20 21 21 22 22 23 23
REMARK SMILES IDX 24 24
REMARK H PARENT
REMARK Flexibility Score: inf
ROOT
ATOM      1  C   UNL     1       7.100   9.535  10.087  1.00  0.00     0.000 C 
ENDROOT
BRANCH   1   2
ATOM      2  C   UNL     1       8.614   9.820  10.104  1.00  0.00     0.000 C 
BRANCH   2   3
ATOM      3  C   UNL     1       9.510   8.695   9.554  1.00  0.00     0.000 C 
BRANCH   3   4
ATOM      4  C   UNL     1       8.747   7.690   8.676  1.00  0.00    -0.000 C 
BRANCH   4   5
ATOM      5  C   UNL     1       9.491   6.352   8.518  1.00  0.00    -0.000 C 
BRANCH   5   6
ATOM      6  C   UNL     1       9.757   5.628   9.856  1.00  0.00    -0.000 C 
BRANCH   6   7
ATOM      7  C   UNL     1       8.996   4.293   9.954  1.00  0.00    -0.000 C 
BRANCH   7   8
ATOM      8  C   UNL     1       7.476   4.456   9.776  1.00  0.00    -0.000 C 
BRANCH   8   9
ATOM      9  C   UNL     1       6.779   3.290   9.051  1.00  0.00    -0.000 C 
BRANCH   9  10
ATOM     10  C   UNL     1       5.274   3.146   9.347  1.00  0.00    -0.000 C 
BRANCH  10  11
ATOM     11  C   UNL     1       4.676   1.801   8.882  1.00  0.00    -0.003 C 
ATOM     12  C   UNL     1       5.138   1.409   7.478  1.00  0.00     0.004 C 
ENDBRANCH  10  11
ENDBRANCH   9  10
ENDBRANCH   8   9
ENDBRANCH   7   8
ENDBRANCH   6   7
ENDBRANCH   5   6
ENDBRANCH   4   5
ENDBRANCH   3   4
ENDBRANCH   2   3
ENDBRANCH   1   2
BRANCH   1  13
ATOM     13  C   UNL     1       6.259  10.758   9.684  1.00  0.00     0.000 C 
BRANCH  13  14
ATOM     14  C   UNL     1       7.051  11.773   8.841  1.00  0.00     0.000 C 
BRANCH  14  15
ATOM     15  C   UNL     1       6.169  12.613   7.893  1.00  0.00     0.000 C 
BRANCH  15  16
ATOM     16  C   UNL     1       4.905  11.854   7.456  1.00  0.00     0.000 C 
BRANCH  16  17
ATOM     17  C   UNL     1       3.811  12.787   6.911  1.00  0.00     0.000 C 
BRANCH  17  18
ATOM     18  C   UNL     1       3.236  13.718   7.995  1.00  0.00     0.000 C 
BRANCH  18  19
ATOM     19  C   UNL     1       1.734  13.983   7.810  1.00  0.00     0.000 C 
BRANCH  19  20
ATOM     20  C   UNL     1       0.900  13.520   9.017  1.00  0.00     0.006 C 
BRANCH  20  21
ATOM     21  C   UNL     1       1.772  12.911  10.123  1.00  0.00     0.053 C 
BRANCH  21  22
ATOM     22  C   UNL     1       1.798  11.415  10.052  1.00  0.00     0.041 C 
ATOM     23  O   UNL     1       0.723  10.766   9.965  1.00  0.00    -0.550 OA
ATOM     24  O   UNL     1       3.009  10.737  10.107  1.00  0.00    -0.550 OA
ENDBRANCH  21  22
ENDBRANCH  20  21
ENDBRANCH  19  20
ENDBRANCH  18  19
ENDBRANCH  17  18
ENDBRANCH  16  17
ENDBRANCH  15  16
ENDBRANCH  14  15
ENDBRANCH  13  14
ENDBRANCH   1  13
TORSDOF 20
ENDMDL
MODEL 6
REMARK VINA RESULT:    -3.157      4.281      8.129
REMARK INTER + INTRA:          -7.504
REMARK INTER:                  -6.668
REMARK INTRA:                  -0.837
REMARK UNBOUND:                -0.656
REMARK SMILES CCCCCCCCCCCCCCCCCCCCCC(=O)[O-]
REMARK SMILES IDX 12 1 11 2 10 3 9 4 8 5 7 6 6 7 5 8 4 9 3 10 2 11 1 12 13 13
REMARK SMILES IDX 14 14 15 15 16 16 17 17 18 18 19 19 20 20 21 21 22 22 23 23
REMARK SMILES IDX 24 24
REMARK H PARENT
REMARK Flexibility Score: inf
ROOT
ATOM      1  C   UNL     1       7.384   2.936   9.019  1.00  0.00     0.000 C 
ENDROOT
BRANCH   1   2
ATOM      2  C   UNL     1       5.915   3.371   9.177  1.00  0.00     0.000 C 
BRANCH   2   3
ATOM      3  C   UNL     1       4.862   2.314   8.792  1.00  0.00     0.000 C 
BRANCH   3   4
ATOM      4  C   UNL     1       3.513   2.926   8.382  1.00  0.00    -0.000 C 
BRANCH   4   5
ATOM      5  C   UNL     1       2.598   3.213   9.586  1.00  0.00    -0.000 C 
BRANCH   5   6
ATOM      6  C   UNL     1       1.697   2.022   9.979  1.00  0.00    -0.000 C 
BRANCH   6   7
ATOM      7  C   UNL     1       0.218   2.277   9.636  1.00  0.00    -0.000 C 
BRANCH   7   8
ATOM      8  C   UNL     1      -0.131   3.775   9.571  1.00  0.00    -0.000 C 
BRANCH   8   9
ATOM      9  C   UNL     1      -1.525   4.091   8.997  1.00  0.00    -0.000 C 
BRANCH   9  10
ATOM     10  C   UNL     1      -2.228   5.308   9.629  1.00  0.00    -0.000 C 
BRANCH  10  11
ATOM     11  C   UNL     1      -1.284   6.500   9.895  1.00  0.00    -0.003 C 
ATOM     12  C   UNL     1      -2.037   7.824  10.031  1.00  0.00     0.004 C 
ENDBRANCH  10  11
ENDBRANCH   9  10
ENDBRANCH   8   9
ENDBRANCH   7   8
ENDBRANCH   6   7
ENDBRANCH   5   6
ENDBRANCH   4   5
ENDBRANCH   3   4
ENDBRANCH   2   3
ENDBRANCH   1   2
BRANCH   1  13
ATOM     13  C   UNL     1       8.299   3.489  10.124  1.00  0.00     0.000 C 
BRANCH  13  14
ATOM     14  C   UNL     1       8.609   4.985   9.947  1.00  0.00     0.000 C 
BRANCH  14  15
ATOM     15  C   UNL     1       8.344   5.507   8.519  1.00  0.00     0.000 C 
BRANCH  15  16
ATOM     16  C   UNL     1       8.867   6.940   8.320  1.00  0.00     0.000 C 
BRANCH  16  17
ATOM     17  C   UNL     1       9.548   7.502   9.578  1.00  0.00     0.000 C 
BRANCH  17  18
ATOM     18  C   UNL     1       9.274   9.005   9.775  1.00  0.00     0.000 C 
BRANCH  18  19
ATOM     19  C   UNL     1       7.775   9.340   9.756  1.00  0.00     0.000 C 
BRANCH  19  20
ATOM     20  C   UNL     1       7.472  10.651   9.009  1.00  0.00     0.006 C 
BRANCH  20  21
ATOM     21  C   UNL     1       6.086  11.208   9.357  1.00  0.00     0.053 C 
BRANCH  21  22
ATOM     22  C   UNL     1       5.639  12.244   8.371  1.00  0.00     0.041 C 
ATOM     23  O   UNL     1       4.654  12.020   7.619  1.00  0.00    -0.550 OA
ATOM     24  O   UNL     1       6.326  13.446   8.265  1.00  0.00    -0.550 OA
ENDBRANCH  21  22
ENDBRANCH  20  21
ENDBRANCH  19  20
ENDBRANCH  18  19
ENDBRANCH  17  18
ENDBRANCH  16  17
ENDBRANCH  15  16
ENDBRANCH  14  15
ENDBRANCH  13  14
ENDBRANCH   1  13
TORSDOF 20
ENDMDL
MODEL 7
REMARK VINA RESULT:    -3.004      3.068      4.784
REMARK INTER + INTRA:          -7.171
REMARK INTER:                  -6.096
REMARK INTRA:                  -1.075
REMARK UNBOUND:                -0.656
REMARK SMILES CCCCCCCCCCCCCCCCCCCCCC(=O)[O-]
REMARK SMILES IDX 12 1 11 2 10 3 9 4 8 5 7 6 6 7 5 8 4 9 3 10 2 11 1 12 13 13
REMARK SMILES IDX 14 14 15 15 16 16 17 17 18 18 19 19 20 20 21 21 22 22 23 23
REMARK SMILES IDX 24 24
REMARK H PARENT
REMARK Flexibility Score: inf
ROOT
ATOM      1  C   UNL     1       7.498   3.882   9.743  1.00  0.00     0.000 C 
ENDROOT
BRANCH   1   2
ATOM      2  C   UNL     1       9.016   4.140   9.678  1.00  0.00     0.000 C 
BRANCH   2   3
ATOM      3  C   UNL     1       9.445   5.616   9.765  1.00  0.00     0.000 C 
BRANCH   3   4
ATOM      4  C   UNL     1       8.278   6.567  10.079  1.00  0.00    -0.000 C 
BRANCH   4   5
ATOM      5  C   UNL     1       8.244   7.795   9.152  1.00  0.00    -0.000 C 
BRANCH   5   6
ATOM      6  C   UNL     1       8.094   9.135   9.903  1.00  0.00    -0.000 C 
BRANCH   6   7
ATOM      7  C   UNL     1       7.629  10.271   8.973  1.00  0.00    -0.000 C 
BRANCH   7   8
ATOM      8  C   UNL     1       6.500  11.121   9.585  1.00  0.00    -0.000 C 
BRANCH   8   9
ATOM      9  C   UNL     1       5.372  11.501   8.607  1.00  0.00    -0.000 C 
BRANCH   9  10
ATOM     10  C   UNL     1       4.894  12.962   8.702  1.00  0.00    -0.000 C 
BRANCH  10  11
ATOM     11  C   UNL     1       4.620  13.616   7.331  1.00  0.00    -0.003 C 
ATOM     12  C   UNL     1       3.148  13.534   6.927  1.00  0.00     0.004 C 
ENDBRANCH  10  11
ENDBRANCH   9  10
ENDBRANCH   8   9
ENDBRANCH   7   8
ENDBRANCH   6   7
ENDBRANCH   5   6
ENDBRANCH   4   5
ENDBRANCH   3   4
ENDBRANCH   2   3
ENDBRANCH   1   2
BRANCH   1  13
ATOM     13  C   UNL     1       7.089   2.528   9.139  1.00  0.00     0.000 C 
BRANCH  13  14
ATOM     14  C   UNL     1       5.723   2.581   8.434  1.00  0.00     0.000 C 
BRANCH  14  15
ATOM     15  C   UNL     1       4.562   2.998   9.363  1.00  0.00     0.000 C 
BRANCH  15  16
ATOM     16  C   UNL     1       3.481   1.909   9.463  1.00  0.00     0.000 C 
BRANCH  16  17
ATOM     17  C   UNL     1       2.152   2.442  10.020  1.00  0.00     0.000 C 
BRANCH  17  18
ATOM     18  C   UNL     1       1.865   3.889   9.577  1.00  0.00     0.000 C 
BRANCH  18  19
ATOM     19  C   UNL     1       0.531   4.421  10.125  1.00  0.00     0.000 C 
BRANCH  19  20
ATOM     20  C   UNL     1       0.453   5.958  10.099  1.00  0.00     0.006 C 
BRANCH  20  21
ATOM     21  C   UNL     1       1.842   6.606  10.026  1.00  0.00     0.053 C 
BRANCH  21  22
ATOM     22  C   UNL     1       1.754   8.089   9.826  1.00  0.00     0.041 C 
ATOM     23  O   UNL     1       0.700   8.606   9.372  1.00  0.00    -0.550 OA
ATOM     24  O   UNL     1       2.846   8.895  10.117  1.00  0.00    -0.550 OA
ENDBRANCH  21  22
ENDBRANCH  20  21
ENDBRANCH  19  20
ENDBRANCH  18  19
ENDBRANCH  17  18
ENDBRANCH  16  17
ENDBRANCH  15  16
ENDBRANCH  14  15
ENDBRANCH  13  14
ENDBRANCH   1  13
TORSDOF 20
ENDMDL
MODEL 8
REMARK VINA RESULT:    -2.948      2.154      2.526
REMARK INTER + INTRA:          -7.050
REMARK INTER:                  -6.047
REMARK INTRA:                  -1.003
REMARK UNBOUND:                -0.656
REMARK SMILES CCCCCCCCCCCCCCCCCCCCCC(=O)[O-]
REMARK SMILES IDX 12 1 11 2 10 3 9 4 8 5 7 6 6 7 5 8 4 9 3 10 2 11 1 12 13 13
REMARK SMILES IDX 14 14 15 15 16 16 17 17 18 18 19 19 20 20 21 21 22 22 23 23
REMARK SMILES IDX 24 24
REMARK H PARENT
REMARK Flexibility Score: inf
ROOT
ATOM      1  C   UNL     1      10.408   6.701   8.154  1.00  0.00     0.000 C 
ENDROOT
BRANCH   1   2
ATOM      2  C   UNL     1      10.152   8.204   8.374  1.00  0.00     0.000 C 
BRANCH   2   3
ATOM      3  C   UNL     1       8.676   8.643   8.329  1.00  0.00     0.000 C 
BRANCH   3   4
ATOM      4  C   UNL     1       8.090   8.933   9.720  1.00  0.00    -0.000 C 
BRANCH   4   5
ATOM      5  C   UNL     1       7.792  10.426   9.942  1.00  0.00    -0.000 C 
BRANCH   5   6
ATOM      6  C   UNL     1       6.839  11.032   8.889  1.00  0.00    -0.000 C 
BRANCH   6   7
ATOM      7  C   UNL     1       5.616  11.709   9.535  1.00  0.00    -0.000 C 
BRANCH   7   8
ATOM      8  C   UNL     1       4.470  11.952   8.536  1.00  0.00    -0.000 C 
BRANCH   8   9
ATOM      9  C   UNL     1       4.453  13.354   7.898  1.00  0.00    -0.000 C 
BRANCH   9  10
ATOM     10  C   UNL     1       3.080  14.052   7.898  1.00  0.00    -0.000 C 
BRANCH  10  11
ATOM     11  C   UNL     1       1.891  13.082   8.073  1.00  0.00    -0.003 C 
ATOM     12  C   UNL     1       0.847  13.608   9.059  1.00  0.00     0.004 C 
ENDBRANCH  10  11
ENDBRANCH   9  10
ENDBRANCH   8   9
ENDBRANCH   7   8
ENDBRANCH   6   7
ENDBRANCH   5   6
ENDBRANCH   4   5
ENDBRANCH   3   4
ENDBRANCH   2   3
ENDBRANCH   1   2
BRANCH   1  13
ATOM     13  C   UNL     1      10.143   5.853   9.409  1.00  0.00     0.000 C 
BRANCH  13  14
ATOM     14  C   UNL     1       9.039   4.803   9.196  1.00  0.00     0.000 C 
BRANCH  14  15
ATOM     15  C   UNL     1       9.235   3.520  10.032  1.00  0.00     0.000 C 
BRANCH  15  16
ATOM     16  C   UNL     1       7.945   2.688  10.125  1.00  0.00     0.000 C 
BRANCH  16  17
ATOM     17  C   UNL     1       6.677   3.557  10.121  1.00  0.00     0.000 C 
BRANCH  17  18
ATOM     18  C   UNL     1       5.484   2.856   9.443  1.00  0.00     0.000 C 
BRANCH  18  19
ATOM     19  C   UNL     1       4.413   3.847   8.961  1.00  0.00     0.000 C 
BRANCH  19  20
ATOM     20  C   UNL     1       3.241   3.977   9.950  1.00  0.00     0.006 C 
BRANCH  20  21
ATOM     21  C   UNL     1       2.016   3.168   9.504  1.00  0.00     0.053 C 
BRANCH  21  22
ATOM     22  C   UNL     1       0.794   4.028   9.387  1.00  0.00     0.041 C 
ATOM     23  O   UNL     1      -0.230   3.598   8.794  1.00  0.00    -0.550 OA
ATOM     24  O   UNL     1       0.797   5.314   9.911  1.00  0.00    -0.550 OA
ENDBRANCH  21  22
ENDBRANCH  20  21
ENDBRANCH  19  20
ENDBRANCH  18  19
ENDBRANCH  17  18
ENDBRANCH  16  17
ENDBRANCH  15  16
ENDBRANCH  14  15
ENDBRANCH  13  14
ENDBRANCH   1  13
TORSDOF 20
ENDMDL
MODEL 9
REMARK VINA RESULT:    -2.841      2.787      8.007
REMARK INTER + INTRA:          -6.818
REMARK INTER:                  -5.896
REMARK INTRA:                  -0.922
REMARK UNBOUND:                -0.656
REMARK SMILES CCCCCCCCCCCCCCCCCCCCCC(=O)[O-]
REMARK SMILES IDX 12 1 11 2 10 3 9 4 8 5 7 6 6 7 5 8 4 9 3 10 2 11 1 12 13 13
REMARK SMILES IDX 14 14 15 15 16 16 17 17 18 18 19 19 20 20 21 21 22 22 23 23
REMARK SMILES IDX 24 24
REMARK H PARENT
REMARK Flexibility Score: inf
ROOT
ATOM      1  C   UNL     1       8.698   6.461   7.992  1.00  0.00     0.000 C 
ENDROOT
BRANCH   1   2
ATOM      2  C   UNL     1       8.240   6.046   9.404  1.00  0.00     0.000 C 
BRANCH   2   3
ATOM      3  C   UNL     1       9.143   5.028  10.124  1.00  0.00     0.000 C 
BRANCH   3   4
ATOM      4  C   UNL     1       9.194   3.662   9.421  1.00  0.00    -0.000 C 
BRANCH   4   5
ATOM      5  C   UNL     1       8.076   2.711   9.884  1.00  0.00    -0.000 C 
BRANCH   5   6
ATOM      6  C   UNL     1       6.723   3.414  10.124  1.00  0.00    -0.000 C 
BRANCH   6   7
ATOM      7  C   UNL     1       5.817   3.368   8.880  1.00  0.00    -0.000 C 
BRANCH   7   8
ATOM      8  C   UNL     1       5.671   1.950   8.299  1.00  0.00    -0.000 C 
BRANCH   8   9
ATOM      9  C   UNL     1       4.285   1.308   8.499  1.00  0.00    -0.000 C 
BRANCH   9  10
ATOM     10  C   UNL     1       3.108   2.302   8.542  1.00  0.00    -0.000 C 
BRANCH  10  11
ATOM     11  C   UNL     1       2.363   2.322   9.894  1.00  0.00    -0.003 C 
ATOM     12  C   UNL     1       1.605   3.630  10.125  1.00  0.00     0.004 C 
ENDBRANCH  10  11
ENDBRANCH   9  10
ENDBRANCH   8   9
ENDBRANCH   7   8
ENDBRANCH   6   7
ENDBRANCH   5   6
ENDBRANCH   4   5
ENDBRANCH   3   4
ENDBRANCH   2   3
ENDBRANCH   1   2
BRANCH   1  13
ATOM     13  C   UNL     1       9.028   7.959   7.880  1.00  0.00     0.000 C 
BRANCH  13  14
ATOM     14  C   UNL     1       8.496   8.776   9.069  1.00  0.00     0.000 C 
BRANCH  14  15
ATOM     15  C   UNL     1       7.826  10.105   8.657  1.00  0.00     0.000 C 
BRANCH  15  16
ATOM     16  C   UNL     1       7.271  10.873   9.869  1.00  0.00     0.000 C 
BRANCH  16  17
ATOM     17  C   UNL     1       5.787  11.238   9.710  1.00  0.00     0.000 C 
BRANCH  17  18
ATOM     18  C   UNL     1       5.435  11.666   8.273  1.00  0.00     0.000 C 
BRANCH  18  19
ATOM     19  C   UNL     1       3.924  11.628   7.998  1.00  0.00     0.000 C 
BRANCH  19  20
ATOM     20  C   UNL     1       3.088  11.950   9.250  1.00  0.00     0.006 C 
BRANCH  20  21
ATOM     21  C   UNL     1       1.595  11.672   9.036  1.00  0.00     0.053 C 
BRANCH  21  22
ATOM     22  C   UNL     1       1.314  10.206   8.910  1.00  0.00     0.041 C 
ATOM     23  O   UNL     1       0.813   9.571   9.876  1.00  0.00    -0.550 OA
ATOM     24  O   UNL     1       1.630   9.535   7.736  1.00  0.00    -0.550 OA
ENDBRANCH  21  22
ENDBRANCH  20  21
ENDBRANCH  19  20
ENDBRANCH  18  19
ENDBRANCH  17  18
ENDBRANCH  16  17
ENDBRANCH  15  16
ENDBRANCH  14  15
ENDBRANCH  13  14
ENDBRANCH   1  13
TORSDOF 20
ENDMDL
