MODEL 1
REMARK VINA RESULT:    -2.992      0.000      0.000
REMARK INTER + INTRA:          -3.917
REMARK INTER:                  -3.517
REMARK INTRA:                  -0.400
REMARK UNBOUND:                -0.400
REMARK SMILES [NH3+][C@@H](CO)C(=O)[O-]
REMARK SMILES IDX 3 1 2 2 1 3 5 7 6 8 7 9 4 10
REMARK H PARENT 1 4 1 5 1 6 4 11
REMARK Flexibility Score: inf
ROOT
ATOM      1  C   UNL     1     124.891 142.315 135.838  1.00  0.00     0.227 C 
ENDROOT
BRANCH   1   2
ATOM      2  C   UNL     1     125.308 142.088 137.299  1.00  0.00     0.253 C 
BRANCH   2   3
ATOM      3  N   UNL     1     126.243 143.125 137.756  1.00  0.00    -0.348 N 
ATOM      4  H   UNL     1     125.750 143.787 138.398  1.00  0.00     0.345 HD
ATOM      5  H   UNL     1     126.596 143.667 136.935  1.00  0.00     0.345 HD
ATOM      6  H   UNL     1     127.056 142.702 138.261  1.00  0.00     0.345 HD
ENDBRANCH   2   3
BRANCH   2   7
ATOM      7  C   UNL     1     125.897 140.713 137.481  1.00  0.00     0.102 C 
ATOM      8  O   UNL     1     127.144 140.538 137.442  1.00  0.00    -0.544 OA
ATOM      9  O   UNL     1     125.058 139.619 137.653  1.00  0.00    -0.544 OA
ENDBRANCH   2   7
ENDBRANCH   1   2
BRANCH   1  10
ATOM     10  O   UNL     1     125.229 141.208 135.047  1.00  0.00    -0.390 OA
ATOM     11  H   UNL     1     124.490 140.555 135.156  1.00  0.00     0.210 HD
ENDBRANCH   1  10
TORSDOF 4
ENDMDL
MODEL 2
REMARK VINA RESULT:    -2.956      1.292      2.605
REMARK INTER + INTRA:          -3.874
REMARK INTER:                  -3.636
REMARK INTRA:                  -0.239
REMARK UNBOUND:                -0.400
REMARK SMILES [NH3+][C@@H](CO)C(=O)[O-]
REMARK SMILES IDX 3 1 2 2 1 3 5 7 6 8 7 9 4 10
REMARK H PARENT 1 4 1 5 1 6 4 11
REMARK Flexibility Score: inf
ROOT
ATOM      1  C   UNL     1     125.864 140.149 137.653  1.00  0.00     0.227 C 
ENDROOT
BRANCH   1   2
ATOM      2  C   UNL     1     126.273 141.389 136.842  1.00  0.00     0.253 C 
BRANCH   2   3
ATOM      3  N   UNL     1     126.344 142.584 137.692  1.00  0.00    -0.348 N 
ATOM      4  H   UNL     1     126.389 142.300 138.698  1.00  0.00     0.345 HD
ATOM      5  H   UNL     1     125.487 143.166 137.555  1.00  0.00     0.345 HD
ATOM      6  H   UNL     1     127.188 143.160 137.463  1.00  0.00     0.345 HD
ENDBRANCH   2   3
BRANCH   2   7
ATOM      7  C   UNL     1     125.335 141.605 135.683  1.00  0.00     0.102 C 
ATOM      8  O   UNL     1     125.688 141.319 134.508  1.00  0.00    -0.544 OA
ATOM      9  O   UNL     1     124.082 142.164 135.902  1.00  0.00    -0.544 OA
ENDBRANCH   2   7
ENDBRANCH   1   2
BRANCH   1  10
ATOM     10  O   UNL     1     124.522 140.235 138.049  1.00  0.00    -0.390 OA
ATOM     11  H   UNL     1     123.983 140.108 137.225  1.00  0.00     0.210 HD
ENDBRANCH   1  10
TORSDOF 4
ENDMDL
MODEL 3
REMARK VINA RESULT:    -2.802      2.014      2.436
REMARK INTER + INTRA:          -3.693
REMARK INTER:                  -3.672
REMARK INTRA:                  -0.021
REMARK UNBOUND:                -0.400
REMARK SMILES [NH3+][C@@H](CO)C(=O)[O-]
REMARK SMILES IDX 3 1 2 2 1 3 5 7 6 8 7 9 4 10
REMARK H PARENT 1 4 1 5 1 6 4 11
REMARK Flexibility Score: inf
ROOT
ATOM      1  C   UNL     1     124.441 142.759 135.503  1.00  0.00     0.227 C 
ENDROOT
BRANCH   1   2
ATOM      2  C   UNL     1     125.640 141.825 135.277  1.00  0.00     0.253 C 
BRANCH   2   3
ATOM      3  N   UNL     1     125.493 141.058 134.033  1.00  0.00    -0.348 N 
ATOM      4  H   UNL     1     124.494 141.072 133.726  1.00  0.00     0.345 HD
ATOM      5  H   UNL     1     125.771 140.063 134.197  1.00  0.00     0.345 HD
ATOM      6  H   UNL     1     126.090 141.458 133.272  1.00  0.00     0.345 HD
ENDBRANCH   2   3
BRANCH   2   7
ATOM      7  C   UNL     1     125.836 140.908 136.457  1.00  0.00     0.102 C 
ATOM      8  O   UNL     1     124.876 140.229 136.908  1.00  0.00    -0.544 OA
ATOM      9  O   UNL     1     127.075 140.840 137.081  1.00  0.00    -0.544 OA
ENDBRANCH   2   7
ENDBRANCH   1   2
BRANCH   1  10
ATOM     10  O   UNL     1     123.615 142.790 134.370  1.00  0.00    -0.390 OA
ATOM     11  H   UNL     1     123.258 143.714 134.315  1.00  0.00     0.210 HD
ENDBRANCH   1  10
TORSDOF 4
ENDMDL
MODEL 4
REMARK VINA RESULT:    -2.793      1.979      3.009
REMARK INTER + INTRA:          -3.683
REMARK INTER:                  -3.678
REMARK INTRA:                  -0.005
REMARK UNBOUND:                -0.400
REMARK SMILES [NH3+][C@@H](CO)C(=O)[O-]
REMARK SMILES IDX 3 1 2 2 1 3 5 7 6 8 7 9 4 10
REMARK H PARENT 1 4 1 5 1 6 4 11
REMARK Flexibility Score: inf
ROOT
ATOM      1  C   UNL     1     126.197 141.398 137.556  1.00  0.00     0.227 C 
ENDROOT
BRANCH   1   2
ATOM      2  C   UNL     1     125.308 141.179 136.321  1.00  0.00     0.253 C 
BRANCH   2   3
ATOM      3  N   UNL     1     126.052 141.420 135.078  1.00  0.00    -0.348 N 
ATOM      4  H   UNL     1     125.712 142.300 134.628  1.00  0.00     0.345 HD
ATOM      5  H   UNL     1     125.894 140.629 134.413  1.00  0.00     0.345 HD
ATOM      6  H   UNL     1     127.079 141.508 135.265  1.00  0.00     0.345 HD
ENDBRANCH   2   3
BRANCH   2   7
ATOM      7  C   UNL     1     124.075 142.042 136.388  1.00  0.00     0.102 C 
ATOM      8  O   UNL     1     123.816 142.865 135.469  1.00  0.00    -0.544 OA
ATOM      9  O   UNL     1     123.234 141.963 137.491  1.00  0.00    -0.544 OA
ENDBRANCH   2   7
ENDBRANCH   1   2
BRANCH   1  10
ATOM     10  O   UNL     1     127.476 140.865 137.349  1.00  0.00    -0.390 OA
ATOM     11  H   UNL     1     127.358 139.881 137.284  1.00  0.00     0.210 HD
ENDBRANCH   1  10
TORSDOF 4
ENDMDL
MODEL 5
REMARK VINA RESULT:    -2.430     21.694     22.029
REMARK INTER + INTRA:          -3.256
REMARK INTER:                  -2.896
REMARK INTRA:                  -0.360
REMARK UNBOUND:                -0.400
REMARK SMILES [NH3+][C@@H](CO)C(=O)[O-]
REMARK SMILES IDX 3 1 2 2 1 3 5 7 6 8 7 9 4 10
REMARK H PARENT 1 4 1 5 1 6 4 11
REMARK Flexibility Score: inf
ROOT
ATOM      1  C   UNL     1     133.168 126.114 125.428  1.00  0.00     0.227 C 
ENDROOT
BRANCH   1   2
ATOM      2  C   UNL     1     133.473 126.478 123.967  1.00  0.00     0.253 C 
BRANCH   2   3
ATOM      3  N   UNL     1     132.255 126.464 123.147  1.00  0.00    -0.348 N 
ATOM      4  H   UNL     1     132.481 126.772 122.173  1.00  0.00     0.345 HD
ATOM      5  H   UNL     1     131.554 127.129 123.546  1.00  0.00     0.345 HD
ATOM      6  H   UNL     1     131.836 125.505 123.113  1.00  0.00     0.345 HD
ENDBRANCH   2   3
BRANCH   2   7
ATOM      7  C   UNL     1     134.521 125.560 123.393  1.00  0.00     0.102 C 
ATOM      8  O   UNL     1     135.699 125.967 123.206  1.00  0.00    -0.544 OA
ATOM      9  O   UNL     1     134.180 124.264 123.027  1.00  0.00    -0.544 OA
ENDBRANCH   2   7
ENDBRANCH   1   2
BRANCH   1  10
ATOM     10  O   UNL     1     134.095 125.180 125.911  1.00  0.00    -0.390 OA
ATOM     11  H   UNL     1     134.408 125.528 126.786  1.00  0.00     0.210 HD
ENDBRANCH   1  10
TORSDOF 4
ENDMDL
MODEL 6
REMARK VINA RESULT:    -2.367     18.786     19.217
REMARK INTER + INTRA:          -3.182
REMARK INTER:                  -2.803
REMARK INTRA:                  -0.379
REMARK UNBOUND:                -0.400
REMARK SMILES [NH3+][C@@H](CO)C(=O)[O-]
REMARK SMILES IDX 3 1 2 2 1 3 5 7 6 8 7 9 4 10
REMARK H PARENT 1 4 1 5 1 6 4 11
REMARK Flexibility Score: inf
ROOT
ATOM      1  C   UNL     1     139.049 136.604 125.488  1.00  0.00     0.227 C 
ENDROOT
BRANCH   1   2
ATOM      2  C   UNL     1     138.647 136.649 124.005  1.00  0.00     0.253 C 
BRANCH   2   3
ATOM      3  N   UNL     1     139.321 135.594 123.237  1.00  0.00    -0.348 N 
ATOM      4  H   UNL     1     140.181 135.981 122.786  1.00  0.00     0.345 HD
ATOM      5  H   UNL     1     138.685 135.245 122.485  1.00  0.00     0.345 HD
ATOM      6  H   UNL     1     139.591 134.793 123.855  1.00  0.00     0.345 HD
ENDBRANCH   2   3
BRANCH   2   7
ATOM      7  C   UNL     1     138.925 138.008 123.415  1.00  0.00     0.102 C 
ATOM      8  O   UNL     1     140.085 138.316 123.032  1.00  0.00    -0.544 OA
ATOM      9  O   UNL     1     137.904 138.946 123.329  1.00  0.00    -0.544 OA
ENDBRANCH   2   7
ENDBRANCH   1   2
BRANCH   1  10
ATOM     10  O   UNL     1     139.456 137.871 125.931  1.00  0.00    -0.390 OA
ATOM     11  H   UNL     1     138.659 138.285 126.352  1.00  0.00     0.210 HD
ENDBRANCH   1  10
TORSDOF 4
ENDMDL
MODEL 7
REMARK VINA RESULT:    -2.357     13.241     14.104
REMARK INTER + INTRA:          -3.170
REMARK INTER:                  -2.797
REMARK INTRA:                  -0.373
REMARK UNBOUND:                -0.400
REMARK SMILES [NH3+][C@@H](CO)C(=O)[O-]
REMARK SMILES IDX 3 1 2 2 1 3 5 7 6 8 7 9 4 10
REMARK H PARENT 1 4 1 5 1 6 4 11
REMARK Flexibility Score: inf
ROOT
ATOM      1  C   UNL     1     127.284 136.716 125.468  1.00  0.00     0.227 C 
ENDROOT
BRANCH   1   2
ATOM      2  C   UNL     1     127.407 136.184 124.031  1.00  0.00     0.253 C 
BRANCH   2   3
ATOM      3  N   UNL     1     127.925 137.215 123.123  1.00  0.00    -0.348 N 
ATOM      4  H   UNL     1     128.338 136.763 122.274  1.00  0.00     0.345 HD
ATOM      5  H   UNL     1     128.677 137.762 123.601  1.00  0.00     0.345 HD
ATOM      6  H   UNL     1     127.164 137.869 122.824  1.00  0.00     0.345 HD
ENDBRANCH   2   3
BRANCH   2   7
ATOM      7  C   UNL     1     126.087 135.647 123.543  1.00  0.00     0.102 C 
ATOM      8  O   UNL     1     125.873 134.406 123.504  1.00  0.00    -0.544 OA
ATOM      9  O   UNL     1     125.108 136.523 123.092  1.00  0.00    -0.544 OA
ENDBRANCH   2   7
ENDBRANCH   1   2
BRANCH   1  10
ATOM     10  O   UNL     1     126.033 136.390 126.012  1.00  0.00    -0.390 OA
ATOM     11  H   UNL     1     125.791 135.504 125.635  1.00  0.00     0.210 HD
ENDBRANCH   1  10
TORSDOF 4
ENDMDL
MODEL 8
REMARK VINA RESULT:    -2.318     12.825     13.133
REMARK INTER + INTRA:          -3.124
REMARK INTER:                  -2.721
REMARK INTRA:                  -0.403
REMARK UNBOUND:                -0.400
REMARK SMILES [NH3+][C@@H](CO)C(=O)[O-]
REMARK SMILES IDX 3 1 2 2 1 3 5 7 6 8 7 9 4 10
REMARK H PARENT 1 4 1 5 1 6 4 11
REMARK Flexibility Score: inf
ROOT
ATOM      1  C   UNL     1     128.415 137.424 124.432  1.00  0.00     0.227 C 
ENDROOT
BRANCH   1   2
ATOM      2  C   UNL     1     127.507 136.192 124.299  1.00  0.00     0.253 C 
BRANCH   2   3
ATOM      3  N   UNL     1     126.515 136.371 123.231  1.00  0.00    -0.348 N 
ATOM      4  H   UNL     1     126.683 135.671 122.472  1.00  0.00     0.345 HD
ATOM      5  H   UNL     1     126.608 137.328 122.820  1.00  0.00     0.345 HD
ATOM      6  H   UNL     1     125.542 136.250 123.597  1.00  0.00     0.345 HD
ENDBRANCH   2   3
BRANCH   2   7
ATOM      7  C   UNL     1     126.836 135.877 125.612  1.00  0.00     0.102 C 
ATOM      8  O   UNL     1     125.706 136.361 125.887  1.00  0.00    -0.544 OA
ATOM      9  O   UNL     1     127.483 135.079 126.546  1.00  0.00    -0.544 OA
ENDBRANCH   2   7
ENDBRANCH   1   2
BRANCH   1  10
ATOM     10  O   UNL     1     128.416 137.901 125.750  1.00  0.00    -0.390 OA
ATOM     11  H   UNL     1     127.844 137.278 126.269  1.00  0.00     0.210 HD
ENDBRANCH   1  10
TORSDOF 4
ENDMDL
MODEL 9
REMARK VINA RESULT:    -2.306     18.284     18.633
REMARK INTER + INTRA:          -3.110
REMARK INTER:                  -2.709
REMARK INTRA:                  -0.401
REMARK UNBOUND:                -0.400
REMARK SMILES [NH3+][C@@H](CO)C(=O)[O-]
REMARK SMILES IDX 3 1 2 2 1 3 5 7 6 8 7 9 4 10
REMARK H PARENT 1 4 1 5 1 6 4 11
REMARK Flexibility Score: inf
ROOT
ATOM      1  C   UNL     1     139.340 135.052 124.441  1.00  0.00     0.227 C 
ENDROOT
BRANCH   1   2
ATOM      2  C   UNL     1     138.676 136.432 124.311  1.00  0.00     0.253 C 
BRANCH   2   3
ATOM      3  N   UNL     1     139.284 137.217 123.229  1.00  0.00    -0.348 N 
ATOM      4  H   UNL     1     140.320 137.264 123.366  1.00  0.00     0.345 HD
ATOM      5  H   UNL     1     138.907 138.192 123.245  1.00  0.00     0.345 HD
ATOM      6  H   UNL     1     139.083 136.789 122.295  1.00  0.00     0.345 HD
ENDBRANCH   2   3
BRANCH   2   7
ATOM      7  C   UNL     1     138.734 137.180 125.618  1.00  0.00     0.102 C 
ATOM      8  O   UNL     1     139.723 137.909 125.898  1.00  0.00    -0.544 OA
ATOM      9  O   UNL     1     137.709 137.034 126.544  1.00  0.00    -0.544 OA
ENDBRANCH   2   7
ENDBRANCH   1   2
BRANCH   1  10
ATOM     10  O   UNL     1     139.718 134.805 125.768  1.00  0.00    -0.390 OA
ATOM     11  H   UNL     1     139.543 133.842 125.930  1.00  0.00     0.210 HD
ENDBRANCH   1  10
TORSDOF 4
ENDMDL
