MODEL 1
REMARK VINA RESULT:    -3.702      0.000      0.000
REMARK INTER + INTRA:          -5.055
REMARK INTER:                  -4.676
REMARK INTRA:                  -0.379
REMARK UNBOUND:                -0.379
REMARK SMILES CC(C)=CCCC(C)=CCO
REMARK SMILES IDX 7 1 9 2 8 3 6 4 5 5 4 6 1 7 2 8 3 9 10 10 11 11
REMARK H PARENT 11 12
REMARK Flexibility Score: inf
ROOT
ATOM      1  C   UNL     1     141.406 -47.073  67.249  1.00  0.00    -0.075 C 
ATOM      2  C   UNL     1     142.167 -45.994  66.960  1.00  0.00    -0.000 C 
ATOM      3  C   UNL     1     140.220 -47.458  66.396  1.00  0.00     0.039 C 
ENDROOT
BRANCH   1   4
ATOM      4  C   UNL     1     141.757 -47.925  68.453  1.00  0.00     0.034 C 
BRANCH   4   5
ATOM      5  C   UNL     1     141.518 -49.417  68.187  1.00  0.00     0.032 C 
BRANCH   5   6
ATOM      6  C   UNL     1     140.527 -50.009  69.161  1.00  0.00    -0.028 C 
ATOM      7  C   UNL     1     139.456 -51.483  67.443  1.00  0.00     0.039 C 
ATOM      8  C   UNL     1     139.617 -50.957  68.851  1.00  0.00    -0.080 C 
ATOM      9  C   UNL     1     138.729 -51.486  69.947  1.00  0.00     0.039 C 
ENDBRANCH   5   6
ENDBRANCH   4   5
ENDBRANCH   1   4
BRANCH   2  10
ATOM     10  C   UNL     1     141.921 -45.083  65.783  1.00  0.00     0.183 C 
BRANCH  10  11
ATOM     11  O   UNL     1     143.017 -45.097  64.910  1.00  0.00    -0.392 OA
ATOM     12  H   UNL     1     143.563 -45.890  65.152  1.00  0.00     0.210 HD
ENDBRANCH  10  11
ENDBRANCH   2  10
TORSDOF 5
ENDMDL
MODEL 2
REMARK VINA RESULT:    -3.467      1.164      1.701
REMARK INTER + INTRA:          -4.759
REMARK INTER:                  -4.332
REMARK INTRA:                  -0.427
REMARK UNBOUND:                -0.379
REMARK SMILES CC(C)=CCCC(C)=CCO
REMARK SMILES IDX 7 1 9 2 8 3 6 4 5 5 4 6 1 7 2 8 3 9 10 10 11 11
REMARK H PARENT 11 12
REMARK Flexibility Score: inf
ROOT
ATOM      1  C   UNL     1     141.257 -47.783  67.229  1.00  0.00    -0.075 C 
ATOM      2  C   UNL     1     142.099 -46.745  67.425  1.00  0.00    -0.000 C 
ATOM      3  C   UNL     1     140.018 -47.648  66.373  1.00  0.00     0.039 C 
ENDROOT
BRANCH   1   4
ATOM      4  C   UNL     1     141.565 -49.119  67.875  1.00  0.00     0.034 C 
BRANCH   4   5
ATOM      5  C   UNL     1     140.343 -49.698  68.603  1.00  0.00     0.032 C 
BRANCH   5   6
ATOM      6  C   UNL     1     139.741 -50.860  67.849  1.00  0.00    -0.028 C 
ATOM      7  C   UNL     1     137.465 -49.821  67.722  1.00  0.00     0.039 C 
ATOM      8  C   UNL     1     138.461 -50.917  67.421  1.00  0.00    -0.080 C 
ATOM      9  C   UNL     1     138.020 -52.125  66.635  1.00  0.00     0.039 C 
ENDBRANCH   5   6
ENDBRANCH   4   5
ENDBRANCH   1   4
BRANCH   2  10
ATOM     10  C   UNL     1     141.902 -45.376  66.824  1.00  0.00     0.183 C 
BRANCH  10  11
ATOM     11  O   UNL     1     142.621 -45.253  65.627  1.00  0.00    -0.392 OA
ATOM     12  H   UNL     1     142.194 -44.518  65.114  1.00  0.00     0.210 HD
ENDBRANCH  10  11
ENDBRANCH   2  10
TORSDOF 5
ENDMDL
MODEL 3
REMARK VINA RESULT:    -3.365     24.529     25.419
REMARK INTER + INTRA:          -4.630
REMARK INTER:                  -4.186
REMARK INTRA:                  -0.444
REMARK UNBOUND:                -0.379
REMARK SMILES CC(C)=CCCC(C)=CCO
REMARK SMILES IDX 7 1 9 2 8 3 6 4 5 5 4 6 1 7 2 8 3 9 10 10 11 11
REMARK H PARENT 11 12
REMARK Flexibility Score: inf
ROOT
ATOM      1  C   UNL     1     127.071 -36.962  84.341  1.00  0.00    -0.075 C 
ATOM      2  C   UNL     1     125.794 -37.303  84.057  1.00  0.00    -0.000 C 
ATOM      3  C   UNL     1     128.131 -38.008  84.599  1.00  0.00     0.039 C 
ENDROOT
BRANCH   1   4
ATOM      4  C   UNL     1     127.452 -35.496  84.393  1.00  0.00     0.034 C 
BRANCH   4   5
ATOM      5  C   UNL     1     127.974 -34.992  83.040  1.00  0.00     0.032 C 
BRANCH   5   6
ATOM      6  C   UNL     1     127.471 -33.602  82.729  1.00  0.00    -0.028 C 
ATOM      7  C   UNL     1     125.585 -34.420  81.298  1.00  0.00     0.039 C 
ATOM      8  C   UNL     1     126.384 -33.330  81.974  1.00  0.00    -0.080 C 
ATOM      9  C   UNL     1     125.977 -31.891  81.795  1.00  0.00     0.039 C 
ENDBRANCH   5   6
ENDBRANCH   4   5
ENDBRANCH   1   4
BRANCH   2  10
ATOM     10  C   UNL     1     125.304 -38.725  83.965  1.00  0.00     0.183 C 
BRANCH  10  11
ATOM     11  O   UNL     1     124.272 -38.953  84.886  1.00  0.00    -0.392 OA
ATOM     12  H   UNL     1     124.178 -38.121  85.419  1.00  0.00     0.210 HD
ENDBRANCH  10  11
ENDBRANCH   2  10
TORSDOF 5
ENDMDL
MODEL 4
REMARK VINA RESULT:    -3.334      1.824      2.933
REMARK INTER + INTRA:          -4.590
REMARK INTER:                  -3.973
REMARK INTRA:                  -0.617
REMARK UNBOUND:                -0.379
REMARK SMILES CC(C)=CCCC(C)=CCO
REMARK SMILES IDX 7 1 9 2 8 3 6 4 5 5 4 6 1 7 2 8 3 9 10 10 11 11
REMARK H PARENT 11 12
REMARK Flexibility Score: inf
ROOT
ATOM      1  C   UNL     1     141.267 -47.808  67.186  1.00  0.00    -0.075 C 
ATOM      2  C   UNL     1     142.138 -46.788  67.344  1.00  0.00    -0.000 C 
ATOM      3  C   UNL     1     139.982 -47.639  66.408  1.00  0.00     0.039 C 
ENDROOT
BRANCH   1   4
ATOM      4  C   UNL     1     141.588 -49.159  67.794  1.00  0.00     0.034 C 
BRANCH   4   5
ATOM      5  C   UNL     1     140.841 -49.384  69.116  1.00  0.00     0.032 C 
BRANCH   5   6
ATOM      6  C   UNL     1     141.728 -49.126  70.311  1.00  0.00    -0.028 C 
ATOM      7  C   UNL     1     140.710 -46.889  70.800  1.00  0.00     0.039 C 
ATOM      8  C   UNL     1     141.660 -48.027  71.094  1.00  0.00    -0.080 C 
ATOM      9  C   UNL     1     142.580 -47.936  72.285  1.00  0.00     0.039 C 
ENDBRANCH   5   6
ENDBRANCH   4   5
ENDBRANCH   1   4
BRANCH   2  10
ATOM     10  C   UNL     1     141.930 -45.407  66.775  1.00  0.00     0.183 C 
BRANCH  10  11
ATOM     11  O   UNL     1     142.659 -45.246  65.588  1.00  0.00    -0.392 OA
ATOM     12  H   UNL     1     142.043 -45.476  64.844  1.00  0.00     0.210 HD
ENDBRANCH  10  11
ENDBRANCH   2  10
TORSDOF 5
ENDMDL
MODEL 5
REMARK VINA RESULT:    -3.320      1.036      1.515
REMARK INTER + INTRA:          -4.573
REMARK INTER:                  -4.171
REMARK INTRA:                  -0.402
REMARK UNBOUND:                -0.379
REMARK SMILES CC(C)=CCCC(C)=CCO
REMARK SMILES IDX 7 1 9 2 8 3 6 4 5 5 4 6 1 7 2 8 3 9 10 10 11 11
REMARK H PARENT 11 12
REMARK Flexibility Score: inf
ROOT
ATOM      1  C   UNL     1     141.143 -47.829  67.199  1.00  0.00    -0.075 C 
ATOM      2  C   UNL     1     142.060 -46.856  67.399  1.00  0.00    -0.000 C 
ATOM      3  C   UNL     1     139.905 -47.591  66.366  1.00  0.00     0.039 C 
ENDROOT
BRANCH   1   4
ATOM      4  C   UNL     1     141.367 -49.194  67.817  1.00  0.00     0.034 C 
BRANCH   4   5
ATOM      5  C   UNL     1     140.129 -50.093  67.682  1.00  0.00     0.032 C 
BRANCH   5   6
ATOM      6  C   UNL     1     139.963 -51.001  68.877  1.00  0.00    -0.028 C 
ATOM      7  C   UNL     1     138.518 -49.379  70.125  1.00  0.00     0.039 C 
ATOM      8  C   UNL     1     139.220 -50.708  69.967  1.00  0.00    -0.080 C 
ATOM      9  C   UNL     1     139.109 -51.740  71.059  1.00  0.00     0.039 C 
ENDBRANCH   5   6
ENDBRANCH   4   5
ENDBRANCH   1   4
BRANCH   2  10
ATOM     10  C   UNL     1     141.950 -45.466  66.825  1.00  0.00     0.183 C 
BRANCH  10  11
ATOM     11  O   UNL     1     142.700 -45.356  65.646  1.00  0.00    -0.392 OA
ATOM     12  H   UNL     1     142.672 -46.246  65.208  1.00  0.00     0.210 HD
ENDBRANCH  10  11
ENDBRANCH   2  10
TORSDOF 5
ENDMDL
MODEL 6
REMARK VINA RESULT:    -3.176     24.499     25.013
REMARK INTER + INTRA:          -4.391
REMARK INTER:                  -3.901
REMARK INTRA:                  -0.490
REMARK UNBOUND:                -0.379
REMARK SMILES CC(C)=CCCC(C)=CCO
REMARK SMILES IDX 7 1 9 2 8 3 6 4 5 5 4 6 1 7 2 8 3 9 10 10 11 11
REMARK H PARENT 11 12
REMARK Flexibility Score: inf
ROOT
ATOM      1  C   UNL     1     127.719 -34.025  82.883  1.00  0.00    -0.075 C 
ATOM      2  C   UNL     1     126.553 -33.354  82.751  1.00  0.00    -0.000 C 
ATOM      3  C   UNL     1     128.983 -33.561  82.197  1.00  0.00     0.039 C 
ENDROOT
BRANCH   1   4
ATOM      4  C   UNL     1     127.763 -35.269  83.748  1.00  0.00     0.034 C 
BRANCH   4   5
ATOM      5  C   UNL     1     126.374 -35.643  84.283  1.00  0.00     0.032 C 
BRANCH   5   6
ATOM      6  C   UNL     1     126.030 -37.084  83.988  1.00  0.00    -0.028 C 
ATOM      7  C   UNL     1     124.655 -36.521  81.971  1.00  0.00     0.039 C 
ATOM      8  C   UNL     1     125.286 -37.496  82.938  1.00  0.00    -0.080 C 
ATOM      9  C   UNL     1     125.071 -38.975  82.747  1.00  0.00     0.039 C 
ENDBRANCH   5   6
ENDBRANCH   4   5
ENDBRANCH   1   4
BRANCH   2  10
ATOM     10  C   UNL     1     126.393 -32.101  81.928  1.00  0.00     0.183 C 
BRANCH  10  11
ATOM     11  O   UNL     1     125.044 -31.879  81.621  1.00  0.00    -0.392 OA
ATOM     12  H   UNL     1     124.706 -32.716  81.206  1.00  0.00     0.210 HD
ENDBRANCH  10  11
ENDBRANCH   2  10
TORSDOF 5
ENDMDL
MODEL 7
REMARK VINA RESULT:    -3.144     24.283     25.209
REMARK INTER + INTRA:          -4.350
REMARK INTER:                  -3.909
REMARK INTRA:                  -0.441
REMARK UNBOUND:                -0.379
REMARK SMILES CC(C)=CCCC(C)=CCO
REMARK SMILES IDX 7 1 9 2 8 3 6 4 5 5 4 6 1 7 2 8 3 9 10 10 11 11
REMARK H PARENT 11 12
REMARK Flexibility Score: inf
ROOT
ATOM      1  C   UNL     1     126.598 -36.059  83.514  1.00  0.00    -0.075 C 
ATOM      2  C   UNL     1     125.778 -37.131  83.572  1.00  0.00    -0.000 C 
ATOM      3  C   UNL     1     127.762 -35.899  84.465  1.00  0.00     0.039 C 
ENDROOT
BRANCH   1   4
ATOM      4  C   UNL     1     126.351 -34.994  82.464  1.00  0.00     0.034 C 
BRANCH   4   5
ATOM      5  C   UNL     1     126.861 -33.618  82.914  1.00  0.00     0.032 C 
BRANCH   5   6
ATOM      6  C   UNL     1     127.526 -32.869  81.783  1.00  0.00    -0.028 C 
ATOM      7  C   UNL     1     129.836 -33.577  82.444  1.00  0.00     0.039 C 
ATOM      8  C   UNL     1     128.855 -32.866  81.541  1.00  0.00    -0.080 C 
ATOM      9  C   UNL     1     129.364 -32.111  80.340  1.00  0.00     0.039 C 
ENDBRANCH   5   6
ENDBRANCH   4   5
ENDBRANCH   1   4
BRANCH   2  10
ATOM     10  C   UNL     1     125.933 -38.256  84.564  1.00  0.00     0.183 C 
BRANCH  10  11
ATOM     11  O   UNL     1     124.687 -38.819  84.873  1.00  0.00    -0.392 OA
ATOM     12  H   UNL     1     124.737 -39.776  84.617  1.00  0.00     0.210 HD
ENDBRANCH  10  11
ENDBRANCH   2  10
TORSDOF 5
ENDMDL
MODEL 8
REMARK VINA RESULT:    -3.083     23.836     24.726
REMARK INTER + INTRA:          -4.274
REMARK INTER:                  -3.637
REMARK INTRA:                  -0.637
REMARK UNBOUND:                -0.379
REMARK SMILES CC(C)=CCCC(C)=CCO
REMARK SMILES IDX 7 1 9 2 8 3 6 4 5 5 4 6 1 7 2 8 3 9 10 10 11 11
REMARK H PARENT 11 12
REMARK Flexibility Score: inf
ROOT
ATOM      1  C   UNL     1     126.174 -36.748  82.724  1.00  0.00    -0.075 C 
ATOM      2  C   UNL     1     125.912 -37.043  84.016  1.00  0.00    -0.000 C 
ATOM      3  C   UNL     1     126.522 -37.824  81.721  1.00  0.00     0.039 C 
ENDROOT
BRANCH   1   4
ATOM      4  C   UNL     1     126.107 -35.305  82.265  1.00  0.00     0.034 C 
BRANCH   4   5
ATOM      5  C   UNL     1     126.887 -34.370  83.201  1.00  0.00     0.032 C 
BRANCH   5   6
ATOM      6  C   UNL     1     128.266 -34.064  82.665  1.00  0.00    -0.028 C 
ATOM      7  C   UNL     1     129.409 -35.685  84.194  1.00  0.00     0.039 C 
ATOM      8  C   UNL     1     129.402 -34.666  83.078  1.00  0.00    -0.080 C 
ATOM      9  C   UNL     1     130.699 -34.289  82.410  1.00  0.00     0.039 C 
ENDBRANCH   5   6
ENDBRANCH   4   5
ENDBRANCH   1   4
BRANCH   2  10
ATOM     10  C   UNL     1     125.936 -38.440  84.582  1.00  0.00     0.183 C 
BRANCH  10  11
ATOM     11  O   UNL     1     124.641 -38.861  84.916  1.00  0.00    -0.392 OA
ATOM     12  H   UNL     1     124.688 -39.215  85.842  1.00  0.00     0.210 HD
ENDBRANCH  10  11
ENDBRANCH   2  10
TORSDOF 5
ENDMDL
MODEL 9
REMARK VINA RESULT:    -3.039      2.727      5.282
REMARK INTER + INTRA:          -4.217
REMARK INTER:                  -3.689
REMARK INTRA:                  -0.528
REMARK UNBOUND:                -0.379
REMARK SMILES CC(C)=CCCC(C)=CCO
REMARK SMILES IDX 7 1 9 2 8 3 6 4 5 5 4 6 1 7 2 8 3 9 10 10 11 11
REMARK H PARENT 11 12
REMARK Flexibility Score: inf
ROOT
ATOM      1  C   UNL     1     140.157 -50.294  68.920  1.00  0.00    -0.075 C 
ATOM      2  C   UNL     1     139.997 -51.045  67.808  1.00  0.00    -0.000 C 
ATOM      3  C   UNL     1     139.207 -50.401  70.091  1.00  0.00     0.039 C 
ENDROOT
BRANCH   1   4
ATOM      4  C   UNL     1     141.321 -49.327  69.001  1.00  0.00     0.034 C 
BRANCH   4   5
ATOM      5  C   UNL     1     141.835 -48.933  67.609  1.00  0.00     0.032 C 
BRANCH   5   6
ATOM      6  C   UNL     1     141.715 -47.447  67.368  1.00  0.00    -0.028 C 
ATOM      7  C   UNL     1     139.551 -47.651  66.122  1.00  0.00     0.039 C 
ATOM      8  C   UNL     1     140.682 -46.854  66.730  1.00  0.00    -0.080 C 
ATOM      9  C   UNL     1     140.679 -45.352  66.612  1.00  0.00     0.039 C 
ENDBRANCH   5   6
ENDBRANCH   4   5
ENDBRANCH   1   4
BRANCH   2  10
ATOM     10  C   UNL     1     138.886 -52.046  67.621  1.00  0.00     0.183 C 
BRANCH  10  11
ATOM     11  O   UNL     1     138.407 -52.014  66.304  1.00  0.00    -0.392 OA
ATOM     12  H   UNL     1     137.759 -51.263  66.257  1.00  0.00     0.210 HD
ENDBRANCH  10  11
ENDBRANCH   2  10
TORSDOF 5
ENDMDL
