MODEL 1
REMARK VINA RESULT:    -3.435      0.000      0.000
REMARK INTER + INTRA:          -4.356
REMARK INTER:                  -4.038
REMARK INTRA:                  -0.318
REMARK UNBOUND:                -0.318
REMARK SMILES O=c1cc(-c2ccc(O)c(O)c2)oc2cc(O)cc(O)c12
REMARK SMILES IDX 4 1 3 2 2 3 1 4 21 5 19 6 18 7 16 8 15 9 14 10 13 11 5 12
REMARK SMILES IDX 6 13 7 14 8 15 12 16 10 17 9 18 11 20 20 22 17 24
REMARK H PARENT 9 19 11 21 20 23 17 25
REMARK Flexibility Score: inf
ROOT
ATOM      1  C   UNL     1       6.333   4.241  12.882  1.00  0.00     0.138 A 
ATOM      2  C   UNL     1       6.205   4.045  11.499  1.00  0.00     0.100 A 
ATOM      3  C   UNL     1       6.060   2.752  10.996  1.00  0.00     0.197 A 
ATOM      4  O   UNL     1       5.885   2.613   9.757  1.00  0.00    -0.289 OA
ATOM      5  C   UNL     1       6.077   1.647  11.880  1.00  0.00     0.107 A 
ATOM      6  C   UNL     1       5.980   0.282  11.476  1.00  0.00     0.134 A 
ATOM      7  C   UNL     1       5.890  -0.721  12.450  1.00  0.00     0.093 A 
ATOM      8  C   UNL     1       5.955  -0.415  13.808  1.00  0.00     0.123 A 
ATOM      9  C   UNL     1       6.105   0.913  14.213  1.00  0.00     0.094 A 
ATOM     10  C   UNL     1       6.162   1.939  13.268  1.00  0.00     0.146 A 
ATOM     11  O   UNL     1       6.290   3.191  13.694  1.00  0.00    -0.456 OA
ENDROOT
BRANCH   1  12
ATOM     12  C   UNL     1       6.489   5.595  13.470  1.00  0.00     0.021 A 
ATOM     13  C   UNL     1       6.484   6.720  12.628  1.00  0.00     0.016 A 
ATOM     14  C   UNL     1       6.621   8.006  13.158  1.00  0.00     0.051 A 
ATOM     15  C   UNL     1       6.755   8.189  14.540  1.00  0.00     0.157 A 
ATOM     16  C   UNL     1       6.610   5.788  14.861  1.00  0.00     0.062 A 
ATOM     17  C   UNL     1       6.747   7.078  15.393  1.00  0.00     0.158 A 
BRANCH  15  18
ATOM     18  O   UNL     1       6.894   9.469  15.072  1.00  0.00    -0.504 OA
ATOM     19  H   UNL     1       7.583  10.120  14.714  1.00  0.00     0.293 HD
ENDBRANCH  15  18
BRANCH  17  20
ATOM     20  O   UNL     1       6.869   7.266  16.769  1.00  0.00    -0.504 OA
ATOM     21  H   UNL     1       7.715   7.647  17.179  1.00  0.00     0.293 HD
ENDBRANCH  17  20
ENDBRANCH   1  12
BRANCH   6  22
ATOM     22  O   UNL     1       5.992  -0.142  10.144  1.00  0.00    -0.507 OA
ATOM     23  H   UNL     1       5.447  -0.909   9.777  1.00  0.00     0.293 HD
ENDBRANCH   6  22
BRANCH   8  24
ATOM     24  O   UNL     1       5.878  -1.440  14.748  1.00  0.00    -0.508 OA
ATOM     25  H   UNL     1       5.582  -2.374  14.490  1.00  0.00     0.293 HD
ENDBRANCH   8  24
TORSDOF 5
ENDMDL
MODEL 2
REMARK VINA RESULT:    -3.297      1.749      6.888
REMARK INTER + INTRA:          -4.194
REMARK INTER:                  -3.921
REMARK INTRA:                  -0.272
REMARK UNBOUND:                -0.318
REMARK SMILES O=c1cc(-c2ccc(O)c(O)c2)oc2cc(O)cc(O)c12
REMARK SMILES IDX 4 1 3 2 2 3 1 4 21 5 19 6 18 7 16 8 15 9 14 10 13 11 5 12
REMARK SMILES IDX 6 13 7 14 8 15 12 16 10 17 9 18 11 20 20 22 17 24
REMARK H PARENT 9 19 11 21 20 23 17 25
REMARK Flexibility Score: inf
ROOT
ATOM      1  C   UNL     1       6.932   4.183  13.233  1.00  0.00     0.138 A 
ATOM      2  C   UNL     1       7.315   5.072  12.219  1.00  0.00     0.100 A 
ATOM      3  C   UNL     1       7.353   6.442  12.480  1.00  0.00     0.197 A 
ATOM      4  O   UNL     1       7.760   7.209  11.569  1.00  0.00    -0.289 OA
ATOM      5  C   UNL     1       6.972   6.926  13.754  1.00  0.00     0.107 A 
ATOM      6  C   UNL     1       6.931   8.305  14.120  1.00  0.00     0.134 A 
ATOM      7  C   UNL     1       6.651   8.658  15.446  1.00  0.00     0.093 A 
ATOM      8  C   UNL     1       6.351   7.689  16.403  1.00  0.00     0.123 A 
ATOM      9  C   UNL     1       6.335   6.341  16.042  1.00  0.00     0.094 A 
ATOM     10  C   UNL     1       6.645   5.953  14.737  1.00  0.00     0.146 A 
ATOM     11  O   UNL     1       6.633   4.659  14.437  1.00  0.00    -0.456 OA
ENDROOT
BRANCH   1  12
ATOM     12  C   UNL     1       6.876   2.716  13.010  1.00  0.00     0.021 A 
ATOM     13  C   UNL     1       5.943   2.190  12.100  1.00  0.00     0.016 A 
ATOM     14  C   UNL     1       5.875   0.815  11.866  1.00  0.00     0.051 A 
ATOM     15  C   UNL     1       6.746  -0.058  12.530  1.00  0.00     0.157 A 
ATOM     16  C   UNL     1       7.758   1.833  13.664  1.00  0.00     0.062 A 
ATOM     17  C   UNL     1       7.690   0.452  13.429  1.00  0.00     0.158 A 
BRANCH  15  18
ATOM     18  O   UNL     1       6.680  -1.431  12.301  1.00  0.00    -0.504 OA
ATOM     19  H   UNL     1       6.846  -1.824  11.382  1.00  0.00     0.293 HD
ENDBRANCH  15  18
BRANCH  17  20
ATOM     20  O   UNL     1       8.563  -0.419  14.080  1.00  0.00    -0.504 OA
ATOM     21  H   UNL     1       8.483  -1.424  13.977  1.00  0.00     0.293 HD
ENDBRANCH  17  20
ENDBRANCH   1  12
BRANCH   6  22
ATOM     22  O   UNL     1       7.131   9.358  13.223  1.00  0.00    -0.507 OA
ATOM     23  H   UNL     1       6.752  10.287  13.330  1.00  0.00     0.293 HD
ENDBRANCH   6  22
BRANCH   8  24
ATOM     24  O   UNL     1       6.062   8.078  17.708  1.00  0.00    -0.508 OA
ATOM     25  H   UNL     1       6.165   7.438  18.488  1.00  0.00     0.293 HD
ENDBRANCH   8  24
TORSDOF 5
ENDMDL
MODEL 3
REMARK VINA RESULT:    -2.766      2.482      4.889
REMARK INTER + INTRA:          -3.569
REMARK INTER:                  -3.296
REMARK INTRA:                  -0.273
REMARK UNBOUND:                -0.318
REMARK SMILES O=c1cc(-c2ccc(O)c(O)c2)oc2cc(O)cc(O)c12
REMARK SMILES IDX 4 1 3 2 2 3 1 4 21 5 19 6 18 7 16 8 15 9 14 10 13 11 5 12
REMARK SMILES IDX 6 13 7 14 8 15 12 16 10 17 9 18 11 20 20 22 17 24
REMARK H PARENT 9 19 11 21 20 23 17 25
REMARK Flexibility Score: inf
ROOT
ATOM      1  C   UNL     1       6.599   0.100  12.631  1.00  0.00     0.138 A 
ATOM      2  C   UNL     1       6.329  -0.636  13.793  1.00  0.00     0.100 A 
ATOM      3  C   UNL     1       6.313  -2.030  13.739  1.00  0.00     0.197 A 
ATOM      4  O   UNL     1       6.129  -2.664  14.810  1.00  0.00    -0.289 OA
ATOM      5  C   UNL     1       6.536  -2.689  12.506  1.00  0.00     0.107 A 
ATOM      6  C   UNL     1       6.501  -4.104  12.322  1.00  0.00     0.134 A 
ATOM      7  C   UNL     1       6.853  -4.647  11.080  1.00  0.00     0.093 A 
ATOM      8  C   UNL     1       7.177  -3.827  10.000  1.00  0.00     0.123 A 
ATOM      9  C   UNL     1       7.161  -2.440  10.154  1.00  0.00     0.094 A 
ATOM     10  C   UNL     1       6.849  -1.867  11.389  1.00  0.00     0.146 A 
ATOM     11  O   UNL     1       6.859  -0.543  11.498  1.00  0.00    -0.456 OA
ENDROOT
BRANCH   1  12
ATOM     12  C   UNL     1       6.629   1.585  12.633  1.00  0.00     0.021 A 
ATOM     13  C   UNL     1       5.875   2.293  11.681  1.00  0.00     0.016 A 
ATOM     14  C   UNL     1       5.880   3.690  11.667  1.00  0.00     0.051 A 
ATOM     15  C   UNL     1       6.630   4.403  12.610  1.00  0.00     0.157 A 
ATOM     16  C   UNL     1       7.369   2.309  13.588  1.00  0.00     0.062 A 
ATOM     17  C   UNL     1       7.373   3.711  13.574  1.00  0.00     0.158 A 
BRANCH  15  18
ATOM     18  O   UNL     1       6.639   5.796  12.598  1.00  0.00    -0.504 OA
ATOM     19  H   UNL     1       5.867   6.335  12.974  1.00  0.00     0.293 HD
ENDBRANCH  15  18
BRANCH  17  20
ATOM     20  O   UNL     1       8.110   4.425  14.518  1.00  0.00    -0.504 OA
ATOM     21  H   UNL     1       7.674   4.816  15.346  1.00  0.00     0.293 HD
ENDBRANCH  17  20
ENDBRANCH   1  12
BRANCH   6  22
ATOM     22  O   UNL     1       6.108  -5.010  13.311  1.00  0.00    -0.507 OA
ATOM     23  H   UNL     1       6.501  -5.057  14.240  1.00  0.00     0.293 HD
ENDBRANCH   6  22
BRANCH   8  24
ATOM     24  O   UNL     1       7.506  -4.402   8.775  1.00  0.00    -0.508 OA
ATOM     25  H   UNL     1       6.907  -4.300   7.964  1.00  0.00     0.293 HD
ENDBRANCH   8  24
TORSDOF 5
ENDMDL
MODEL 4
REMARK VINA RESULT:    -2.564      2.497      4.354
REMARK INTER + INTRA:          -3.332
REMARK INTER:                  -3.042
REMARK INTRA:                  -0.290
REMARK UNBOUND:                -0.318
REMARK SMILES O=c1cc(-c2ccc(O)c(O)c2)oc2cc(O)cc(O)c12
REMARK SMILES IDX 4 1 3 2 2 3 1 4 21 5 19 6 18 7 16 8 15 9 14 10 13 11 5 12
REMARK SMILES IDX 6 13 7 14 8 15 12 16 10 17 9 18 11 20 20 22 17 24
REMARK H PARENT 9 19 11 21 20 23 17 25
REMARK Flexibility Score: inf
ROOT
ATOM      1  C   UNL     1       6.575   0.156  12.656  1.00  0.00     0.138 A 
ATOM      2  C   UNL     1       6.305  -0.283  11.352  1.00  0.00     0.100 A 
ATOM      3  C   UNL     1       6.179  -1.649  11.097  1.00  0.00     0.197 A 
ATOM      4  O   UNL     1       5.876  -2.009   9.930  1.00  0.00    -0.289 OA
ATOM      5  C   UNL     1       6.357  -2.581  12.147  1.00  0.00     0.107 A 
ATOM      6  C   UNL     1       6.294  -3.999  11.995  1.00  0.00     0.134 A 
ATOM      7  C   UNL     1       6.370  -4.817  13.129  1.00  0.00     0.093 A 
ATOM      8  C   UNL     1       6.569  -4.276  14.398  1.00  0.00     0.123 A 
ATOM      9  C   UNL     1       6.687  -2.893  14.551  1.00  0.00     0.094 A 
ATOM     10  C   UNL     1       6.580  -2.047  13.445  1.00  0.00     0.146 A 
ATOM     11  O   UNL     1       6.683  -0.736  13.634  1.00  0.00    -0.456 OA
ENDROOT
BRANCH   1  12
ATOM     12  C   UNL     1       6.719   1.597  12.984  1.00  0.00     0.021 A 
ATOM     13  C   UNL     1       6.442   2.041  14.288  1.00  0.00     0.016 A 
ATOM     14  C   UNL     1       6.577   3.390  14.624  1.00  0.00     0.051 A 
ATOM     15  C   UNL     1       7.001   4.317  13.665  1.00  0.00     0.157 A 
ATOM     16  C   UNL     1       7.158   2.533  12.027  1.00  0.00     0.062 A 
ATOM     17  C   UNL     1       7.295   3.888  12.364  1.00  0.00     0.158 A 
BRANCH  15  18
ATOM     18  O   UNL     1       7.135   5.664  13.995  1.00  0.00    -0.504 OA
ATOM     19  H   UNL     1       6.920   6.006  14.924  1.00  0.00     0.293 HD
ENDBRANCH  15  18
BRANCH  17  20
ATOM     20  O   UNL     1       7.726   4.813  11.415  1.00  0.00    -0.504 OA
ATOM     21  H   UNL     1       7.592   5.809  11.545  1.00  0.00     0.293 HD
ENDBRANCH  17  20
ENDBRANCH   1  12
BRANCH   6  22
ATOM     22  O   UNL     1       6.182  -4.648  10.762  1.00  0.00    -0.507 OA
ATOM     23  H   UNL     1       5.311  -4.867  10.303  1.00  0.00     0.293 HD
ENDBRANCH   6  22
BRANCH   8  24
ATOM     24  O   UNL     1       6.655  -5.122  15.501  1.00  0.00    -0.508 OA
ATOM     25  H   UNL     1       6.685  -6.130  15.394  1.00  0.00     0.293 HD
ENDBRANCH   8  24
TORSDOF 5
ENDMDL
