MODEL 1
REMARK VINA RESULT:     1.953      0.000      0.000
REMARK INTER + INTRA:           2.559
REMARK INTER:                   2.639
REMARK INTRA:                  -0.079
REMARK UNBOUND:                -0.079
REMARK SMILES [NH3+]CCCC[C@H]([NH3+])C(=O)[O-]
REMARK SMILES IDX 4 1 3 2 2 3 1 4 5 8 6 9 7 10 8 14 9 15 10 16
REMARK H PARENT 1 5 1 6 1 7 7 11 7 12 7 13
REMARK Flexibility Score: inf
ROOT
ATOM      1  C   UNL     1      -0.990  -1.924 -10.488  1.00  0.00     0.012 C 
ENDROOT
BRANCH   1   2
ATOM      2  C   UNL     1      -1.505  -3.366 -10.394  1.00  0.00     0.061 C 
BRANCH   2   3
ATOM      3  C   UNL     1      -1.863  -3.915 -11.782  1.00  0.00     0.258 C 
BRANCH   3   4
ATOM      4  N   UNL     1      -2.198  -5.337 -11.710  1.00  0.00    -0.358 N 
ATOM      5  H   UNL     1      -2.299  -5.632 -10.711  1.00  0.00     0.344 HD
ATOM      6  H   UNL     1      -3.089  -5.523 -12.225  1.00  0.00     0.344 HD
ATOM      7  H   UNL     1      -1.430  -5.892 -12.150  1.00  0.00     0.344 HD
ENDBRANCH   3   4
ENDBRANCH   2   3
ENDBRANCH   1   2
BRANCH   1   8
ATOM      8  C   UNL     1       0.118  -1.667  -9.455  1.00  0.00     0.072 C 
BRANCH   8   9
ATOM      9  C   UNL     1       1.247  -0.767 -10.004  1.00  0.00     0.227 C 
BRANCH   9  10
ATOM     10  N   UNL     1       2.229  -1.537 -10.779  1.00  0.00    -0.350 N 
ATOM     11  H   UNL     1       2.671  -2.268 -10.178  1.00  0.00     0.345 HD
ATOM     12  H   UNL     1       2.972  -0.909 -11.166  1.00  0.00     0.345 HD
ATOM     13  H   UNL     1       1.752  -2.028 -11.572  1.00  0.00     0.345 HD
ENDBRANCH   9  10
BRANCH   9  14
ATOM     14  C   UNL     1       1.927  -0.056  -8.864  1.00  0.00     0.099 C 
ATOM     15  O   UNL     1       3.006   0.568  -9.053  1.00  0.00    -0.544 OA
ATOM     16  O   UNL     1       1.379  -0.104  -7.588  1.00  0.00    -0.544 OA
ENDBRANCH   9  14
ENDBRANCH   8   9
ENDBRANCH   1   8
TORSDOF 7
ENDMDL
MODEL 2
REMARK VINA RESULT:     1.993      3.735      5.731
REMARK INTER + INTRA:           2.612
REMARK INTER:                   2.683
REMARK INTRA:                  -0.070
REMARK UNBOUND:                -0.079
REMARK SMILES [NH3+]CCCC[C@H]([NH3+])C(=O)[O-]
REMARK SMILES IDX 4 1 3 2 2 3 1 4 5 8 6 9 7 10 8 14 9 15 10 16
REMARK H PARENT 1 5 1 6 1 7 7 11 7 12 7 13
REMARK Flexibility Score: inf
ROOT
ATOM      1  C   UNL     1      -0.320  -1.874  -9.763  1.00  0.00     0.012 C 
ENDROOT
BRANCH   1   2
ATOM      2  C   UNL     1       1.005  -1.127  -9.965  1.00  0.00     0.061 C 
BRANCH   2   3
ATOM      3  C   UNL     1       1.396  -0.346  -8.704  1.00  0.00     0.258 C 
BRANCH   3   4
ATOM      4  N   UNL     1       2.641   0.393  -8.912  1.00  0.00    -0.358 N 
ATOM      5  H   UNL     1       3.371  -0.240  -9.313  1.00  0.00     0.344 HD
ATOM      6  H   UNL     1       2.477   1.198  -9.558  1.00  0.00     0.344 HD
ATOM      7  H   UNL     1       2.980   0.759  -7.993  1.00  0.00     0.344 HD
ENDBRANCH   3   4
ENDBRANCH   2   3
ENDBRANCH   1   2
BRANCH   1   8
ATOM      8  C   UNL     1      -0.792  -2.521 -11.074  1.00  0.00     0.072 C 
BRANCH   8   9
ATOM      9  C   UNL     1      -1.943  -3.529 -10.859  1.00  0.00     0.227 C 
BRANCH   9  10
ATOM     10  N   UNL     1      -1.804  -4.253  -9.588  1.00  0.00    -0.350 N 
ATOM     11  H   UNL     1      -2.741  -4.564  -9.246  1.00  0.00     0.345 HD
ATOM     12  H   UNL     1      -1.352  -3.648  -8.863  1.00  0.00     0.345 HD
ATOM     13  H   UNL     1      -1.220  -5.110  -9.728  1.00  0.00     0.345 HD
ENDBRANCH   9  10
BRANCH   9  14
ATOM     14  C   UNL     1      -1.986  -4.501 -12.008  1.00  0.00     0.099 C 
ATOM     15  O   UNL     1      -2.075  -4.085 -13.195  1.00  0.00    -0.544 OA
ATOM     16  O   UNL     1      -1.951  -5.868 -11.763  1.00  0.00    -0.544 OA
ENDBRANCH   9  14
ENDBRANCH   8   9
ENDBRANCH   1   8
TORSDOF 7
ENDMDL
MODEL 3
REMARK VINA RESULT:     3.517      4.558      6.335
REMARK INTER + INTRA:           4.671
REMARK INTER:                   4.774
REMARK INTRA:                  -0.103
REMARK UNBOUND:                -0.079
REMARK SMILES [NH3+]CCCC[C@H]([NH3+])C(=O)[O-]
REMARK SMILES IDX 4 1 3 2 2 3 1 4 5 8 6 9 7 10 8 14 9 15 10 16
REMARK H PARENT 1 5 1 6 1 7 7 11 7 12 7 13
REMARK Flexibility Score: inf
ROOT
ATOM      1  C   UNL     1      -0.009   1.612  -6.127  1.00  0.00     0.012 C 
ENDROOT
BRANCH   1   2
ATOM      2  C   UNL     1      -0.347   2.927  -5.413  1.00  0.00     0.061 C 
BRANCH   2   3
ATOM      3  C   UNL     1      -1.862   3.168  -5.390  1.00  0.00     0.258 C 
BRANCH   3   4
ATOM      4  N   UNL     1      -2.173   4.486  -4.836  1.00  0.00    -0.358 N 
ATOM      5  H   UNL     1      -2.746   4.384  -3.967  1.00  0.00     0.344 HD
ATOM      6  H   UNL     1      -1.290   5.001  -4.619  1.00  0.00     0.344 HD
ATOM      7  H   UNL     1      -2.720   5.032  -5.540  1.00  0.00     0.344 HD
ENDBRANCH   3   4
ENDBRANCH   2   3
ENDBRANCH   1   2
BRANCH   1   8
ATOM      8  C   UNL     1       1.503   1.342  -6.096  1.00  0.00     0.072 C 
BRANCH   8   9
ATOM      9  C   UNL     1       1.869  -0.057  -6.639  1.00  0.00     0.227 C 
BRANCH   9  10
ATOM     10  N   UNL     1       3.230  -0.454  -6.253  1.00  0.00    -0.350 N 
ATOM     11  H   UNL     1       3.211  -0.964  -5.341  1.00  0.00     0.345 HD
ATOM     12  H   UNL     1       3.852   0.383  -6.171  1.00  0.00     0.345 HD
ATOM     13  H   UNL     1       3.628  -1.106  -6.969  1.00  0.00     0.345 HD
ENDBRANCH   9  10
BRANCH   9  14
ATOM     14  C   UNL     1       1.731  -0.070  -8.139  1.00  0.00     0.099 C 
ATOM     15  O   UNL     1       0.752  -0.646  -8.686  1.00  0.00    -0.544 OA
ATOM     16  O   UNL     1       2.698   0.537  -8.931  1.00  0.00    -0.544 OA
ENDBRANCH   9  14
ENDBRANCH   8   9
ENDBRANCH   1   8
TORSDOF 7
ENDMDL
