MODEL 1
REMARK VINA RESULT:    -3.171      0.000      0.000
REMARK INTER + INTRA:          -3.551
REMARK INTER:                  -3.542
REMARK INTRA:                  -0.009
REMARK UNBOUND:                -0.009
REMARK SMILES CCCC(=O)[O-]
REMARK SMILES IDX 3 1 4 2 5 3 6 4 2 5 1 6
REMARK H PARENT
REMARK Flexibility Score: inf
ROOT
ATOM      1  C   UNL     1       3.112  29.620  31.983  1.00  0.00     0.052 C 
ENDROOT
BRANCH   1   2
ATOM      2  C   UNL     1       2.459  30.446  33.048  1.00  0.00     0.041 C 
ATOM      3  O   UNL     1       1.655  31.363  32.735  1.00  0.00    -0.550 OA
ATOM      4  O   UNL     1       2.711  30.180  34.389  1.00  0.00    -0.550 OA
ENDBRANCH   1   2
BRANCH   1   5
ATOM      5  C   UNL     1       4.495  30.166  31.606  1.00  0.00     0.003 C 
ATOM      6  C   UNL     1       4.796  30.009  30.116  1.00  0.00     0.004 C 
ENDBRANCH   1   5
TORSDOF 2
ENDMDL
MODEL 2
REMARK VINA RESULT:    -3.154      2.228      3.162
REMARK INTER + INTRA:          -3.531
REMARK INTER:                  -3.491
REMARK INTRA:                  -0.041
REMARK UNBOUND:                -0.009
REMARK SMILES CCCC(=O)[O-]
REMARK SMILES IDX 3 1 4 2 5 3 6 4 2 5 1 6
REMARK H PARENT
REMARK Flexibility Score: inf
ROOT
ATOM      1  C   UNL     1       3.054  29.621  31.980  1.00  0.00     0.052 C 
ENDROOT
BRANCH   1   2
ATOM      2  C   UNL     1       4.431  30.063  31.592  1.00  0.00     0.041 C 
ATOM      3  O   UNL     1       4.843  29.893  30.414  1.00  0.00    -0.550 OA
ATOM      4  O   UNL     1       5.248  30.696  32.521  1.00  0.00    -0.550 OA
ENDBRANCH   1   2
BRANCH   1   5
ATOM      5  C   UNL     1       2.570  30.318  33.258  1.00  0.00     0.003 C 
ATOM      6  C   UNL     1       1.842  31.629  32.965  1.00  0.00     0.004 C 
ENDBRANCH   1   5
TORSDOF 2
ENDMDL
MODEL 3
REMARK VINA RESULT:    -3.119      1.502      2.000
REMARK INTER + INTRA:          -3.492
REMARK INTER:                  -3.457
REMARK INTRA:                  -0.035
REMARK UNBOUND:                -0.009
REMARK SMILES CCCC(=O)[O-]
REMARK SMILES IDX 3 1 4 2 5 3 6 4 2 5 1 6
REMARK H PARENT
REMARK Flexibility Score: inf
ROOT
ATOM      1  C   UNL     1       2.892  30.552  33.042  1.00  0.00     0.052 C 
ENDROOT
BRANCH   1   2
ATOM      2  C   UNL     1       3.499  30.105  34.336  1.00  0.00     0.041 C 
ATOM      3  O   UNL     1       2.768  29.644  35.252  1.00  0.00    -0.550 OA
ATOM      4  O   UNL     1       4.875  30.164  34.518  1.00  0.00    -0.550 OA
ENDBRANCH   1   2
BRANCH   1   5
ATOM      5  C   UNL     1       3.053  29.495  31.942  1.00  0.00     0.003 C 
ATOM      6  C   UNL     1       4.279  29.749  31.065  1.00  0.00     0.004 C 
ENDBRANCH   1   5
TORSDOF 2
ENDMDL
MODEL 4
REMARK VINA RESULT:    -3.083      2.537      3.075
REMARK INTER + INTRA:          -3.452
REMARK INTER:                  -3.395
REMARK INTRA:                  -0.057
REMARK UNBOUND:                -0.009
REMARK SMILES CCCC(=O)[O-]
REMARK SMILES IDX 3 1 4 2 5 3 6 4 2 5 1 6
REMARK H PARENT
REMARK Flexibility Score: inf
ROOT
ATOM      1  C   UNL     1       4.221  31.284  32.427  1.00  0.00     0.052 C 
ENDROOT
BRANCH   1   2
ATOM      2  C   UNL     1       3.916  30.006  31.708  1.00  0.00     0.041 C 
ATOM      3  O   UNL     1       4.687  29.588  30.805  1.00  0.00    -0.550 OA
ATOM      4  O   UNL     1       2.799  29.258  32.060  1.00  0.00    -0.550 OA
ENDBRANCH   1   2
BRANCH   1   5
ATOM      5  C   UNL     1       5.387  31.122  33.410  1.00  0.00     0.003 C 
ATOM      6  C   UNL     1       4.971  30.401  34.692  1.00  0.00     0.004 C 
ENDBRANCH   1   5
TORSDOF 2
ENDMDL
MODEL 5
REMARK VINA RESULT:    -3.001      2.059      2.855
REMARK INTER + INTRA:          -3.360
REMARK INTER:                  -3.305
REMARK INTRA:                  -0.055
REMARK UNBOUND:                -0.009
REMARK SMILES CCCC(=O)[O-]
REMARK SMILES IDX 3 1 4 2 5 3 6 4 2 5 1 6
REMARK H PARENT
REMARK Flexibility Score: inf
ROOT
ATOM      1  C   UNL     1       4.356  30.219  32.143  1.00  0.00     0.052 C 
ENDROOT
BRANCH   1   2
ATOM      2  C   UNL     1       4.999  30.723  33.398  1.00  0.00     0.041 C 
ATOM      3  O   UNL     1       5.658  31.797  33.385  1.00  0.00    -0.550 OA
ATOM      4  O   UNL     1       4.842  30.027  34.590  1.00  0.00    -0.550 OA
ENDBRANCH   1   2
BRANCH   1   5
ATOM      5  C   UNL     1       2.896  29.808  32.376  1.00  0.00     0.003 C 
ATOM      6  C   UNL     1       2.018  30.990  32.787  1.00  0.00     0.004 C 
ENDBRANCH   1   5
TORSDOF 2
ENDMDL
MODEL 6
REMARK VINA RESULT:    -2.982     18.724     19.273
REMARK INTER + INTRA:          -3.339
REMARK INTER:                  -3.333
REMARK INTRA:                  -0.006
REMARK UNBOUND:                -0.009
REMARK SMILES CCCC(=O)[O-]
REMARK SMILES IDX 3 1 4 2 5 3 6 4 2 5 1 6
REMARK H PARENT
REMARK Flexibility Score: inf
ROOT
ATOM      1  C   UNL     1      -3.543  45.413  21.836  1.00  0.00     0.052 C 
ENDROOT
BRANCH   1   2
ATOM      2  C   UNL     1      -4.360  45.947  22.971  1.00  0.00     0.041 C 
ATOM      3  O   UNL     1      -5.003  45.160  23.714  1.00  0.00    -0.550 OA
ATOM      4  O   UNL     1      -4.384  47.312  23.231  1.00  0.00    -0.550 OA
ENDBRANCH   1   2
BRANCH   1   5
ATOM      5  C   UNL     1      -2.303  44.658  22.331  1.00  0.00     0.003 C 
ATOM      6  C   UNL     1      -1.476  44.079  21.183  1.00  0.00     0.004 C 
ENDBRANCH   1   5
TORSDOF 2
ENDMDL
MODEL 7
REMARK VINA RESULT:    -2.924      2.028      2.304
REMARK INTER + INTRA:          -3.275
REMARK INTER:                  -3.216
REMARK INTRA:                  -0.059
REMARK UNBOUND:                -0.009
REMARK SMILES CCCC(=O)[O-]
REMARK SMILES IDX 3 1 4 2 5 3 6 4 2 5 1 6
REMARK H PARENT
REMARK Flexibility Score: inf
ROOT
ATOM      1  C   UNL     1       3.196  30.442  34.422  1.00  0.00     0.052 C 
ENDROOT
BRANCH   1   2
ATOM      2  C   UNL     1       2.521  30.352  33.088  1.00  0.00     0.041 C 
ATOM      3  O   UNL     1       1.780  31.289  32.688  1.00  0.00    -0.550 OA
ATOM      4  O   UNL     1       2.737  29.249  32.270  1.00  0.00    -0.550 OA
ENDBRANCH   1   2
BRANCH   1   5
ATOM      5  C   UNL     1       4.713  30.248  34.307  1.00  0.00     0.003 C 
ATOM      6  C   UNL     1       5.360  31.265  33.368  1.00  0.00     0.004 C 
ENDBRANCH   1   5
TORSDOF 2
ENDMDL
MODEL 8
REMARK VINA RESULT:    -2.866     17.960     18.476
REMARK INTER + INTRA:          -3.210
REMARK INTER:                  -3.170
REMARK INTRA:                  -0.040
REMARK UNBOUND:                -0.009
REMARK SMILES CCCC(=O)[O-]
REMARK SMILES IDX 3 1 4 2 5 3 6 4 2 5 1 6
REMARK H PARENT
REMARK Flexibility Score: inf
ROOT
ATOM      1  C   UNL     1      -2.832  44.991  22.530  1.00  0.00     0.052 C 
ENDROOT
BRANCH   1   2
ATOM      2  C   UNL     1      -2.252  44.484  23.814  1.00  0.00     0.041 C 
ATOM      3  O   UNL     1      -3.008  44.051  24.723  1.00  0.00    -0.550 OA
ATOM      4  O   UNL     1      -0.874  44.456  23.993  1.00  0.00    -0.550 OA
ENDBRANCH   1   2
BRANCH   1   5
ATOM      5  C   UNL     1      -4.180  45.689  22.750  1.00  0.00     0.003 C 
ATOM      6  C   UNL     1      -4.018  47.106  23.301  1.00  0.00     0.004 C 
ENDBRANCH   1   5
TORSDOF 2
ENDMDL
MODEL 9
REMARK VINA RESULT:    -2.856     18.751     19.323
REMARK INTER + INTRA:          -3.199
REMARK INTER:                  -3.160
REMARK INTRA:                  -0.039
REMARK UNBOUND:                -0.009
REMARK SMILES CCCC(=O)[O-]
REMARK SMILES IDX 3 1 4 2 5 3 6 4 2 5 1 6
REMARK H PARENT
REMARK Flexibility Score: inf
ROOT
ATOM      1  C   UNL     1      -3.618  45.353  21.621  1.00  0.00     0.052 C 
ENDROOT
BRANCH   1   2
ATOM      2  C   UNL     1      -2.288  44.679  21.762  1.00  0.00     0.041 C 
ATOM      3  O   UNL     1      -1.673  44.272  20.742  1.00  0.00    -0.550 OA
ATOM      4  O   UNL     1      -1.711  44.532  23.018  1.00  0.00    -0.550 OA
ENDBRANCH   1   2
BRANCH   1   5
ATOM      5  C   UNL     1      -4.241  45.676  22.985  1.00  0.00     0.003 C 
ATOM      6  C   UNL     1      -4.139  47.160  23.335  1.00  0.00     0.004 C 
ENDBRANCH   1   5
TORSDOF 2
ENDMDL
