MODEL 1
REMARK VINA RESULT:    -2.177      0.000      0.000
REMARK INTER + INTRA:          -2.177
REMARK INTER:                  -2.177
REMARK INTRA:                   0.000
REMARK UNBOUND:                 0.000
REMARK SMILES CC(=O)[O-]
REMARK SMILES IDX 1 1 2 2 3 3 4 4
REMARK H PARENT
REMARK Flexibility Score: inf
ROOT
ATOM      1  C   UNL     1      -4.554  10.327  -9.125  1.00  0.00     0.063 C 
ATOM      2  C   UNL     1      -5.474  10.055  -7.985  1.00  0.00     0.038 C 
ATOM      3  O   UNL     1      -6.434   9.252  -8.126  1.00  0.00    -0.550 OA
ATOM      4  O   UNL     1      -5.309  10.727  -6.781  1.00  0.00    -0.550 OA
ENDROOT
TORSDOF 0
ENDMDL
MODEL 2
REMARK VINA RESULT:    -2.173     18.186     18.747
REMARK INTER + INTRA:          -2.173
REMARK INTER:                  -2.173
REMARK INTRA:                   0.000
REMARK UNBOUND:                 0.000
REMARK SMILES CC(=O)[O-]
REMARK SMILES IDX 1 1 2 2 3 3 4 4
REMARK H PARENT
REMARK Flexibility Score: inf
ROOT
ATOM      1  C   UNL     1       3.223  10.169   7.414  1.00  0.00     0.063 C 
ATOM      2  C   UNL     1       4.616   9.744   7.730  1.00  0.00     0.038 C 
ATOM      3  O   UNL     1       5.546   9.970   6.912  1.00  0.00    -0.550 OA
ATOM      4  O   UNL     1       4.884   9.050   8.903  1.00  0.00    -0.550 OA
ENDROOT
TORSDOF 0
ENDMDL
MODEL 3
REMARK VINA RESULT:    -2.139      0.199      1.630
REMARK INTER + INTRA:          -2.139
REMARK INTER:                  -2.139
REMARK INTRA:                   0.000
REMARK UNBOUND:                 0.000
REMARK SMILES CC(=O)[O-]
REMARK SMILES IDX 1 1 2 2 3 3 4 4
REMARK H PARENT
REMARK Flexibility Score: inf
ROOT
ATOM      1  C   UNL     1      -4.391  10.479  -9.075  1.00  0.00     0.063 C 
ATOM      2  C   UNL     1      -5.327  10.230  -7.943  1.00  0.00     0.038 C 
ATOM      3  O   UNL     1      -5.183  10.848  -6.856  1.00  0.00    -0.550 OA
ATOM      4  O   UNL     1      -6.330   9.276  -8.065  1.00  0.00    -0.550 OA
ENDROOT
TORSDOF 0
ENDMDL
MODEL 4
REMARK VINA RESULT:    -2.133     17.667     18.178
REMARK INTER + INTRA:          -2.133
REMARK INTER:                  -2.133
REMARK INTRA:                   0.000
REMARK UNBOUND:                 0.000
REMARK SMILES CC(=O)[O-]
REMARK SMILES IDX 1 1 2 2 3 3 4 4
REMARK H PARENT
REMARK Flexibility Score: inf
ROOT
ATOM      1  C   UNL     1       5.966  11.199   4.301  1.00  0.00     0.063 C 
ATOM      2  C   UNL     1       6.636  10.701   5.535  1.00  0.00     0.038 C 
ATOM      3  O   UNL     1       5.953  10.218   6.475  1.00  0.00    -0.550 OA
ATOM      4  O   UNL     1       8.014  10.817   5.674  1.00  0.00    -0.550 OA
ENDROOT
TORSDOF 0
ENDMDL
MODEL 5
REMARK VINA RESULT:    -2.110      1.659      1.791
REMARK INTER + INTRA:          -2.110
REMARK INTER:                  -2.110
REMARK INTRA:                   0.000
REMARK UNBOUND:                 0.000
REMARK SMILES CC(=O)[O-]
REMARK SMILES IDX 1 1 2 2 3 3 4 4
REMARK H PARENT
REMARK Flexibility Score: inf
ROOT
ATOM      1  C   UNL     1      -5.782   9.689  -7.884  1.00  0.00     0.063 C 
ATOM      2  C   UNL     1      -5.974  10.695  -6.801  1.00  0.00     0.038 C 
ATOM      3  O   UNL     1      -7.134  11.045  -6.462  1.00  0.00    -0.550 OA
ATOM      4  O   UNL     1      -4.872  11.288  -6.199  1.00  0.00    -0.550 OA
ENDROOT
TORSDOF 0
ENDMDL
MODEL 6
REMARK VINA RESULT:    -2.102      1.475      2.161
REMARK INTER + INTRA:          -2.102
REMARK INTER:                  -2.102
REMARK INTRA:                   0.000
REMARK UNBOUND:                 0.000
REMARK SMILES CC(=O)[O-]
REMARK SMILES IDX 1 1 2 2 3 3 4 4
REMARK H PARENT
REMARK Flexibility Score: inf
ROOT
ATOM      1  C   UNL     1      -6.379   9.399  -7.853  1.00  0.00     0.063 C 
ATOM      2  C   UNL     1      -5.184  10.290  -7.838  1.00  0.00     0.038 C 
ATOM      3  O   UNL     1      -5.011  11.101  -6.891  1.00  0.00    -0.550 OA
ATOM      4  O   UNL     1      -4.285  10.266  -8.897  1.00  0.00    -0.550 OA
ENDROOT
TORSDOF 0
ENDMDL
MODEL 7
REMARK VINA RESULT:    -2.088      1.686      1.865
REMARK INTER + INTRA:          -2.088
REMARK INTER:                  -2.088
REMARK INTRA:                   0.000
REMARK UNBOUND:                 0.000
REMARK SMILES CC(=O)[O-]
REMARK SMILES IDX 1 1 2 2 3 3 4 4
REMARK H PARENT
REMARK Flexibility Score: inf
ROOT
ATOM      1  C   UNL     1      -6.005   9.747  -8.204  1.00  0.00     0.063 C 
ATOM      2  C   UNL     1      -4.746  10.538  -8.114  1.00  0.00     0.038 C 
ATOM      3  O   UNL     1      -3.895  10.480  -9.040  1.00  0.00    -0.550 OA
ATOM      4  O   UNL     1      -4.481  11.301  -6.983  1.00  0.00    -0.550 OA
ENDROOT
TORSDOF 0
ENDMDL
MODEL 8
REMARK VINA RESULT:    -2.080     18.024     18.571
REMARK INTER + INTRA:          -2.080
REMARK INTER:                  -2.080
REMARK INTRA:                   0.000
REMARK UNBOUND:                 0.000
REMARK SMILES CC(=O)[O-]
REMARK SMILES IDX 1 1 2 2 3 3 4 4
REMARK H PARENT
REMARK Flexibility Score: inf
ROOT
ATOM      1  C   UNL     1       5.573  10.372   6.727  1.00  0.00     0.063 C 
ATOM      2  C   UNL     1       4.524   9.846   7.646  1.00  0.00     0.038 C 
ATOM      3  O   UNL     1       4.849   9.148   8.642  1.00  0.00    -0.550 OA
ATOM      4  O   UNL     1       3.182  10.077   7.376  1.00  0.00    -0.550 OA
ENDROOT
TORSDOF 0
ENDMDL
MODEL 9
REMARK VINA RESULT:    -2.071      1.628      2.076
REMARK INTER + INTRA:          -2.071
REMARK INTER:                  -2.071
REMARK INTRA:                   0.000
REMARK UNBOUND:                 0.000
REMARK SMILES CC(=O)[O-]
REMARK SMILES IDX 1 1 2 2 3 3 4 4
REMARK H PARENT
REMARK Flexibility Score: inf
ROOT
ATOM      1  C   UNL     1      -4.091  10.619  -8.818  1.00  0.00     0.063 C 
ATOM      2  C   UNL     1      -4.207  11.311  -7.503  1.00  0.00     0.038 C 
ATOM      3  O   UNL     1      -5.184  11.071  -6.747  1.00  0.00    -0.550 OA
ATOM      4  O   UNL     1      -3.266  12.263  -7.132  1.00  0.00    -0.550 OA
ENDROOT
TORSDOF 0
ENDMDL
