MODEL 1
REMARK VINA RESULT:    -3.983      0.000      0.000
REMARK INTER + INTRA:          -9.545
REMARK INTER:                  -7.475
REMARK INTRA:                  -2.070
REMARK UNBOUND:                -2.070
REMARK SMILES O=C([O-])CCCCCCCCCCCCCCC(=O)[O-]
REMARK SMILES IDX 10 1 9 2 8 3 7 4 6 5 5 6 4 7 2 8 1 9 3 10 11 11 12 12 13 13
REMARK SMILES IDX 14 14 15 15 16 16 17 17 18 18 19 19 20 20
REMARK H PARENT
REMARK Flexibility Score: inf
ROOT
ATOM      1  C   UNL     1      28.599 -19.060  24.225  1.00  0.00     0.000 C 
ENDROOT
BRANCH   1   2
ATOM      2  C   UNL     1      27.551 -19.729  25.131  1.00  0.00     0.000 C 
BRANCH   2   3
ATOM      3  C   UNL     1      26.282 -18.875  25.292  1.00  0.00     0.000 C 
BRANCH   3   4
ATOM      4  C   UNL     1      26.396 -17.517  24.575  1.00  0.00     0.000 C 
BRANCH   4   5
ATOM      5  C   UNL     1      26.469 -16.335  25.556  1.00  0.00     0.000 C 
BRANCH   5   6
ATOM      6  C   UNL     1      25.324 -16.343  26.580  1.00  0.00     0.006 C 
BRANCH   6   7
ATOM      7  C   UNL     1      24.525 -15.037  26.514  1.00  0.00     0.053 C 
BRANCH   7   8
ATOM      8  C   UNL     1      23.058 -15.325  26.430  1.00  0.00     0.041 C 
ATOM      9  O   UNL     1      22.572 -16.321  27.027  1.00  0.00    -0.550 OA
ATOM     10  O   UNL     1      22.236 -14.520  25.651  1.00  0.00    -0.550 OA
ENDBRANCH   7   8
ENDBRANCH   6   7
ENDBRANCH   5   6
ENDBRANCH   4   5
ENDBRANCH   3   4
ENDBRANCH   2   3
ENDBRANCH   1   2
BRANCH   1  11
ATOM     11  C   UNL     1      29.860 -18.619  24.991  1.00  0.00     0.000 C 
BRANCH  11  12
ATOM     12  C   UNL     1      30.395 -19.636  26.017  1.00  0.00     0.000 C 
BRANCH  12  13
ATOM     13  C   UNL     1      30.370 -19.103  27.459  1.00  0.00     0.000 C 
BRANCH  13  14
ATOM     14  C   UNL     1      29.609 -20.032  28.418  1.00  0.00     0.000 C 
BRANCH  14  15
ATOM     15  C   UNL     1      28.223 -19.489  28.798  1.00  0.00     0.000 C 
BRANCH  15  16
ATOM     16  C   UNL     1      28.108 -17.997  28.456  1.00  0.00     0.006 C 
BRANCH  16  17
ATOM     17  C   UNL     1      27.645 -17.159  29.656  1.00  0.00     0.053 C 
BRANCH  17  18
ATOM     18  C   UNL     1      28.742 -16.284  30.180  1.00  0.00     0.041 C 
ATOM     19  O   UNL     1      29.916 -16.730  30.276  1.00  0.00    -0.550 OA
ATOM     20  O   UNL     1      28.462 -14.989  30.593  1.00  0.00    -0.550 OA
ENDBRANCH  17  18
ENDBRANCH  16  17
ENDBRANCH  15  16
ENDBRANCH  14  15
ENDBRANCH  13  14
ENDBRANCH  12  13
ENDBRANCH  11  12
ENDBRANCH   1  11
TORSDOF 15
ENDMDL
MODEL 2
REMARK VINA RESULT:    -3.963      0.939      5.687
REMARK INTER + INTRA:          -9.508
REMARK INTER:                  -7.911
REMARK INTRA:                  -1.597
REMARK UNBOUND:                -2.070
REMARK SMILES O=C([O-])CCCCCCCCCCCCCCC(=O)[O-]
REMARK SMILES IDX 10 1 9 2 8 3 7 4 6 5 5 6 4 7 2 8 1 9 3 10 11 11 12 12 13 13
REMARK SMILES IDX 14 14 15 15 16 16 17 17 18 18 19 19 20 20
REMARK H PARENT
REMARK Flexibility Score: inf
ROOT
ATOM      1  C   UNL     1      29.876 -18.372  25.530  1.00  0.00     0.000 C 
ENDROOT
BRANCH   1   2
ATOM      2  C   UNL     1      30.743 -19.467  26.174  1.00  0.00     0.000 C 
BRANCH   2   3
ATOM      3  C   UNL     1      30.479 -19.613  27.683  1.00  0.00     0.000 C 
BRANCH   3   4
ATOM      4  C   UNL     1      29.945 -18.314  28.312  1.00  0.00     0.000 C 
BRANCH   4   5
ATOM      5  C   UNL     1      28.652 -18.534  29.114  1.00  0.00     0.000 C 
BRANCH   5   6
ATOM      6  C   UNL     1      27.876 -17.230  29.358  1.00  0.00     0.006 C 
BRANCH   6   7
ATOM      7  C   UNL     1      28.188 -16.661  30.745  1.00  0.00     0.053 C 
BRANCH   7   8
ATOM      8  C   UNL     1      29.018 -15.421  30.628  1.00  0.00     0.041 C 
ATOM      9  O   UNL     1      30.273 -15.502  30.574  1.00  0.00    -0.550 OA
ATOM     10  O   UNL     1      28.407 -14.173  30.628  1.00  0.00    -0.550 OA
ENDBRANCH   7   8
ENDBRANCH   6   7
ENDBRANCH   5   6
ENDBRANCH   4   5
ENDBRANCH   3   4
ENDBRANCH   2   3
ENDBRANCH   1   2
BRANCH   1  11
ATOM     11  C   UNL     1      28.919 -18.920  24.454  1.00  0.00     0.000 C 
BRANCH  11  12
ATOM     12  C   UNL     1      27.420 -18.738  24.755  1.00  0.00     0.000 C 
BRANCH  12  13
ATOM     13  C   UNL     1      27.149 -17.690  25.847  1.00  0.00     0.000 C 
BRANCH  13  14
ATOM     14  C   UNL     1      26.647 -16.356  25.273  1.00  0.00     0.000 C 
BRANCH  14  15
ATOM     15  C   UNL     1      25.492 -15.755  26.089  1.00  0.00     0.000 C 
BRANCH  15  16
ATOM     16  C   UNL     1      24.555 -16.857  26.605  1.00  0.00     0.006 C 
BRANCH  16  17
ATOM     17  C   UNL     1      23.112 -16.669  26.118  1.00  0.00     0.053 C 
BRANCH  17  18
ATOM     18  C   UNL     1      22.550 -15.346  26.540  1.00  0.00     0.041 C 
ATOM     19  O   UNL     1      22.313 -14.456  25.681  1.00  0.00    -0.550 OA
ATOM     20  O   UNL     1      22.320 -15.084  27.884  1.00  0.00    -0.550 OA
ENDBRANCH  17  18
ENDBRANCH  16  17
ENDBRANCH  15  16
ENDBRANCH  14  15
ENDBRANCH  13  14
ENDBRANCH  12  13
ENDBRANCH  11  12
ENDBRANCH   1  11
TORSDOF 15
ENDMDL
MODEL 3
REMARK VINA RESULT:    -3.936      1.539      5.926
REMARK INTER + INTRA:          -9.457
REMARK INTER:                  -7.959
REMARK INTRA:                  -1.498
REMARK UNBOUND:                -2.070
REMARK SMILES O=C([O-])CCCCCCCCCCCCCCC(=O)[O-]
REMARK SMILES IDX 10 1 9 2 8 3 7 4 6 5 5 6 4 7 2 8 1 9 3 10 11 11 12 12 13 13
REMARK SMILES IDX 14 14 15 15 16 16 17 17 18 18 19 19 20 20
REMARK H PARENT
REMARK Flexibility Score: inf
ROOT
ATOM      1  C   UNL     1      29.701 -18.634  26.682  1.00  0.00     0.000 C 
ENDROOT
BRANCH   1   2
ATOM      2  C   UNL     1      29.499 -18.456  28.197  1.00  0.00     0.000 C 
BRANCH   2   3
ATOM      3  C   UNL     1      28.017 -18.302  28.578  1.00  0.00     0.000 C 
BRANCH   3   4
ATOM      4  C   UNL     1      27.743 -16.998  29.349  1.00  0.00     0.000 C 
BRANCH   4   5
ATOM      5  C   UNL     1      28.527 -16.917  30.670  1.00  0.00     0.000 C 
BRANCH   5   6
ATOM      6  C   UNL     1      29.487 -15.718  30.717  1.00  0.00     0.006 C 
BRANCH   6   7
ATOM      7  C   UNL     1      28.712 -14.403  30.835  1.00  0.00     0.053 C 
BRANCH   7   8
ATOM      8  C   UNL     1      29.556 -13.354  31.488  1.00  0.00     0.041 C 
ATOM      9  O   UNL     1      29.032 -12.503  32.254  1.00  0.00    -0.550 OA
ATOM     10  O   UNL     1      30.916 -13.286  31.213  1.00  0.00    -0.550 OA
ENDBRANCH   7   8
ENDBRANCH   6   7
ENDBRANCH   5   6
ENDBRANCH   4   5
ENDBRANCH   3   4
ENDBRANCH   2   3
ENDBRANCH   1   2
BRANCH   1  11
ATOM     11  C   UNL     1      28.985 -19.877  26.123  1.00  0.00     0.000 C 
BRANCH  11  12
ATOM     12  C   UNL     1      28.087 -19.622  24.898  1.00  0.00     0.000 C 
BRANCH  12  13
ATOM     13  C   UNL     1      26.824 -18.812  25.237  1.00  0.00     0.000 C 
BRANCH  13  14
ATOM     14  C   UNL     1      26.855 -17.395  24.642  1.00  0.00     0.000 C 
BRANCH  14  15
ATOM     15  C   UNL     1      26.257 -16.341  25.586  1.00  0.00     0.000 C 
BRANCH  15  16
ATOM     16  C   UNL     1      25.235 -16.977  26.540  1.00  0.00     0.006 C 
BRANCH  16  17
ATOM     17  C   UNL     1      23.791 -16.791  26.054  1.00  0.00     0.053 C 
BRANCH  17  18
ATOM     18  C   UNL     1      23.117 -15.642  26.738  1.00  0.00     0.041 C 
ATOM     19  O   UNL     1      22.339 -15.850  27.706  1.00  0.00    -0.550 OA
ATOM     20  O   UNL     1      23.322 -14.345  26.285  1.00  0.00    -0.550 OA
ENDBRANCH  17  18
ENDBRANCH  16  17
ENDBRANCH  15  16
ENDBRANCH  14  15
ENDBRANCH  13  14
ENDBRANCH  12  13
ENDBRANCH  11  12
ENDBRANCH   1  11
TORSDOF 15
ENDMDL
MODEL 4
REMARK VINA RESULT:    -3.928      2.829      5.097
REMARK INTER + INTRA:          -9.443
REMARK INTER:                  -7.802
REMARK INTRA:                  -1.642
REMARK UNBOUND:                -2.070
REMARK SMILES O=C([O-])CCCCCCCCCCCCCCC(=O)[O-]
REMARK SMILES IDX 10 1 9 2 8 3 7 4 6 5 5 6 4 7 2 8 1 9 3 10 11 11 12 12 13 13
REMARK SMILES IDX 14 14 15 15 16 16 17 17 18 18 19 19 20 20
REMARK H PARENT
REMARK Flexibility Score: inf
ROOT
ATOM      1  C   UNL     1      24.759 -14.616  26.373  1.00  0.00     0.000 C 
ENDROOT
BRANCH   1   2
ATOM      2  C   UNL     1      23.330 -14.834  26.900  1.00  0.00     0.000 C 
BRANCH   2   3
ATOM      3  C   UNL     1      22.523 -15.809  26.026  1.00  0.00     0.000 C 
BRANCH   3   4
ATOM      4  C   UNL     1      22.220 -17.132  26.751  1.00  0.00     0.000 C 
BRANCH   4   5
ATOM      5  C   UNL     1      22.366 -17.016  28.278  1.00  0.00     0.000 C 
BRANCH   5   6
ATOM      6  C   UNL     1      21.014 -16.874  28.994  1.00  0.00     0.006 C 
BRANCH   6   7
ATOM      7  C   UNL     1      20.781 -15.426  29.436  1.00  0.00     0.053 C 
BRANCH   7   8
ATOM      8  C   UNL     1      19.535 -15.324  30.260  1.00  0.00     0.041 C 
ATOM      9  O   UNL     1      18.461 -14.926  29.738  1.00  0.00    -0.550 OA
ATOM     10  O   UNL     1      19.573 -15.623  31.616  1.00  0.00    -0.550 OA
ENDBRANCH   7   8
ENDBRANCH   6   7
ENDBRANCH   5   6
ENDBRANCH   4   5
ENDBRANCH   3   4
ENDBRANCH   2   3
ENDBRANCH   1   2
BRANCH   1  11
ATOM     11  C   UNL     1      25.652 -15.860  26.531  1.00  0.00     0.000 C 
BRANCH  11  12
ATOM     12  C   UNL     1      26.578 -16.160  25.338  1.00  0.00     0.000 C 
BRANCH  12  13
ATOM     13  C   UNL     1      26.242 -17.487  24.636  1.00  0.00     0.000 C 
BRANCH  13  14
ATOM     14  C   UNL     1      25.557 -18.493  25.575  1.00  0.00     0.000 C 
BRANCH  14  15
ATOM     15  C   UNL     1      26.266 -19.855  25.605  1.00  0.00     0.000 C 
BRANCH  15  16
ATOM     16  C   UNL     1      27.652 -19.767  24.949  1.00  0.00     0.006 C 
BRANCH  16  17
ATOM     17  C   UNL     1      28.786 -20.051  25.943  1.00  0.00     0.053 C 
BRANCH  17  18
ATOM     18  C   UNL     1      29.272 -18.798  26.605  1.00  0.00     0.041 C 
ATOM     19  O   UNL     1      30.385 -18.304  26.283  1.00  0.00    -0.550 OA
ATOM     20  O   UNL     1      28.514 -18.197  27.601  1.00  0.00    -0.550 OA
ENDBRANCH  17  18
ENDBRANCH  16  17
ENDBRANCH  15  16
ENDBRANCH  14  15
ENDBRANCH  13  14
ENDBRANCH  12  13
ENDBRANCH  11  12
ENDBRANCH   1  11
TORSDOF 15
ENDMDL
MODEL 5
REMARK VINA RESULT:    -3.925      1.439      2.217
REMARK INTER + INTRA:          -9.437
REMARK INTER:                  -7.701
REMARK INTRA:                  -1.736
REMARK UNBOUND:                -2.070
REMARK SMILES O=C([O-])CCCCCCCCCCCCCCC(=O)[O-]
REMARK SMILES IDX 10 1 9 2 8 3 7 4 6 5 5 6 4 7 2 8 1 9 3 10 11 11 12 12 13 13
REMARK SMILES IDX 14 14 15 15 16 16 17 17 18 18 19 19 20 20
REMARK H PARENT
REMARK Flexibility Score: inf
ROOT
ATOM      1  C   UNL     1      30.352 -18.657  25.163  1.00  0.00     0.000 C 
ENDROOT
BRANCH   1   2
ATOM      2  C   UNL     1      28.946 -19.273  25.267  1.00  0.00     0.000 C 
BRANCH   2   3
ATOM      3  C   UNL     1      27.901 -18.490  24.453  1.00  0.00     0.000 C 
BRANCH   3   4
ATOM      4  C   UNL     1      27.175 -17.429  25.298  1.00  0.00     0.000 C 
BRANCH   4   5
ATOM      5  C   UNL     1      25.962 -17.999  26.050  1.00  0.00     0.000 C 
BRANCH   5   6
ATOM      6  C   UNL     1      24.930 -16.922  26.417  1.00  0.00     0.006 C 
BRANCH   6   7
ATOM      7  C   UNL     1      25.531 -15.520  26.271  1.00  0.00     0.053 C 
BRANCH   7   8
ATOM      8  C   UNL     1      24.504 -14.476  26.581  1.00  0.00     0.041 C 
ATOM      9  O   UNL     1      24.811 -13.255  26.546  1.00  0.00    -0.550 OA
ATOM     10  O   UNL     1      23.221 -14.853  26.957  1.00  0.00    -0.550 OA
ENDBRANCH   7   8
ENDBRANCH   6   7
ENDBRANCH   5   6
ENDBRANCH   4   5
ENDBRANCH   3   4
ENDBRANCH   2   3
ENDBRANCH   1   2
BRANCH   1  11
ATOM     11  C   UNL     1      30.950 -18.294  26.535  1.00  0.00     0.000 C 
BRANCH  11  12
ATOM     12  C   UNL     1      30.376 -19.077  27.730  1.00  0.00     0.000 C 
BRANCH  12  13
ATOM     13  C   UNL     1      29.809 -18.163  28.829  1.00  0.00     0.000 C 
BRANCH  13  14
ATOM     14  C   UNL     1      28.273 -18.197  28.889  1.00  0.00     0.000 C 
BRANCH  14  15
ATOM     15  C   UNL     1      27.664 -16.849  29.302  1.00  0.00     0.000 C 
BRANCH  15  16
ATOM     16  C   UNL     1      28.275 -16.352  30.621  1.00  0.00     0.006 C 
BRANCH  16  17
ATOM     17  C   UNL     1      28.314 -14.820  30.704  1.00  0.00     0.053 C 
BRANCH  17  18
ATOM     18  C   UNL     1      29.714 -14.306  30.837  1.00  0.00     0.041 C 
ATOM     19  O   UNL     1      29.919 -13.114  31.191  1.00  0.00    -0.550 OA
ATOM     20  O   UNL     1      30.791 -15.130  30.538  1.00  0.00    -0.550 OA
ENDBRANCH  17  18
ENDBRANCH  16  17
ENDBRANCH  15  16
ENDBRANCH  14  15
ENDBRANCH  13  14
ENDBRANCH  12  13
ENDBRANCH  11  12
ENDBRANCH   1  11
TORSDOF 15
ENDMDL
MODEL 6
REMARK VINA RESULT:    -3.907      4.194      8.340
REMARK INTER + INTRA:          -9.404
REMARK INTER:                  -8.339
REMARK INTRA:                  -1.064
REMARK UNBOUND:                -2.070
REMARK SMILES O=C([O-])CCCCCCCCCCCCCCC(=O)[O-]
REMARK SMILES IDX 10 1 9 2 8 3 7 4 6 5 5 6 4 7 2 8 1 9 3 10 11 11 12 12 13 13
REMARK SMILES IDX 14 14 15 15 16 16 17 17 18 18 19 19 20 20
REMARK H PARENT
REMARK Flexibility Score: inf
ROOT
ATOM      1  C   UNL     1      23.331 -17.276  26.008  1.00  0.00     0.000 C 
ENDROOT
BRANCH   1   2
ATOM      2  C   UNL     1      24.823 -17.498  26.314  1.00  0.00     0.000 C 
BRANCH   2   3
ATOM      3  C   UNL     1      25.660 -16.222  26.115  1.00  0.00     0.000 C 
BRANCH   3   4
ATOM      4  C   UNL     1      26.838 -16.441  25.149  1.00  0.00     0.000 C 
BRANCH   4   5
ATOM      5  C   UNL     1      26.654 -17.684  24.263  1.00  0.00     0.000 C 
BRANCH   5   6
ATOM      6  C   UNL     1      27.887 -18.599  24.262  1.00  0.00     0.006 C 
BRANCH   6   7
ATOM      7  C   UNL     1      28.774 -18.321  25.480  1.00  0.00     0.053 C 
BRANCH   7   8
ATOM      8  C   UNL     1      30.101 -18.998  25.327  1.00  0.00     0.041 C 
ATOM      9  O   UNL     1      30.852 -18.709  24.359  1.00  0.00    -0.550 OA
ATOM     10  O   UNL     1      30.485 -19.983  26.228  1.00  0.00    -0.550 OA
ENDBRANCH   7   8
ENDBRANCH   6   7
ENDBRANCH   5   6
ENDBRANCH   4   5
ENDBRANCH   3   4
ENDBRANCH   2   3
ENDBRANCH   1   2
BRANCH   1  11
ATOM     11  C   UNL     1      22.869 -15.835  26.292  1.00  0.00     0.000 C 
BRANCH  11  12
ATOM     12  C   UNL     1      22.270 -15.601  27.692  1.00  0.00     0.000 C 
BRANCH  12  13
ATOM     13  C   UNL     1      21.846 -16.906  28.388  1.00  0.00     0.000 C 
BRANCH  13  14
ATOM     14  C   UNL     1      20.626 -16.716  29.304  1.00  0.00     0.000 C 
BRANCH  14  15
ATOM     15  C   UNL     1      20.397 -15.248  29.694  1.00  0.00     0.000 C 
BRANCH  15  16
ATOM     16  C   UNL     1      18.911 -14.980  29.970  1.00  0.00     0.006 C 
BRANCH  16  17
ATOM     17  C   UNL     1      18.401 -15.741  31.201  1.00  0.00     0.053 C 
BRANCH  17  18
ATOM     18  C   UNL     1      17.168 -16.534  30.895  1.00  0.00     0.041 C 
ATOM     19  O   UNL     1      16.301 -16.726  31.789  1.00  0.00    -0.550 OA
ATOM     20  O   UNL     1      16.992 -17.089  29.635  1.00  0.00    -0.550 OA
ENDBRANCH  17  18
ENDBRANCH  16  17
ENDBRANCH  15  16
ENDBRANCH  14  15
ENDBRANCH  13  14
ENDBRANCH  12  13
ENDBRANCH  11  12
ENDBRANCH   1  11
TORSDOF 15
ENDMDL
MODEL 7
REMARK VINA RESULT:    -3.802      1.546      5.590
REMARK INTER + INTRA:          -9.205
REMARK INTER:                  -7.393
REMARK INTRA:                  -1.812
REMARK UNBOUND:                -2.070
REMARK SMILES O=C([O-])CCCCCCCCCCCCCCC(=O)[O-]
REMARK SMILES IDX 10 1 9 2 8 3 7 4 6 5 5 6 4 7 2 8 1 9 3 10 11 11 12 12 13 13
REMARK SMILES IDX 14 14 15 15 16 16 17 17 18 18 19 19 20 20
REMARK H PARENT
REMARK Flexibility Score: inf
ROOT
ATOM      1  C   UNL     1      27.995 -18.605  24.208  1.00  0.00     0.000 C 
ENDROOT
BRANCH   1   2
ATOM      2  C   UNL     1      28.531 -19.318  25.462  1.00  0.00     0.000 C 
BRANCH   2   3
ATOM      3  C   UNL     1      29.790 -18.640  26.030  1.00  0.00     0.000 C 
BRANCH   3   4
ATOM      4  C   UNL     1      29.824 -18.665  27.569  1.00  0.00     0.000 C 
BRANCH   4   5
ATOM      5  C   UNL     1      28.436 -18.451  28.195  1.00  0.00     0.000 C 
BRANCH   5   6
ATOM      6  C   UNL     1      28.478 -17.547  29.436  1.00  0.00     0.006 C 
BRANCH   6   7
ATOM      7  C   UNL     1      27.293 -17.838  30.363  1.00  0.00     0.053 C 
BRANCH   7   8
ATOM      8  C   UNL     1      27.458 -17.118  31.665  1.00  0.00     0.041 C 
ATOM      9  O   UNL     1      27.057 -17.646  32.735  1.00  0.00    -0.550 OA
ATOM     10  O   UNL     1      28.010 -15.843  31.689  1.00  0.00    -0.550 OA
ENDBRANCH   7   8
ENDBRANCH   6   7
ENDBRANCH   5   6
ENDBRANCH   4   5
ENDBRANCH   3   4
ENDBRANCH   2   3
ENDBRANCH   1   2
BRANCH   1  11
ATOM     11  C   UNL     1      26.677 -17.852  24.464  1.00  0.00     0.000 C 
BRANCH  11  12
ATOM     12  C   UNL     1      26.810 -16.553  25.282  1.00  0.00     0.000 C 
BRANCH  12  13
ATOM     13  C   UNL     1      25.957 -16.560  26.562  1.00  0.00     0.000 C 
BRANCH  13  14
ATOM     14  C   UNL     1      25.068 -17.809  26.671  1.00  0.00     0.000 C 
BRANCH  14  15
ATOM     15  C   UNL     1      23.798 -17.564  27.500  1.00  0.00     0.000 C 
BRANCH  15  16
ATOM     16  C   UNL     1      22.584 -17.337  26.587  1.00  0.00     0.006 C 
BRANCH  16  17
ATOM     17  C   UNL     1      22.506 -15.893  26.071  1.00  0.00     0.053 C 
BRANCH  17  18
ATOM     18  C   UNL     1      22.602 -14.898  27.185  1.00  0.00     0.041 C 
ATOM     19  O   UNL     1      23.523 -14.039  27.189  1.00  0.00    -0.550 OA
ATOM     20  O   UNL     1      21.696 -14.939  28.237  1.00  0.00    -0.550 OA
ENDBRANCH  17  18
ENDBRANCH  16  17
ENDBRANCH  15  16
ENDBRANCH  14  15
ENDBRANCH  13  14
ENDBRANCH  12  13
ENDBRANCH  11  12
ENDBRANCH   1  11
TORSDOF 15
ENDMDL
MODEL 8
REMARK VINA RESULT:    -3.777      5.379      8.948
REMARK INTER + INTRA:          -9.159
REMARK INTER:                  -7.953
REMARK INTRA:                  -1.206
REMARK UNBOUND:                -2.070
REMARK SMILES O=C([O-])CCCCCCCCCCCCCCC(=O)[O-]
REMARK SMILES IDX 10 1 9 2 8 3 7 4 6 5 5 6 4 7 2 8 1 9 3 10 11 11 12 12 13 13
REMARK SMILES IDX 14 14 15 15 16 16 17 17 18 18 19 19 20 20
REMARK H PARENT
REMARK Flexibility Score: inf
ROOT
ATOM      1  C   UNL     1      22.079 -15.271  27.854  1.00  0.00     0.000 C 
ENDROOT
BRANCH   1   2
ATOM      2  C   UNL     1      22.602 -15.498  26.425  1.00  0.00     0.000 C 
BRANCH   2   3
ATOM      3  C   UNL     1      22.581 -16.982  26.021  1.00  0.00     0.000 C 
BRANCH   3   4
ATOM      4  C   UNL     1      23.973 -17.496  25.612  1.00  0.00     0.000 C 
BRANCH   4   5
ATOM      5  C   UNL     1      25.099 -16.909  26.479  1.00  0.00     0.000 C 
BRANCH   5   6
ATOM      6  C   UNL     1      26.262 -16.353  25.643  1.00  0.00     0.006 C 
BRANCH   6   7
ATOM      7  C   UNL     1      26.653 -17.334  24.533  1.00  0.00     0.053 C 
BRANCH   7   8
ATOM      8  C   UNL     1      27.535 -18.415  25.075  1.00  0.00     0.041 C 
ATOM      9  O   UNL     1      27.425 -19.595  24.651  1.00  0.00    -0.550 OA
ATOM     10  O   UNL     1      28.445 -18.127  26.085  1.00  0.00    -0.550 OA
ENDBRANCH   7   8
ENDBRANCH   6   7
ENDBRANCH   5   6
ENDBRANCH   4   5
ENDBRANCH   3   4
ENDBRANCH   2   3
ENDBRANCH   1   2
BRANCH   1  11
ATOM     11  C   UNL     1      21.834 -16.584  28.619  1.00  0.00     0.000 C 
BRANCH  11  12
ATOM     12  C   UNL     1      20.525 -16.639  29.429  1.00  0.00     0.000 C 
BRANCH  12  13
ATOM     13  C   UNL     1      19.900 -15.252  29.652  1.00  0.00     0.000 C 
BRANCH  13  14
ATOM     14  C   UNL     1      19.173 -15.143  31.002  1.00  0.00     0.000 C 
BRANCH  14  15
ATOM     15  C   UNL     1      19.809 -16.018  32.093  1.00  0.00     0.000 C 
BRANCH  15  16
ATOM     16  C   UNL     1      18.731 -16.736  32.918  1.00  0.00     0.006 C 
BRANCH  16  17
ATOM     17  C   UNL     1      17.795 -17.581  32.043  1.00  0.00     0.053 C 
BRANCH  17  18
ATOM     18  C   UNL     1      16.393 -17.581  32.568  1.00  0.00     0.041 C 
ATOM     19  O   UNL     1      15.747 -16.503  32.650  1.00  0.00    -0.550 OA
ATOM     20  O   UNL     1      15.811 -18.766  33.000  1.00  0.00    -0.550 OA
ENDBRANCH  17  18
ENDBRANCH  16  17
ENDBRANCH  15  16
ENDBRANCH  14  15
ENDBRANCH  13  14
ENDBRANCH  12  13
ENDBRANCH  11  12
ENDBRANCH   1  11
TORSDOF 15
ENDMDL
MODEL 9
REMARK VINA RESULT:    -3.693      1.993      5.538
REMARK INTER + INTRA:          -9.001
REMARK INTER:                  -7.154
REMARK INTRA:                  -1.847
REMARK UNBOUND:                -2.070
REMARK SMILES O=C([O-])CCCCCCCCCCCCCCC(=O)[O-]
REMARK SMILES IDX 10 1 9 2 8 3 7 4 6 5 5 6 4 7 2 8 1 9 3 10 11 11 12 12 13 13
REMARK SMILES IDX 14 14 15 15 16 16 17 17 18 18 19 19 20 20
REMARK H PARENT
REMARK Flexibility Score: inf
ROOT
ATOM      1  C   UNL     1      26.060 -18.222  25.240  1.00  0.00     0.000 C 
ENDROOT
BRANCH   1   2
ATOM      2  C   UNL     1      27.336 -17.954  24.424  1.00  0.00     0.000 C 
BRANCH   2   3
ATOM      3  C   UNL     1      28.332 -19.125  24.490  1.00  0.00     0.000 C 
BRANCH   3   4
ATOM      4  C   UNL     1      29.673 -18.717  25.126  1.00  0.00     0.000 C 
BRANCH   4   5
ATOM      5  C   UNL     1      30.175 -19.742  26.155  1.00  0.00     0.000 C 
BRANCH   5   6
ATOM      6  C   UNL     1      29.154 -20.013  27.271  1.00  0.00     0.006 C 
BRANCH   6   7
ATOM      7  C   UNL     1      29.165 -18.883  28.305  1.00  0.00     0.053 C 
BRANCH   7   8
ATOM      8  C   UNL     1      27.769 -18.546  28.727  1.00  0.00     0.041 C 
ATOM      9  O   UNL     1      27.087 -19.375  29.384  1.00  0.00    -0.550 OA
ATOM     10  O   UNL     1      27.204 -17.333  28.352  1.00  0.00    -0.550 OA
ENDBRANCH   7   8
ENDBRANCH   6   7
ENDBRANCH   5   6
ENDBRANCH   4   5
ENDBRANCH   3   4
ENDBRANCH   2   3
ENDBRANCH   1   2
BRANCH   1  11
ATOM     11  C   UNL     1      25.890 -19.705  25.618  1.00  0.00     0.000 C 
BRANCH  11  12
ATOM     12  C   UNL     1      24.856 -19.986  26.725  1.00  0.00     0.000 C 
BRANCH  12  13
ATOM     13  C   UNL     1      23.572 -19.154  26.571  1.00  0.00     0.000 C 
BRANCH  13  14
ATOM     14  C   UNL     1      23.375 -18.155  27.723  1.00  0.00     0.000 C 
BRANCH  14  15
ATOM     15  C   UNL     1      22.352 -17.059  27.391  1.00  0.00     0.000 C 
BRANCH  15  16
ATOM     16  C   UNL     1      22.782 -16.267  26.148  1.00  0.00     0.006 C 
BRANCH  16  17
ATOM     17  C   UNL     1      22.816 -14.754  26.405  1.00  0.00     0.053 C 
BRANCH  17  18
ATOM     18  C   UNL     1      24.215 -14.251  26.582  1.00  0.00     0.041 C 
ATOM     19  O   UNL     1      24.458 -13.017  26.509  1.00  0.00    -0.550 OA
ATOM     20  O   UNL     1      25.256 -15.146  26.795  1.00  0.00    -0.550 OA
ENDBRANCH  17  18
ENDBRANCH  16  17
ENDBRANCH  15  16
ENDBRANCH  14  15
ENDBRANCH  13  14
ENDBRANCH  12  13
ENDBRANCH  11  12
ENDBRANCH   1  11
TORSDOF 15
ENDMDL
