MODEL 1
REMARK VINA RESULT:    -3.991      0.000      0.000
REMARK INTER + INTRA:          -4.811
REMARK INTER:                  -4.808
REMARK INTRA:                  -0.003
REMARK UNBOUND:                -0.003
REMARK SMILES OCC(O)CO
REMARK SMILES IDX 3 1 5 2 6 3 2 5 1 6 4 8
REMARK H PARENT 6 4 1 7 4 9
REMARK Flexibility Score: inf
ROOT
ATOM      1  C   UNL     1      15.894  13.854 163.050  1.00  0.00     0.165 C 
ENDROOT
BRANCH   1   2
ATOM      2  C   UNL     1      14.961  15.053 162.814  1.00  0.00     0.190 C 
BRANCH   2   3
ATOM      3  O   UNL     1      14.092  15.221 163.902  1.00  0.00    -0.394 OA
ATOM      4  H   UNL     1      13.989  14.327 164.322  1.00  0.00     0.210 HD
ENDBRANCH   2   3
ENDBRANCH   1   2
BRANCH   1   5
ATOM      5  C   UNL     1      17.311  14.141 162.524  1.00  0.00     0.190 C 
BRANCH   5   6
ATOM      6  O   UNL     1      18.105  12.988 162.601  1.00  0.00    -0.394 OA
ATOM      7  H   UNL     1      17.828  12.400 161.851  1.00  0.00     0.210 HD
ENDBRANCH   5   6
ENDBRANCH   1   5
BRANCH   1   8
ATOM      8  O   UNL     1      15.927  13.512 164.413  1.00  0.00    -0.388 OA
ATOM      9  H   UNL     1      14.989  13.468 164.734  1.00  0.00     0.211 HD
ENDBRANCH   1   8
TORSDOF 5
ENDMDL
MODEL 2
REMARK VINA RESULT:    -3.913      6.738      7.355
REMARK INTER + INTRA:          -4.717
REMARK INTER:                  -4.714
REMARK INTRA:                  -0.003
REMARK UNBOUND:                -0.003
REMARK SMILES OCC(O)CO
REMARK SMILES IDX 3 1 5 2 6 3 2 5 1 6 4 8
REMARK H PARENT 6 4 1 7 4 9
REMARK Flexibility Score: inf
ROOT
ATOM      1  C   UNL     1      10.349  11.205 161.252  1.00  0.00     0.165 C 
ENDROOT
BRANCH   1   2
ATOM      2  C   UNL     1       9.995  12.478 162.038  1.00  0.00     0.190 C 
BRANCH   2   3
ATOM      3  O   UNL     1       9.849  13.568 161.169  1.00  0.00    -0.394 OA
ATOM      4  H   UNL     1      10.745  13.986 161.086  1.00  0.00     0.210 HD
ENDBRANCH   2   3
ENDBRANCH   1   2
BRANCH   1   5
ATOM      5  C   UNL     1       9.474  10.018 161.691  1.00  0.00     0.190 C 
BRANCH   5   6
ATOM      6  O   UNL     1       9.898   8.839 161.062  1.00  0.00    -0.394 OA
ATOM      7  H   UNL     1      10.602   8.444 161.640  1.00  0.00     0.210 HD
ENDBRANCH   5   6
ENDBRANCH   1   5
BRANCH   1   8
ATOM      8  O   UNL     1      10.230  11.428 159.869  1.00  0.00    -0.388 OA
ATOM      9  H   UNL     1       9.642  12.217 159.742  1.00  0.00     0.211 HD
ENDBRANCH   1   8
TORSDOF 5
ENDMDL
MODEL 3
REMARK VINA RESULT:    -3.765      1.353      3.175
REMARK INTER + INTRA:          -4.538
REMARK INTER:                  -4.314
REMARK INTRA:                  -0.224
REMARK UNBOUND:                -0.003
REMARK SMILES OCC(O)CO
REMARK SMILES IDX 3 1 5 2 6 3 2 5 1 6 4 8
REMARK H PARENT 6 4 1 7 4 9
REMARK Flexibility Score: inf
ROOT
ATOM      1  C   UNL     1      14.501  14.761 162.804  1.00  0.00     0.165 C 
ENDROOT
BRANCH   1   2
ATOM      2  C   UNL     1      15.877  14.130 163.074  1.00  0.00     0.190 C 
BRANCH   2   3
ATOM      3  O   UNL     1      15.887  13.490 164.322  1.00  0.00    -0.394 OA
ATOM      4  H   UNL     1      16.515  13.999 164.896  1.00  0.00     0.210 HD
ENDBRANCH   2   3
ENDBRANCH   1   2
BRANCH   1   5
ATOM      5  C   UNL     1      13.448  13.684 162.490  1.00  0.00     0.190 C 
BRANCH   5   6
ATOM      6  O   UNL     1      13.060  13.022 163.663  1.00  0.00    -0.394 OA
ATOM      7  H   UNL     1      12.752  12.118 163.392  1.00  0.00     0.210 HD
ENDBRANCH   5   6
ENDBRANCH   1   5
BRANCH   1   8
ATOM      8  O   UNL     1      14.096  15.553 163.893  1.00  0.00    -0.388 OA
ATOM      9  H   UNL     1      13.160  15.307 164.110  1.00  0.00     0.211 HD
ENDBRANCH   1   8
TORSDOF 5
ENDMDL
MODEL 4
REMARK VINA RESULT:    -3.669      5.238      6.113
REMARK INTER + INTRA:          -4.422
REMARK INTER:                  -4.205
REMARK INTRA:                  -0.217
REMARK UNBOUND:                -0.003
REMARK SMILES OCC(O)CO
REMARK SMILES IDX 3 1 5 2 6 3 2 5 1 6 4 8
REMARK H PARENT 6 4 1 7 4 9
REMARK Flexibility Score: inf
ROOT
ATOM      1  C   UNL     1      11.155  12.674 162.054  1.00  0.00     0.165 C 
ENDROOT
BRANCH   1   2
ATOM      2  C   UNL     1      10.646  14.126 162.048  1.00  0.00     0.190 C 
BRANCH   2   3
ATOM      3  O   UNL     1       9.474  14.232 161.287  1.00  0.00    -0.394 OA
ATOM      4  H   UNL     1       9.695  14.797 160.503  1.00  0.00     0.210 HD
ENDBRANCH   2   3
ENDBRANCH   1   2
BRANCH   1   5
ATOM      5  C   UNL     1      10.121  11.721 161.430  1.00  0.00     0.190 C 
BRANCH   5   6
ATOM      6  O   UNL     1      10.330  11.608 160.048  1.00  0.00    -0.394 OA
ATOM      7  H   UNL     1      11.290  11.805 159.888  1.00  0.00     0.210 HD
ENDBRANCH   5   6
ENDBRANCH   1   5
BRANCH   1   8
ATOM      8  O   UNL     1      12.388  12.579 161.386  1.00  0.00    -0.388 OA
ATOM      9  H   UNL     1      12.350  11.781 160.797  1.00  0.00     0.211 HD
ENDBRANCH   1   8
TORSDOF 5
ENDMDL
MODEL 5
REMARK VINA RESULT:    -3.665      5.148      6.110
REMARK INTER + INTRA:          -4.417
REMARK INTER:                  -4.194
REMARK INTRA:                  -0.224
REMARK UNBOUND:                -0.003
REMARK SMILES OCC(O)CO
REMARK SMILES IDX 3 1 5 2 6 3 2 5 1 6 4 8
REMARK H PARENT 6 4 1 7 4 9
REMARK Flexibility Score: inf
ROOT
ATOM      1  C   UNL     1      10.365  12.988 162.126  1.00  0.00     0.165 C 
ENDROOT
BRANCH   1   2
ATOM      2  C   UNL     1      10.091  11.604 161.513  1.00  0.00     0.190 C 
BRANCH   2   3
ATOM      3  O   UNL     1      10.312  11.628 160.129  1.00  0.00    -0.394 OA
ATOM      4  H   UNL     1      10.950  10.893 159.932  1.00  0.00     0.210 HD
ENDBRANCH   2   3
ENDBRANCH   1   2
BRANCH   1   5
ATOM      5  C   UNL     1      11.876  13.253 162.245  1.00  0.00     0.190 C 
BRANCH   5   6
ATOM      6  O   UNL     1      12.444  13.430 160.975  1.00  0.00    -0.394 OA
ATOM      7  H   UNL     1      12.950  14.284 161.005  1.00  0.00     0.210 HD
ENDBRANCH   5   6
ENDBRANCH   1   5
BRANCH   1   8
ATOM      8  O   UNL     1       9.739  13.996 161.372  1.00  0.00    -0.388 OA
ATOM      9  H   UNL     1       8.762  13.827 161.399  1.00  0.00     0.211 HD
ENDBRANCH   1   8
TORSDOF 5
ENDMDL
MODEL 6
REMARK VINA RESULT:    -3.649      2.292      2.847
REMARK INTER + INTRA:          -4.399
REMARK INTER:                  -4.396
REMARK INTRA:                  -0.003
REMARK UNBOUND:                -0.003
REMARK SMILES OCC(O)CO
REMARK SMILES IDX 3 1 5 2 6 3 2 5 1 6 4 8
REMARK H PARENT 6 4 1 7 4 9
REMARK Flexibility Score: inf
ROOT
ATOM      1  C   UNL     1      13.853  13.360 162.821  1.00  0.00     0.165 C 
ENDROOT
BRANCH   1   2
ATOM      2  C   UNL     1      13.106  14.077 161.685  1.00  0.00     0.190 C 
BRANCH   2   3
ATOM      3  O   UNL     1      12.275  13.180 161.000  1.00  0.00    -0.394 OA
ATOM      4  H   UNL     1      12.665  12.277 161.131  1.00  0.00     0.210 HD
ENDBRANCH   2   3
ENDBRANCH   1   2
BRANCH   1   5
ATOM      5  C   UNL     1      15.147  14.105 163.193  1.00  0.00     0.190 C 
BRANCH   5   6
ATOM      6  O   UNL     1      15.751  13.509 164.309  1.00  0.00    -0.394 OA
ATOM      7  H   UNL     1      15.776  12.532 164.134  1.00  0.00     0.210 HD
ENDBRANCH   5   6
ENDBRANCH   1   5
BRANCH   1   8
ATOM      8  O   UNL     1      13.022  13.212 163.945  1.00  0.00    -0.388 OA
ATOM      9  H   UNL     1      13.579  13.362 164.752  1.00  0.00     0.211 HD
ENDBRANCH   1   8
TORSDOF 5
ENDMDL
MODEL 7
REMARK VINA RESULT:    -3.638      1.750      2.948
REMARK INTER + INTRA:          -4.385
REMARK INTER:                  -4.163
REMARK INTRA:                  -0.222
REMARK UNBOUND:                -0.003
REMARK SMILES OCC(O)CO
REMARK SMILES IDX 3 1 5 2 6 3 2 5 1 6 4 8
REMARK H PARENT 6 4 1 7 4 9
REMARK Flexibility Score: inf
ROOT
ATOM      1  C   UNL     1      14.888  13.991 163.010  1.00  0.00     0.165 C 
ENDROOT
BRANCH   1   2
ATOM      2  C   UNL     1      13.649  13.125 162.730  1.00  0.00     0.190 C 
BRANCH   2   3
ATOM      3  O   UNL     1      12.820  13.075 163.860  1.00  0.00    -0.394 OA
ATOM      4  H   UNL     1      12.807  13.990 164.243  1.00  0.00     0.210 HD
ENDBRANCH   2   3
ENDBRANCH   1   2
BRANCH   1   5
ATOM      5  C   UNL     1      14.536  15.489 162.984  1.00  0.00     0.190 C 
BRANCH   5   6
ATOM      6  O   UNL     1      13.710  15.817 164.068  1.00  0.00    -0.394 OA
ATOM      7  H   UNL     1      13.539  14.973 164.563  1.00  0.00     0.210 HD
ENDBRANCH   5   6
ENDBRANCH   1   5
BRANCH   1   8
ATOM      8  O   UNL     1      15.473  13.637 164.239  1.00  0.00    -0.388 OA
ATOM      9  H   UNL     1      15.272  12.679 164.402  1.00  0.00     0.211 HD
ENDBRANCH   1   8
TORSDOF 5
ENDMDL
MODEL 8
REMARK VINA RESULT:    -3.628      1.600      2.185
REMARK INTER + INTRA:          -4.373
REMARK INTER:                  -4.158
REMARK INTRA:                  -0.215
REMARK UNBOUND:                -0.003
REMARK SMILES OCC(O)CO
REMARK SMILES IDX 3 1 5 2 6 3 2 5 1 6 4 8
REMARK H PARENT 6 4 1 7 4 9
REMARK Flexibility Score: inf
ROOT
ATOM      1  C   UNL     1      14.060  14.033 162.756  1.00  0.00     0.165 C 
ENDROOT
BRANCH   1   2
ATOM      2  C   UNL     1      13.140  15.097 163.378  1.00  0.00     0.190 C 
BRANCH   2   3
ATOM      3  O   UNL     1      13.182  15.025 164.777  1.00  0.00    -0.394 OA
ATOM      4  H   UNL     1      14.022  14.552 165.011  1.00  0.00     0.210 HD
ENDBRANCH   2   3
ENDBRANCH   1   2
BRANCH   1   5
ATOM      5  C   UNL     1      15.524  14.252 163.175  1.00  0.00     0.190 C 
BRANCH   5   6
ATOM      6  O   UNL     1      15.805  13.548 164.355  1.00  0.00    -0.394 OA
ATOM      7  H   UNL     1      16.627  13.019 164.183  1.00  0.00     0.210 HD
ENDBRANCH   5   6
ENDBRANCH   1   5
BRANCH   1   8
ATOM      8  O   UNL     1      13.629  12.741 163.103  1.00  0.00    -0.388 OA
ATOM      9  H   UNL     1      12.674  12.804 163.365  1.00  0.00     0.211 HD
ENDBRANCH   1   8
TORSDOF 5
ENDMDL
MODEL 9
REMARK VINA RESULT:    -3.626      4.724      5.722
REMARK INTER + INTRA:          -4.371
REMARK INTER:                  -4.368
REMARK INTRA:                  -0.003
REMARK UNBOUND:                -0.003
REMARK SMILES OCC(O)CO
REMARK SMILES IDX 3 1 5 2 6 3 2 5 1 6 4 8
REMARK H PARENT 6 4 1 7 4 9
REMARK Flexibility Score: inf
ROOT
ATOM      1  C   UNL     1      11.605  12.498 161.802  1.00  0.00     0.165 C 
ENDROOT
BRANCH   1   2
ATOM      2  C   UNL     1      11.527  13.087 163.221  1.00  0.00     0.190 C 
BRANCH   2   3
ATOM      3  O   UNL     1      12.782  13.038 163.842  1.00  0.00    -0.394 OA
ATOM      4  H   UNL     1      12.871  12.129 164.230  1.00  0.00     0.210 HD
ENDBRANCH   2   3
ENDBRANCH   1   2
BRANCH   1   5
ATOM      5  C   UNL     1      10.220  12.036 161.315  1.00  0.00     0.190 C 
BRANCH   5   6
ATOM      6  O   UNL     1      10.301  11.544 160.005  1.00  0.00    -0.394 OA
ATOM      7  H   UNL     1      11.267  11.455 159.792  1.00  0.00     0.210 HD
ENDBRANCH   5   6
ENDBRANCH   1   5
BRANCH   1   8
ATOM      8  O   UNL     1      12.163  13.428 160.909  1.00  0.00    -0.388 OA
ATOM      9  H   UNL     1      11.547  14.205 160.861  1.00  0.00     0.211 HD
ENDBRANCH   1   8
TORSDOF 5
ENDMDL
