MODEL 1
REMARK VINA RESULT:    -4.739      0.000      0.000
REMARK INTER + INTRA:          -5.928
REMARK INTER:                  -5.709
REMARK INTRA:                  -0.219
REMARK UNBOUND:                -0.219
REMARK SMILES Oc1cc(O)c2c(c1)O[C@@H](c1ccc(O)c(O)c1)[C@H](O)C2
REMARK SMILES IDX 21 1 19 2 10 3 9 4 7 5 8 6 2 7 3 8 4 9 6 10 20 11 11 13
REMARK SMILES IDX 18 14 12 15 16 16 13 17 14 18 17 19 15 21 5 23 1 25
REMARK H PARENT 20 12 17 20 15 22 5 24 1 26
REMARK Flexibility Score: inf
ROOT
ATOM      1  C   UNL     1      -0.025  -1.230   8.159  1.00  0.00     0.079 C 
ATOM      2  C   UNL     1       0.092   0.223   7.661  1.00  0.00     0.164 C 
ATOM      3  C   UNL     1       0.724   1.100   8.755  1.00  0.00     0.232 C 
ATOM      4  O   UNL     1       1.993   0.565   9.132  1.00  0.00    -0.482 OA
ATOM      5  C   UNL     1       2.222  -0.811   9.238  1.00  0.00     0.131 A 
ATOM      6  C   UNL     1       3.424  -1.257   9.792  1.00  0.00     0.093 A 
ATOM      7  C   UNL     1       3.674  -2.624   9.927  1.00  0.00     0.122 A 
ATOM      8  C   UNL     1       2.710  -3.551   9.513  1.00  0.00     0.092 A 
ATOM      9  C   UNL     1       1.500  -3.121   8.956  1.00  0.00     0.126 A 
ATOM     10  C   UNL     1       1.261  -1.738   8.779  1.00  0.00     0.039 A 
ENDROOT
BRANCH   2  11
ATOM     11  O   UNL     1      -1.181   0.717   7.334  1.00  0.00    -0.389 OA
ATOM     12  H   UNL     1      -1.044   1.612   6.926  1.00  0.00     0.211 HD
ENDBRANCH   2  11
BRANCH   3  13
ATOM     13  C   UNL     1       0.894   2.525   8.282  1.00  0.00    -0.001 A 
ATOM     14  C   UNL     1       2.043   2.908   7.569  1.00  0.00     0.057 A 
ATOM     15  C   UNL     1      -0.115   3.471   8.509  1.00  0.00     0.012 A 
ATOM     16  C   UNL     1       2.196   4.220   7.102  1.00  0.00     0.157 A 
ATOM     17  C   UNL     1       0.029   4.780   8.049  1.00  0.00     0.050 A 
ATOM     18  C   UNL     1       1.177   5.170   7.348  1.00  0.00     0.157 A 
BRANCH  16  19
ATOM     19  O   UNL     1       3.365   4.531   6.405  1.00  0.00    -0.504 OA
ATOM     20  H   UNL     1       3.470   4.431   5.406  1.00  0.00     0.293 HD
ENDBRANCH  16  19
BRANCH  18  21
ATOM     21  O   UNL     1       1.260   6.496   6.918  1.00  0.00    -0.504 OA
ATOM     22  H   UNL     1       1.414   7.280   7.535  1.00  0.00     0.293 HD
ENDBRANCH  18  21
ENDBRANCH   3  13
BRANCH   9  23
ATOM     23  O   UNL     1       0.558  -4.092   8.604  1.00  0.00    -0.507 OA
ATOM     24  H   UNL     1      -0.409  -4.060   8.899  1.00  0.00     0.293 HD
ENDBRANCH   9  23
BRANCH   7  25
ATOM     25  O   UNL     1       4.880  -3.051  10.479  1.00  0.00    -0.508 OA
ATOM     26  H   UNL     1       4.929  -3.415  11.423  1.00  0.00     0.293 HD
ENDBRANCH   7  25
TORSDOF 6
ENDMDL
MODEL 2
REMARK VINA RESULT:    -4.589      3.155      5.499
REMARK INTER + INTRA:          -5.747
REMARK INTER:                  -5.511
REMARK INTRA:                  -0.236
REMARK UNBOUND:                -0.219
REMARK SMILES Oc1cc(O)c2c(c1)O[C@@H](c1ccc(O)c(O)c1)[C@H](O)C2
REMARK SMILES IDX 21 1 19 2 10 3 9 4 7 5 8 6 2 7 3 8 4 9 6 10 20 11 11 13
REMARK SMILES IDX 18 14 12 15 16 16 13 17 14 18 17 19 15 21 5 23 1 25
REMARK H PARENT 20 12 17 20 15 22 5 24 1 26
REMARK Flexibility Score: inf
ROOT
ATOM      1  C   UNL     1       3.227   4.039   6.895  1.00  0.00     0.079 C 
ATOM      2  C   UNL     1       1.811   3.735   7.421  1.00  0.00     0.164 C 
ATOM      3  C   UNL     1       1.647   2.221   7.633  1.00  0.00     0.232 C 
ATOM      4  O   UNL     1       2.657   1.744   8.522  1.00  0.00    -0.482 OA
ATOM      5  C   UNL     1       3.971   2.220   8.484  1.00  0.00     0.131 A 
ATOM      6  C   UNL     1       4.947   1.578   9.249  1.00  0.00     0.093 A 
ATOM      7  C   UNL     1       6.271   2.021   9.220  1.00  0.00     0.122 A 
ATOM      8  C   UNL     1       6.623   3.107   8.411  1.00  0.00     0.092 A 
ATOM      9  C   UNL     1       5.657   3.762   7.637  1.00  0.00     0.126 A 
ATOM     10  C   UNL     1       4.307   3.344   7.697  1.00  0.00     0.039 A 
ENDROOT
BRANCH   2  11
ATOM     11  O   UNL     1       0.854   4.192   6.501  1.00  0.00    -0.389 OA
ATOM     12  H   UNL     1       0.019   4.355   7.014  1.00  0.00     0.211 HD
ENDBRANCH   2  11
BRANCH   3  13
ATOM     13  C   UNL     1       0.282   1.892   8.192  1.00  0.00    -0.001 A 
ATOM     14  C   UNL     1      -0.324   2.736   9.139  1.00  0.00     0.057 A 
ATOM     15  C   UNL     1      -0.417   0.765   7.736  1.00  0.00     0.012 A 
ATOM     16  C   UNL     1      -1.600   2.454   9.641  1.00  0.00     0.157 A 
ATOM     17  C   UNL     1      -1.688   0.476   8.232  1.00  0.00     0.050 A 
ATOM     18  C   UNL     1      -2.292   1.307   9.184  1.00  0.00     0.157 A 
BRANCH  16  19
ATOM     19  O   UNL     1      -2.138   3.333  10.583  1.00  0.00    -0.504 OA
ATOM     20  H   UNL     1      -2.502   3.045  11.481  1.00  0.00     0.293 HD
ENDBRANCH  16  19
BRANCH  18  21
ATOM     21  O   UNL     1      -3.564   0.959   9.641  1.00  0.00    -0.504 OA
ATOM     22  H   UNL     1      -3.783   0.078  10.083  1.00  0.00     0.293 HD
ENDBRANCH  18  21
ENDBRANCH   3  13
BRANCH   9  23
ATOM     23  O   UNL     1       6.077   4.811   6.814  1.00  0.00    -0.507 OA
ATOM     24  H   UNL     1       7.049   5.009   6.619  1.00  0.00     0.293 HD
ENDBRANCH   9  23
BRANCH   7  25
ATOM     25  O   UNL     1       7.231   1.369   9.992  1.00  0.00    -0.508 OA
ATOM     26  H   UNL     1       7.640   0.491   9.697  1.00  0.00     0.293 HD
ENDBRANCH   7  25
TORSDOF 6
ENDMDL
MODEL 3
REMARK VINA RESULT:    -4.572      2.892      5.472
REMARK INTER + INTRA:          -5.726
REMARK INTER:                  -5.367
REMARK INTRA:                  -0.358
REMARK UNBOUND:                -0.219
REMARK SMILES Oc1cc(O)c2c(c1)O[C@@H](c1ccc(O)c(O)c1)[C@H](O)C2
REMARK SMILES IDX 21 1 19 2 10 3 9 4 7 5 8 6 2 7 3 8 4 9 6 10 20 11 11 13
REMARK SMILES IDX 18 14 12 15 16 16 13 17 14 18 17 19 15 21 5 23 1 25
REMARK H PARENT 20 12 17 20 15 22 5 24 1 26
REMARK Flexibility Score: inf
ROOT
ATOM      1  C   UNL     1       4.526  -0.625   9.858  1.00  0.00     0.079 C 
ATOM      2  C   UNL     1       3.020  -0.740   9.554  1.00  0.00     0.164 C 
ATOM      3  C   UNL     1       2.341   0.625   9.758  1.00  0.00     0.232 C 
ATOM      4  O   UNL     1       2.974   1.608   8.940  1.00  0.00    -0.482 OA
ATOM      5  C   UNL     1       4.357   1.634   8.737  1.00  0.00     0.131 A 
ATOM      6  C   UNL     1       4.926   2.729   8.083  1.00  0.00     0.093 A 
ATOM      7  C   UNL     1       6.306   2.792   7.881  1.00  0.00     0.122 A 
ATOM      8  C   UNL     1       7.124   1.755   8.346  1.00  0.00     0.092 A 
ATOM      9  C   UNL     1       6.571   0.651   9.004  1.00  0.00     0.126 A 
ATOM     10  C   UNL     1       5.168   0.563   9.173  1.00  0.00     0.039 A 
ENDROOT
BRANCH   2  11
ATOM     11  O   UNL     1       2.436  -1.693  10.404  1.00  0.00    -0.389 OA
ATOM     12  H   UNL     1       2.408  -1.288  11.311  1.00  0.00     0.211 HD
ENDBRANCH   2  11
BRANCH   3  13
ATOM     13  C   UNL     1       0.869   0.557   9.425  1.00  0.00    -0.001 A 
ATOM     14  C   UNL     1      -0.099   0.679  10.437  1.00  0.00     0.057 A 
ATOM     15  C   UNL     1       0.450   0.419   8.094  1.00  0.00     0.012 A 
ATOM     16  C   UNL     1      -1.466   0.645  10.134  1.00  0.00     0.157 A 
ATOM     17  C   UNL     1      -0.909   0.383   7.782  1.00  0.00     0.050 A 
ATOM     18  C   UNL     1      -1.877   0.493   8.788  1.00  0.00     0.157 A 
BRANCH  16  19
ATOM     19  O   UNL     1      -2.371   0.767  11.190  1.00  0.00    -0.504 OA
ATOM     20  H   UNL     1      -2.347   1.513  11.870  1.00  0.00     0.293 HD
ENDBRANCH  16  19
BRANCH  18  21
ATOM     21  O   UNL     1      -3.220   0.447   8.409  1.00  0.00    -0.504 OA
ATOM     22  H   UNL     1      -3.720  -0.407   8.206  1.00  0.00     0.293 HD
ENDBRANCH  18  21
ENDBRANCH   3  13
BRANCH   9  23
ATOM     23  O   UNL     1       7.442  -0.330   9.486  1.00  0.00    -0.507 OA
ATOM     24  H   UNL     1       8.261  -0.642   8.981  1.00  0.00     0.293 HD
ENDBRANCH   9  23
BRANCH   7  25
ATOM     25  O   UNL     1       6.856   3.891   7.225  1.00  0.00    -0.508 OA
ATOM     26  H   UNL     1       6.617   4.108   6.264  1.00  0.00     0.293 HD
ENDBRANCH   7  25
TORSDOF 6
ENDMDL
MODEL 4
REMARK VINA RESULT:    -4.560      1.646      3.219
REMARK INTER + INTRA:          -5.712
REMARK INTER:                  -5.340
REMARK INTRA:                  -0.371
REMARK UNBOUND:                -0.219
REMARK SMILES Oc1cc(O)c2c(c1)O[C@@H](c1ccc(O)c(O)c1)[C@H](O)C2
REMARK SMILES IDX 21 1 19 2 10 3 9 4 7 5 8 6 2 7 3 8 4 9 6 10 20 11 11 13
REMARK SMILES IDX 18 14 12 15 16 16 13 17 14 18 17 19 15 21 5 23 1 25
REMARK H PARENT 20 12 17 20 15 22 5 24 1 26
REMARK Flexibility Score: inf
ROOT
ATOM      1  C   UNL     1       2.968   1.340   9.304  1.00  0.00     0.079 C 
ATOM      2  C   UNL     1       2.143   2.640   9.229  1.00  0.00     0.164 C 
ATOM      3  C   UNL     1       1.297   2.647   7.945  1.00  0.00     0.232 C 
ATOM      4  O   UNL     1       0.465   1.489   7.907  1.00  0.00    -0.482 OA
ATOM      5  C   UNL     1       0.907   0.236   8.344  1.00  0.00     0.131 A 
ATOM      6  C   UNL     1       0.111  -0.886   8.103  1.00  0.00     0.093 A 
ATOM      7  C   UNL     1       0.533  -2.152   8.513  1.00  0.00     0.122 A 
ATOM      8  C   UNL     1       1.766  -2.298   9.160  1.00  0.00     0.092 A 
ATOM      9  C   UNL     1       2.577  -1.184   9.408  1.00  0.00     0.126 A 
ATOM     10  C   UNL     1       2.133   0.106   9.033  1.00  0.00     0.039 A 
ENDROOT
BRANCH   2  11
ATOM     11  O   UNL     1       3.005   3.749   9.236  1.00  0.00    -0.389 OA
ATOM     12  H   UNL     1       2.858   4.230   8.380  1.00  0.00     0.211 HD
ENDBRANCH   2  11
BRANCH   3  13
ATOM     13  C   UNL     1       0.442   3.890   7.862  1.00  0.00    -0.001 A 
ATOM     14  C   UNL     1       0.578   4.780   6.783  1.00  0.00     0.057 A 
ATOM     15  C   UNL     1      -0.532   4.145   8.838  1.00  0.00     0.012 A 
ATOM     16  C   UNL     1      -0.229   5.920   6.684  1.00  0.00     0.157 A 
ATOM     17  C   UNL     1      -1.340   5.279   8.749  1.00  0.00     0.050 A 
ATOM     18  C   UNL     1      -1.200   6.175   7.682  1.00  0.00     0.157 A 
BRANCH  16  19
ATOM     19  O   UNL     1      -0.036   6.763   5.588  1.00  0.00    -0.504 OA
ATOM     20  H   UNL     1      -0.205   7.759   5.605  1.00  0.00     0.293 HD
ENDBRANCH  16  19
BRANCH  18  21
ATOM     21  O   UNL     1      -2.039   7.291   7.653  1.00  0.00    -0.504 OA
ATOM     22  H   UNL     1      -1.759   8.214   7.950  1.00  0.00     0.293 HD
ENDBRANCH  18  21
ENDBRANCH   3  13
BRANCH   9  23
ATOM     23  O   UNL     1       3.817  -1.398  10.016  1.00  0.00    -0.507 OA
ATOM     24  H   UNL     1       4.343  -2.256   9.918  1.00  0.00     0.293 HD
ENDBRANCH   9  23
BRANCH   7  25
ATOM     25  O   UNL     1      -0.275  -3.260   8.267  1.00  0.00    -0.508 OA
ATOM     26  H   UNL     1      -1.000  -3.239   7.559  1.00  0.00     0.293 HD
ENDBRANCH   7  25
TORSDOF 6
ENDMDL
MODEL 5
REMARK VINA RESULT:    -4.538      1.593      6.941
REMARK INTER + INTRA:          -5.685
REMARK INTER:                  -5.370
REMARK INTRA:                  -0.315
REMARK UNBOUND:                -0.219
REMARK SMILES Oc1cc(O)c2c(c1)O[C@@H](c1ccc(O)c(O)c1)[C@H](O)C2
REMARK SMILES IDX 21 1 19 2 10 3 9 4 7 5 8 6 2 7 3 8 4 9 6 10 20 11 11 13
REMARK SMILES IDX 18 14 12 15 16 16 13 17 14 18 17 19 15 21 5 23 1 25
REMARK H PARENT 20 12 17 20 15 22 5 24 1 26
REMARK Flexibility Score: inf
ROOT
ATOM      1  C   UNL     1      -1.194   3.531   9.185  1.00  0.00     0.079 C 
ATOM      2  C   UNL     1      -0.613   2.130   9.452  1.00  0.00     0.164 C 
ATOM      3  C   UNL     1      -0.045   1.543   8.149  1.00  0.00     0.232 C 
ATOM      4  O   UNL     1       0.934   2.428   7.606  1.00  0.00    -0.482 OA
ATOM      5  C   UNL     1       0.786   3.818   7.640  1.00  0.00     0.131 A 
ATOM      6  C   UNL     1       1.684   4.613   6.926  1.00  0.00     0.093 A 
ATOM      7  C   UNL     1       1.552   6.003   6.928  1.00  0.00     0.122 A 
ATOM      8  C   UNL     1       0.507   6.601   7.642  1.00  0.00     0.092 A 
ATOM      9  C   UNL     1      -0.402   5.819   8.363  1.00  0.00     0.126 A 
ATOM     10  C   UNL     1      -0.247   4.413   8.399  1.00  0.00     0.039 A 
ENDROOT
BRANCH   2  11
ATOM     11  O   UNL     1      -1.618   1.287   9.954  1.00  0.00    -0.389 OA
ATOM     12  H   UNL     1      -1.199   0.736  10.667  1.00  0.00     0.211 HD
ENDBRANCH   2  11
BRANCH   3  13
ATOM     13  C   UNL     1       0.573   0.184   8.386  1.00  0.00    -0.001 A 
ATOM     14  C   UNL     1       1.823   0.070   9.018  1.00  0.00     0.057 A 
ATOM     15  C   UNL     1      -0.116  -0.980   8.020  1.00  0.00     0.012 A 
ATOM     16  C   UNL     1       2.392  -1.186   9.266  1.00  0.00     0.157 A 
ATOM     17  C   UNL     1       0.443  -2.236   8.262  1.00  0.00     0.050 A 
ATOM     18  C   UNL     1       1.693  -2.355   8.881  1.00  0.00     0.157 A 
BRANCH  16  19
ATOM     19  O   UNL     1       3.639  -1.225   9.893  1.00  0.00    -0.504 OA
ATOM     20  H   UNL     1       3.766  -1.311  10.891  1.00  0.00     0.293 HD
ENDBRANCH  16  19
BRANCH  18  21
ATOM     21  O   UNL     1       2.196  -3.640   9.092  1.00  0.00    -0.504 OA
ATOM     22  H   UNL     1       1.966  -4.437   8.517  1.00  0.00     0.293 HD
ENDBRANCH  18  21
ENDBRANCH   3  13
BRANCH   9  23
ATOM     23  O   UNL     1      -1.451   6.469   9.019  1.00  0.00    -0.507 OA
ATOM     24  H   UNL     1      -1.317   7.261   9.633  1.00  0.00     0.293 HD
ENDBRANCH   9  23
BRANCH   7  25
ATOM     25  O   UNL     1       2.459   6.781   6.211  1.00  0.00    -0.508 OA
ATOM     26  H   UNL     1       2.759   6.522   5.279  1.00  0.00     0.293 HD
ENDBRANCH   7  25
TORSDOF 6
ENDMDL
MODEL 6
REMARK VINA RESULT:    -4.522      7.493     10.207
REMARK INTER + INTRA:          -5.666
REMARK INTER:                  -5.463
REMARK INTRA:                  -0.204
REMARK UNBOUND:                -0.219
REMARK SMILES Oc1cc(O)c2c(c1)O[C@@H](c1ccc(O)c(O)c1)[C@H](O)C2
REMARK SMILES IDX 21 1 19 2 10 3 9 4 7 5 8 6 2 7 3 8 4 9 6 10 20 11 11 13
REMARK SMILES IDX 18 14 12 15 16 16 13 17 14 18 17 19 15 21 5 23 1 25
REMARK H PARENT 20 12 17 20 15 22 5 24 1 26
REMARK Flexibility Score: inf
ROOT
ATOM      1  C   UNL     1      -5.018   6.804   5.031  1.00  0.00     0.079 C 
ATOM      2  C   UNL     1      -5.073   6.358   3.557  1.00  0.00     0.164 C 
ATOM      3  C   UNL     1      -3.982   7.083   2.752  1.00  0.00     0.232 C 
ATOM      4  O   UNL     1      -2.703   6.830   3.334  1.00  0.00    -0.482 OA
ATOM      5  C   UNL     1      -2.510   6.774   4.718  1.00  0.00     0.131 A 
ATOM      6  C   UNL     1      -1.208   6.713   5.219  1.00  0.00     0.093 A 
ATOM      7  C   UNL     1      -0.983   6.672   6.596  1.00  0.00     0.122 A 
ATOM      8  C   UNL     1      -2.069   6.702   7.479  1.00  0.00     0.092 A 
ATOM      9  C   UNL     1      -3.380   6.764   6.994  1.00  0.00     0.126 A 
ATOM     10  C   UNL     1      -3.614   6.762   5.598  1.00  0.00     0.039 A 
ENDROOT
BRANCH   2  11
ATOM     11  O   UNL     1      -6.336   6.655   3.019  1.00  0.00    -0.389 OA
ATOM     12  H   UNL     1      -6.924   5.881   3.225  1.00  0.00     0.211 HD
ENDBRANCH   2  11
BRANCH   3  13
ATOM     13  C   UNL     1      -3.980   6.634   1.309  1.00  0.00    -0.001 A 
ATOM     14  C   UNL     1      -3.234   5.512   0.910  1.00  0.00     0.057 A 
ATOM     15  C   UNL     1      -4.762   7.306   0.359  1.00  0.00     0.012 A 
ATOM     16  C   UNL     1      -3.249   5.073  -0.420  1.00  0.00     0.157 A 
ATOM     17  C   UNL     1      -4.782   6.877  -0.969  1.00  0.00     0.050 A 
ATOM     18  C   UNL     1      -4.031   5.766  -1.373  1.00  0.00     0.157 A 
BRANCH  16  19
ATOM     19  O   UNL     1      -2.479   3.955  -0.745  1.00  0.00    -0.504 OA
ATOM     20  H   UNL     1      -1.598   3.729  -0.307  1.00  0.00     0.293 HD
ENDBRANCH  16  19
BRANCH  18  21
ATOM     21  O   UNL     1      -4.094   5.391  -2.716  1.00  0.00    -0.504 OA
ATOM     22  H   UNL     1      -3.317   5.460  -3.358  1.00  0.00     0.293 HD
ENDBRANCH  18  21
ENDBRANCH   3  13
BRANCH   9  23
ATOM     23  O   UNL     1      -4.421   6.838   7.924  1.00  0.00    -0.507 OA
ATOM     24  H   UNL     1      -4.809   6.028   8.389  1.00  0.00     0.293 HD
ENDBRANCH   9  23
BRANCH   7  25
ATOM     25  O   UNL     1       0.323   6.609   7.078  1.00  0.00    -0.508 OA
ATOM     26  H   UNL     1       0.845   5.740   7.082  1.00  0.00     0.293 HD
ENDBRANCH   7  25
TORSDOF 6
ENDMDL
MODEL 7
REMARK VINA RESULT:    -4.512      2.878      7.872
REMARK INTER + INTRA:          -5.654
REMARK INTER:                  -5.316
REMARK INTRA:                  -0.338
REMARK UNBOUND:                -0.219
REMARK SMILES Oc1cc(O)c2c(c1)O[C@@H](c1ccc(O)c(O)c1)[C@H](O)C2
REMARK SMILES IDX 21 1 19 2 10 3 9 4 7 5 8 6 2 7 3 8 4 9 6 10 20 11 11 13
REMARK SMILES IDX 18 14 12 15 16 16 13 17 14 18 17 19 15 21 5 23 1 25
REMARK H PARENT 20 12 17 20 15 22 5 24 1 26
REMARK Flexibility Score: inf
ROOT
ATOM      1  C   UNL     1       2.437  -2.348   9.629  1.00  0.00     0.079 C 
ATOM      2  C   UNL     1       1.847  -3.584   8.924  1.00  0.00     0.164 C 
ATOM      3  C   UNL     1       0.313  -3.481   8.885  1.00  0.00     0.232 C 
ATOM      4  O   UNL     1      -0.073  -2.268   8.239  1.00  0.00    -0.482 OA
ATOM      5  C   UNL     1       0.619  -1.067   8.428  1.00  0.00     0.131 A 
ATOM      6  C   UNL     1       0.077   0.115   7.918  1.00  0.00     0.093 A 
ATOM      7  C   UNL     1       0.737   1.331   8.105  1.00  0.00     0.122 A 
ATOM      8  C   UNL     1       1.943   1.366   8.814  1.00  0.00     0.092 A 
ATOM      9  C   UNL     1       2.500   0.191   9.331  1.00  0.00     0.126 A 
ATOM     10  C   UNL     1       1.857  -1.050   9.108  1.00  0.00     0.039 A 
ENDROOT
BRANCH   2  11
ATOM     11  O   UNL     1       2.226  -4.748   9.612  1.00  0.00    -0.389 OA
ATOM     12  H   UNL     1       3.105  -4.557  10.034  1.00  0.00     0.211 HD
ENDBRANCH   2  11
BRANCH   3  13
ATOM     13  C   UNL     1      -0.295  -4.658   8.159  1.00  0.00    -0.001 A 
ATOM     14  C   UNL     1      -1.361  -5.375   8.729  1.00  0.00     0.057 A 
ATOM     15  C   UNL     1       0.167  -5.020   6.886  1.00  0.00     0.012 A 
ATOM     16  C   UNL     1      -1.949  -6.451   8.052  1.00  0.00     0.157 A 
ATOM     17  C   UNL     1      -0.412  -6.091   6.204  1.00  0.00     0.050 A 
ATOM     18  C   UNL     1      -1.466  -6.816   6.772  1.00  0.00     0.157 A 
BRANCH  16  19
ATOM     19  O   UNL     1      -3.000  -7.121   8.681  1.00  0.00    -0.504 OA
ATOM     20  H   UNL     1      -3.861  -7.378   8.220  1.00  0.00     0.293 HD
ENDBRANCH  16  19
BRANCH  18  21
ATOM     21  O   UNL     1      -1.999  -7.877   6.039  1.00  0.00    -0.504 OA
ATOM     22  H   UNL     1      -2.732  -8.484   6.375  1.00  0.00     0.293 HD
ENDBRANCH  18  21
ENDBRANCH   3  13
BRANCH   9  23
ATOM     23  O   UNL     1       3.682   0.295  10.070  1.00  0.00    -0.507 OA
ATOM     24  H   UNL     1       4.174   1.167  10.211  1.00  0.00     0.293 HD
ENDBRANCH   9  23
BRANCH   7  25
ATOM     25  O   UNL     1       0.182   2.500   7.588  1.00  0.00    -0.508 OA
ATOM     26  H   UNL     1      -0.503   3.036   8.107  1.00  0.00     0.293 HD
ENDBRANCH   7  25
TORSDOF 6
ENDMDL
MODEL 8
REMARK VINA RESULT:    -4.487      2.538      4.232
REMARK INTER + INTRA:          -5.624
REMARK INTER:                  -5.520
REMARK INTRA:                  -0.104
REMARK UNBOUND:                -0.219
REMARK SMILES Oc1cc(O)c2c(c1)O[C@@H](c1ccc(O)c(O)c1)[C@H](O)C2
REMARK SMILES IDX 21 1 19 2 10 3 9 4 7 5 8 6 2 7 3 8 4 9 6 10 20 11 11 13
REMARK SMILES IDX 18 14 12 15 16 16 13 17 14 18 17 19 15 21 5 23 1 25
REMARK H PARENT 20 12 17 20 15 22 5 24 1 26
REMARK Flexibility Score: inf
ROOT
ATOM      1  C   UNL     1       0.436   2.411   7.961  1.00  0.00     0.079 C 
ATOM      2  C   UNL     1       1.830   2.954   7.591  1.00  0.00     0.164 C 
ATOM      3  C   UNL     1       2.851   2.545   8.666  1.00  0.00     0.232 C 
ATOM      4  O   UNL     1       2.856   1.126   8.814  1.00  0.00    -0.482 OA
ATOM      5  C   UNL     1       1.685   0.364   8.757  1.00  0.00     0.131 A 
ATOM      6  C   UNL     1       1.740  -0.990   9.097  1.00  0.00     0.093 A 
ATOM      7  C   UNL     1       0.585  -1.773   9.066  1.00  0.00     0.122 A 
ATOM      8  C   UNL     1      -0.637  -1.194   8.702  1.00  0.00     0.092 A 
ATOM      9  C   UNL     1      -0.710   0.161   8.360  1.00  0.00     0.126 A 
ATOM     10  C   UNL     1       0.466   0.947   8.348  1.00  0.00     0.039 A 
ENDROOT
BRANCH   2  11
ATOM     11  O   UNL     1       1.782   4.354   7.490  1.00  0.00    -0.389 OA
ATOM     12  H   UNL     1       2.716   4.679   7.588  1.00  0.00     0.211 HD
ENDBRANCH   2  11
BRANCH   3  13
ATOM     13  C   UNL     1       4.239   3.025   8.311  1.00  0.00    -0.001 A 
ATOM     14  C   UNL     1       4.635   4.342   8.600  1.00  0.00     0.057 A 
ATOM     15  C   UNL     1       5.164   2.146   7.732  1.00  0.00     0.012 A 
ATOM     16  C   UNL     1       5.928   4.787   8.299  1.00  0.00     0.157 A 
ATOM     17  C   UNL     1       6.455   2.580   7.428  1.00  0.00     0.050 A 
ATOM     18  C   UNL     1       6.851   3.895   7.702  1.00  0.00     0.157 A 
BRANCH  16  19
ATOM     19  O   UNL     1       6.251   6.110   8.609  1.00  0.00    -0.504 OA
ATOM     20  H   UNL     1       5.930   6.590   9.437  1.00  0.00     0.293 HD
ENDBRANCH  16  19
BRANCH  18  21
ATOM     21  O   UNL     1       8.155   4.266   7.371  1.00  0.00    -0.504 OA
ATOM     22  H   UNL     1       8.564   5.159   7.606  1.00  0.00     0.293 HD
ENDBRANCH  18  21
ENDBRANCH   3  13
BRANCH   9  23
ATOM     23  O   UNL     1      -1.965   0.692   8.050  1.00  0.00    -0.507 OA
ATOM     24  H   UNL     1      -2.111   1.660   7.793  1.00  0.00     0.293 HD
ENDBRANCH   9  23
BRANCH   7  25
ATOM     25  O   UNL     1       0.659  -3.122   9.405  1.00  0.00    -0.508 OA
ATOM     26  H   UNL     1       1.526  -3.641   9.328  1.00  0.00     0.293 HD
ENDBRANCH   7  25
TORSDOF 6
ENDMDL
MODEL 9
REMARK VINA RESULT:    -4.425     11.731     13.237
REMARK INTER + INTRA:          -5.549
REMARK INTER:                  -5.306
REMARK INTRA:                  -0.243
REMARK UNBOUND:                -0.219
REMARK SMILES Oc1cc(O)c2c(c1)O[C@@H](c1ccc(O)c(O)c1)[C@H](O)C2
REMARK SMILES IDX 21 1 19 2 10 3 9 4 7 5 8 6 2 7 3 8 4 9 6 10 20 11 11 13
REMARK SMILES IDX 18 14 12 15 16 16 13 17 14 18 17 19 15 21 5 23 1 25
REMARK H PARENT 20 12 17 20 15 22 5 24 1 26
REMARK Flexibility Score: inf
ROOT
ATOM      1  C   UNL     1      -1.372  -5.445  -1.679  1.00  0.00     0.079 C 
ATOM      2  C   UNL     1      -0.129  -4.541  -1.561  1.00  0.00     0.164 C 
ATOM      3  C   UNL     1       0.374  -4.161  -2.964  1.00  0.00     0.232 C 
ATOM      4  O   UNL     1      -0.673  -3.529  -3.699  1.00  0.00    -0.482 OA
ATOM      5  C   UNL     1      -2.004  -3.951  -3.617  1.00  0.00     0.131 A 
ATOM      6  C   UNL     1      -2.941  -3.413  -4.502  1.00  0.00     0.093 A 
ATOM      7  C   UNL     1      -4.274  -3.827  -4.455  1.00  0.00     0.122 A 
ATOM      8  C   UNL     1      -4.669  -4.792  -3.523  1.00  0.00     0.092 A 
ATOM      9  C   UNL     1      -3.743  -5.342  -2.629  1.00  0.00     0.126 A 
ATOM     10  C   UNL     1      -2.401  -4.894  -2.644  1.00  0.00     0.039 A 
ENDROOT
BRANCH   2  11
ATOM     11  O   UNL     1       0.883  -5.217  -0.861  1.00  0.00    -0.389 OA
ATOM     12  H   UNL     1       0.463  -6.021  -0.456  1.00  0.00     0.211 HD
ENDBRANCH   2  11
BRANCH   3  13
ATOM     13  C   UNL     1       1.568  -3.238  -2.884  1.00  0.00    -0.001 A 
ATOM     14  C   UNL     1       2.874  -3.754  -2.936  1.00  0.00     0.057 A 
ATOM     15  C   UNL     1       1.384  -1.850  -2.805  1.00  0.00     0.012 A 
ATOM     16  C   UNL     1       3.986  -2.903  -2.890  1.00  0.00     0.157 A 
ATOM     17  C   UNL     1       2.486  -0.995  -2.757  1.00  0.00     0.050 A 
ATOM     18  C   UNL     1       3.790  -1.505  -2.797  1.00  0.00     0.157 A 
BRANCH  16  19
ATOM     19  O   UNL     1       5.254  -3.485  -2.941  1.00  0.00    -0.504 OA
ATOM     20  H   UNL     1       6.076  -3.016  -3.293  1.00  0.00     0.293 HD
ENDBRANCH  16  19
BRANCH  18  21
ATOM     21  O   UNL     1       4.847  -0.595  -2.743  1.00  0.00    -0.504 OA
ATOM     22  H   UNL     1       5.529  -0.566  -1.999  1.00  0.00     0.293 HD
ENDBRANCH  18  21
ENDBRANCH   3  13
BRANCH   9  23
ATOM     23  O   UNL     1      -4.187  -6.335  -1.752  1.00  0.00    -0.507 OA
ATOM     24  H   UNL     1      -4.613  -7.199  -2.060  1.00  0.00     0.293 HD
ENDBRANCH   9  23
BRANCH   7  25
ATOM     25  O   UNL     1      -5.196  -3.278  -5.345  1.00  0.00    -0.508 OA
ATOM     26  H   UNL     1      -5.817  -3.863  -5.891  1.00  0.00     0.293 HD
ENDBRANCH   7  25
TORSDOF 6
ENDMDL
