MODEL 1
REMARK VINA RESULT:    -5.442      0.000      0.000
REMARK INTER + INTRA:         -16.460
REMARK INTER:                 -13.713
REMARK INTRA:                  -2.748
REMARK UNBOUND:                -2.748
REMARK SMILES CCCCCCCCCCCCCCCCCCCCCCCCCCCC(=O)[O-]
REMARK SMILES IDX 15 1 16 2 17 3 18 4 19 5 20 6 21 7 22 8 23 9 24 10 25 11
REMARK SMILES IDX 26 12 27 13 28 14 29 15 30 16 14 17 13 18 12 19 11 20 10 21
REMARK SMILES IDX 9 22 8 23 7 24 6 25 5 26 4 27 3 28 2 29 1 30
REMARK H PARENT
REMARK Flexibility Score: inf
ROOT
ATOM      1  C   UNL     1      42.633  56.647  60.383  1.00  0.00     0.000 C 
ENDROOT
BRANCH   1   2
ATOM      2  C   UNL     1      43.783  57.650  60.185  1.00  0.00     0.000 C 
BRANCH   2   3
ATOM      3  C   UNL     1      44.777  57.292  59.061  1.00  0.00     0.000 C 
BRANCH   3   4
ATOM      4  C   UNL     1      45.479  58.494  58.399  1.00  0.00     0.000 C 
BRANCH   4   5
ATOM      5  C   UNL     1      46.954  58.687  58.802  1.00  0.00     0.000 C 
BRANCH   5   6
ATOM      6  C   UNL     1      47.112  59.259  60.219  1.00  0.00     0.000 C 
BRANCH   6   7
ATOM      7  C   UNL     1      46.499  60.662  60.324  1.00  0.00     0.000 C 
BRANCH   7   8
ATOM      8  C   UNL     1      45.786  60.906  61.665  1.00  0.00     0.000 C 
BRANCH   8   9
ATOM      9  C   UNL     1      44.261  61.110  61.535  1.00  0.00     0.000 C 
BRANCH   9  10
ATOM     10  C   UNL     1      43.870  61.764  60.198  1.00  0.00     0.000 C 
BRANCH  10  11
ATOM     11  C   UNL     1      42.599  61.149  59.590  1.00  0.00     0.000 C 
BRANCH  11  12
ATOM     12  C   UNL     1      42.713  60.954  58.067  1.00  0.00     0.006 C 
BRANCH  12  13
ATOM     13  C   UNL     1      41.367  60.589  57.427  1.00  0.00     0.053 C 
BRANCH  13  14
ATOM     14  C   UNL     1      40.952  61.573  56.375  1.00  0.00     0.041 C 
ATOM     15  O   UNL     1      40.724  61.185  55.198  1.00  0.00    -0.550 OA
ATOM     16  O   UNL     1      40.808  62.918  56.697  1.00  0.00    -0.550 OA
ENDBRANCH  13  14
ENDBRANCH  12  13
ENDBRANCH  11  12
ENDBRANCH  10  11
ENDBRANCH   9  10
ENDBRANCH   8   9
ENDBRANCH   7   8
ENDBRANCH   6   7
ENDBRANCH   5   6
ENDBRANCH   4   5
ENDBRANCH   3   4
ENDBRANCH   2   3
ENDBRANCH   1   2
BRANCH   1  17
ATOM     17  C   UNL     1      42.969  55.246  59.844  1.00  0.00     0.000 C 
BRANCH  17  18
ATOM     18  C   UNL     1      41.719  54.387  59.569  1.00  0.00     0.000 C 
BRANCH  18  19
ATOM     19  C   UNL     1      40.805  54.148  60.785  1.00  0.00     0.000 C 
BRANCH  19  20
ATOM     20  C   UNL     1      39.295  54.142  60.481  1.00  0.00     0.000 C 
BRANCH  20  21
ATOM     21  C   UNL     1      38.523  55.319  61.115  1.00  0.00     0.000 C 
BRANCH  21  22
ATOM     22  C   UNL     1      38.061  56.351  60.072  1.00  0.00    -0.000 C 
BRANCH  22  23
ATOM     23  C   UNL     1      36.530  56.401  59.915  1.00  0.00    -0.000 C 
BRANCH  23  24
ATOM     24  C   UNL     1      35.962  55.553  58.758  1.00  0.00    -0.000 C 
BRANCH  24  25
ATOM     25  C   UNL     1      35.818  54.046  59.054  1.00  0.00    -0.000 C 
BRANCH  25  26
ATOM     26  C   UNL     1      35.028  53.248  58.002  1.00  0.00    -0.000 C 
BRANCH  26  27
ATOM     27  C   UNL     1      35.301  51.736  58.075  1.00  0.00    -0.000 C 
BRANCH  27  28
ATOM     28  C   UNL     1      34.014  50.899  57.977  1.00  0.00    -0.000 C 
BRANCH  28  29
ATOM     29  C   UNL     1      32.755  51.699  58.343  1.00  0.00    -0.003 C 
ATOM     30  C   UNL     1      31.657  50.782  58.871  1.00  0.00     0.004 C 
ENDBRANCH  28  29
ENDBRANCH  27  28
ENDBRANCH  26  27
ENDBRANCH  25  26
ENDBRANCH  24  25
ENDBRANCH  23  24
ENDBRANCH  22  23
ENDBRANCH  21  22
ENDBRANCH  20  21
ENDBRANCH  19  20
ENDBRANCH  18  19
ENDBRANCH  17  18
ENDBRANCH   1  17
TORSDOF 26
ENDMDL
MODEL 2
REMARK VINA RESULT:    -5.378      3.173      9.654
REMARK INTER + INTRA:         -16.301
REMARK INTER:                 -12.627
REMARK INTRA:                  -3.673
REMARK UNBOUND:                -2.748
REMARK SMILES CCCCCCCCCCCCCCCCCCCCCCCCCCCC(=O)[O-]
REMARK SMILES IDX 15 1 16 2 17 3 18 4 19 5 20 6 21 7 22 8 23 9 24 10 25 11
REMARK SMILES IDX 26 12 27 13 28 14 29 15 30 16 14 17 13 18 12 19 11 20 10 21
REMARK SMILES IDX 9 22 8 23 7 24 6 25 5 26 4 27 3 28 2 29 1 30
REMARK H PARENT
REMARK Flexibility Score: inf
ROOT
ATOM      1  C   UNL     1      41.803  58.667  58.012  1.00  0.00     0.000 C 
ENDROOT
BRANCH   1   2
ATOM      2  C   UNL     1      42.322  57.264  58.375  1.00  0.00     0.000 C 
BRANCH   2   3
ATOM      3  C   UNL     1      42.479  56.996  59.886  1.00  0.00     0.000 C 
BRANCH   3   4
ATOM      4  C   UNL     1      43.294  55.738  60.247  1.00  0.00     0.000 C 
BRANCH   4   5
ATOM      5  C   UNL     1      42.455  54.525  60.689  1.00  0.00     0.000 C 
BRANCH   5   6
ATOM      6  C   UNL     1      41.123  54.416  59.932  1.00  0.00     0.000 C 
BRANCH   6   7
ATOM      7  C   UNL     1      39.998  53.929  60.854  1.00  0.00     0.000 C 
BRANCH   7   8
ATOM      8  C   UNL     1      38.931  55.005  61.118  1.00  0.00     0.000 C 
BRANCH   8   9
ATOM      9  C   UNL     1      39.088  56.271  60.248  1.00  0.00     0.000 C 
BRANCH   9  10
ATOM     10  C   UNL     1      37.824  56.573  59.422  1.00  0.00     0.000 C 
BRANCH  10  11
ATOM     11  C   UNL     1      36.579  55.855  59.967  1.00  0.00     0.000 C 
BRANCH  11  12
ATOM     12  C   UNL     1      35.893  54.981  58.902  1.00  0.00     0.006 C 
BRANCH  12  13
ATOM     13  C   UNL     1      36.178  53.487  59.104  1.00  0.00     0.053 C 
BRANCH  13  14
ATOM     14  C   UNL     1      35.254  52.618  58.307  1.00  0.00     0.041 C 
ATOM     15  O   UNL     1      34.299  53.129  57.663  1.00  0.00    -0.550 OA
ATOM     16  O   UNL     1      35.453  51.243  58.266  1.00  0.00    -0.550 OA
ENDBRANCH  13  14
ENDBRANCH  12  13
ENDBRANCH  11  12
ENDBRANCH  10  11
ENDBRANCH   9  10
ENDBRANCH   8   9
ENDBRANCH   7   8
ENDBRANCH   6   7
ENDBRANCH   5   6
ENDBRANCH   4   5
ENDBRANCH   3   4
ENDBRANCH   2   3
ENDBRANCH   1   2
BRANCH   1  17
ATOM     17  C   UNL     1      40.340  58.654  57.537  1.00  0.00     0.000 C 
BRANCH  17  18
ATOM     18  C   UNL     1      39.792  60.060  57.227  1.00  0.00     0.000 C 
BRANCH  18  19
ATOM     19  C   UNL     1      40.842  61.089  56.769  1.00  0.00     0.000 C 
BRANCH  19  20
ATOM     20  C   UNL     1      40.787  62.449  57.490  1.00  0.00     0.000 C 
BRANCH  20  21
ATOM     21  C   UNL     1      42.125  62.873  58.133  1.00  0.00     0.000 C 
BRANCH  21  22
ATOM     22  C   UNL     1      43.278  61.919  57.778  1.00  0.00    -0.000 C 
BRANCH  22  23
ATOM     23  C   UNL     1      44.415  61.939  58.816  1.00  0.00    -0.000 C 
BRANCH  23  24
ATOM     24  C   UNL     1      43.960  61.846  60.287  1.00  0.00    -0.000 C 
BRANCH  24  25
ATOM     25  C   UNL     1      44.963  61.174  61.247  1.00  0.00    -0.000 C 
BRANCH  25  26
ATOM     26  C   UNL     1      45.976  60.230  60.575  1.00  0.00    -0.000 C 
BRANCH  26  27
ATOM     27  C   UNL     1      45.541  58.756  60.630  1.00  0.00    -0.000 C 
BRANCH  27  28
ATOM     28  C   UNL     1      46.060  57.942  59.432  1.00  0.00    -0.000 C 
BRANCH  28  29
ATOM     29  C   UNL     1      45.840  58.654  58.089  1.00  0.00    -0.003 C 
ATOM     30  C   UNL     1      47.123  58.684  57.266  1.00  0.00     0.004 C 
ENDBRANCH  28  29
ENDBRANCH  27  28
ENDBRANCH  26  27
ENDBRANCH  25  26
ENDBRANCH  24  25
ENDBRANCH  23  24
ENDBRANCH  22  23
ENDBRANCH  21  22
ENDBRANCH  20  21
ENDBRANCH  19  20
ENDBRANCH  18  19
ENDBRANCH  17  18
ENDBRANCH   1  17
TORSDOF 26
ENDMDL
MODEL 3
REMARK VINA RESULT:    -5.319      2.415      4.416
REMARK INTER + INTRA:         -16.152
REMARK INTER:                 -12.677
REMARK INTRA:                  -3.475
REMARK UNBOUND:                -2.748
REMARK SMILES CCCCCCCCCCCCCCCCCCCCCCCCCCCC(=O)[O-]
REMARK SMILES IDX 15 1 16 2 17 3 18 4 19 5 20 6 21 7 22 8 23 9 24 10 25 11
REMARK SMILES IDX 26 12 27 13 28 14 29 15 30 16 14 17 13 18 12 19 11 20 10 21
REMARK SMILES IDX 9 22 8 23 7 24 6 25 5 26 4 27 3 28 2 29 1 30
REMARK H PARENT
REMARK Flexibility Score: inf
ROOT
ATOM      1  C   UNL     1      41.817  57.905  59.255  1.00  0.00     0.000 C 
ENDROOT
BRANCH   1   2
ATOM      2  C   UNL     1      40.515  58.254  58.510  1.00  0.00     0.000 C 
BRANCH   2   3
ATOM      3  C   UNL     1      40.643  59.380  57.464  1.00  0.00     0.000 C 
BRANCH   3   4
ATOM      4  C   UNL     1      39.322  59.800  56.789  1.00  0.00     0.000 C 
BRANCH   4   5
ATOM      5  C   UNL     1      39.458  60.910  55.729  1.00  0.00     0.000 C 
BRANCH   5   6
ATOM      6  C   UNL     1      40.896  61.435  55.600  1.00  0.00     0.000 C 
BRANCH   6   7
ATOM      7  C   UNL     1      41.072  62.764  56.345  1.00  0.00     0.000 C 
BRANCH   7   8
ATOM      8  C   UNL     1      42.312  62.782  57.256  1.00  0.00     0.000 C 
BRANCH   8   9
ATOM      9  C   UNL     1      42.018  62.392  58.721  1.00  0.00     0.000 C 
BRANCH   9  10
ATOM     10  C   UNL     1      43.142  61.539  59.336  1.00  0.00     0.000 C 
BRANCH  10  11
ATOM     11  C   UNL     1      44.398  61.492  58.450  1.00  0.00     0.000 C 
BRANCH  11  12
ATOM     12  C   UNL     1      45.102  60.125  58.504  1.00  0.00     0.006 C 
BRANCH  12  13
ATOM     13  C   UNL     1      45.770  59.868  59.861  1.00  0.00     0.053 C 
BRANCH  13  14
ATOM     14  C   UNL     1      45.265  58.618  60.517  1.00  0.00     0.041 C 
ATOM     15  O   UNL     1      45.692  57.492  60.148  1.00  0.00    -0.550 OA
ATOM     16  O   UNL     1      44.330  58.698  61.543  1.00  0.00    -0.550 OA
ENDBRANCH  13  14
ENDBRANCH  12  13
ENDBRANCH  11  12
ENDBRANCH  10  11
ENDBRANCH   9  10
ENDBRANCH   8   9
ENDBRANCH   7   8
ENDBRANCH   6   7
ENDBRANCH   5   6
ENDBRANCH   4   5
ENDBRANCH   3   4
ENDBRANCH   2   3
ENDBRANCH   1   2
BRANCH   1  17
ATOM     17  C   UNL     1      42.687  56.896  58.486  1.00  0.00     0.000 C 
BRANCH  17  18
ATOM     18  C   UNL     1      42.966  55.607  59.283  1.00  0.00     0.000 C 
BRANCH  18  19
ATOM     19  C   UNL     1      42.019  55.350  60.470  1.00  0.00     0.000 C 
BRANCH  19  20
ATOM     20  C   UNL     1      41.081  54.139  60.311  1.00  0.00     0.000 C 
BRANCH  20  21
ATOM     21  C   UNL     1      39.580  54.502  60.314  1.00  0.00     0.000 C 
BRANCH  21  22
ATOM     22  C   UNL     1      39.322  55.933  60.815  1.00  0.00    -0.000 C 
BRANCH  22  23
ATOM     23  C   UNL     1      37.887  56.418  60.533  1.00  0.00    -0.000 C 
BRANCH  23  24
ATOM     24  C   UNL     1      37.482  56.433  59.045  1.00  0.00    -0.000 C 
BRANCH  24  25
ATOM     25  C   UNL     1      36.140  55.745  58.720  1.00  0.00    -0.000 C 
BRANCH  25  26
ATOM     26  C   UNL     1      35.810  54.517  59.587  1.00  0.00    -0.000 C 
BRANCH  26  27
ATOM     27  C   UNL     1      36.131  53.188  58.883  1.00  0.00    -0.000 C 
BRANCH  27  28
ATOM     28  C   UNL     1      34.917  52.605  58.140  1.00  0.00    -0.000 C 
BRANCH  28  29
ATOM     29  C   UNL     1      34.974  51.075  58.017  1.00  0.00    -0.003 C 
ATOM     30  C   UNL     1      36.092  50.642  57.074  1.00  0.00     0.004 C 
ENDBRANCH  28  29
ENDBRANCH  27  28
ENDBRANCH  26  27
ENDBRANCH  25  26
ENDBRANCH  24  25
ENDBRANCH  23  24
ENDBRANCH  22  23
ENDBRANCH  21  22
ENDBRANCH  20  21
ENDBRANCH  19  20
ENDBRANCH  18  19
ENDBRANCH  17  18
ENDBRANCH   1  17
TORSDOF 26
ENDMDL
MODEL 4
REMARK VINA RESULT:    -5.284      3.278      9.290
REMARK INTER + INTRA:         -16.064
REMARK INTER:                 -13.047
REMARK INTRA:                  -3.017
REMARK UNBOUND:                -2.748
REMARK SMILES CCCCCCCCCCCCCCCCCCCCCCCCCCCC(=O)[O-]
REMARK SMILES IDX 15 1 16 2 17 3 18 4 19 5 20 6 21 7 22 8 23 9 24 10 25 11
REMARK SMILES IDX 26 12 27 13 28 14 29 15 30 16 14 17 13 18 12 19 11 20 10 21
REMARK SMILES IDX 9 22 8 23 7 24 6 25 5 26 4 27 3 28 2 29 1 30
REMARK H PARENT
REMARK Flexibility Score: inf
ROOT
ATOM      1  C   UNL     1      46.408  57.902  59.789  1.00  0.00     0.000 C 
ENDROOT
BRANCH   1   2
ATOM      2  C   UNL     1      44.913  57.579  59.963  1.00  0.00     0.000 C 
BRANCH   2   3
ATOM      3  C   UNL     1      44.167  57.221  58.662  1.00  0.00     0.000 C 
BRANCH   3   4
ATOM      4  C   UNL     1      42.697  56.793  58.845  1.00  0.00     0.000 C 
BRANCH   4   5
ATOM      5  C   UNL     1      42.345  56.265  60.249  1.00  0.00     0.000 C 
BRANCH   5   6
ATOM      6  C   UNL     1      42.340  54.731  60.323  1.00  0.00     0.000 C 
BRANCH   6   7
ATOM      7  C   UNL     1      40.956  54.161  59.986  1.00  0.00     0.000 C 
BRANCH   7   8
ATOM      8  C   UNL     1      40.133  53.804  61.235  1.00  0.00     0.000 C 
BRANCH   8   9
ATOM      9  C   UNL     1      38.609  53.956  61.046  1.00  0.00     0.000 C 
BRANCH   9  10
ATOM     10  C   UNL     1      38.219  55.357  60.540  1.00  0.00     0.000 C 
BRANCH  10  11
ATOM     11  C   UNL     1      36.935  55.343  59.696  1.00  0.00     0.000 C 
BRANCH  11  12
ATOM     12  C   UNL     1      36.373  53.922  59.507  1.00  0.00     0.006 C 
BRANCH  12  13
ATOM     13  C   UNL     1      35.365  53.845  58.353  1.00  0.00     0.053 C 
BRANCH  13  14
ATOM     14  C   UNL     1      34.945  52.436  58.058  1.00  0.00     0.041 C 
ATOM     15  O   UNL     1      35.768  51.619  57.566  1.00  0.00    -0.550 OA
ATOM     16  O   UNL     1      33.647  52.025  58.335  1.00  0.00    -0.550 OA
ENDBRANCH  13  14
ENDBRANCH  12  13
ENDBRANCH  11  12
ENDBRANCH  10  11
ENDBRANCH   9  10
ENDBRANCH   8   9
ENDBRANCH   7   8
ENDBRANCH   6   7
ENDBRANCH   5   6
ENDBRANCH   4   5
ENDBRANCH   3   4
ENDBRANCH   2   3
ENDBRANCH   1   2
BRANCH   1  17
ATOM     17  C   UNL     1      46.806  59.236  60.443  1.00  0.00     0.000 C 
BRANCH  17  18
ATOM     18  C   UNL     1      46.683  60.439  59.488  1.00  0.00     0.000 C 
BRANCH  18  19
ATOM     19  C   UNL     1      46.644  61.819  60.170  1.00  0.00     0.000 C 
BRANCH  19  20
ATOM     20  C   UNL     1      46.438  61.792  61.696  1.00  0.00     0.000 C 
BRANCH  20  21
ATOM     21  C   UNL     1      45.121  62.450  62.163  1.00  0.00     0.000 C 
BRANCH  21  22
ATOM     22  C   UNL     1      43.963  61.443  62.264  1.00  0.00    -0.000 C 
BRANCH  22  23
ATOM     23  C   UNL     1      42.938  61.591  61.125  1.00  0.00    -0.000 C 
BRANCH  23  24
ATOM     24  C   UNL     1      43.028  60.519  60.020  1.00  0.00    -0.000 C 
BRANCH  24  25
ATOM     25  C   UNL     1      43.165  61.062  58.583  1.00  0.00    -0.000 C 
BRANCH  25  26
ATOM     26  C   UNL     1      42.537  62.447  58.347  1.00  0.00    -0.000 C 
BRANCH  26  27
ATOM     27  C   UNL     1      41.225  62.376  57.546  1.00  0.00    -0.000 C 
BRANCH  27  28
ATOM     28  C   UNL     1      40.983  60.986  56.934  1.00  0.00    -0.000 C 
BRANCH  28  29
ATOM     29  C   UNL     1      40.059  61.029  55.708  1.00  0.00    -0.003 C 
ATOM     30  C   UNL     1      40.473  62.140  54.748  1.00  0.00     0.004 C 
ENDBRANCH  28  29
ENDBRANCH  27  28
ENDBRANCH  26  27
ENDBRANCH  25  26
ENDBRANCH  24  25
ENDBRANCH  23  24
ENDBRANCH  22  23
ENDBRANCH  21  22
ENDBRANCH  20  21
ENDBRANCH  19  20
ENDBRANCH  18  19
ENDBRANCH  17  18
ENDBRANCH   1  17
TORSDOF 26
ENDMDL
MODEL 5
REMARK VINA RESULT:    -5.257      3.369      9.177
REMARK INTER + INTRA:         -15.995
REMARK INTER:                 -12.511
REMARK INTRA:                  -3.485
REMARK UNBOUND:                -2.748
REMARK SMILES CCCCCCCCCCCCCCCCCCCCCCCCCCCC(=O)[O-]
REMARK SMILES IDX 15 1 16 2 17 3 18 4 19 5 20 6 21 7 22 8 23 9 24 10 25 11
REMARK SMILES IDX 26 12 27 13 28 14 29 15 30 16 14 17 13 18 12 19 11 20 10 21
REMARK SMILES IDX 9 22 8 23 7 24 6 25 5 26 4 27 3 28 2 29 1 30
REMARK H PARENT
REMARK Flexibility Score: inf
ROOT
ATOM      1  C   UNL     1      42.432  57.686  58.000  1.00  0.00     0.000 C 
ENDROOT
BRANCH   1   2
ATOM      2  C   UNL     1      43.495  56.760  58.620  1.00  0.00     0.000 C 
BRANCH   2   3
ATOM      3  C   UNL     1      43.384  56.569  60.146  1.00  0.00     0.000 C 
BRANCH   3   4
ATOM      4  C   UNL     1      43.007  55.145  60.603  1.00  0.00     0.000 C 
BRANCH   4   5
ATOM      5  C   UNL     1      41.846  54.499  59.822  1.00  0.00     0.000 C 
BRANCH   5   6
ATOM      6  C   UNL     1      40.754  53.933  60.742  1.00  0.00     0.000 C 
BRANCH   6   7
ATOM      7  C   UNL     1      39.439  54.708  60.586  1.00  0.00     0.000 C 
BRANCH   7   8
ATOM      8  C   UNL     1      38.203  53.794  60.563  1.00  0.00     0.000 C 
BRANCH   8   9
ATOM      9  C   UNL     1      36.994  54.393  59.814  1.00  0.00     0.000 C 
BRANCH   9  10
ATOM     10  C   UNL     1      37.079  55.926  59.697  1.00  0.00     0.000 C 
BRANCH  10  11
ATOM     11  C   UNL     1      35.722  56.611  59.925  1.00  0.00     0.000 C 
BRANCH  11  12
ATOM     12  C   UNL     1      35.690  57.429  61.228  1.00  0.00     0.006 C 
BRANCH  12  13
ATOM     13  C   UNL     1      34.407  58.260  61.360  1.00  0.00     0.053 C 
BRANCH  13  14
ATOM     14  C   UNL     1      34.309  58.950  62.687  1.00  0.00     0.041 C 
ATOM     15  O   UNL     1      33.182  59.215  63.183  1.00  0.00    -0.550 OA
ATOM     16  O   UNL     1      35.464  59.291  63.381  1.00  0.00    -0.550 OA
ENDBRANCH  13  14
ENDBRANCH  12  13
ENDBRANCH  11  12
ENDBRANCH  10  11
ENDBRANCH   9  10
ENDBRANCH   8   9
ENDBRANCH   7   8
ENDBRANCH   6   7
ENDBRANCH   5   6
ENDBRANCH   4   5
ENDBRANCH   3   4
ENDBRANCH   2   3
ENDBRANCH   1   2
BRANCH   1  17
ATOM     17  C   UNL     1      41.392  58.165  59.027  1.00  0.00     0.000 C 
BRANCH  17  18
ATOM     18  C   UNL     1      39.942  58.046  58.520  1.00  0.00     0.000 C 
BRANCH  18  19
ATOM     19  C   UNL     1      39.602  58.909  57.291  1.00  0.00     0.000 C 
BRANCH  19  20
ATOM     20  C   UNL     1      40.142  60.350  57.331  1.00  0.00     0.000 C 
BRANCH  20  21
ATOM     21  C   UNL     1      40.430  60.952  55.938  1.00  0.00     0.000 C 
BRANCH  21  22
ATOM     22  C   UNL     1      41.031  62.365  56.019  1.00  0.00    -0.000 C 
BRANCH  22  23
ATOM     23  C   UNL     1      41.444  62.760  57.449  1.00  0.00    -0.000 C 
BRANCH  23  24
ATOM     24  C   UNL     1      42.962  62.750  57.718  1.00  0.00    -0.000 C 
BRANCH  24  25
ATOM     25  C   UNL     1      43.430  61.782  58.824  1.00  0.00    -0.000 C 
BRANCH  25  26
ATOM     26  C   UNL     1      44.322  60.624  58.342  1.00  0.00    -0.000 C 
BRANCH  26  27
ATOM     27  C   UNL     1      45.101  59.957  59.489  1.00  0.00    -0.000 C 
BRANCH  27  28
ATOM     28  C   UNL     1      44.883  60.663  60.838  1.00  0.00    -0.000 C 
BRANCH  28  29
ATOM     29  C   UNL     1      44.074  59.813  61.830  1.00  0.00    -0.003 C 
ATOM     30  C   UNL     1      42.729  60.462  62.139  1.00  0.00     0.004 C 
ENDBRANCH  28  29
ENDBRANCH  27  28
ENDBRANCH  26  27
ENDBRANCH  25  26
ENDBRANCH  24  25
ENDBRANCH  23  24
ENDBRANCH  22  23
ENDBRANCH  21  22
ENDBRANCH  20  21
ENDBRANCH  19  20
ENDBRANCH  18  19
ENDBRANCH  17  18
ENDBRANCH   1  17
TORSDOF 26
ENDMDL
MODEL 6
REMARK VINA RESULT:    -5.253      3.872     10.425
REMARK INTER + INTRA:         -15.986
REMARK INTER:                 -12.803
REMARK INTRA:                  -3.183
REMARK UNBOUND:                -2.748
REMARK SMILES CCCCCCCCCCCCCCCCCCCCCCCCCCCC(=O)[O-]
REMARK SMILES IDX 15 1 16 2 17 3 18 4 19 5 20 6 21 7 22 8 23 9 24 10 25 11
REMARK SMILES IDX 26 12 27 13 28 14 29 15 30 16 14 17 13 18 12 19 11 20 10 21
REMARK SMILES IDX 9 22 8 23 7 24 6 25 5 26 4 27 3 28 2 29 1 30
REMARK H PARENT
REMARK Flexibility Score: inf
ROOT
ATOM      1  C   UNL     1      42.583  56.724  58.756  1.00  0.00     0.000 C 
ENDROOT
BRANCH   1   2
ATOM      2  C   UNL     1      43.272  55.969  59.907  1.00  0.00     0.000 C 
BRANCH   2   3
ATOM      3  C   UNL     1      42.501  54.743  60.438  1.00  0.00     0.000 C 
BRANCH   3   4
ATOM      4  C   UNL     1      41.134  54.491  59.773  1.00  0.00     0.000 C 
BRANCH   4   5
ATOM      5  C   UNL     1      39.913  54.799  60.660  1.00  0.00     0.000 C 
BRANCH   5   6
ATOM      6  C   UNL     1      39.010  55.892  60.069  1.00  0.00     0.000 C 
BRANCH   6   7
ATOM      7  C   UNL     1      37.794  56.155  60.967  1.00  0.00     0.000 C 
BRANCH   7   8
ATOM      8  C   UNL     1      36.497  56.379  60.171  1.00  0.00     0.000 C 
BRANCH   8   9
ATOM      9  C   UNL     1      36.475  55.673  58.798  1.00  0.00     0.000 C 
BRANCH   9  10
ATOM     10  C   UNL     1      35.503  54.479  58.771  1.00  0.00     0.000 C 
BRANCH  10  11
ATOM     11  C   UNL     1      36.227  53.128  58.890  1.00  0.00     0.000 C 
BRANCH  11  12
ATOM     12  C   UNL     1      35.392  51.964  58.326  1.00  0.00     0.006 C 
BRANCH  12  13
ATOM     13  C   UNL     1      33.948  52.382  58.018  1.00  0.00     0.053 C 
BRANCH  13  14
ATOM     14  C   UNL     1      32.974  51.261  58.226  1.00  0.00     0.041 C 
ATOM     15  O   UNL     1      33.295  50.079  57.931  1.00  0.00    -0.550 OA
ATOM     16  O   UNL     1      31.716  51.521  58.757  1.00  0.00    -0.550 OA
ENDBRANCH  13  14
ENDBRANCH  12  13
ENDBRANCH  11  12
ENDBRANCH  10  11
ENDBRANCH   9  10
ENDBRANCH   8   9
ENDBRANCH   7   8
ENDBRANCH   6   7
ENDBRANCH   5   6
ENDBRANCH   4   5
ENDBRANCH   3   4
ENDBRANCH   2   3
ENDBRANCH   1   2
BRANCH   1  17
ATOM     17  C   UNL     1      41.768  57.934  59.245  1.00  0.00     0.000 C 
BRANCH  17  18
ATOM     18  C   UNL     1      40.881  58.550  58.146  1.00  0.00     0.000 C 
BRANCH  18  19
ATOM     19  C   UNL     1      41.492  59.757  57.409  1.00  0.00     0.000 C 
BRANCH  19  20
ATOM     20  C   UNL     1      40.568  60.982  57.278  1.00  0.00     0.000 C 
BRANCH  20  21
ATOM     21  C   UNL     1      41.321  62.318  57.088  1.00  0.00     0.000 C 
BRANCH  21  22
ATOM     22  C   UNL     1      42.662  62.350  57.840  1.00  0.00    -0.000 C 
BRANCH  22  23
ATOM     23  C   UNL     1      42.494  62.523  59.361  1.00  0.00    -0.000 C 
BRANCH  23  24
ATOM     24  C   UNL     1      43.798  62.790  60.138  1.00  0.00    -0.000 C 
BRANCH  24  25
ATOM     25  C   UNL     1      45.066  62.932  59.271  1.00  0.00    -0.000 C 
BRANCH  25  26
ATOM     26  C   UNL     1      46.041  61.743  59.342  1.00  0.00    -0.000 C 
BRANCH  26  27
ATOM     27  C   UNL     1      45.920  60.803  58.130  1.00  0.00    -0.000 C 
BRANCH  27  28
ATOM     28  C   UNL     1      45.140  59.518  58.455  1.00  0.00    -0.000 C 
BRANCH  28  29
ATOM     29  C   UNL     1      45.155  59.177  59.952  1.00  0.00    -0.003 C 
ATOM     30  C   UNL     1      46.289  58.213  60.285  1.00  0.00     0.004 C 
ENDBRANCH  28  29
ENDBRANCH  27  28
ENDBRANCH  26  27
ENDBRANCH  25  26
ENDBRANCH  24  25
ENDBRANCH  23  24
ENDBRANCH  22  23
ENDBRANCH  21  22
ENDBRANCH  20  21
ENDBRANCH  19  20
ENDBRANCH  18  19
ENDBRANCH  17  18
ENDBRANCH   1  17
TORSDOF 26
ENDMDL
MODEL 7
REMARK VINA RESULT:    -5.248      2.826      6.743
REMARK INTER + INTRA:         -15.973
REMARK INTER:                 -12.084
REMARK INTRA:                  -3.890
REMARK UNBOUND:                -2.748
REMARK SMILES CCCCCCCCCCCCCCCCCCCCCCCCCCCC(=O)[O-]
REMARK SMILES IDX 15 1 16 2 17 3 18 4 19 5 20 6 21 7 22 8 23 9 24 10 25 11
REMARK SMILES IDX 26 12 27 13 28 14 29 15 30 16 14 17 13 18 12 19 11 20 10 21
REMARK SMILES IDX 9 22 8 23 7 24 6 25 5 26 4 27 3 28 2 29 1 30
REMARK H PARENT
REMARK Flexibility Score: inf
ROOT
ATOM      1  C   UNL     1      39.771  53.518  61.576  1.00  0.00     0.000 C 
ENDROOT
BRANCH   1   2
ATOM      2  C   UNL     1      40.524  53.810  60.265  1.00  0.00     0.000 C 
BRANCH   2   3
ATOM      3  C   UNL     1      41.883  54.518  60.437  1.00  0.00     0.000 C 
BRANCH   3   4
ATOM      4  C   UNL     1      42.632  54.825  59.125  1.00  0.00     0.000 C 
BRANCH   4   5
ATOM      5  C   UNL     1      43.095  56.286  58.967  1.00  0.00     0.000 C 
BRANCH   5   6
ATOM      6  C   UNL     1      43.593  56.897  60.285  1.00  0.00     0.000 C 
BRANCH   6   7
ATOM      7  C   UNL     1      44.941  57.604  60.096  1.00  0.00     0.000 C 
BRANCH   7   8
ATOM      8  C   UNL     1      45.103  58.222  58.697  1.00  0.00     0.000 C 
BRANCH   8   9
ATOM      9  C   UNL     1      46.222  59.282  58.607  1.00  0.00     0.000 C 
BRANCH   9  10
ATOM     10  C   UNL     1      45.712  60.699  58.926  1.00  0.00     0.000 C 
BRANCH  10  11
ATOM     11  C   UNL     1      45.441  60.905  60.425  1.00  0.00     0.000 C 
BRANCH  11  12
ATOM     12  C   UNL     1      44.083  61.579  60.688  1.00  0.00     0.006 C 
BRANCH  12  13
ATOM     13  C   UNL     1      43.095  60.638  61.391  1.00  0.00     0.053 C 
BRANCH  13  14
ATOM     14  C   UNL     1      42.544  61.231  62.653  1.00  0.00     0.041 C 
ATOM     15  O   UNL     1      42.895  60.776  63.774  1.00  0.00    -0.550 OA
ATOM     16  O   UNL     1      41.650  62.294  62.590  1.00  0.00    -0.550 OA
ENDBRANCH  13  14
ENDBRANCH  12  13
ENDBRANCH  11  12
ENDBRANCH  10  11
ENDBRANCH   9  10
ENDBRANCH   8   9
ENDBRANCH   7   8
ENDBRANCH   6   7
ENDBRANCH   5   6
ENDBRANCH   4   5
ENDBRANCH   3   4
ENDBRANCH   2   3
ENDBRANCH   1   2
BRANCH   1  17
ATOM     17  C   UNL     1      38.254  53.375  61.369  1.00  0.00     0.000 C 
BRANCH  17  18
ATOM     18  C   UNL     1      37.801  53.742  59.943  1.00  0.00     0.000 C 
BRANCH  18  19
ATOM     19  C   UNL     1      36.686  54.802  59.859  1.00  0.00     0.000 C 
BRANCH  19  20
ATOM     20  C   UNL     1      37.168  56.242  59.600  1.00  0.00     0.000 C 
BRANCH  20  21
ATOM     21  C   UNL     1      38.230  56.739  60.604  1.00  0.00     0.000 C 
BRANCH  21  22
ATOM     22  C   UNL     1      39.553  57.125  59.920  1.00  0.00    -0.000 C 
BRANCH  22  23
ATOM     23  C   UNL     1      39.345  57.839  58.572  1.00  0.00    -0.000 C 
BRANCH  23  24
ATOM     24  C   UNL     1      40.639  58.282  57.858  1.00  0.00    -0.000 C 
BRANCH  24  25
ATOM     25  C   UNL     1      41.344  59.509  58.472  1.00  0.00    -0.000 C 
BRANCH  25  26
ATOM     26  C   UNL     1      42.226  60.309  57.497  1.00  0.00    -0.000 C 
BRANCH  26  27
ATOM     27  C   UNL     1      42.110  61.829  57.702  1.00  0.00    -0.000 C 
BRANCH  27  28
ATOM     28  C   UNL     1      41.060  62.471  56.779  1.00  0.00    -0.000 C 
BRANCH  28  29
ATOM     29  C   UNL     1      40.630  61.544  55.633  1.00  0.00    -0.003 C 
ATOM     30  C   UNL     1      39.759  62.286  54.625  1.00  0.00     0.004 C 
ENDBRANCH  28  29
ENDBRANCH  27  28
ENDBRANCH  26  27
ENDBRANCH  25  26
ENDBRANCH  24  25
ENDBRANCH  23  24
ENDBRANCH  22  23
ENDBRANCH  21  22
ENDBRANCH  20  21
ENDBRANCH  19  20
ENDBRANCH  18  19
ENDBRANCH  17  18
ENDBRANCH   1  17
TORSDOF 26
ENDMDL
MODEL 8
REMARK VINA RESULT:    -5.189      2.913      8.668
REMARK INTER + INTRA:         -15.824
REMARK INTER:                 -11.579
REMARK INTRA:                  -4.245
REMARK UNBOUND:                -2.748
REMARK SMILES CCCCCCCCCCCCCCCCCCCCCCCCCCCC(=O)[O-]
REMARK SMILES IDX 15 1 16 2 17 3 18 4 19 5 20 6 21 7 22 8 23 9 24 10 25 11
REMARK SMILES IDX 26 12 27 13 28 14 29 15 30 16 14 17 13 18 12 19 11 20 10 21
REMARK SMILES IDX 9 22 8 23 7 24 6 25 5 26 4 27 3 28 2 29 1 30
REMARK H PARENT
REMARK Flexibility Score: inf
ROOT
ATOM      1  C   UNL     1      41.985  54.734  59.209  1.00  0.00     0.000 C 
ENDROOT
BRANCH   1   2
ATOM      2  C   UNL     1      41.415  54.794  60.638  1.00  0.00     0.000 C 
BRANCH   2   3
ATOM      3  C   UNL     1      40.321  53.753  60.950  1.00  0.00     0.000 C 
BRANCH   3   4
ATOM      4  C   UNL     1      38.885  54.311  61.012  1.00  0.00     0.000 C 
BRANCH   4   5
ATOM      5  C   UNL     1      38.778  55.844  60.909  1.00  0.00     0.000 C 
BRANCH   5   6
ATOM      6  C   UNL     1      37.736  56.298  59.875  1.00  0.00     0.000 C 
BRANCH   6   7
ATOM      7  C   UNL     1      38.383  57.136  58.765  1.00  0.00     0.000 C 
BRANCH   7   8
ATOM      8  C   UNL     1      39.824  57.561  59.096  1.00  0.00     0.000 C 
BRANCH   8   9
ATOM      9  C   UNL     1      40.470  58.471  58.030  1.00  0.00     0.000 C 
BRANCH   9  10
ATOM     10  C   UNL     1      41.729  59.184  58.555  1.00  0.00     0.000 C 
BRANCH  10  11
ATOM     11  C   UNL     1      42.200  60.312  57.622  1.00  0.00     0.000 C 
BRANCH  11  12
ATOM     12  C   UNL     1      41.263  61.533  57.659  1.00  0.00     0.006 C 
BRANCH  12  13
ATOM     13  C   UNL     1      41.342  62.364  56.372  1.00  0.00     0.053 C 
BRANCH  13  14
ATOM     14  C   UNL     1      40.414  61.857  55.309  1.00  0.00     0.041 C 
ATOM     15  O   UNL     1      39.610  60.921  55.562  1.00  0.00    -0.550 OA
ATOM     16  O   UNL     1      40.430  62.427  54.041  1.00  0.00    -0.550 OA
ENDBRANCH  13  14
ENDBRANCH  12  13
ENDBRANCH  11  12
ENDBRANCH  10  11
ENDBRANCH   9  10
ENDBRANCH   8   9
ENDBRANCH   7   8
ENDBRANCH   6   7
ENDBRANCH   5   6
ENDBRANCH   4   5
ENDBRANCH   3   4
ENDBRANCH   2   3
ENDBRANCH   1   2
BRANCH   1  17
ATOM     17  C   UNL     1      43.127  55.739  58.984  1.00  0.00     0.000 C 
BRANCH  17  18
ATOM     18  C   UNL     1      43.568  56.454  60.276  1.00  0.00     0.000 C 
BRANCH  18  19
ATOM     19  C   UNL     1      44.575  57.603  60.081  1.00  0.00     0.000 C 
BRANCH  19  20
ATOM     20  C   UNL     1      45.061  57.812  58.635  1.00  0.00     0.000 C 
BRANCH  20  21
ATOM     21  C   UNL     1      46.506  58.346  58.529  1.00  0.00     0.000 C 
BRANCH  21  22
ATOM     22  C   UNL     1      46.755  59.119  57.222  1.00  0.00    -0.000 C 
BRANCH  22  23
ATOM     23  C   UNL     1      46.936  60.632  57.445  1.00  0.00    -0.000 C 
BRANCH  23  24
ATOM     24  C   UNL     1      45.770  61.331  58.173  1.00  0.00    -0.000 C 
BRANCH  24  25
ATOM     25  C   UNL     1      46.149  62.609  58.948  1.00  0.00    -0.000 C 
BRANCH  25  26
ATOM     26  C   UNL     1      45.716  62.629  60.426  1.00  0.00    -0.000 C 
BRANCH  26  27
ATOM     27  C   UNL     1      45.021  61.326  60.858  1.00  0.00    -0.000 C 
BRANCH  27  28
ATOM     28  C   UNL     1      43.488  61.446  60.853  1.00  0.00    -0.000 C 
BRANCH  28  29
ATOM     29  C   UNL     1      42.817  60.534  61.890  1.00  0.00    -0.003 C 
ATOM     30  C   UNL     1      43.845  59.942  62.848  1.00  0.00     0.004 C 
ENDBRANCH  28  29
ENDBRANCH  27  28
ENDBRANCH  26  27
ENDBRANCH  25  26
ENDBRANCH  24  25
ENDBRANCH  23  24
ENDBRANCH  22  23
ENDBRANCH  21  22
ENDBRANCH  20  21
ENDBRANCH  19  20
ENDBRANCH  18  19
ENDBRANCH  17  18
ENDBRANCH   1  17
TORSDOF 26
ENDMDL
MODEL 9
REMARK VINA RESULT:    -5.179      2.326      3.709
REMARK INTER + INTRA:         -15.798
REMARK INTER:                 -13.058
REMARK INTRA:                  -2.740
REMARK UNBOUND:                -2.748
REMARK SMILES CCCCCCCCCCCCCCCCCCCCCCCCCCCC(=O)[O-]
REMARK SMILES IDX 15 1 16 2 17 3 18 4 19 5 20 6 21 7 22 8 23 9 24 10 25 11
REMARK SMILES IDX 26 12 27 13 28 14 29 15 30 16 14 17 13 18 12 19 11 20 10 21
REMARK SMILES IDX 9 22 8 23 7 24 6 25 5 26 4 27 3 28 2 29 1 30
REMARK H PARENT
REMARK Flexibility Score: inf
ROOT
ATOM      1  C   UNL     1      44.051  56.631  60.180  1.00  0.00     0.000 C 
ENDROOT
BRANCH   1   2
ATOM      2  C   UNL     1      43.525  57.998  60.654  1.00  0.00     0.000 C 
BRANCH   2   3
ATOM      3  C   UNL     1      42.161  58.413  60.067  1.00  0.00     0.000 C 
BRANCH   3   4
ATOM      4  C   UNL     1      42.089  58.435  58.527  1.00  0.00     0.000 C 
BRANCH   4   5
ATOM      5  C   UNL     1      40.687  58.693  57.945  1.00  0.00     0.000 C 
BRANCH   5   6
ATOM      6  C   UNL     1      40.562  60.075  57.287  1.00  0.00     0.000 C 
BRANCH   6   7
ATOM      7  C   UNL     1      41.840  60.901  57.480  1.00  0.00     0.000 C 
BRANCH   7   8
ATOM      8  C   UNL     1      41.565  62.316  58.018  1.00  0.00     0.000 C 
BRANCH   8   9
ATOM      9  C   UNL     1      42.244  62.614  59.372  1.00  0.00     0.000 C 
BRANCH   9  10
ATOM     10  C   UNL     1      43.458  61.704  59.631  1.00  0.00     0.000 C 
BRANCH  10  11
ATOM     11  C   UNL     1      44.790  62.468  59.575  1.00  0.00     0.000 C 
BRANCH  11  12
ATOM     12  C   UNL     1      45.909  61.648  58.908  1.00  0.00     0.006 C 
BRANCH  12  13
ATOM     13  C   UNL     1      45.375  60.375  58.239  1.00  0.00     0.053 C 
BRANCH  13  14
ATOM     14  C   UNL     1      46.231  59.178  58.528  1.00  0.00     0.041 C 
ATOM     15  O   UNL     1      46.376  58.277  57.659  1.00  0.00    -0.550 OA
ATOM     16  O   UNL     1      46.877  59.064  59.753  1.00  0.00    -0.550 OA
ENDBRANCH  13  14
ENDBRANCH  12  13
ENDBRANCH  11  12
ENDBRANCH  10  11
ENDBRANCH   9  10
ENDBRANCH   8   9
ENDBRANCH   7   8
ENDBRANCH   6   7
ENDBRANCH   5   6
ENDBRANCH   4   5
ENDBRANCH   3   4
ENDBRANCH   2   3
ENDBRANCH   1   2
BRANCH   1  17
ATOM     17  C   UNL     1      42.947  55.752  59.568  1.00  0.00     0.000 C 
BRANCH  17  18
ATOM     18  C   UNL     1      42.189  54.914  60.616  1.00  0.00     0.000 C 
BRANCH  18  19
ATOM     19  C   UNL     1      40.993  54.110  60.075  1.00  0.00     0.000 C 
BRANCH  19  20
ATOM     20  C   UNL     1      39.607  54.627  60.502  1.00  0.00     0.000 C 
BRANCH  20  21
ATOM     21  C   UNL     1      39.515  56.165  60.604  1.00  0.00     0.000 C 
BRANCH  21  22
ATOM     22  C   UNL     1      38.307  56.736  59.841  1.00  0.00    -0.000 C 
BRANCH  22  23
ATOM     23  C   UNL     1      37.031  55.893  60.022  1.00  0.00    -0.000 C 
BRANCH  23  24
ATOM     24  C   UNL     1      36.253  55.595  58.724  1.00  0.00    -0.000 C 
BRANCH  24  25
ATOM     25  C   UNL     1      35.401  54.310  58.746  1.00  0.00    -0.000 C 
BRANCH  25  26
ATOM     26  C   UNL     1      36.203  52.996  58.775  1.00  0.00    -0.000 C 
BRANCH  26  27
ATOM     27  C   UNL     1      35.357  51.774  58.379  1.00  0.00    -0.000 C 
BRANCH  27  28
ATOM     28  C   UNL     1      35.842  51.117  57.076  1.00  0.00    -0.000 C 
BRANCH  28  29
ATOM     29  C   UNL     1      35.845  49.583  57.149  1.00  0.00    -0.003 C 
ATOM     30  C   UNL     1      34.450  49.019  56.905  1.00  0.00     0.004 C 
ENDBRANCH  28  29
ENDBRANCH  27  28
ENDBRANCH  26  27
ENDBRANCH  25  26
ENDBRANCH  24  25
ENDBRANCH  23  24
ENDBRANCH  22  23
ENDBRANCH  21  22
ENDBRANCH  20  21
ENDBRANCH  19  20
ENDBRANCH  18  19
ENDBRANCH  17  18
ENDBRANCH   1  17
TORSDOF 26
ENDMDL
