MODEL 1
REMARK VINA RESULT:    -4.949      0.000      0.000
REMARK INTER + INTRA:          -8.221
REMARK INTER:                  -7.554
REMARK INTRA:                  -0.667
REMARK UNBOUND:                -0.667
REMARK SMILES O=C([O-])CCCCCCCCC(=O)[O-]
REMARK SMILES IDX 7 1 6 2 5 3 4 4 2 5 1 6 3 7 8 8 9 9 10 10 11 11 12 12 13 13
REMARK SMILES IDX 14 14
REMARK H PARENT
REMARK Flexibility Score: inf
ROOT
ATOM      1  C   UNL     1      88.115 325.372 193.087  1.00  0.00     0.000 C 
ENDROOT
BRANCH   1   2
ATOM      2  C   UNL     1      86.817 324.567 192.957  1.00  0.00     0.000 C 
BRANCH   2   3
ATOM      3  C   UNL     1      86.818 323.724 191.675  1.00  0.00     0.006 C 
BRANCH   3   4
ATOM      4  C   UNL     1      88.094 323.963 190.862  1.00  0.00     0.053 C 
BRANCH   4   5
ATOM      5  C   UNL     1      88.288 322.869 189.860  1.00  0.00     0.041 C 
ATOM      6  O   UNL     1      87.570 322.820 188.828  1.00  0.00    -0.550 OA
ATOM      7  O   UNL     1      89.230 321.874 190.091  1.00  0.00    -0.550 OA
ENDBRANCH   4   5
ENDBRANCH   3   4
ENDBRANCH   2   3
ENDBRANCH   1   2
BRANCH   1   8
ATOM      8  C   UNL     1      87.917 326.595 193.994  1.00  0.00     0.000 C 
BRANCH   8   9
ATOM      9  C   UNL     1      86.535 326.594 194.684  1.00  0.00     0.000 C 
BRANCH   9  10
ATOM     10  C   UNL     1      86.609 326.387 196.208  1.00  0.00     0.006 C 
BRANCH  10  11
ATOM     11  C   UNL     1      88.034 326.178 196.743  1.00  0.00     0.053 C 
BRANCH  11  12
ATOM     12  C   UNL     1      88.264 324.763 197.180  1.00  0.00     0.041 C 
ATOM     13  O   UNL     1      88.167 323.821 196.350  1.00  0.00    -0.550 OA
ATOM     14  O   UNL     1      88.565 324.482 198.506  1.00  0.00    -0.550 OA
ENDBRANCH  11  12
ENDBRANCH  10  11
ENDBRANCH   9  10
ENDBRANCH   8   9
ENDBRANCH   1   8
TORSDOF 9
ENDMDL
MODEL 2
REMARK VINA RESULT:    -4.921     19.174     20.301
REMARK INTER + INTRA:          -8.178
REMARK INTER:                  -7.553
REMARK INTRA:                  -0.625
REMARK UNBOUND:                -0.667
REMARK SMILES O=C([O-])CCCCCCCCC(=O)[O-]
REMARK SMILES IDX 7 1 6 2 5 3 4 4 2 5 1 6 3 7 8 8 9 9 10 10 11 11 12 12 13 13
REMARK SMILES IDX 14 14
REMARK H PARENT
REMARK Flexibility Score: inf
ROOT
ATOM      1  C   UNL     1     104.053 312.924 192.227  1.00  0.00     0.000 C 
ENDROOT
BRANCH   1   2
ATOM      2  C   UNL     1     105.431 313.410 191.764  1.00  0.00     0.000 C 
BRANCH   2   3
ATOM      3  C   UNL     1     105.302 314.422 190.620  1.00  0.00     0.006 C 
BRANCH   3   4
ATOM      4  C   UNL     1     103.832 314.760 190.348  1.00  0.00     0.053 C 
BRANCH   4   5
ATOM      5  C   UNL     1     103.578 314.842 188.876  1.00  0.00     0.041 C 
ATOM      6  O   UNL     1     102.620 314.206 188.363  1.00  0.00    -0.550 OA
ATOM      7  O   UNL     1     104.428 315.581 188.063  1.00  0.00    -0.550 OA
ENDBRANCH   4   5
ENDBRANCH   3   4
ENDBRANCH   2   3
ENDBRANCH   1   2
BRANCH   1   8
ATOM      8  C   UNL     1     104.165 311.602 193.000  1.00  0.00     0.000 C 
BRANCH   8   9
ATOM      9  C   UNL     1     105.590 311.364 193.547  1.00  0.00     0.000 C 
BRANCH   9  10
ATOM     10  C   UNL     1     105.753 311.756 195.028  1.00  0.00     0.006 C 
BRANCH  10  11
ATOM     11  C   UNL     1     104.428 311.867 195.796  1.00  0.00     0.053 C 
BRANCH  11  12
ATOM     12  C   UNL     1     104.234 313.235 196.377  1.00  0.00     0.041 C 
ATOM     13  O   UNL     1     103.956 313.369 197.598  1.00  0.00    -0.550 OA
ATOM     14  O   UNL     1     104.339 314.360 195.569  1.00  0.00    -0.550 OA
ENDBRANCH  11  12
ENDBRANCH  10  11
ENDBRANCH   9  10
ENDBRANCH   8   9
ENDBRANCH   1   8
TORSDOF 9
ENDMDL
MODEL 3
REMARK VINA RESULT:    -4.900      1.952      6.763
REMARK INTER + INTRA:          -8.146
REMARK INTER:                  -7.584
REMARK INTRA:                  -0.561
REMARK UNBOUND:                -0.667
REMARK SMILES O=C([O-])CCCCCCCCC(=O)[O-]
REMARK SMILES IDX 7 1 6 2 5 3 4 4 2 5 1 6 3 7 8 8 9 9 10 10 11 11 12 12 13 13
REMARK SMILES IDX 14 14
REMARK H PARENT
REMARK Flexibility Score: inf
ROOT
ATOM      1  C   UNL     1      88.885 326.460 195.424  1.00  0.00     0.000 C 
ENDROOT
BRANCH   1   2
ATOM      2  C   UNL     1      87.937 326.079 196.566  1.00  0.00     0.000 C 
BRANCH   2   3
ATOM      3  C   UNL     1      88.496 326.533 197.920  1.00  0.00     0.006 C 
BRANCH   3   4
ATOM      4  C   UNL     1      88.902 325.331 198.778  1.00  0.00     0.053 C 
BRANCH   4   5
ATOM      5  C   UNL     1      89.100 325.747 200.201  1.00  0.00     0.041 C 
ATOM      6  O   UNL     1      88.318 325.333 201.097  1.00  0.00    -0.550 OA
ATOM      7  O   UNL     1      90.119 326.632 200.532  1.00  0.00    -0.550 OA
ENDBRANCH   4   5
ENDBRANCH   3   4
ENDBRANCH   2   3
ENDBRANCH   1   2
BRANCH   1   8
ATOM      8  C   UNL     1      88.101 326.806 194.149  1.00  0.00     0.000 C 
BRANCH   8   9
ATOM      9  C   UNL     1      86.662 326.247 194.177  1.00  0.00     0.000 C 
BRANCH   9  10
ATOM     10  C   UNL     1      86.451 325.044 193.239  1.00  0.00     0.006 C 
BRANCH  10  11
ATOM     11  C   UNL     1      87.690 324.671 192.412  1.00  0.00     0.053 C 
BRANCH  11  12
ATOM     12  C   UNL     1      88.244 323.335 192.809  1.00  0.00     0.041 C 
ATOM     13  O   UNL     1      88.226 322.376 191.994  1.00  0.00    -0.550 OA
ATOM     14  O   UNL     1      88.762 323.144 194.084  1.00  0.00    -0.550 OA
ENDBRANCH  11  12
ENDBRANCH  10  11
ENDBRANCH   9  10
ENDBRANCH   8   9
ENDBRANCH   1   8
TORSDOF 9
ENDMDL
MODEL 4
REMARK VINA RESULT:    -4.836     19.341     20.511
REMARK INTER + INTRA:          -8.048
REMARK INTER:                  -7.392
REMARK INTRA:                  -0.656
REMARK UNBOUND:                -0.667
REMARK SMILES O=C([O-])CCCCCCCCC(=O)[O-]
REMARK SMILES IDX 7 1 6 2 5 3 4 4 2 5 1 6 3 7 8 8 9 9 10 10 11 11 12 12 13 13
REMARK SMILES IDX 14 14
REMARK H PARENT
REMARK Flexibility Score: inf
ROOT
ATOM      1  C   UNL     1     105.382 311.477 193.458  1.00  0.00     0.000 C 
ENDROOT
BRANCH   1   2
ATOM      2  C   UNL     1     104.124 312.022 192.772  1.00  0.00     0.000 C 
BRANCH   2   3
ATOM      3  C   UNL     1     104.481 313.103 191.745  1.00  0.00     0.006 C 
BRANCH   3   4
ATOM      4  C   UNL     1     103.727 314.405 192.032  1.00  0.00     0.053 C 
BRANCH   4   5
ATOM      5  C   UNL     1     104.120 314.953 193.367  1.00  0.00     0.041 C 
ATOM      6  O   UNL     1     103.240 315.225 194.225  1.00  0.00    -0.550 OA
ATOM      7  O   UNL     1     105.457 315.211 193.647  1.00  0.00    -0.550 OA
ENDBRANCH   4   5
ENDBRANCH   3   4
ENDBRANCH   2   3
ENDBRANCH   1   2
BRANCH   1   8
ATOM      8  C   UNL     1     105.419 311.876 194.940  1.00  0.00     0.000 C 
BRANCH   8   9
ATOM      9  C   UNL     1     104.005 311.990 195.551  1.00  0.00     0.000 C 
BRANCH   9  10
ATOM     10  C   UNL     1     103.923 311.496 197.008  1.00  0.00     0.006 C 
BRANCH  10  11
ATOM     11  C   UNL     1     103.863 312.624 198.048  1.00  0.00     0.053 C 
BRANCH  11  12
ATOM     12  C   UNL     1     103.783 312.090 199.447  1.00  0.00     0.041 C 
ATOM     13  O   UNL     1     102.812 311.366 199.792  1.00  0.00    -0.550 OA
ATOM     14  O   UNL     1     104.768 312.406 200.373  1.00  0.00    -0.550 OA
ENDBRANCH  11  12
ENDBRANCH  10  11
ENDBRANCH   9  10
ENDBRANCH   8   9
ENDBRANCH   1   8
TORSDOF 9
ENDMDL
MODEL 5
REMARK VINA RESULT:    -4.835     19.733     20.521
REMARK INTER + INTRA:          -8.046
REMARK INTER:                  -7.667
REMARK INTRA:                  -0.379
REMARK UNBOUND:                -0.667
REMARK SMILES O=C([O-])CCCCCCCCC(=O)[O-]
REMARK SMILES IDX 7 1 6 2 5 3 4 4 2 5 1 6 3 7 8 8 9 9 10 10 11 11 12 12 13 13
REMARK SMILES IDX 14 14
REMARK H PARENT
REMARK Flexibility Score: inf
ROOT
ATOM      1  C   UNL     1     103.972 311.556 193.293  1.00  0.00     0.000 C 
ENDROOT
BRANCH   1   2
ATOM      2  C   UNL     1     105.427 312.010 193.130  1.00  0.00     0.000 C 
BRANCH   2   3
ATOM      3  C   UNL     1     105.532 313.180 192.144  1.00  0.00     0.006 C 
BRANCH   3   4
ATOM      4  C   UNL     1     104.218 313.374 191.381  1.00  0.00     0.053 C 
BRANCH   4   5
ATOM      5  C   UNL     1     104.411 314.323 190.240  1.00  0.00     0.041 C 
ATOM      6  O   UNL     1     105.459 315.016 190.163  1.00  0.00    -0.550 OA
ATOM      7  O   UNL     1     103.412 314.477 189.288  1.00  0.00    -0.550 OA
ENDBRANCH   4   5
ENDBRANCH   3   4
ENDBRANCH   2   3
ENDBRANCH   1   2
BRANCH   1   8
ATOM      8  C   UNL     1     103.456 311.855 194.708  1.00  0.00     0.000 C 
BRANCH   8   9
ATOM      9  C   UNL     1     104.600 311.948 195.741  1.00  0.00     0.000 C 
BRANCH   9  10
ATOM     10  C   UNL     1     104.189 311.500 197.156  1.00  0.00     0.006 C 
BRANCH  10  11
ATOM     11  C   UNL     1     103.713 312.646 198.061  1.00  0.00     0.053 C 
BRANCH  11  12
ATOM     12  C   UNL     1     103.659 312.233 199.501  1.00  0.00     0.041 C 
ATOM     13  O   UNL     1     104.613 312.512 200.275  1.00  0.00    -0.550 OA
ATOM     14  O   UNL     1     102.567 311.524 199.985  1.00  0.00    -0.550 OA
ENDBRANCH  11  12
ENDBRANCH  10  11
ENDBRANCH   9  10
ENDBRANCH   8   9
ENDBRANCH   1   8
TORSDOF 9
ENDMDL
MODEL 6
REMARK VINA RESULT:    -4.830     19.251     21.238
REMARK INTER + INTRA:          -8.039
REMARK INTER:                  -7.565
REMARK INTRA:                  -0.474
REMARK UNBOUND:                -0.667
REMARK SMILES O=C([O-])CCCCCCCCC(=O)[O-]
REMARK SMILES IDX 7 1 6 2 5 3 4 4 2 5 1 6 3 7 8 8 9 9 10 10 11 11 12 12 13 13
REMARK SMILES IDX 14 14
REMARK H PARENT
REMARK Flexibility Score: inf
ROOT
ATOM      1  C   UNL     1     103.449 311.935 194.882  1.00  0.00     0.000 C 
ENDROOT
BRANCH   1   2
ATOM      2  C   UNL     1     104.487 311.986 196.009  1.00  0.00     0.000 C 
BRANCH   2   3
ATOM      3  C   UNL     1     103.905 311.442 197.319  1.00  0.00     0.006 C 
BRANCH   3   4
ATOM      4  C   UNL     1     103.800 312.547 198.374  1.00  0.00     0.053 C 
BRANCH   4   5
ATOM      5  C   UNL     1     103.623 311.955 199.736  1.00  0.00     0.041 C 
ATOM      6  O   UNL     1     102.527 311.427 200.060  1.00  0.00    -0.550 OA
ATOM      7  O   UNL     1     104.653 312.030 200.666  1.00  0.00    -0.550 OA
ENDBRANCH   4   5
ENDBRANCH   3   4
ENDBRANCH   2   3
ENDBRANCH   1   2
BRANCH   1   8
ATOM      8  C   UNL     1     104.073 311.413 193.580  1.00  0.00     0.000 C 
BRANCH   8   9
ATOM      9  C   UNL     1     105.491 311.977 193.343  1.00  0.00     0.000 C 
BRANCH   9  10
ATOM     10  C   UNL     1     105.571 312.963 192.162  1.00  0.00     0.006 C 
BRANCH  10  11
ATOM     11  C   UNL     1     104.208 313.318 191.550  1.00  0.00     0.053 C 
BRANCH  11  12
ATOM     12  C   UNL     1     103.760 314.693 191.947  1.00  0.00     0.041 C 
ATOM     13  O   UNL     1     103.501 314.949 193.153  1.00  0.00    -0.550 OA
ATOM     14  O   UNL     1     103.609 315.684 190.986  1.00  0.00    -0.550 OA
ENDBRANCH  11  12
ENDBRANCH  10  11
ENDBRANCH   9  10
ENDBRANCH   8   9
ENDBRANCH   1   8
TORSDOF 9
ENDMDL
MODEL 7
REMARK VINA RESULT:    -4.810      2.363      3.330
REMARK INTER + INTRA:          -8.008
REMARK INTER:                  -7.498
REMARK INTRA:                  -0.510
REMARK UNBOUND:                -0.667
REMARK SMILES O=C([O-])CCCCCCCCC(=O)[O-]
REMARK SMILES IDX 7 1 6 2 5 3 4 4 2 5 1 6 3 7 8 8 9 9 10 10 11 11 12 12 13 13
REMARK SMILES IDX 14 14
REMARK H PARENT
REMARK Flexibility Score: inf
ROOT
ATOM      1  C   UNL     1      86.760 326.512 194.716  1.00  0.00     0.000 C 
ENDROOT
BRANCH   1   2
ATOM      2  C   UNL     1      88.091 326.450 193.959  1.00  0.00     0.000 C 
BRANCH   2   3
ATOM      3  C   UNL     1      88.032 325.422 192.824  1.00  0.00     0.006 C 
BRANCH   3   4
ATOM      4  C   UNL     1      88.013 323.993 193.377  1.00  0.00     0.053 C 
BRANCH   4   5
ATOM      5  C   UNL     1      86.793 323.266 192.906  1.00  0.00     0.041 C 
ATOM      6  O   UNL     1      86.584 322.079 193.268  1.00  0.00    -0.550 OA
ATOM      7  O   UNL     1      85.912 323.883 192.026  1.00  0.00    -0.550 OA
ENDBRANCH   4   5
ENDBRANCH   3   4
ENDBRANCH   2   3
ENDBRANCH   1   2
BRANCH   1   8
ATOM      8  C   UNL     1      86.952 326.172 196.201  1.00  0.00     0.000 C 
BRANCH   8   9
ATOM      9  C   UNL     1      88.443 326.146 196.606  1.00  0.00     0.000 C 
BRANCH   9  10
ATOM     10  C   UNL     1      88.680 325.642 198.042  1.00  0.00     0.006 C 
BRANCH  10  11
ATOM     11  C   UNL     1      89.082 326.743 199.034  1.00  0.00     0.053 C 
BRANCH  11  12
ATOM     12  C   UNL     1      89.571 326.174 200.332  1.00  0.00     0.041 C 
ATOM     13  O   UNL     1      90.614 325.468 200.359  1.00  0.00    -0.550 OA
ATOM     14  O   UNL     1      88.867 326.405 201.506  1.00  0.00    -0.550 OA
ENDBRANCH  11  12
ENDBRANCH  10  11
ENDBRANCH   9  10
ENDBRANCH   8   9
ENDBRANCH   1   8
TORSDOF 9
ENDMDL
MODEL 8
REMARK VINA RESULT:    -4.808     19.058     20.738
REMARK INTER + INTRA:          -8.004
REMARK INTER:                  -7.390
REMARK INTRA:                  -0.614
REMARK UNBOUND:                -0.667
REMARK SMILES O=C([O-])CCCCCCCCC(=O)[O-]
REMARK SMILES IDX 7 1 6 2 5 3 4 4 2 5 1 6 3 7 8 8 9 9 10 10 11 11 12 12 13 13
REMARK SMILES IDX 14 14
REMARK H PARENT
REMARK Flexibility Score: inf
ROOT
ATOM      1  C   UNL     1     105.353 311.824 193.388  1.00  0.00     0.000 C 
ENDROOT
BRANCH   1   2
ATOM      2  C   UNL     1     103.864 311.528 193.599  1.00  0.00     0.000 C 
BRANCH   2   3
ATOM      3  C   UNL     1     103.496 311.590 195.086  1.00  0.00     0.006 C 
BRANCH   3   4
ATOM      4  C   UNL     1     104.578 312.319 195.889  1.00  0.00     0.053 C 
BRANCH   4   5
ATOM      5  C   UNL     1     104.107 313.684 196.282  1.00  0.00     0.041 C 
ATOM      6  O   UNL     1     104.356 314.676 195.548  1.00  0.00    -0.550 OA
ATOM      7  O   UNL     1     103.435 313.869 197.484  1.00  0.00    -0.550 OA
ENDBRANCH   4   5
ENDBRANCH   3   4
ENDBRANCH   2   3
ENDBRANCH   1   2
BRANCH   1   8
ATOM      8  C   UNL     1     105.552 312.961 192.375  1.00  0.00     0.000 C 
BRANCH   8   9
ATOM      9  C   UNL     1     104.240 313.726 192.090  1.00  0.00     0.000 C 
BRANCH   9  10
ATOM     10  C   UNL     1     103.819 313.692 190.609  1.00  0.00     0.006 C 
BRANCH  10  11
ATOM     11  C   UNL     1     104.380 314.851 189.772  1.00  0.00     0.053 C 
BRANCH  11  12
ATOM     12  C   UNL     1     103.617 315.037 188.495  1.00  0.00     0.041 C 
ATOM     13  O   UNL     1     102.555 314.391 188.293  1.00  0.00    -0.550 OA
ATOM     14  O   UNL     1     104.088 315.907 187.520  1.00  0.00    -0.550 OA
ENDBRANCH  11  12
ENDBRANCH  10  11
ENDBRANCH   9  10
ENDBRANCH   8   9
ENDBRANCH   1   8
TORSDOF 9
ENDMDL
MODEL 9
REMARK VINA RESULT:    -4.788      2.516      5.541
REMARK INTER + INTRA:          -7.974
REMARK INTER:                  -7.032
REMARK INTRA:                  -0.942
REMARK UNBOUND:                -0.667
REMARK SMILES O=C([O-])CCCCCCCCC(=O)[O-]
REMARK SMILES IDX 7 1 6 2 5 3 4 4 2 5 1 6 3 7 8 8 9 9 10 10 11 11 12 12 13 13
REMARK SMILES IDX 14 14
REMARK H PARENT
REMARK Flexibility Score: inf
ROOT
ATOM      1  C   UNL     1      86.776 326.290 194.296  1.00  0.00     0.000 C 
ENDROOT
BRANCH   1   2
ATOM      2  C   UNL     1      88.249 326.715 194.272  1.00  0.00     0.000 C 
BRANCH   2   3
ATOM      3  C   UNL     1      88.904 326.507 195.643  1.00  0.00     0.006 C 
BRANCH   3   4
ATOM      4  C   UNL     1      87.916 325.887 196.636  1.00  0.00     0.053 C 
BRANCH   4   5
ATOM      5  C   UNL     1      88.601 325.572 197.928  1.00  0.00     0.041 C 
ATOM      6  O   UNL     1      88.971 326.502 198.692  1.00  0.00    -0.550 OA
ATOM      7  O   UNL     1      88.875 324.253 198.267  1.00  0.00    -0.550 OA
ENDBRANCH   4   5
ENDBRANCH   3   4
ENDBRANCH   2   3
ENDBRANCH   1   2
BRANCH   1   8
ATOM      8  C   UNL     1      86.491 325.231 193.221  1.00  0.00     0.000 C 
BRANCH   8   9
ATOM      9  C   UNL     1      87.781 324.731 192.535  1.00  0.00     0.000 C 
BRANCH   9  10
ATOM     10  C   UNL     1      88.132 323.270 192.875  1.00  0.00     0.006 C 
BRANCH  10  11
ATOM     11  C   UNL     1      88.571 323.055 194.331  1.00  0.00     0.053 C 
BRANCH  11  12
ATOM     12  C   UNL     1      87.539 322.308 195.120  1.00  0.00     0.041 C 
ATOM     13  O   UNL     1      87.798 321.916 196.289  1.00  0.00    -0.550 OA
ATOM     14  O   UNL     1      86.299 322.026 194.560  1.00  0.00    -0.550 OA
ENDBRANCH  11  12
ENDBRANCH  10  11
ENDBRANCH   9  10
ENDBRANCH   8   9
ENDBRANCH   1   8
TORSDOF 9
ENDMDL
