MODEL 1
REMARK VINA RESULT:    -4.220      0.000      0.000
REMARK INTER + INTRA:          -7.451
REMARK INTER:                  -6.440
REMARK INTRA:                  -1.011
REMARK UNBOUND:                -1.011
REMARK SMILES O=C([O-])CCCCCCCCC(=O)[O-]
REMARK SMILES IDX 7 1 6 2 5 3 4 4 2 5 1 6 3 7 8 8 9 9 10 10 11 11 12 12 13 13
REMARK SMILES IDX 14 14
REMARK H PARENT
REMARK Flexibility Score: inf
ROOT
ATOM      1  C   UNL     1      42.612  20.511  13.014  1.00  0.00     0.000 C 
ENDROOT
BRANCH   1   2
ATOM      2  C   UNL     1      43.119  20.508  11.561  1.00  0.00     0.000 C 
BRANCH   2   3
ATOM      3  C   UNL     1      42.675  21.755  10.779  1.00  0.00     0.006 C 
BRANCH   3   4
ATOM      4  C   UNL     1      42.501  21.483   9.279  1.00  0.00     0.053 C 
BRANCH   4   5
ATOM      5  C   UNL     1      41.191  20.809   9.020  1.00  0.00     0.041 C 
ATOM      6  O   UNL     1      41.161  19.646   8.538  1.00  0.00    -0.550 OA
ATOM      7  O   UNL     1      40.001  21.483   9.266  1.00  0.00    -0.550 OA
ENDBRANCH   4   5
ENDBRANCH   3   4
ENDBRANCH   2   3
ENDBRANCH   1   2
BRANCH   1   8
ATOM      8  C   UNL     1      41.548  19.430  13.270  1.00  0.00     0.000 C 
BRANCH   8   9
ATOM      9  C   UNL     1      41.717  18.203  12.362  1.00  0.00     0.000 C 
BRANCH   9  10
ATOM     10  C   UNL     1      40.449  17.957  11.530  1.00  0.00     0.006 C 
BRANCH  10  11
ATOM     11  C   UNL     1      39.367  19.013  11.793  1.00  0.00     0.053 C 
BRANCH  11  12
ATOM     12  C   UNL     1      38.129  18.750  10.991  1.00  0.00     0.041 C 
ATOM     13  O   UNL     1      38.206  18.564   9.747  1.00  0.00    -0.550 OA
ATOM     14  O   UNL     1      36.887  18.742  11.613  1.00  0.00    -0.550 OA
ENDBRANCH  11  12
ENDBRANCH  10  11
ENDBRANCH   9  10
ENDBRANCH   8   9
ENDBRANCH   1   8
TORSDOF 9
ENDMDL
MODEL 2
REMARK VINA RESULT:    -4.193      2.440      4.130
REMARK INTER + INTRA:          -7.410
REMARK INTER:                  -6.645
REMARK INTRA:                  -0.766
REMARK UNBOUND:                -1.011
REMARK SMILES O=C([O-])CCCCCCCCC(=O)[O-]
REMARK SMILES IDX 7 1 6 2 5 3 4 4 2 5 1 6 3 7 8 8 9 9 10 10 11 11 12 12 13 13
REMARK SMILES IDX 14 14
REMARK H PARENT
REMARK Flexibility Score: inf
ROOT
ATOM      1  C   UNL     1      40.504  19.062  12.514  1.00  0.00     0.000 C 
ENDROOT
BRANCH   1   2
ATOM      2  C   UNL     1      39.267  19.011  11.601  1.00  0.00     0.000 C 
BRANCH   2   3
ATOM      3  C   UNL     1      39.623  18.677  10.143  1.00  0.00     0.006 C 
BRANCH   3   4
ATOM      4  C   UNL     1      40.517  19.741   9.493  1.00  0.00     0.053 C 
BRANCH   4   5
ATOM      5  C   UNL     1      41.532  19.096   8.603  1.00  0.00     0.041 C 
ATOM      6  O   UNL     1      41.879  17.902   8.800  1.00  0.00    -0.550 OA
ATOM      7  O   UNL     1      42.131  19.828   7.585  1.00  0.00    -0.550 OA
ENDBRANCH   4   5
ENDBRANCH   3   4
ENDBRANCH   2   3
ENDBRANCH   1   2
BRANCH   1   8
ATOM      8  C   UNL     1      41.447  17.867  12.299  1.00  0.00     0.000 C 
BRANCH   8   9
ATOM      9  C   UNL     1      42.920  18.218  12.559  1.00  0.00     0.000 C 
BRANCH   9  10
ATOM     10  C   UNL     1      43.230  19.652  12.102  1.00  0.00     0.006 C 
BRANCH  10  11
ATOM     11  C   UNL     1      43.718  20.538  13.256  1.00  0.00     0.053 C 
BRANCH  11  12
ATOM     12  C   UNL     1      42.955  21.826  13.326  1.00  0.00     0.041 C 
ATOM     13  O   UNL     1      43.106  22.702  12.434  1.00  0.00    -0.550 OA
ATOM     14  O   UNL     1      42.103  22.071  14.395  1.00  0.00    -0.550 OA
ENDBRANCH  11  12
ENDBRANCH  10  11
ENDBRANCH   9  10
ENDBRANCH   8   9
ENDBRANCH   1   8
TORSDOF 9
ENDMDL
MODEL 3
REMARK VINA RESULT:    -4.160      1.098      4.129
REMARK INTER + INTRA:          -7.359
REMARK INTER:                  -6.449
REMARK INTRA:                  -0.911
REMARK UNBOUND:                -1.011
REMARK SMILES O=C([O-])CCCCCCCCC(=O)[O-]
REMARK SMILES IDX 7 1 6 2 5 3 4 4 2 5 1 6 3 7 8 8 9 9 10 10 11 11 12 12 13 13
REMARK SMILES IDX 14 14
REMARK H PARENT
REMARK Flexibility Score: inf
ROOT
ATOM      1  C   UNL     1      42.057  19.394  12.964  1.00  0.00     0.000 C 
ENDROOT
BRANCH   1   2
ATOM      2  C   UNL     1      41.931  18.022  12.278  1.00  0.00     0.000 C 
BRANCH   2   3
ATOM      3  C   UNL     1      40.618  17.874  11.493  1.00  0.00     0.006 C 
BRANCH   3   4
ATOM      4  C   UNL     1      39.583  18.947  11.859  1.00  0.00     0.053 C 
BRANCH   4   5
ATOM      5  C   UNL     1      38.298  18.700  11.133  1.00  0.00     0.041 C 
ATOM      6  O   UNL     1      38.288  18.607   9.877  1.00  0.00    -0.550 OA
ATOM      7  O   UNL     1      37.104  18.622  11.839  1.00  0.00    -0.550 OA
ENDBRANCH   4   5
ENDBRANCH   3   4
ENDBRANCH   2   3
ENDBRANCH   1   2
BRANCH   1   8
ATOM      8  C   UNL     1      43.157  20.268  12.339  1.00  0.00     0.000 C 
BRANCH   8   9
ATOM      9  C   UNL     1      42.594  21.482  11.585  1.00  0.00     0.000 C 
BRANCH   9  10
ATOM     10  C   UNL     1      42.821  21.341  10.071  1.00  0.00     0.006 C 
BRANCH  10  11
ATOM     11  C   UNL     1      41.573  20.826   9.342  1.00  0.00     0.053 C 
BRANCH  11  12
ATOM     12  C   UNL     1      41.932  19.950   8.180  1.00  0.00     0.041 C 
ATOM     13  O   UNL     1      42.503  20.439   7.170  1.00  0.00    -0.550 OA
ATOM     14  O   UNL     1      41.606  18.600   8.201  1.00  0.00    -0.550 OA
ENDBRANCH  11  12
ENDBRANCH  10  11
ENDBRANCH   9  10
ENDBRANCH   8   9
ENDBRANCH   1   8
TORSDOF 9
ENDMDL
MODEL 4
REMARK VINA RESULT:    -4.147      1.486      3.869
REMARK INTER + INTRA:          -7.340
REMARK INTER:                  -6.271
REMARK INTRA:                  -1.069
REMARK UNBOUND:                -1.011
REMARK SMILES O=C([O-])CCCCCCCCC(=O)[O-]
REMARK SMILES IDX 7 1 6 2 5 3 4 4 2 5 1 6 3 7 8 8 9 9 10 10 11 11 12 12 13 13
REMARK SMILES IDX 14 14
REMARK H PARENT
REMARK Flexibility Score: inf
ROOT
ATOM      1  C   UNL     1      43.860  19.248  12.249  1.00  0.00     0.000 C 
ENDROOT
BRANCH   1   2
ATOM      2  C   UNL     1      43.461  17.885  12.840  1.00  0.00     0.000 C 
BRANCH   2   3
ATOM      3  C   UNL     1      42.109  17.384  12.307  1.00  0.00     0.006 C 
BRANCH   3   4
ATOM      4  C   UNL     1      41.731  18.018  10.962  1.00  0.00     0.053 C 
BRANCH   4   5
ATOM      5  C   UNL     1      40.380  18.655  11.048  1.00  0.00     0.041 C 
ATOM      6  O   UNL     1      40.012  19.218  12.112  1.00  0.00    -0.550 OA
ATOM      7  O   UNL     1      39.507  18.585   9.969  1.00  0.00    -0.550 OA
ENDBRANCH   4   5
ENDBRANCH   3   4
ENDBRANCH   2   3
ENDBRANCH   1   2
BRANCH   1   8
ATOM      8  C   UNL     1      43.474  20.424  13.163  1.00  0.00     0.000 C 
BRANCH   8   9
ATOM      9  C   UNL     1      42.741  21.545  12.410  1.00  0.00     0.000 C 
BRANCH   9  10
ATOM     10  C   UNL     1      43.076  21.508  10.911  1.00  0.00     0.006 C 
BRANCH  10  11
ATOM     11  C   UNL     1      42.126  22.382  10.081  1.00  0.00     0.053 C 
BRANCH  11  12
ATOM     12  C   UNL     1      41.359  21.571   9.080  1.00  0.00     0.041 C 
ATOM     13  O   UNL     1      41.963  20.780   8.308  1.00  0.00    -0.550 OA
ATOM     14  O   UNL     1      39.981  21.714   8.980  1.00  0.00    -0.550 OA
ENDBRANCH  11  12
ENDBRANCH  10  11
ENDBRANCH   9  10
ENDBRANCH   8   9
ENDBRANCH   1   8
TORSDOF 9
ENDMDL
MODEL 5
REMARK VINA RESULT:    -4.143      2.900      5.168
REMARK INTER + INTRA:          -7.333
REMARK INTER:                  -6.696
REMARK INTRA:                  -0.637
REMARK UNBOUND:                -1.011
REMARK SMILES O=C([O-])CCCCCCCCC(=O)[O-]
REMARK SMILES IDX 7 1 6 2 5 3 4 4 2 5 1 6 3 7 8 8 9 9 10 10 11 11 12 12 13 13
REMARK SMILES IDX 14 14
REMARK H PARENT
REMARK Flexibility Score: inf
ROOT
ATOM      1  C   UNL     1      39.880  17.972  11.420  1.00  0.00     0.000 C 
ENDROOT
BRANCH   1   2
ATOM      2  C   UNL     1      40.494  18.956  12.431  1.00  0.00     0.000 C 
BRANCH   2   3
ATOM      3  C   UNL     1      41.990  18.698  12.672  1.00  0.00     0.006 C 
BRANCH   3   4
ATOM      4  C   UNL     1      42.416  17.277  12.281  1.00  0.00     0.053 C 
BRANCH   4   5
ATOM      5  C   UNL     1      43.909  17.166  12.269  1.00  0.00     0.041 C 
ATOM      6  O   UNL     1      44.620  18.202  12.179  1.00  0.00    -0.550 OA
ATOM      7  O   UNL     1      44.514  15.917  12.308  1.00  0.00    -0.550 OA
ENDBRANCH   4   5
ENDBRANCH   3   4
ENDBRANCH   2   3
ENDBRANCH   1   2
BRANCH   1   8
ATOM      8  C   UNL     1      39.040  18.678  10.343  1.00  0.00     0.000 C 
BRANCH   8   9
ATOM      9  C   UNL     1      39.459  20.141  10.128  1.00  0.00     0.000 C 
BRANCH   9  10
ATOM     10  C   UNL     1      40.619  20.237   9.126  1.00  0.00     0.006 C 
BRANCH  10  11
ATOM     11  C   UNL     1      41.265  21.629   9.115  1.00  0.00     0.053 C 
BRANCH  11  12
ATOM     12  C   UNL     1      42.743  21.556   9.350  1.00  0.00     0.041 C 
ATOM     13  O   UNL     1      43.190  21.159  10.459  1.00  0.00    -0.550 OA
ATOM     14  O   UNL     1      43.625  21.957   8.355  1.00  0.00    -0.550 OA
ENDBRANCH  11  12
ENDBRANCH  10  11
ENDBRANCH   9  10
ENDBRANCH   8   9
ENDBRANCH   1   8
TORSDOF 9
ENDMDL
MODEL 6
REMARK VINA RESULT:    -4.120      3.164      4.540
REMARK INTER + INTRA:          -7.299
REMARK INTER:                  -6.328
REMARK INTRA:                  -0.971
REMARK UNBOUND:                -1.011
REMARK SMILES O=C([O-])CCCCCCCCC(=O)[O-]
REMARK SMILES IDX 7 1 6 2 5 3 4 4 2 5 1 6 3 7 8 8 9 9 10 10 11 11 12 12 13 13
REMARK SMILES IDX 14 14
REMARK H PARENT
REMARK Flexibility Score: inf
ROOT
ATOM      1  C   UNL     1      41.215  19.817   9.254  1.00  0.00     0.000 C 
ENDROOT
BRANCH   1   2
ATOM      2  C   UNL     1      41.882  21.190   9.452  1.00  0.00     0.000 C 
BRANCH   2   3
ATOM      3  C   UNL     1      43.006  21.154  10.500  1.00  0.00     0.006 C 
BRANCH   3   4
ATOM      4  C   UNL     1      42.684  21.994  11.743  1.00  0.00     0.053 C 
BRANCH   4   5
ATOM      5  C   UNL     1      42.819  21.165  12.981  1.00  0.00     0.041 C 
ATOM      6  O   UNL     1      41.847  20.480  13.394  1.00  0.00    -0.550 OA
ATOM      7  O   UNL     1      44.004  21.185  13.707  1.00  0.00    -0.550 OA
ENDBRANCH   4   5
ENDBRANCH   3   4
ENDBRANCH   2   3
ENDBRANCH   1   2
BRANCH   1   8
ATOM      8  C   UNL     1      40.117  19.539  10.293  1.00  0.00     0.000 C 
BRANCH   8   9
ATOM      9  C   UNL     1      40.372  18.256  11.099  1.00  0.00     0.000 C 
BRANCH   9  10
ATOM     10  C   UNL     1      41.837  17.809  10.968  1.00  0.00     0.006 C 
BRANCH  10  11
ATOM     11  C   UNL     1      42.373  17.187  12.263  1.00  0.00     0.053 C 
BRANCH  11  12
ATOM     12  C   UNL     1      43.871  17.140  12.277  1.00  0.00     0.041 C 
ATOM     13  O   UNL     1      44.539  18.205  12.207  1.00  0.00    -0.550 OA
ATOM     14  O   UNL     1      44.527  15.918  12.336  1.00  0.00    -0.550 OA
ENDBRANCH  11  12
ENDBRANCH  10  11
ENDBRANCH   9  10
ENDBRANCH   8   9
ENDBRANCH   1   8
TORSDOF 9
ENDMDL
MODEL 7
REMARK VINA RESULT:    -4.114      2.410      4.035
REMARK INTER + INTRA:          -7.290
REMARK INTER:                  -6.253
REMARK INTRA:                  -1.037
REMARK UNBOUND:                -1.011
REMARK SMILES O=C([O-])CCCCCCCCC(=O)[O-]
REMARK SMILES IDX 7 1 6 2 5 3 4 4 2 5 1 6 3 7 8 8 9 9 10 10 11 11 12 12 13 13
REMARK SMILES IDX 14 14
REMARK H PARENT
REMARK Flexibility Score: inf
ROOT
ATOM      1  C   UNL     1      41.342  17.730  12.217  1.00  0.00     0.000 C 
ENDROOT
BRANCH   1   2
ATOM      2  C   UNL     1      42.796  17.806  11.718  1.00  0.00     0.000 C 
BRANCH   2   3
ATOM      3  C   UNL     1      43.576  18.969  12.352  1.00  0.00     0.006 C 
BRANCH   3   4
ATOM      4  C   UNL     1      43.272  20.318  11.688  1.00  0.00     0.053 C 
BRANCH   4   5
ATOM      5  C   UNL     1      42.684  21.268  12.685  1.00  0.00     0.041 C 
ATOM      6  O   UNL     1      42.827  22.510  12.536  1.00  0.00    -0.550 OA
ATOM      7  O   UNL     1      42.021  20.780  13.803  1.00  0.00    -0.550 OA
ENDBRANCH   4   5
ENDBRANCH   3   4
ENDBRANCH   2   3
ENDBRANCH   1   2
BRANCH   1   8
ATOM      8  C   UNL     1      40.319  17.908  11.083  1.00  0.00     0.000 C 
BRANCH   8   9
ATOM      9  C   UNL     1      39.548  19.234  11.181  1.00  0.00     0.000 C 
BRANCH   9  10
ATOM     10  C   UNL     1      39.897  20.159  10.005  1.00  0.00     0.006 C 
BRANCH  10  11
ATOM     11  C   UNL     1      40.825  19.482   8.988  1.00  0.00     0.053 C 
BRANCH  11  12
ATOM     12  C   UNL     1      41.688  20.479   8.276  1.00  0.00     0.041 C 
ATOM     13  O   UNL     1      42.336  20.140   7.251  1.00  0.00    -0.550 OA
ATOM     14  O   UNL     1      41.801  21.774   8.765  1.00  0.00    -0.550 OA
ENDBRANCH  11  12
ENDBRANCH  10  11
ENDBRANCH   9  10
ENDBRANCH   8   9
ENDBRANCH   1   8
TORSDOF 9
ENDMDL
MODEL 8
REMARK VINA RESULT:    -4.104      2.999      5.082
REMARK INTER + INTRA:          -7.275
REMARK INTER:                  -6.346
REMARK INTRA:                  -0.928
REMARK UNBOUND:                -1.011
REMARK SMILES O=C([O-])CCCCCCCCC(=O)[O-]
REMARK SMILES IDX 7 1 6 2 5 3 4 4 2 5 1 6 3 7 8 8 9 9 10 10 11 11 12 12 13 13
REMARK SMILES IDX 14 14
REMARK H PARENT
REMARK Flexibility Score: inf
ROOT
ATOM      1  C   UNL     1      39.529  19.238  11.007  1.00  0.00     0.000 C 
ENDROOT
BRANCH   1   2
ATOM      2  C   UNL     1      40.134  17.885  11.419  1.00  0.00     0.000 C 
BRANCH   2   3
ATOM      3  C   UNL     1      41.439  18.041  12.215  1.00  0.00     0.006 C 
BRANCH   3   4
ATOM      4  C   UNL     1      42.672  17.572  11.431  1.00  0.00     0.053 C 
BRANCH   4   5
ATOM      5  C   UNL     1      43.902  17.690  12.275  1.00  0.00     0.041 C 
ATOM      6  O   UNL     1      44.255  16.736  13.017  1.00  0.00    -0.550 OA
ATOM      7  O   UNL     1      44.632  18.872  12.280  1.00  0.00    -0.550 OA
ENDBRANCH   4   5
ENDBRANCH   3   4
ENDBRANCH   2   3
ENDBRANCH   1   2
BRANCH   1   8
ATOM      8  C   UNL     1      40.039  19.722   9.639  1.00  0.00     0.000 C 
BRANCH   8   9
ATOM      9  C   UNL     1      40.173  21.251   9.563  1.00  0.00     0.000 C 
BRANCH   9  10
ATOM     10  C   UNL     1      41.611  21.658   9.206  1.00  0.00     0.006 C 
BRANCH  10  11
ATOM     11  C   UNL     1      42.639  21.085  10.190  1.00  0.00     0.053 C 
BRANCH  11  12
ATOM     12  C   UNL     1      42.724  21.904  11.442  1.00  0.00     0.041 C 
ATOM     13  O   UNL     1      43.080  23.111  11.388  1.00  0.00    -0.550 OA
ATOM     14  O   UNL     1      42.441  21.324  12.672  1.00  0.00    -0.550 OA
ENDBRANCH  11  12
ENDBRANCH  10  11
ENDBRANCH   9  10
ENDBRANCH   8   9
ENDBRANCH   1   8
TORSDOF 9
ENDMDL
MODEL 9
REMARK VINA RESULT:    -4.096     16.607     17.705
REMARK INTER + INTRA:          -7.262
REMARK INTER:                  -6.632
REMARK INTRA:                  -0.629
REMARK UNBOUND:                -1.011
REMARK SMILES O=C([O-])CCCCCCCCC(=O)[O-]
REMARK SMILES IDX 7 1 6 2 5 3 4 4 2 5 1 6 3 7 8 8 9 9 10 10 11 11 12 12 13 13
REMARK SMILES IDX 14 14
REMARK H PARENT
REMARK Flexibility Score: inf
ROOT
ATOM      1  C   UNL     1      34.068   6.261  16.883  1.00  0.00     0.000 C 
ENDROOT
BRANCH   1   2
ATOM      2  C   UNL     1      35.013   5.050  16.954  1.00  0.00     0.000 C 
BRANCH   2   3
ATOM      3  C   UNL     1      34.913   4.150  15.712  1.00  0.00     0.006 C 
BRANCH   3   4
ATOM      4  C   UNL     1      35.607   4.753  14.484  1.00  0.00     0.053 C 
BRANCH   4   5
ATOM      5  C   UNL     1      36.498   3.739  13.838  1.00  0.00     0.041 C 
ATOM      6  O   UNL     1      37.474   3.258  14.472  1.00  0.00    -0.550 OA
ATOM      7  O   UNL     1      36.279   3.361  12.520  1.00  0.00    -0.550 OA
ENDBRANCH   4   5
ENDBRANCH   3   4
ENDBRANCH   2   3
ENDBRANCH   1   2
BRANCH   1   8
ATOM      8  C   UNL     1      32.660   5.885  16.391  1.00  0.00     0.000 C 
BRANCH   8   9
ATOM      9  C   UNL     1      31.551   6.677  17.100  1.00  0.00     0.000 C 
BRANCH   9  10
ATOM     10  C   UNL     1      30.877   5.825  18.185  1.00  0.00     0.006 C 
BRANCH  10  11
ATOM     11  C   UNL     1      31.388   6.163  19.592  1.00  0.00     0.053 C 
BRANCH  11  12
ATOM     12  C   UNL     1      32.513   5.263  20.004  1.00  0.00     0.041 C 
ATOM     13  O   UNL     1      33.377   5.664  20.827  1.00  0.00    -0.550 OA
ATOM     14  O   UNL     1      32.624   3.993  19.453  1.00  0.00    -0.550 OA
ENDBRANCH  11  12
ENDBRANCH  10  11
ENDBRANCH   9  10
ENDBRANCH   8   9
ENDBRANCH   1   8
TORSDOF 9
ENDMDL
