MODEL 1
REMARK VINA RESULT:    -2.944      0.000      0.000
REMARK INTER + INTRA:          -4.655
REMARK INTER:                  -4.149
REMARK INTRA:                  -0.506
REMARK UNBOUND:                -0.506
REMARK SMILES CCCCCCCCC(=O)[O-]
REMARK SMILES IDX 6 1 7 2 8 3 9 4 10 5 11 6 5 7 4 8 3 9 2 10 1 11
REMARK H PARENT
REMARK Flexibility Score: inf
ROOT
ATOM      1  C   UNL     1      -3.551   4.736   1.608  1.00  0.00     0.000 C 
ENDROOT
BRANCH   1   2
ATOM      2  C   UNL     1      -4.115   3.564   2.425  1.00  0.00     0.006 C 
BRANCH   2   3
ATOM      3  C   UNL     1      -3.354   3.353   3.740  1.00  0.00     0.053 C 
BRANCH   3   4
ATOM      4  C   UNL     1      -3.204   1.899   4.068  1.00  0.00     0.041 C 
ATOM      5  O   UNL     1      -2.578   1.544   5.101  1.00  0.00    -0.550 OA
ATOM      6  O   UNL     1      -3.729   0.936   3.216  1.00  0.00    -0.550 OA
ENDBRANCH   3   4
ENDBRANCH   2   3
ENDBRANCH   1   2
BRANCH   1   7
ATOM      7  C   UNL     1      -3.164   5.906   2.521  1.00  0.00     0.000 C 
BRANCH   7   8
ATOM      8  C   UNL     1      -3.890   7.193   2.103  1.00  0.00    -0.000 C 
BRANCH   8   9
ATOM      9  C   UNL     1      -4.384   7.149   0.648  1.00  0.00    -0.000 C 
BRANCH   9  10
ATOM     10  C   UNL     1      -5.872   7.505   0.518  1.00  0.00    -0.003 C 
ATOM     11  C   UNL     1      -6.746   6.475   1.229  1.00  0.00     0.004 C 
ENDBRANCH   9  10
ENDBRANCH   8   9
ENDBRANCH   7   8
ENDBRANCH   1   7
TORSDOF 7
ENDMDL
MODEL 2
REMARK VINA RESULT:    -2.911      1.793      2.229
REMARK INTER + INTRA:          -4.609
REMARK INTER:                  -4.124
REMARK INTRA:                  -0.485
REMARK UNBOUND:                -0.506
REMARK SMILES CCCCCCCCC(=O)[O-]
REMARK SMILES IDX 6 1 7 2 8 3 9 4 10 5 11 6 5 7 4 8 3 9 2 10 1 11
REMARK H PARENT
REMARK Flexibility Score: inf
ROOT
ATOM      1  C   UNL     1      -3.604   6.292   1.483  1.00  0.00     0.000 C 
ENDROOT
BRANCH   1   2
ATOM      2  C   UNL     1      -3.336   5.223   2.552  1.00  0.00     0.006 C 
BRANCH   2   3
ATOM      3  C   UNL     1      -3.771   3.824   2.096  1.00  0.00     0.053 C 
BRANCH   3   4
ATOM      4  C   UNL     1      -3.728   2.835   3.220  1.00  0.00     0.041 C 
ATOM      5  O   UNL     1      -3.960   3.206   4.400  1.00  0.00    -0.550 OA
ATOM      6  O   UNL     1      -3.402   1.509   2.967  1.00  0.00    -0.550 OA
ENDBRANCH   3   4
ENDBRANCH   2   3
ENDBRANCH   1   2
BRANCH   1   7
ATOM      7  C   UNL     1      -5.095   6.645   1.418  1.00  0.00     0.000 C 
BRANCH   7   8
ATOM      8  C   UNL     1      -5.527   6.944  -0.024  1.00  0.00    -0.000 C 
BRANCH   8   9
ATOM      9  C   UNL     1      -4.503   6.459  -1.063  1.00  0.00    -0.000 C 
BRANCH   9  10
ATOM     10  C   UNL     1      -5.123   5.524  -2.112  1.00  0.00    -0.003 C 
ATOM     11  C   UNL     1      -6.573   5.196  -1.766  1.00  0.00     0.004 C 
ENDBRANCH   9  10
ENDBRANCH   8   9
ENDBRANCH   7   8
ENDBRANCH   1   7
TORSDOF 7
ENDMDL
MODEL 3
REMARK VINA RESULT:    -2.908      3.317      5.407
REMARK INTER + INTRA:          -4.604
REMARK INTER:                  -4.314
REMARK INTRA:                  -0.290
REMARK UNBOUND:                -0.506
REMARK SMILES CCCCCCCCC(=O)[O-]
REMARK SMILES IDX 6 1 7 2 8 3 9 4 10 5 11 6 5 7 4 8 3 9 2 10 1 11
REMARK H PARENT
REMARK Flexibility Score: inf
ROOT
ATOM      1  C   UNL     1      -4.474   6.844   1.592  1.00  0.00     0.000 C 
ENDROOT
BRANCH   1   2
ATOM      2  C   UNL     1      -4.596   8.095   2.475  1.00  0.00     0.006 C 
BRANCH   2   3
ATOM      3  C   UNL     1      -3.567   8.106   3.612  1.00  0.00     0.053 C 
BRANCH   3   4
ATOM      4  C   UNL     1      -4.220   8.264   4.951  1.00  0.00     0.041 C 
ATOM      5  O   UNL     1      -4.098   7.367   5.825  1.00  0.00    -0.550 OA
ATOM      6  O   UNL     1      -4.989   9.388   5.221  1.00  0.00    -0.550 OA
ENDBRANCH   3   4
ENDBRANCH   2   3
ENDBRANCH   1   2
BRANCH   1   7
ATOM      7  C   UNL     1      -3.322   5.948   2.064  1.00  0.00     0.000 C 
BRANCH   7   8
ATOM      8  C   UNL     1      -3.726   4.467   2.027  1.00  0.00    -0.000 C 
BRANCH   8   9
ATOM      9  C   UNL     1      -3.362   3.721   3.321  1.00  0.00    -0.000 C 
BRANCH   9  10
ATOM     10  C   UNL     1      -3.467   2.196   3.173  1.00  0.00    -0.003 C 
ATOM     11  C   UNL     1      -3.199   1.496   4.502  1.00  0.00     0.004 C 
ENDBRANCH   9  10
ENDBRANCH   8   9
ENDBRANCH   7   8
ENDBRANCH   1   7
TORSDOF 7
ENDMDL
MODEL 4
REMARK VINA RESULT:    -2.840      1.445      2.045
REMARK INTER + INTRA:          -4.508
REMARK INTER:                  -4.234
REMARK INTRA:                  -0.274
REMARK UNBOUND:                -0.506
REMARK SMILES CCCCCCCCC(=O)[O-]
REMARK SMILES IDX 6 1 7 2 8 3 9 4 10 5 11 6 5 7 4 8 3 9 2 10 1 11
REMARK H PARENT
REMARK Flexibility Score: inf
ROOT
ATOM      1  C   UNL     1      -3.704   5.175   1.214  1.00  0.00     0.000 C 
ENDROOT
BRANCH   1   2
ATOM      2  C   UNL     1      -4.256   4.227   2.289  1.00  0.00     0.006 C 
BRANCH   2   3
ATOM      3  C   UNL     1      -3.142   3.595   3.134  1.00  0.00     0.053 C 
BRANCH   3   4
ATOM      4  C   UNL     1      -3.588   2.317   3.776  1.00  0.00     0.041 C 
ATOM      5  O   UNL     1      -3.556   1.238   3.128  1.00  0.00    -0.550 OA
ATOM      6  O   UNL     1      -4.068   2.324   5.079  1.00  0.00    -0.550 OA
ENDBRANCH   3   4
ENDBRANCH   2   3
ENDBRANCH   1   2
BRANCH   1   7
ATOM      7  C   UNL     1      -3.408   6.560   1.802  1.00  0.00     0.000 C 
BRANCH   7   8
ATOM      8  C   UNL     1      -3.652   7.662   0.761  1.00  0.00    -0.000 C 
BRANCH   8   9
ATOM      9  C   UNL     1      -4.252   7.121  -0.546  1.00  0.00    -0.000 C 
BRANCH   9  10
ATOM     10  C   UNL     1      -4.710   8.239  -1.494  1.00  0.00    -0.003 C 
ATOM     11  C   UNL     1      -3.931   9.527  -1.240  1.00  0.00     0.004 C 
ENDBRANCH   9  10
ENDBRANCH   8   9
ENDBRANCH   7   8
ENDBRANCH   1   7
TORSDOF 7
ENDMDL
MODEL 5
REMARK VINA RESULT:    -2.824      3.475      5.875
REMARK INTER + INTRA:          -4.486
REMARK INTER:                  -4.243
REMARK INTRA:                  -0.243
REMARK UNBOUND:                -0.506
REMARK SMILES CCCCCCCCC(=O)[O-]
REMARK SMILES IDX 6 1 7 2 8 3 9 4 10 5 11 6 5 7 4 8 3 9 2 10 1 11
REMARK H PARENT
REMARK Flexibility Score: inf
ROOT
ATOM      1  C   UNL     1      -3.846   6.449   1.510  1.00  0.00     0.000 C 
ENDROOT
BRANCH   1   2
ATOM      2  C   UNL     1      -4.636   7.023   0.325  1.00  0.00     0.006 C 
BRANCH   2   3
ATOM      3  C   UNL     1      -5.422   5.942  -0.428  1.00  0.00     0.053 C 
BRANCH   3   4
ATOM      4  C   UNL     1      -5.017   5.861  -1.868  1.00  0.00     0.041 C 
ATOM      5  O   UNL     1      -5.791   6.281  -2.768  1.00  0.00    -0.550 OA
ATOM      6  O   UNL     1      -3.799   5.293  -2.217  1.00  0.00    -0.550 OA
ENDBRANCH   3   4
ENDBRANCH   2   3
ENDBRANCH   1   2
BRANCH   1   7
ATOM      7  C   UNL     1      -3.620   4.941   1.342  1.00  0.00     0.000 C 
BRANCH   7   8
ATOM      8  C   UNL     1      -4.154   4.167   2.556  1.00  0.00    -0.000 C 
BRANCH   8   9
ATOM      9  C   UNL     1      -3.180   3.081   3.041  1.00  0.00    -0.000 C 
BRANCH   9  10
ATOM     10  C   UNL     1      -3.627   2.435   4.361  1.00  0.00    -0.003 C 
ATOM     11  C   UNL     1      -3.213   0.967   4.420  1.00  0.00     0.004 C 
ENDBRANCH   9  10
ENDBRANCH   8   9
ENDBRANCH   7   8
ENDBRANCH   1   7
TORSDOF 7
ENDMDL
MODEL 6
REMARK VINA RESULT:    -2.776      3.840      5.767
REMARK INTER + INTRA:          -4.418
REMARK INTER:                  -4.106
REMARK INTRA:                  -0.312
REMARK UNBOUND:                -0.506
REMARK SMILES CCCCCCCCC(=O)[O-]
REMARK SMILES IDX 6 1 7 2 8 3 9 4 10 5 11 6 5 7 4 8 3 9 2 10 1 11
REMARK H PARENT
REMARK Flexibility Score: inf
ROOT
ATOM      1  C   UNL     1      -3.610   6.645   2.676  1.00  0.00     0.000 C 
ENDROOT
BRANCH   1   2
ATOM      2  C   UNL     1      -3.705   8.144   2.354  1.00  0.00     0.006 C 
BRANCH   2   3
ATOM      3  C   UNL     1      -2.566   8.615   1.441  1.00  0.00     0.053 C 
BRANCH   3   4
ATOM      4  C   UNL     1      -1.305   8.869   2.210  1.00  0.00     0.041 C 
ATOM      5  O   UNL     1      -1.356   9.396   3.352  1.00  0.00    -0.550 OA
ATOM      6  O   UNL     1      -0.074   8.553   1.651  1.00  0.00    -0.550 OA
ENDBRANCH   3   4
ENDBRANCH   2   3
ENDBRANCH   1   2
BRANCH   1   7
ATOM      7  C   UNL     1      -3.974   5.795   1.452  1.00  0.00     0.000 C 
BRANCH   7   8
ATOM      8  C   UNL     1      -3.527   4.339   1.641  1.00  0.00    -0.000 C 
BRANCH   8   9
ATOM      9  C   UNL     1      -3.490   3.917   3.119  1.00  0.00    -0.000 C 
BRANCH   9  10
ATOM     10  C   UNL     1      -3.446   2.392   3.297  1.00  0.00    -0.003 C 
ATOM     11  C   UNL     1      -3.473   2.011   4.774  1.00  0.00     0.004 C 
ENDBRANCH   9  10
ENDBRANCH   8   9
ENDBRANCH   7   8
ENDBRANCH   1   7
TORSDOF 7
ENDMDL
MODEL 7
REMARK VINA RESULT:    -2.717      3.794      5.940
REMARK INTER + INTRA:          -4.335
REMARK INTER:                  -4.039
REMARK INTRA:                  -0.296
REMARK UNBOUND:                -0.506
REMARK SMILES CCCCCCCCC(=O)[O-]
REMARK SMILES IDX 6 1 7 2 8 3 9 4 10 5 11 6 5 7 4 8 3 9 2 10 1 11
REMARK H PARENT
REMARK Flexibility Score: inf
ROOT
ATOM      1  C   UNL     1      -5.013   5.590   0.965  1.00  0.00     0.000 C 
ENDROOT
BRANCH   1   2
ATOM      2  C   UNL     1      -4.117   6.042  -0.198  1.00  0.00     0.006 C 
BRANCH   2   3
ATOM      3  C   UNL     1      -4.478   7.447  -0.697  1.00  0.00     0.053 C 
BRANCH   3   4
ATOM      4  C   UNL     1      -3.900   8.514   0.181  1.00  0.00     0.041 C 
ATOM      5  O   UNL     1      -4.549   9.569   0.407  1.00  0.00    -0.550 OA
ATOM      6  O   UNL     1      -2.631   8.358   0.723  1.00  0.00    -0.550 OA
ENDBRANCH   3   4
ENDBRANCH   2   3
ENDBRANCH   1   2
BRANCH   1   7
ATOM      7  C   UNL     1      -4.245   5.612   2.292  1.00  0.00     0.000 C 
BRANCH   7   8
ATOM      8  C   UNL     1      -3.205   4.484   2.345  1.00  0.00    -0.000 C 
BRANCH   8   9
ATOM      9  C   UNL     1      -3.816   3.133   2.749  1.00  0.00    -0.000 C 
BRANCH   9  10
ATOM     10  C   UNL     1      -3.416   2.705   4.169  1.00  0.00    -0.003 C 
ATOM     11  C   UNL     1      -3.202   1.196   4.249  1.00  0.00     0.004 C 
ENDBRANCH   9  10
ENDBRANCH   8   9
ENDBRANCH   7   8
ENDBRANCH   1   7
TORSDOF 7
ENDMDL
MODEL 8
REMARK VINA RESULT:    -2.713      6.144      8.379
REMARK INTER + INTRA:          -4.330
REMARK INTER:                  -4.021
REMARK INTRA:                  -0.308
REMARK UNBOUND:                -0.506
REMARK SMILES CCCCCCCCC(=O)[O-]
REMARK SMILES IDX 6 1 7 2 8 3 9 4 10 5 11 6 5 7 4 8 3 9 2 10 1 11
REMARK H PARENT
REMARK Flexibility Score: inf
ROOT
ATOM      1  C   UNL     1      -1.035   7.563   8.138  1.00  0.00     0.000 C 
ENDROOT
BRANCH   1   2
ATOM      2  C   UNL     1      -2.544   7.538   7.853  1.00  0.00     0.006 C 
BRANCH   2   3
ATOM      3  C   UNL     1      -2.929   8.452   6.682  1.00  0.00     0.053 C 
BRANCH   3   4
ATOM      4  C   UNL     1      -4.099   7.914   5.918  1.00  0.00     0.041 C 
ATOM      5  O   UNL     1      -3.966   7.567   4.716  1.00  0.00    -0.550 OA
ATOM      6  O   UNL     1      -5.345   7.825   6.526  1.00  0.00    -0.550 OA
ENDBRANCH   3   4
ENDBRANCH   2   3
ENDBRANCH   1   2
BRANCH   1   7
ATOM      7  C   UNL     1      -0.602   6.319   8.924  1.00  0.00     0.000 C 
BRANCH   7   8
ATOM      8  C   UNL     1      -1.734   5.284   8.981  1.00  0.00    -0.000 C 
BRANCH   8   9
ATOM      9  C   UNL     1      -1.368   4.051   9.823  1.00  0.00    -0.000 C 
BRANCH   9  10
ATOM     10  C   UNL     1       0.148   3.896  10.016  1.00  0.00    -0.003 C 
ATOM     11  C   UNL     1       0.549   2.424  10.045  1.00  0.00     0.004 C 
ENDBRANCH   9  10
ENDBRANCH   8   9
ENDBRANCH   7   8
ENDBRANCH   1   7
TORSDOF 7
ENDMDL
MODEL 9
REMARK VINA RESULT:    -2.637      6.629      9.114
REMARK INTER + INTRA:          -4.223
REMARK INTER:                  -3.863
REMARK INTRA:                  -0.360
REMARK UNBOUND:                -0.506
REMARK SMILES CCCCCCCCC(=O)[O-]
REMARK SMILES IDX 6 1 7 2 8 3 9 4 10 5 11 6 5 7 4 8 3 9 2 10 1 11
REMARK H PARENT
REMARK Flexibility Score: inf
ROOT
ATOM      1  C   UNL     1      -1.537   4.535   9.169  1.00  0.00     0.000 C 
ENDROOT
BRANCH   1   2
ATOM      2  C   UNL     1      -2.596   5.552   8.718  1.00  0.00     0.006 C 
BRANCH   2   3
ATOM      3  C   UNL     1      -1.969   6.862   8.224  1.00  0.00     0.053 C 
BRANCH   3   4
ATOM      4  C   UNL     1      -2.901   7.622   7.331  1.00  0.00     0.041 C 
ATOM      5  O   UNL     1      -2.893   8.881   7.332  1.00  0.00    -0.550 OA
ATOM      6  O   UNL     1      -3.801   6.940   6.522  1.00  0.00    -0.550 OA
ENDBRANCH   3   4
ENDBRANCH   2   3
ENDBRANCH   1   2
BRANCH   1   7
ATOM      7  C   UNL     1      -0.213   5.232   9.506  1.00  0.00     0.000 C 
BRANCH   7   8
ATOM      8  C   UNL     1       0.847   4.213   9.949  1.00  0.00    -0.000 C 
BRANCH   8   9
ATOM      9  C   UNL     1       0.264   2.808  10.170  1.00  0.00    -0.000 C 
BRANCH   9  10
ATOM     10  C   UNL     1       1.287   1.695   9.900  1.00  0.00    -0.003 C 
ATOM     11  C   UNL     1       2.537   2.250   9.225  1.00  0.00     0.004 C 
ENDBRANCH   9  10
ENDBRANCH   8   9
ENDBRANCH   7   8
ENDBRANCH   1   7
TORSDOF 7
ENDMDL
