MODEL 1
REMARK VINA RESULT:    -3.986      0.000      0.000
REMARK INTER + INTRA:          -8.216
REMARK INTER:                  -6.783
REMARK INTRA:                  -1.433
REMARK UNBOUND:                -1.433
REMARK SMILES CCCCCCCCCCCCCC(=O)[O-]
REMARK SMILES IDX 8 1 9 2 10 3 11 4 12 5 13 6 14 7 15 8 16 9 7 10 6 11 5 12
REMARK SMILES IDX 4 13 3 14 2 15 1 16
REMARK H PARENT
REMARK Flexibility Score: inf
ROOT
ATOM      1  C   UNL     1      36.725  20.310   4.053  1.00  0.00     0.000 C 
ENDROOT
BRANCH   1   2
ATOM      2  C   UNL     1      38.151  20.733   3.668  1.00  0.00     0.000 C 
BRANCH   2   3
ATOM      3  C   UNL     1      39.235  19.979   4.460  1.00  0.00     0.000 C 
BRANCH   3   4
ATOM      4  C   UNL     1      39.984  20.824   5.507  1.00  0.00     0.000 C 
BRANCH   4   5
ATOM      5  C   UNL     1      39.942  20.208   6.916  1.00  0.00     0.006 C 
BRANCH   5   6
ATOM      6  C   UNL     1      38.752  19.256   7.096  1.00  0.00     0.053 C 
BRANCH   6   7
ATOM      7  C   UNL     1      37.579  19.945   7.724  1.00  0.00     0.041 C 
ATOM      8  O   UNL     1      37.446  21.192   7.622  1.00  0.00    -0.550 OA
ATOM      9  O   UNL     1      36.617  19.203   8.399  1.00  0.00    -0.550 OA
ENDBRANCH   6   7
ENDBRANCH   5   6
ENDBRANCH   4   5
ENDBRANCH   3   4
ENDBRANCH   2   3
ENDBRANCH   1   2
BRANCH   1  10
ATOM     10  C   UNL     1      35.729  20.660   2.940  1.00  0.00     0.000 C 
BRANCH  10  11
ATOM     11  C   UNL     1      36.459  21.144   1.678  1.00  0.00    -0.000 C 
BRANCH  11  12
ATOM     12  C   UNL     1      36.062  22.573   1.278  1.00  0.00    -0.000 C 
BRANCH  12  13
ATOM     13  C   UNL     1      37.280  23.485   1.055  1.00  0.00    -0.000 C 
BRANCH  13  14
ATOM     14  C   UNL     1      37.770  24.144   2.353  1.00  0.00    -0.000 C 
BRANCH  14  15
ATOM     15  C   UNL     1      39.283  23.976   2.567  1.00  0.00    -0.003 C 
ATOM     16  C   UNL     1      39.902  23.125   1.462  1.00  0.00     0.004 C 
ENDBRANCH  14  15
ENDBRANCH  13  14
ENDBRANCH  12  13
ENDBRANCH  11  12
ENDBRANCH  10  11
ENDBRANCH   1  10
TORSDOF 12
ENDMDL
MODEL 2
REMARK VINA RESULT:    -3.961      1.351      3.244
REMARK INTER + INTRA:          -8.173
REMARK INTER:                  -6.682
REMARK INTRA:                  -1.491
REMARK UNBOUND:                -1.433
REMARK SMILES CCCCCCCCCCCCCC(=O)[O-]
REMARK SMILES IDX 8 1 9 2 10 3 11 4 12 5 13 6 14 7 15 8 16 9 7 10 6 11 5 12
REMARK SMILES IDX 4 13 3 14 2 15 1 16
REMARK H PARENT
REMARK Flexibility Score: inf
ROOT
ATOM      1  C   UNL     1      40.522  22.731   3.460  1.00  0.00     0.000 C 
ENDROOT
BRANCH   1   2
ATOM      2  C   UNL     1      40.525  21.218   3.719  1.00  0.00     0.000 C 
BRANCH   2   3
ATOM      3  C   UNL     1      39.892  20.838   5.071  1.00  0.00     0.000 C 
BRANCH   3   4
ATOM      4  C   UNL     1      39.288  22.014   5.861  1.00  0.00     0.000 C 
BRANCH   4   5
ATOM      5  C   UNL     1      38.069  21.605   6.705  1.00  0.00     0.006 C 
BRANCH   5   6
ATOM      6  C   UNL     1      37.585  20.187   6.374  1.00  0.00     0.053 C 
BRANCH   6   7
ATOM      7  C   UNL     1      37.611  19.295   7.577  1.00  0.00     0.041 C 
ATOM      8  O   UNL     1      36.662  19.316   8.404  1.00  0.00    -0.550 OA
ATOM      9  O   UNL     1      38.671  18.418   7.770  1.00  0.00    -0.550 OA
ENDBRANCH   6   7
ENDBRANCH   5   6
ENDBRANCH   4   5
ENDBRANCH   3   4
ENDBRANCH   2   3
ENDBRANCH   1   2
BRANCH   1  10
ATOM     10  C   UNL     1      39.799  23.064   2.149  1.00  0.00     0.000 C 
BRANCH  10  11
ATOM     11  C   UNL     1      38.526  23.882   2.415  1.00  0.00    -0.000 C 
BRANCH  11  12
ATOM     12  C   UNL     1      37.260  23.196   1.878  1.00  0.00    -0.000 C 
BRANCH  12  13
ATOM     13  C   UNL     1      37.398  21.665   1.816  1.00  0.00    -0.000 C 
BRANCH  13  14
ATOM     14  C   UNL     1      36.577  20.954   2.902  1.00  0.00    -0.000 C 
BRANCH  14  15
ATOM     15  C   UNL     1      35.314  20.282   2.342  1.00  0.00    -0.003 C 
ATOM     16  C   UNL     1      34.163  21.278   2.235  1.00  0.00     0.004 C 
ENDBRANCH  14  15
ENDBRANCH  13  14
ENDBRANCH  12  13
ENDBRANCH  11  12
ENDBRANCH  10  11
ENDBRANCH   1  10
TORSDOF 12
ENDMDL
MODEL 3
REMARK VINA RESULT:    -3.935      1.552      2.331
REMARK INTER + INTRA:          -8.129
REMARK INTER:                  -6.703
REMARK INTRA:                  -1.426
REMARK UNBOUND:                -1.433
REMARK SMILES CCCCCCCCCCCCCC(=O)[O-]
REMARK SMILES IDX 8 1 9 2 10 3 11 4 12 5 13 6 14 7 15 8 16 9 7 10 6 11 5 12
REMARK SMILES IDX 4 13 3 14 2 15 1 16
REMARK H PARENT
REMARK Flexibility Score: inf
ROOT
ATOM      1  C   UNL     1      34.549  21.118   2.302  1.00  0.00     0.000 C 
ENDROOT
BRANCH   1   2
ATOM      2  C   UNL     1      35.725  20.231   2.737  1.00  0.00     0.000 C 
BRANCH   2   3
ATOM      3  C   UNL     1      35.985  20.278   4.254  1.00  0.00     0.000 C 
BRANCH   3   4
ATOM      4  C   UNL     1      37.456  20.487   4.657  1.00  0.00     0.000 C 
BRANCH   4   5
ATOM      5  C   UNL     1      37.899  19.567   5.808  1.00  0.00     0.006 C 
BRANCH   5   6
ATOM      6  C   UNL     1      37.764  20.247   7.176  1.00  0.00     0.053 C 
BRANCH   6   7
ATOM      7  C   UNL     1      38.445  21.581   7.205  1.00  0.00     0.041 C 
ATOM      8  O   UNL     1      37.811  22.610   7.558  1.00  0.00    -0.550 OA
ATOM      9  O   UNL     1      39.789  21.683   6.868  1.00  0.00    -0.550 OA
ENDBRANCH   6   7
ENDBRANCH   5   6
ENDBRANCH   4   5
ENDBRANCH   3   4
ENDBRANCH   2   3
ENDBRANCH   1   2
BRANCH   1  10
ATOM     10  C   UNL     1      34.957  22.046   1.151  1.00  0.00     0.000 C 
BRANCH  10  11
ATOM     11  C   UNL     1      36.486  22.124   1.021  1.00  0.00    -0.000 C 
BRANCH  11  12
ATOM     12  C   UNL     1      37.037  23.518   1.358  1.00  0.00    -0.000 C 
BRANCH  12  13
ATOM     13  C   UNL     1      37.779  23.551   2.705  1.00  0.00    -0.000 C 
BRANCH  13  14
ATOM     14  C   UNL     1      39.299  23.707   2.538  1.00  0.00    -0.000 C 
BRANCH  14  15
ATOM     15  C   UNL     1      40.081  22.518   3.118  1.00  0.00    -0.003 C 
ATOM     16  C   UNL     1      40.021  21.313   2.184  1.00  0.00     0.004 C 
ENDBRANCH  14  15
ENDBRANCH  13  14
ENDBRANCH  12  13
ENDBRANCH  11  12
ENDBRANCH  10  11
ENDBRANCH   1  10
TORSDOF 12
ENDMDL
MODEL 4
REMARK VINA RESULT:    -3.900      3.072      6.155
REMARK INTER + INTRA:          -8.069
REMARK INTER:                  -6.498
REMARK INTRA:                  -1.571
REMARK UNBOUND:                -1.433
REMARK SMILES CCCCCCCCCCCCCC(=O)[O-]
REMARK SMILES IDX 8 1 9 2 10 3 11 4 12 5 13 6 14 7 15 8 16 9 7 10 6 11 5 12
REMARK SMILES IDX 4 13 3 14 2 15 1 16
REMARK H PARENT
REMARK Flexibility Score: inf
ROOT
ATOM      1  C   UNL     1      36.819  20.325   4.219  1.00  0.00     0.000 C 
ENDROOT
BRANCH   1   2
ATOM      2  C   UNL     1      35.759  20.609   3.145  1.00  0.00     0.000 C 
BRANCH   2   3
ATOM      3  C   UNL     1      36.369  20.978   1.780  1.00  0.00     0.000 C 
BRANCH   3   4
ATOM      4  C   UNL     1      36.221  22.457   1.378  1.00  0.00     0.000 C 
BRANCH   4   5
ATOM      5  C   UNL     1      37.571  23.184   1.259  1.00  0.00     0.006 C 
BRANCH   5   6
ATOM      6  C   UNL     1      37.881  24.035   2.497  1.00  0.00     0.053 C 
BRANCH   6   7
ATOM      7  C   UNL     1      37.931  25.496   2.170  1.00  0.00     0.041 C 
ATOM      8  O   UNL     1      38.846  26.221   2.642  1.00  0.00    -0.550 OA
ATOM      9  O   UNL     1      36.982  26.052   1.321  1.00  0.00    -0.550 OA
ENDBRANCH   6   7
ENDBRANCH   5   6
ENDBRANCH   4   5
ENDBRANCH   3   4
ENDBRANCH   2   3
ENDBRANCH   1   2
BRANCH   1  10
ATOM     10  C   UNL     1      38.231  20.354   3.619  1.00  0.00     0.000 C 
BRANCH  10  11
ATOM     11  C   UNL     1      39.235  20.975   4.602  1.00  0.00    -0.000 C 
BRANCH  11  12
ATOM     12  C   UNL     1      38.561  21.894   5.633  1.00  0.00    -0.000 C 
BRANCH  12  13
ATOM     13  C   UNL     1      38.781  21.421   7.080  1.00  0.00    -0.000 C 
BRANCH  13  14
ATOM     14  C   UNL     1      39.476  20.053   7.155  1.00  0.00    -0.000 C 
BRANCH  14  15
ATOM     15  C   UNL     1      38.502  18.913   7.492  1.00  0.00    -0.003 C 
ATOM     16  C   UNL     1      37.148  19.460   7.932  1.00  0.00     0.004 C 
ENDBRANCH  14  15
ENDBRANCH  13  14
ENDBRANCH  12  13
ENDBRANCH  11  12
ENDBRANCH  10  11
ENDBRANCH   1  10
TORSDOF 12
ENDMDL
MODEL 5
REMARK VINA RESULT:    -3.896      2.568      5.962
REMARK INTER + INTRA:          -8.062
REMARK INTER:                  -6.687
REMARK INTRA:                  -1.375
REMARK UNBOUND:                -1.433
REMARK SMILES CCCCCCCCCCCCCC(=O)[O-]
REMARK SMILES IDX 8 1 9 2 10 3 11 4 12 5 13 6 14 7 15 8 16 9 7 10 6 11 5 12
REMARK SMILES IDX 4 13 3 14 2 15 1 16
REMARK H PARENT
REMARK Flexibility Score: inf
ROOT
ATOM      1  C   UNL     1      40.877  21.584   5.113  1.00  0.00     0.000 C 
ENDROOT
BRANCH   1   2
ATOM      2  C   UNL     1      39.940  22.511   4.325  1.00  0.00     0.000 C 
BRANCH   2   3
ATOM      3  C   UNL     1      39.296  21.821   3.108  1.00  0.00     0.000 C 
BRANCH   3   4
ATOM      4  C   UNL     1      38.449  22.741   2.210  1.00  0.00     0.000 C 
BRANCH   4   5
ATOM      5  C   UNL     1      36.946  22.419   2.269  1.00  0.00     0.006 C 
BRANCH   5   6
ATOM      6  C   UNL     1      36.628  21.032   1.697  1.00  0.00     0.053 C 
BRANCH   6   7
ATOM      7  C   UNL     1      35.240  20.589   2.049  1.00  0.00     0.041 C 
ATOM      8  O   UNL     1      34.934  19.369   2.010  1.00  0.00    -0.550 OA
ATOM      9  O   UNL     1      34.292  21.524   2.446  1.00  0.00    -0.550 OA
ENDBRANCH   6   7
ENDBRANCH   5   6
ENDBRANCH   4   5
ENDBRANCH   3   4
ENDBRANCH   2   3
ENDBRANCH   1   2
BRANCH   1  10
ATOM     10  C   UNL     1      40.939  21.991   6.591  1.00  0.00     0.000 C 
BRANCH  10  11
ATOM     11  C   UNL     1      40.728  20.775   7.506  1.00  0.00    -0.000 C 
BRANCH  11  12
ATOM     12  C   UNL     1      40.010  19.618   6.795  1.00  0.00    -0.000 C 
BRANCH  12  13
ATOM     13  C   UNL     1      38.848  19.044   7.623  1.00  0.00    -0.000 C 
BRANCH  13  14
ATOM     14  C   UNL     1      37.593  19.929   7.572  1.00  0.00    -0.000 C 
BRANCH  14  15
ATOM     15  C   UNL     1      37.460  20.688   6.243  1.00  0.00    -0.003 C 
ATOM     16  C   UNL     1      36.736  19.843   5.198  1.00  0.00     0.004 C 
ENDBRANCH  14  15
ENDBRANCH  13  14
ENDBRANCH  12  13
ENDBRANCH  11  12
ENDBRANCH  10  11
ENDBRANCH   1  10
TORSDOF 12
ENDMDL
MODEL 6
REMARK VINA RESULT:    -3.860      2.988      5.372
REMARK INTER + INTRA:          -8.001
REMARK INTER:                  -6.688
REMARK INTRA:                  -1.313
REMARK UNBOUND:                -1.433
REMARK SMILES CCCCCCCCCCCCCC(=O)[O-]
REMARK SMILES IDX 8 1 9 2 10 3 11 4 12 5 13 6 14 7 15 8 16 9 7 10 6 11 5 12
REMARK SMILES IDX 4 13 3 14 2 15 1 16
REMARK H PARENT
REMARK Flexibility Score: inf
ROOT
ATOM      1  C   UNL     1      38.484  18.872   7.282  1.00  0.00     0.000 C 
ENDROOT
BRANCH   1   2
ATOM      2  C   UNL     1      37.410  19.961   7.411  1.00  0.00     0.000 C 
BRANCH   2   3
ATOM      3  C   UNL     1      37.219  20.774   6.117  1.00  0.00     0.000 C 
BRANCH   3   4
ATOM      4  C   UNL     1      36.645  19.982   4.928  1.00  0.00     0.000 C 
BRANCH   4   5
ATOM      5  C   UNL     1      36.825  20.705   3.583  1.00  0.00     0.006 C 
BRANCH   5   6
ATOM      6  C   UNL     1      35.661  20.434   2.620  1.00  0.00     0.053 C 
BRANCH   6   7
ATOM      7  C   UNL     1      35.381  21.612   1.739  1.00  0.00     0.041 C 
ATOM      8  O   UNL     1      34.222  21.806   1.287  1.00  0.00    -0.550 OA
ATOM      9  O   UNL     1      36.396  22.514   1.441  1.00  0.00    -0.550 OA
ENDBRANCH   6   7
ENDBRANCH   5   6
ENDBRANCH   4   5
ENDBRANCH   3   4
ENDBRANCH   2   3
ENDBRANCH   1   2
BRANCH   1  10
ATOM     10  C   UNL     1      39.750  19.424   6.616  1.00  0.00     0.000 C 
BRANCH  10  11
ATOM     11  C   UNL     1      40.544  20.309   7.589  1.00  0.00    -0.000 C 
BRANCH  11  12
ATOM     12  C   UNL     1      40.666  21.761   7.100  1.00  0.00    -0.000 C 
BRANCH  12  13
ATOM     13  C   UNL     1      41.125  21.855   5.635  1.00  0.00    -0.000 C 
BRANCH  13  14
ATOM     14  C   UNL     1      40.003  22.321   4.694  1.00  0.00    -0.000 C 
BRANCH  14  15
ATOM     15  C   UNL     1      40.347  22.105   3.212  1.00  0.00    -0.003 C 
ATOM     16  C   UNL     1      40.763  20.660   2.950  1.00  0.00     0.004 C 
ENDBRANCH  14  15
ENDBRANCH  13  14
ENDBRANCH  12  13
ENDBRANCH  11  12
ENDBRANCH  10  11
ENDBRANCH   1  10
TORSDOF 12
ENDMDL
MODEL 7
REMARK VINA RESULT:    -3.824      1.805      3.011
REMARK INTER + INTRA:          -7.940
REMARK INTER:                  -6.409
REMARK INTRA:                  -1.531
REMARK UNBOUND:                -1.433
REMARK SMILES CCCCCCCCCCCCCC(=O)[O-]
REMARK SMILES IDX 8 1 9 2 10 3 11 4 12 5 13 6 14 7 15 8 16 9 7 10 6 11 5 12
REMARK SMILES IDX 4 13 3 14 2 15 1 16
REMARK H PARENT
REMARK Flexibility Score: inf
ROOT
ATOM      1  C   UNL     1      36.415  20.963   2.703  1.00  0.00     0.000 C 
ENDROOT
BRANCH   1   2
ATOM      2  C   UNL     1      37.431  20.665   3.815  1.00  0.00     0.000 C 
BRANCH   2   3
ATOM      3  C   UNL     1      36.785  20.049   5.070  1.00  0.00     0.000 C 
BRANCH   3   4
ATOM      4  C   UNL     1      37.777  19.595   6.157  1.00  0.00     0.000 C 
BRANCH   4   5
ATOM      5  C   UNL     1      37.716  20.464   7.426  1.00  0.00     0.006 C 
BRANCH   5   6
ATOM      6  C   UNL     1      38.318  21.857   7.202  1.00  0.00     0.053 C 
BRANCH   6   7
ATOM      7  C   UNL     1      39.758  21.782   6.795  1.00  0.00     0.041 C 
ATOM      8  O   UNL     1      40.617  21.307   7.584  1.00  0.00    -0.550 OA
ATOM      9  O   UNL     1      40.147  22.211   5.532  1.00  0.00    -0.550 OA
ENDBRANCH   6   7
ENDBRANCH   5   6
ENDBRANCH   4   5
ENDBRANCH   3   4
ENDBRANCH   2   3
ENDBRANCH   1   2
BRANCH   1  10
ATOM     10  C   UNL     1      36.734  22.292   2.008  1.00  0.00     0.000 C 
BRANCH  10  11
ATOM     11  C   UNL     1      37.744  23.113   2.824  1.00  0.00    -0.000 C 
BRANCH  11  12
ATOM     12  C   UNL     1      38.820  23.768   1.944  1.00  0.00    -0.000 C 
BRANCH  12  13
ATOM     13  C   UNL     1      40.200  23.108   2.109  1.00  0.00    -0.000 C 
BRANCH  13  14
ATOM     14  C   UNL     1      40.565  22.199   0.925  1.00  0.00    -0.000 C 
BRANCH  14  15
ATOM     15  C   UNL     1      40.066  20.758   1.112  1.00  0.00    -0.003 C 
ATOM     16  C   UNL     1      40.739  20.094   2.309  1.00  0.00     0.004 C 
ENDBRANCH  14  15
ENDBRANCH  13  14
ENDBRANCH  12  13
ENDBRANCH  11  12
ENDBRANCH  10  11
ENDBRANCH   1  10
TORSDOF 12
ENDMDL
MODEL 8
REMARK VINA RESULT:    -3.736      2.647      5.640
REMARK INTER + INTRA:          -7.791
REMARK INTER:                  -6.520
REMARK INTRA:                  -1.271
REMARK UNBOUND:                -1.433
REMARK SMILES CCCCCCCCCCCCCC(=O)[O-]
REMARK SMILES IDX 8 1 9 2 10 3 11 4 12 5 13 6 14 7 15 8 16 9 7 10 6 11 5 12
REMARK SMILES IDX 4 13 3 14 2 15 1 16
REMARK H PARENT
REMARK Flexibility Score: inf
ROOT
ATOM      1  C   UNL     1      39.966  20.480   3.875  1.00  0.00     0.000 C 
ENDROOT
BRANCH   1   2
ATOM      2  C   UNL     1      40.493  20.516   2.433  1.00  0.00     0.000 C 
BRANCH   2   3
ATOM      3  C   UNL     1      39.710  21.487   1.530  1.00  0.00     0.000 C 
BRANCH   3   4
ATOM      4  C   UNL     1      38.558  22.237   2.225  1.00  0.00     0.000 C 
BRANCH   4   5
ATOM      5  C   UNL     1      37.169  21.766   1.761  1.00  0.00     0.006 C 
BRANCH   5   6
ATOM      6  C   UNL     1      36.448  20.944   2.837  1.00  0.00     0.053 C 
BRANCH   6   7
ATOM      7  C   UNL     1      35.075  20.535   2.398  1.00  0.00     0.041 C 
ATOM      8  O   UNL     1      34.159  21.393   2.296  1.00  0.00    -0.550 OA
ATOM      9  O   UNL     1      34.815  19.209   2.075  1.00  0.00    -0.550 OA
ENDBRANCH   6   7
ENDBRANCH   5   6
ENDBRANCH   4   5
ENDBRANCH   3   4
ENDBRANCH   2   3
ENDBRANCH   1   2
BRANCH   1  10
ATOM     10  C   UNL     1      40.934  21.189   4.831  1.00  0.00     0.000 C 
BRANCH  10  11
ATOM     11  C   UNL     1      40.241  22.356   5.551  1.00  0.00    -0.000 C 
BRANCH  11  12
ATOM     12  C   UNL     1      39.834  22.004   6.991  1.00  0.00    -0.000 C 
BRANCH  12  13
ATOM     13  C   UNL     1      38.311  22.041   7.201  1.00  0.00    -0.000 C 
BRANCH  13  14
ATOM     14  C   UNL     1      37.605  20.805   6.622  1.00  0.00    -0.000 C 
BRANCH  14  15
ATOM     15  C   UNL     1      37.468  19.669   7.648  1.00  0.00    -0.003 C 
ATOM     16  C   UNL     1      38.590  18.648   7.491  1.00  0.00     0.004 C 
ENDBRANCH  14  15
ENDBRANCH  13  14
ENDBRANCH  12  13
ENDBRANCH  11  12
ENDBRANCH  10  11
ENDBRANCH   1  10
TORSDOF 12
ENDMDL
MODEL 9
REMARK VINA RESULT:    -3.658     17.969     20.414
REMARK INTER + INTRA:          -7.658
REMARK INTER:                  -5.502
REMARK INTRA:                  -2.155
REMARK UNBOUND:                -1.433
REMARK SMILES CCCCCCCCCCCCCC(=O)[O-]
REMARK SMILES IDX 8 1 9 2 10 3 11 4 12 5 13 6 14 7 15 8 16 9 7 10 6 11 5 12
REMARK SMILES IDX 4 13 3 14 2 15 1 16
REMARK H PARENT
REMARK Flexibility Score: inf
ROOT
ATOM      1  C   UNL     1      21.945  23.909  17.095  1.00  0.00     0.000 C 
ENDROOT
BRANCH   1   2
ATOM      2  C   UNL     1      21.382  23.781  18.518  1.00  0.00     0.000 C 
BRANCH   2   3
ATOM      3  C   UNL     1      22.196  24.571  19.559  1.00  0.00     0.000 C 
BRANCH   3   4
ATOM      4  C   UNL     1      23.147  25.632  18.975  1.00  0.00     0.000 C 
BRANCH   4   5
ATOM      5  C   UNL     1      23.987  26.342  20.051  1.00  0.00     0.006 C 
BRANCH   5   6
ATOM      6  C   UNL     1      25.488  26.295  19.737  1.00  0.00     0.053 C 
BRANCH   6   7
ATOM      7  C   UNL     1      25.955  27.548  19.062  1.00  0.00     0.041 C 
ATOM      8  O   UNL     1      25.280  28.607  19.150  1.00  0.00    -0.550 OA
ATOM      9  O   UNL     1      27.153  27.552  18.357  1.00  0.00    -0.550 OA
ENDBRANCH   6   7
ENDBRANCH   5   6
ENDBRANCH   4   5
ENDBRANCH   3   4
ENDBRANCH   2   3
ENDBRANCH   1   2
BRANCH   1  10
ATOM     10  C   UNL     1      22.163  22.528  16.463  1.00  0.00     0.000 C 
BRANCH  10  11
ATOM     11  C   UNL     1      22.406  21.461  17.541  1.00  0.00    -0.000 C 
BRANCH  11  12
ATOM     12  C   UNL     1      23.893  21.102  17.692  1.00  0.00    -0.000 C 
BRANCH  12  13
ATOM     13  C   UNL     1      24.528  21.728  18.946  1.00  0.00    -0.000 C 
BRANCH  13  14
ATOM     14  C   UNL     1      25.545  22.828  18.606  1.00  0.00    -0.000 C 
BRANCH  14  15
ATOM     15  C   UNL     1      25.877  22.882  17.106  1.00  0.00    -0.003 C 
ATOM     16  C   UNL     1      25.765  24.305  16.569  1.00  0.00     0.004 C 
ENDBRANCH  14  15
ENDBRANCH  13  14
ENDBRANCH  12  13
ENDBRANCH  11  12
ENDBRANCH  10  11
ENDBRANCH   1  10
TORSDOF 12
ENDMDL
