MODEL 1
REMARK VINA RESULT:    -2.639      0.000      0.000
REMARK INTER + INTRA:          -3.252
REMARK INTER:                  -3.101
REMARK INTRA:                  -0.151
REMARK UNBOUND:                -0.151
REMARK SMILES O=C([O-])CCC(=O)[O-]
REMARK SMILES IDX 4 1 2 2 1 3 3 4 5 5 6 6 7 7 8 8
REMARK H PARENT
REMARK Flexibility Score: inf
ROOT
ATOM      1  C   UNL     1      50.694  51.102  10.804  1.00  0.00     0.059 C 
ENDROOT
BRANCH   1   2
ATOM      2  C   UNL     1      51.022  50.077   9.764  1.00  0.00     0.042 C 
ATOM      3  O   UNL     1      52.181  49.590   9.698  1.00  0.00    -0.550 OA
ATOM      4  O   UNL     1      50.061  49.696   8.836  1.00  0.00    -0.550 OA
ENDBRANCH   1   2
BRANCH   1   5
ATOM      5  C   UNL     1      51.319  50.722  12.146  1.00  0.00     0.059 C 
BRANCH   5   6
ATOM      6  C   UNL     1      50.501  49.668  12.825  1.00  0.00     0.042 C 
ATOM      7  O   UNL     1      49.332  49.926  13.213  1.00  0.00    -0.550 OA
ATOM      8  O   UNL     1      51.013  48.387  12.983  1.00  0.00    -0.550 OA
ENDBRANCH   5   6
ENDBRANCH   1   5
TORSDOF 3
ENDMDL
MODEL 2
REMARK VINA RESULT:    -2.635      0.074      3.621
REMARK INTER + INTRA:          -3.248
REMARK INTER:                  -3.105
REMARK INTRA:                  -0.143
REMARK UNBOUND:                -0.151
REMARK SMILES O=C([O-])CCC(=O)[O-]
REMARK SMILES IDX 4 1 2 2 1 3 3 4 5 5 6 6 7 7 8 8
REMARK H PARENT
REMARK Flexibility Score: inf
ROOT
ATOM      1  C   UNL     1      51.263  50.791  12.115  1.00  0.00     0.059 C 
ENDROOT
BRANCH   1   2
ATOM      2  C   UNL     1      50.500  49.690  12.781  1.00  0.00     0.042 C 
ATOM      3  O   UNL     1      49.337  49.898  13.216  1.00  0.00    -0.550 OA
ATOM      4  O   UNL     1      51.093  48.447  12.966  1.00  0.00    -0.550 OA
ENDBRANCH   1   2
BRANCH   1   5
ATOM      5  C   UNL     1      50.646  51.125  10.757  1.00  0.00     0.059 C 
BRANCH   5   6
ATOM      6  C   UNL     1      51.055  50.113   9.733  1.00  0.00     0.042 C 
ATOM      7  O   UNL     1      52.218  49.633   9.745  1.00  0.00    -0.550 OA
ATOM      8  O   UNL     1      50.134  49.663   8.796  1.00  0.00    -0.550 OA
ENDBRANCH   5   6
ENDBRANCH   1   5
TORSDOF 3
ENDMDL
MODEL 3
REMARK VINA RESULT:    -2.609      0.151      1.153
REMARK INTER + INTRA:          -3.217
REMARK INTER:                  -3.062
REMARK INTRA:                  -0.155
REMARK UNBOUND:                -0.151
REMARK SMILES O=C([O-])CCC(=O)[O-]
REMARK SMILES IDX 4 1 2 2 1 3 3 4 5 5 6 6 7 7 8 8
REMARK H PARENT
REMARK Flexibility Score: inf
ROOT
ATOM      1  C   UNL     1      50.513  51.089  10.727  1.00  0.00     0.059 C 
ENDROOT
BRANCH   1   2
ATOM      2  C   UNL     1      50.956  50.108   9.687  1.00  0.00     0.042 C 
ATOM      3  O   UNL     1      50.125  49.625   8.876  1.00  0.00    -0.550 OA
ATOM      4  O   UNL     1      52.280  49.689   9.648  1.00  0.00    -0.550 OA
ENDBRANCH   1   2
BRANCH   1   5
ATOM      5  C   UNL     1      51.226  50.822  12.053  1.00  0.00     0.059 C 
BRANCH   5   6
ATOM      6  C   UNL     1      50.556  49.707  12.793  1.00  0.00     0.042 C 
ATOM      7  O   UNL     1      49.375  49.840  13.206  1.00  0.00    -0.550 OA
ATOM      8  O   UNL     1      51.221  48.502  12.983  1.00  0.00    -0.550 OA
ENDBRANCH   5   6
ENDBRANCH   1   5
TORSDOF 3
ENDMDL
MODEL 4
REMARK VINA RESULT:    -2.582      0.456      3.482
REMARK INTER + INTRA:          -3.186
REMARK INTER:                  -3.030
REMARK INTRA:                  -0.156
REMARK UNBOUND:                -0.151
REMARK SMILES O=C([O-])CCC(=O)[O-]
REMARK SMILES IDX 4 1 2 2 1 3 3 4 5 5 6 6 7 7 8 8
REMARK H PARENT
REMARK Flexibility Score: inf
ROOT
ATOM      1  C   UNL     1      51.299  50.573  12.168  1.00  0.00     0.059 C 
ENDROOT
BRANCH   1   2
ATOM      2  C   UNL     1      50.818  49.267  12.717  1.00  0.00     0.042 C 
ATOM      3  O   UNL     1      49.689  49.189  13.269  1.00  0.00    -0.550 OA
ATOM      4  O   UNL     1      51.637  48.146  12.664  1.00  0.00    -0.550 OA
ENDBRANCH   1   2
BRANCH   1   5
ATOM      5  C   UNL     1      50.539  50.929  10.890  1.00  0.00     0.059 C 
BRANCH   5   6
ATOM      6  C   UNL     1      50.987  50.063   9.755  1.00  0.00     0.042 C 
ATOM      7  O   UNL     1      50.154  49.644   8.910  1.00  0.00    -0.550 OA
ATOM      8  O   UNL     1      52.334  49.760   9.603  1.00  0.00    -0.550 OA
ENDBRANCH   5   6
ENDBRANCH   1   5
TORSDOF 3
ENDMDL
MODEL 5
REMARK VINA RESULT:    -2.538     15.512     16.457
REMARK INTER + INTRA:          -3.134
REMARK INTER:                  -3.075
REMARK INTRA:                  -0.058
REMARK UNBOUND:                -0.151
REMARK SMILES O=C([O-])CCC(=O)[O-]
REMARK SMILES IDX 4 1 2 2 1 3 3 4 5 5 6 6 7 7 8 8
REMARK H PARENT
REMARK Flexibility Score: inf
ROOT
ATOM      1  C   UNL     1      57.522  34.345  12.250  1.00  0.00     0.059 C 
ENDROOT
BRANCH   1   2
ATOM      2  C   UNL     1      58.851  34.173  12.917  1.00  0.00     0.042 C 
ATOM      3  O   UNL     1      58.934  34.168  14.173  1.00  0.00    -0.550 OA
ATOM      4  O   UNL     1      60.004  34.070  12.150  1.00  0.00    -0.550 OA
ENDBRANCH   1   2
BRANCH   1   5
ATOM      5  C   UNL     1      56.584  35.170  13.131  1.00  0.00     0.059 C 
BRANCH   5   6
ATOM      6  C   UNL     1      55.894  36.221  12.321  1.00  0.00     0.042 C 
ATOM      7  O   UNL     1      54.740  36.610  12.638  1.00  0.00    -0.550 OA
ATOM      8  O   UNL     1      56.547  36.807  11.244  1.00  0.00    -0.550 OA
ENDBRANCH   5   6
ENDBRANCH   1   5
TORSDOF 3
ENDMDL
MODEL 6
REMARK VINA RESULT:    -2.534     15.464     16.397
REMARK INTER + INTRA:          -3.130
REMARK INTER:                  -3.070
REMARK INTRA:                  -0.059
REMARK UNBOUND:                -0.151
REMARK SMILES O=C([O-])CCC(=O)[O-]
REMARK SMILES IDX 4 1 2 2 1 3 3 4 5 5 6 6 7 7 8 8
REMARK H PARENT
REMARK Flexibility Score: inf
ROOT
ATOM      1  C   UNL     1      56.529  35.172  13.136  1.00  0.00     0.059 C 
ENDROOT
BRANCH   1   2
ATOM      2  C   UNL     1      55.859  36.255  12.349  1.00  0.00     0.042 C 
ATOM      3  O   UNL     1      54.690  36.620  12.640  1.00  0.00    -0.550 OA
ATOM      4  O   UNL     1      56.507  36.824  11.260  1.00  0.00    -0.550 OA
ENDBRANCH   1   2
BRANCH   1   5
ATOM      5  C   UNL     1      57.461  34.357  12.239  1.00  0.00     0.059 C 
BRANCH   5   6
ATOM      6  C   UNL     1      58.803  34.203  12.881  1.00  0.00     0.042 C 
ATOM      7  O   UNL     1      59.838  34.107  12.172  1.00  0.00    -0.550 OA
ATOM      8  O   UNL     1      58.916  34.216  14.266  1.00  0.00    -0.550 OA
ENDBRANCH   5   6
ENDBRANCH   1   5
TORSDOF 3
ENDMDL
MODEL 7
REMARK VINA RESULT:    -2.475      1.949      2.554
REMARK INTER + INTRA:          -3.060
REMARK INTER:                  -2.941
REMARK INTRA:                  -0.119
REMARK UNBOUND:                -0.151
REMARK SMILES O=C([O-])CCC(=O)[O-]
REMARK SMILES IDX 4 1 2 2 1 3 3 4 5 5 6 6 7 7 8 8
REMARK H PARENT
REMARK Flexibility Score: inf
ROOT
ATOM      1  C   UNL     1      52.255  49.610  10.387  1.00  0.00     0.059 C 
ENDROOT
BRANCH   1   2
ATOM      2  C   UNL     1      50.825  50.042  10.295  1.00  0.00     0.042 C 
ATOM      3  O   UNL     1      50.189  50.353  11.336  1.00  0.00    -0.550 OA
ATOM      4  O   UNL     1      50.181  50.053   9.065  1.00  0.00    -0.550 OA
ENDBRANCH   1   2
BRANCH   1   5
ATOM      5  C   UNL     1      52.797  49.848  11.796  1.00  0.00     0.059 C 
BRANCH   5   6
ATOM      6  C   UNL     1      53.088  48.546  12.473  1.00  0.00     0.042 C 
ATOM      7  O   UNL     1      54.224  48.329  12.969  1.00  0.00    -0.550 OA
ATOM      8  O   UNL     1      52.088  47.590  12.599  1.00  0.00    -0.550 OA
ENDBRANCH   5   6
ENDBRANCH   1   5
TORSDOF 3
ENDMDL
MODEL 8
REMARK VINA RESULT:    -2.461      1.464      3.658
REMARK INTER + INTRA:          -3.044
REMARK INTER:                  -2.924
REMARK INTRA:                  -0.119
REMARK UNBOUND:                -0.151
REMARK SMILES O=C([O-])CCC(=O)[O-]
REMARK SMILES IDX 4 1 2 2 1 3 3 4 5 5 6 6 7 7 8 8
REMARK H PARENT
REMARK Flexibility Score: inf
ROOT
ATOM      1  C   UNL     1      50.438  50.027  12.184  1.00  0.00     0.059 C 
ENDROOT
BRANCH   1   2
ATOM      2  C   UNL     1      51.462  50.492  13.171  1.00  0.00     0.042 C 
ATOM      3  O   UNL     1      52.477  51.125  12.780  1.00  0.00    -0.550 OA
ATOM      4  O   UNL     1      51.319  50.182  14.517  1.00  0.00    -0.550 OA
ENDBRANCH   1   2
BRANCH   1   5
ATOM      5  C   UNL     1      50.520  50.852  10.899  1.00  0.00     0.059 C 
BRANCH   5   6
ATOM      6  C   UNL     1      50.954  49.994   9.752  1.00  0.00     0.042 C 
ATOM      7  O   UNL     1      50.125  49.643   8.874  1.00  0.00    -0.550 OA
ATOM      8  O   UNL     1      52.288  49.625   9.628  1.00  0.00    -0.550 OA
ENDBRANCH   5   6
ENDBRANCH   1   5
TORSDOF 3
ENDMDL
MODEL 9
REMARK VINA RESULT:    -2.397      2.050      3.709
REMARK INTER + INTRA:          -2.968
REMARK INTER:                  -2.856
REMARK INTRA:                  -0.112
REMARK UNBOUND:                -0.151
REMARK SMILES O=C([O-])CCC(=O)[O-]
REMARK SMILES IDX 4 1 2 2 1 3 3 4 5 5 6 6 7 7 8 8
REMARK H PARENT
REMARK Flexibility Score: inf
ROOT
ATOM      1  C   UNL     1      51.986  48.854  11.875  1.00  0.00     0.059 C 
ENDROOT
BRANCH   1   2
ATOM      2  C   UNL     1      53.287  49.351  12.422  1.00  0.00     0.042 C 
ATOM      3  O   UNL     1      54.120  48.542  12.909  1.00  0.00    -0.550 OA
ATOM      4  O   UNL     1      53.558  50.713  12.440  1.00  0.00    -0.550 OA
ENDBRANCH   1   2
BRANCH   1   5
ATOM      5  C   UNL     1      51.134  50.022  11.378  1.00  0.00     0.059 C 
BRANCH   5   6
ATOM      6  C   UNL     1      51.204  50.124   9.886  1.00  0.00     0.042 C 
ATOM      7  O   UNL     1      50.213  49.800   9.182  1.00  0.00    -0.550 OA
ATOM      8  O   UNL     1      52.348  50.623   9.277  1.00  0.00    -0.550 OA
ENDBRANCH   5   6
ENDBRANCH   1   5
TORSDOF 3
ENDMDL
