MODEL 1
REMARK VINA RESULT:    -3.802      0.000      0.000
REMARK INTER + INTRA:          -5.050
REMARK INTER:                  -5.136
REMARK INTRA:                   0.086
REMARK UNBOUND:                 0.086
REMARK SMILES C=C1CCC=C(C)CC[C@@H]2[C@H]1CC2(C)C
REMARK SMILES IDX 11 1 12 2 13 3 10 4 14 5 15 6 9 7 8 8 6 9 7 10 5 11 2 13
REMARK SMILES IDX 1 14 3 15 4 16
REMARK H PARENT
REMARK Flexibility Score: 70.00
ROOT
ATOM      1  C   UNL     1      30.729  10.194  32.820  1.00  0.00     0.018 C 
ATOM      2  C   UNL     1      31.097   9.325  34.033  1.00  0.00     0.015 C 
ATOM      3  C   UNL     1      30.954   8.053  33.178  1.00  0.00    -0.031 C 
ATOM      4  C   UNL     1      30.526   8.921  31.964  1.00  0.00     0.002 C 
ATOM      5  C   UNL     1      29.825   7.133  33.679  1.00  0.00     0.011 C 
ATOM      6  C   UNL     1      32.278   7.274  33.041  1.00  0.00     0.011 C 
ENDROOT
BRANCH   4   7
ATOM      7  C   UNL     1      31.345   8.789  30.649  1.00  0.00     0.009 C 
BRANCH   7   8
ATOM      8  C   UNL     1      30.629   9.310  29.377  1.00  0.00     0.030 C 
BRANCH   8   9
ATOM      9  C   UNL     1      31.220  10.561  28.742  1.00  0.00    -0.077 C 
ATOM     10  C   UNL     1      32.002  10.425  27.459  1.00  0.00     0.039 C 
ATOM     11  C   UNL     1      31.113  11.794  29.284  1.00  0.00    -0.028 CG0
ATOM     12  G   UNL     1      30.341  12.146  30.529  1.00  0.00     0.000 G0
ENDBRANCH   8   9
ENDBRANCH   7   8
ENDBRANCH   4   7
BRANCH   1  13
ATOM     13  C   UNL     1      31.787  11.208  32.368  1.00  0.00    -0.074 C 
ATOM     14  C   UNL     1      33.114  11.006  32.495  1.00  0.00     0.008 C 
BRANCH  13  15
ATOM     15  C   UNL     1      31.319  12.470  31.680  1.00  0.00     0.035 C 
BRANCH  15  16
ATOM     16  C   UNL     1      30.348  12.147  30.539  1.00  0.00     0.032 CG0
ATOM     17  G   UNL     1      31.100  11.798  29.281  1.00  0.00     0.000 G0
ENDBRANCH  15  16
ENDBRANCH  13  15
ENDBRANCH   1  13
TORSDOF 0
ENDMDL
MODEL 2
REMARK VINA RESULT:    -3.643      2.130      3.661
REMARK INTER + INTRA:          -4.835
REMARK INTER:                  -4.959
REMARK INTRA:                   0.125
REMARK UNBOUND:                 0.086
REMARK SMILES C=C1CCC=C(C)CC[C@@H]2[C@H]1CC2(C)C
REMARK SMILES IDX 11 1 12 2 13 3 10 4 14 5 15 6 9 7 8 8 6 9 7 10 5 11 2 13
REMARK SMILES IDX 1 14 3 15 4 16
REMARK H PARENT
REMARK Flexibility Score: 70.00
ROOT
ATOM      1  C   UNL     1      30.222   9.759  30.421  1.00  0.00     0.018 C 
ATOM      2  C   UNL     1      30.239  10.204  31.892  1.00  0.00     0.015 C 
ATOM      3  C   UNL     1      31.678  10.725  31.729  1.00  0.00    -0.031 C 
ATOM      4  C   UNL     1      31.688  10.227  30.259  1.00  0.00     0.002 C 
ATOM      5  C   UNL     1      32.680   9.968  32.621  1.00  0.00     0.011 C 
ATOM      6  C   UNL     1      31.789  12.248  31.946  1.00  0.00     0.011 C 
ENDROOT
BRANCH   4   7
ATOM      7  C   UNL     1      32.003  11.259  29.141  1.00  0.00     0.009 C 
BRANCH   7   8
ATOM      8  C   UNL     1      32.371  10.645  27.766  1.00  0.00     0.030 C 
BRANCH   8   9
ATOM      9  C   UNL     1      31.365  10.868  26.645  1.00  0.00    -0.077 C 
ATOM     10  C   UNL     1      31.662  11.915  25.599  1.00  0.00     0.039 C 
ATOM     11  C   UNL     1      30.194  10.200  26.549  1.00  0.00    -0.028 CG0
ATOM     12  G   UNL     1      29.734   9.093  27.461  1.00  0.00     0.000 G0
ENDBRANCH   8   9
ENDBRANCH   7   8
ENDBRANCH   4   7
BRANCH   1  13
ATOM     13  C   UNL     1      29.154  10.405  29.530  1.00  0.00    -0.074 C 
ATOM     14  C   UNL     1      28.730  11.676  29.680  1.00  0.00     0.008 C 
BRANCH  13  15
ATOM     15  C   UNL     1      28.599   9.597  28.380  1.00  0.00     0.035 C 
BRANCH  15  16
ATOM     16  C   UNL     1      29.723   9.096  27.466  1.00  0.00     0.032 CG0
ATOM     17  G   UNL     1      30.190  10.193  26.544  1.00  0.00     0.000 G0
ENDBRANCH  15  16
ENDBRANCH  13  15
ENDBRANCH   1  13
TORSDOF 0
ENDMDL
MODEL 3
REMARK VINA RESULT:    -3.579      1.749      3.416
REMARK INTER + INTRA:          -4.749
REMARK INTER:                  -4.815
REMARK INTRA:                   0.066
REMARK UNBOUND:                 0.086
REMARK SMILES C=C1CCC=C(C)CC[C@@H]2[C@H]1CC2(C)C
REMARK SMILES IDX 11 1 12 2 13 3 10 4 14 5 15 6 9 7 8 8 6 9 7 10 5 11 2 13
REMARK SMILES IDX 1 14 3 15 4 16
REMARK H PARENT
REMARK Flexibility Score: 70.00
ROOT
ATOM      1  C   UNL     1      31.742   8.552  33.096  1.00  0.00     0.018 C 
ATOM      2  C   UNL     1      31.975   7.103  33.551  1.00  0.00     0.015 C 
ATOM      3  C   UNL     1      30.896   7.260  34.638  1.00  0.00    -0.031 C 
ATOM      4  C   UNL     1      30.697   8.742  34.221  1.00  0.00     0.002 C 
ATOM      5  C   UNL     1      31.471   7.114  36.060  1.00  0.00     0.011 C 
ATOM      6  C   UNL     1      29.697   6.313  34.430  1.00  0.00     0.011 C 
ENDROOT
BRANCH   4   7
ATOM      7  C   UNL     1      29.268   9.199  33.817  1.00  0.00     0.009 C 
BRANCH   7   8
ATOM      8  C   UNL     1      29.008  10.723  33.940  1.00  0.00     0.030 C 
BRANCH   8   9
ATOM      9  C   UNL     1      28.819  11.476  32.631  1.00  0.00    -0.077 C 
ATOM     10  C   UNL     1      27.453  12.021  32.296  1.00  0.00     0.039 C 
ATOM     11  C   UNL     1      29.806  11.657  31.725  1.00  0.00    -0.028 CG0
ATOM     12  G   UNL     1      31.242  11.231  31.890  1.00  0.00     0.000 G0
ENDBRANCH   8   9
ENDBRANCH   7   8
ENDBRANCH   4   7
BRANCH   1  13
ATOM     13  C   UNL     1      31.285   8.741  31.644  1.00  0.00    -0.074 C 
ATOM     14  C   UNL     1      30.577   7.818  30.961  1.00  0.00     0.008 C 
BRANCH  13  15
ATOM     15  C   UNL     1      31.581  10.059  30.967  1.00  0.00     0.035 C 
BRANCH  15  16
ATOM     16  C   UNL     1      31.255  11.238  31.891  1.00  0.00     0.032 CG0
ATOM     17  G   UNL     1      29.817  11.660  31.731  1.00  0.00     0.000 G0
ENDBRANCH  15  16
ENDBRANCH  13  15
ENDBRANCH   1  13
TORSDOF 0
ENDMDL
MODEL 4
REMARK VINA RESULT:    -3.543      1.880      3.077
REMARK INTER + INTRA:          -4.700
REMARK INTER:                  -4.764
REMARK INTRA:                   0.065
REMARK UNBOUND:                 0.086
REMARK SMILES C=C1CCC=C(C)CC[C@@H]2[C@H]1CC2(C)C
REMARK SMILES IDX 11 1 12 2 13 3 10 4 14 5 15 6 9 7 8 8 6 9 7 10 5 11 2 13
REMARK SMILES IDX 1 14 3 15 4 16
REMARK H PARENT
REMARK Flexibility Score: 70.00
ROOT
ATOM      1  C   UNL     1      30.508  11.547  30.801  1.00  0.00     0.018 C 
ATOM      2  C   UNL     1      31.378  12.255  31.851  1.00  0.00     0.015 C 
ATOM      3  C   UNL     1      31.579  10.923  32.597  1.00  0.00    -0.031 C 
ATOM      4  C   UNL     1      30.654  10.214  31.572  1.00  0.00     0.002 C 
ATOM      5  C   UNL     1      30.983  10.951  34.017  1.00  0.00     0.011 C 
ATOM      6  C   UNL     1      33.054  10.473  32.629  1.00  0.00     0.011 C 
ENDROOT
BRANCH   4   7
ATOM      7  C   UNL     1      31.222   8.988  30.804  1.00  0.00     0.009 C 
BRANCH   7   8
ATOM      8  C   UNL     1      30.155   8.061  30.167  1.00  0.00     0.030 C 
BRANCH   8   9
ATOM      9  C   UNL     1      30.102   8.051  28.646  1.00  0.00    -0.077 C 
ATOM     10  C   UNL     1      30.627   6.843  27.909  1.00  0.00     0.039 C 
ATOM     11  C   UNL     1      29.639   9.084  27.908  1.00  0.00    -0.028 CG0
ATOM     12  G   UNL     1      29.035  10.353  28.451  1.00  0.00     0.000 G0
ENDBRANCH   8   9
ENDBRANCH   7   8
ENDBRANCH   4   7
BRANCH   1  13
ATOM     13  C   UNL     1      31.012  11.605  29.354  1.00  0.00    -0.074 C 
ATOM     14  C   UNL     1      32.318  11.645  29.022  1.00  0.00     0.008 C 
BRANCH  13  15
ATOM     15  C   UNL     1      29.993  11.542  28.239  1.00  0.00     0.035 C 
BRANCH  15  16
ATOM     16  C   UNL     1      29.037  10.360  28.433  1.00  0.00     0.032 CG0
ATOM     17  G   UNL     1      29.639   9.091  27.888  1.00  0.00     0.000 G0
ENDBRANCH  15  16
ENDBRANCH  13  15
ENDBRANCH   1  13
TORSDOF 0
ENDMDL
MODEL 5
REMARK VINA RESULT:    -3.527      1.518      4.189
REMARK INTER + INTRA:          -4.679
REMARK INTER:                  -4.869
REMARK INTRA:                   0.190
REMARK UNBOUND:                 0.086
REMARK SMILES C=C1CCC=C(C)CC[C@@H]2[C@H]1CC2(C)C
REMARK SMILES IDX 11 1 12 2 13 3 10 4 14 5 15 6 9 7 8 8 6 9 7 10 5 11 2 13
REMARK SMILES IDX 1 14 3 15 4 16
REMARK H PARENT
REMARK Flexibility Score: 70.00
ROOT
ATOM      1  C   UNL     1      31.999  10.056  28.797  1.00  0.00     0.018 C 
ATOM      2  C   UNL     1      31.638   9.523  27.402  1.00  0.00     0.015 C 
ATOM      3  C   UNL     1      30.639   8.532  28.028  1.00  0.00    -0.031 C 
ATOM      4  C   UNL     1      31.042   9.026  29.443  1.00  0.00     0.002 C 
ATOM      5  C   UNL     1      31.034   7.065  27.775  1.00  0.00     0.011 C 
ATOM      6  C   UNL     1      29.184   8.794  27.590  1.00  0.00     0.011 C 
ENDROOT
BRANCH   4   7
ATOM      7  C   UNL     1      29.920   9.560  30.376  1.00  0.00     0.009 C 
BRANCH   7   8
ATOM      8  C   UNL     1      30.187   9.381  31.893  1.00  0.00     0.030 C 
BRANCH   8   9
ATOM      9  C   UNL     1      31.620   9.610  32.350  1.00  0.00    -0.077 C 
ATOM     10  C   UNL     1      32.353   8.484  33.038  1.00  0.00     0.039 C 
ATOM     11  C   UNL     1      32.272  10.785  32.205  1.00  0.00    -0.028 CG0
ATOM     12  G   UNL     1      31.735  12.009  31.510  1.00  0.00     0.000 G0
ENDBRANCH   8   9
ENDBRANCH   7   8
ENDBRANCH   4   7
BRANCH   1  13
ATOM     13  C   UNL     1      31.732  11.546  29.044  1.00  0.00    -0.074 C 
ATOM     14  C   UNL     1      30.829  12.265  28.346  1.00  0.00     0.008 C 
BRANCH  13  15
ATOM     15  C   UNL     1      32.468  12.226  30.175  1.00  0.00     0.035 C 
BRANCH  15  16
ATOM     16  C   UNL     1      31.741  12.018  31.509  1.00  0.00     0.032 CG0
ATOM     17  G   UNL     1      32.257  10.790  32.212  1.00  0.00     0.000 G0
ENDBRANCH  15  16
ENDBRANCH  13  15
ENDBRANCH   1  13
TORSDOF 0
ENDMDL
MODEL 6
REMARK VINA RESULT:    -3.513      2.661      5.676
REMARK INTER + INTRA:          -4.660
REMARK INTER:                  -4.744
REMARK INTRA:                   0.084
REMARK UNBOUND:                 0.086
REMARK SMILES C=C1CCC=C(C)CC[C@@H]2[C@H]1CC2(C)C
REMARK SMILES IDX 11 1 12 2 13 3 10 4 14 5 15 6 9 7 8 8 6 9 7 10 5 11 2 13
REMARK SMILES IDX 1 14 3 15 4 16
REMARK H PARENT
REMARK Flexibility Score: 70.00
ROOT
ATOM      1  C   UNL     1      30.339   8.763  32.163  1.00  0.00     0.018 C 
ATOM      2  C   UNL     1      31.007   9.148  30.833  1.00  0.00     0.015 C 
ATOM      3  C   UNL     1      31.240  10.579  31.353  1.00  0.00    -0.031 C 
ATOM      4  C   UNL     1      30.514  10.212  32.676  1.00  0.00     0.002 C 
ATOM      5  C   UNL     1      30.477  11.633  30.529  1.00  0.00     0.011 C 
ATOM      6  C   UNL     1      32.735  10.940  31.459  1.00  0.00     0.011 C 
ENDROOT
BRANCH   4   7
ATOM      7  C   UNL     1      31.281  10.424  34.011  1.00  0.00     0.009 C 
BRANCH   7   8
ATOM      8  C   UNL     1      30.388  10.503  35.275  1.00  0.00     0.030 C 
BRANCH   8   9
ATOM      9  C   UNL     1      30.509   9.343  36.252  1.00  0.00    -0.077 C 
ATOM     10  C   UNL     1      31.228   9.566  37.561  1.00  0.00     0.039 C 
ATOM     11  C   UNL     1      30.037   8.102  36.001  1.00  0.00    -0.028 CG0
ATOM     12  G   UNL     1      29.256   7.688  34.781  1.00  0.00     0.000 G0
ENDBRANCH   8   9
ENDBRANCH   7   8
ENDBRANCH   4   7
BRANCH   1  13
ATOM     13  C   UNL     1      31.005   7.630  32.953  1.00  0.00    -0.074 C 
ATOM     14  C   UNL     1      32.330   7.379  32.920  1.00  0.00     0.008 C 
BRANCH  13  15
ATOM     15  C   UNL     1      30.143   6.795  33.871  1.00  0.00     0.035 C 
BRANCH  15  16
ATOM     16  C   UNL     1      29.270   7.684  34.764  1.00  0.00     0.032 CG0
ATOM     17  G   UNL     1      30.022   8.099  36.003  1.00  0.00     0.000 G0
ENDBRANCH  15  16
ENDBRANCH  13  15
ENDBRANCH   1  13
TORSDOF 0
ENDMDL
MODEL 7
REMARK VINA RESULT:    -3.500      3.340      5.626
REMARK INTER + INTRA:          -4.641
REMARK INTER:                  -4.820
REMARK INTRA:                   0.178
REMARK UNBOUND:                 0.086
REMARK SMILES C=C1CCC=C(C)CC[C@@H]2[C@H]1CC2(C)C
REMARK SMILES IDX 11 1 12 2 13 3 10 4 14 5 15 6 9 7 8 8 6 9 7 10 5 11 2 13
REMARK SMILES IDX 1 14 3 15 4 16
REMARK H PARENT
REMARK Flexibility Score: 70.00
ROOT
ATOM      1  C   UNL     1      29.615  10.693  28.289  1.00  0.00     0.018 C 
ATOM      2  C   UNL     1      30.172  12.125  28.289  1.00  0.00     0.015 C 
ATOM      3  C   UNL     1      31.610  11.576  28.303  1.00  0.00    -0.031 C 
ATOM      4  C   UNL     1      31.053  10.128  28.361  1.00  0.00     0.002 C 
ATOM      5  C   UNL     1      32.376  11.970  29.580  1.00  0.00     0.011 C 
ATOM      6  C   UNL     1      32.409  11.962  27.042  1.00  0.00     0.011 C 
ENDROOT
BRANCH   4   7
ATOM      7  C   UNL     1      31.499   9.130  27.256  1.00  0.00     0.009 C 
BRANCH   7   8
ATOM      8  C   UNL     1      31.574   7.648  27.702  1.00  0.00     0.030 C 
BRANCH   8   9
ATOM      9  C   UNL     1      30.434   7.158  28.583  1.00  0.00    -0.077 C 
ATOM     10  C   UNL     1      30.761   6.549  29.925  1.00  0.00     0.039 C 
ATOM     11  C   UNL     1      29.134   7.205  28.217  1.00  0.00    -0.028 CG0
ATOM     12  G   UNL     1      28.599   7.810  26.945  1.00  0.00     0.000 G0
ENDBRANCH   8   9
ENDBRANCH   7   8
ENDBRANCH   4   7
BRANCH   1  13
ATOM     13  C   UNL     1      28.744  10.306  27.087  1.00  0.00    -0.074 C 
ATOM     14  C   UNL     1      28.796  10.938  25.897  1.00  0.00     0.008 C 
BRANCH  13  15
ATOM     15  C   UNL     1      27.833   9.108  27.221  1.00  0.00     0.035 C 
BRANCH  15  16
ATOM     16  C   UNL     1      28.588   7.806  26.930  1.00  0.00     0.032 CG0
ATOM     17  G   UNL     1      29.133   7.209  28.201  1.00  0.00     0.000 G0
ENDBRANCH  15  16
ENDBRANCH  13  15
ENDBRANCH   1  13
TORSDOF 0
ENDMDL
MODEL 8
REMARK VINA RESULT:    -3.482      2.100      4.086
REMARK INTER + INTRA:          -4.617
REMARK INTER:                  -4.833
REMARK INTRA:                   0.216
REMARK UNBOUND:                 0.086
REMARK SMILES C=C1CCC=C(C)CC[C@@H]2[C@H]1CC2(C)C
REMARK SMILES IDX 11 1 12 2 13 3 10 4 14 5 15 6 9 7 8 8 6 9 7 10 5 11 2 13
REMARK SMILES IDX 1 14 3 15 4 16
REMARK H PARENT
REMARK Flexibility Score: 70.00
ROOT
ATOM      1  C   UNL     1      31.615   8.983  28.247  1.00  0.00     0.018 C 
ATOM      2  C   UNL     1      31.016   7.673  27.711  1.00  0.00     0.015 C 
ATOM      3  C   UNL     1      30.148   7.541  28.975  1.00  0.00    -0.031 C 
ATOM      4  C   UNL     1      30.791   8.832  29.548  1.00  0.00     0.002 C 
ATOM      5  C   UNL     1      30.498   6.286  29.798  1.00  0.00     0.011 C 
ATOM      6  C   UNL     1      28.637   7.595  28.670  1.00  0.00     0.011 C 
ENDROOT
BRANCH   4   7
ATOM      7  C   UNL     1      29.848  10.000  29.952  1.00  0.00     0.009 C 
BRANCH   7   8
ATOM      8  C   UNL     1      30.421  10.967  31.019  1.00  0.00     0.030 C 
BRANCH   8   9
ATOM      9  C   UNL     1      31.931  11.161  31.001  1.00  0.00    -0.077 C 
ATOM     10  C   UNL     1      32.738  10.684  32.183  1.00  0.00     0.039 C 
ATOM     11  C   UNL     1      32.594  11.772  29.995  1.00  0.00    -0.028 CG0
ATOM     12  G   UNL     1      31.980  12.277  28.715  1.00  0.00     0.000 G0
ENDBRANCH   8   9
ENDBRANCH   7   8
ENDBRANCH   4   7
BRANCH   1  13
ATOM     13  C   UNL     1      31.389  10.233  27.388  1.00  0.00    -0.074 C 
ATOM     14  C   UNL     1      30.330  10.390  26.568  1.00  0.00     0.008 C 
BRANCH  13  15
ATOM     15  C   UNL     1      32.366  11.378  27.521  1.00  0.00     0.035 C 
BRANCH  15  16
ATOM     16  C   UNL     1      31.994  12.286  28.700  1.00  0.00     0.032 CG0
ATOM     17  G   UNL     1      32.585  11.763  29.983  1.00  0.00     0.000 G0
ENDBRANCH  15  16
ENDBRANCH  13  15
ENDBRANCH   1  13
TORSDOF 0
ENDMDL
MODEL 9
REMARK VINA RESULT:    -3.457      2.097      3.502
REMARK INTER + INTRA:          -4.584
REMARK INTER:                  -4.869
REMARK INTRA:                   0.285
REMARK UNBOUND:                 0.086
REMARK SMILES C=C1CCC=C(C)CC[C@@H]2[C@H]1CC2(C)C
REMARK SMILES IDX 11 1 12 2 13 3 10 4 14 5 15 6 9 7 8 8 6 9 7 10 5 11 2 13
REMARK SMILES IDX 1 14 3 15 4 16
REMARK H PARENT
REMARK Flexibility Score: 70.00
ROOT
ATOM      1  C   UNL     1      30.015  10.314  30.598  1.00  0.00     0.018 C 
ATOM      2  C   UNL     1      30.448  10.821  31.983  1.00  0.00     0.015 C 
ATOM      3  C   UNL     1      31.927  10.634  31.600  1.00  0.00    -0.031 C 
ATOM      4  C   UNL     1      31.496  10.067  30.221  1.00  0.00     0.002 C 
ATOM      5  C   UNL     1      32.633   9.585  32.481  1.00  0.00     0.011 C 
ATOM      6  C   UNL     1      32.713  11.961  31.589  1.00  0.00     0.011 C 
ENDROOT
BRANCH   4   7
ATOM      7  C   UNL     1      32.046  10.759  28.943  1.00  0.00     0.009 C 
BRANCH   7   8
ATOM      8  C   UNL     1      32.022   9.886  27.663  1.00  0.00     0.030 C 
BRANCH   8   9
ATOM      9  C   UNL     1      30.962   8.795  27.618  1.00  0.00    -0.077 C 
ATOM     10  C   UNL     1      31.398   7.353  27.713  1.00  0.00     0.039 C 
ATOM     11  C   UNL     1      29.642   9.042  27.464  1.00  0.00    -0.028 CG0
ATOM     12  G   UNL     1      29.003  10.405  27.395  1.00  0.00     0.000 G0
ENDBRANCH   8   9
ENDBRANCH   7   8
ENDBRANCH   4   7
BRANCH   1  13
ATOM     13  C   UNL     1      29.204  11.293  29.741  1.00  0.00    -0.074 C 
ATOM     14  C   UNL     1      29.337  12.633  29.815  1.00  0.00     0.008 C 
BRANCH  13  15
ATOM     15  C   UNL     1      28.256  10.724  28.710  1.00  0.00     0.035 C 
BRANCH  15  16
ATOM     16  C   UNL     1      28.992  10.402  27.404  1.00  0.00     0.032 CG0
ATOM     17  G   UNL     1      29.634   9.041  27.475  1.00  0.00     0.000 G0
ENDBRANCH  15  16
ENDBRANCH  13  15
ENDBRANCH   1  13
TORSDOF 0
ENDMDL
