MODEL 1
REMARK VINA RESULT:    -5.559      0.000      0.000
REMARK INTER + INTRA:          -6.660
REMARK INTER:                  -6.534
REMARK INTRA:                  -0.126
REMARK UNBOUND:                -0.126
REMARK SMILES O=C([O-])C=Cc1ccc(O)c(O)c1
REMARK SMILES IDX 6 1 13 2 7 3 11 4 8 5 9 6 5 7 4 8 2 9 1 10 3 11 12 12 10 14
REMARK H PARENT 12 13 10 15
REMARK Flexibility Score: inf
ROOT
ATOM      1  C   UNL     1       8.908  15.998 -21.714  1.00  0.00    -0.022 A 
ATOM      2  C   UNL     1       8.550  17.267 -21.214  1.00  0.00     0.058 A 
ATOM      3  C   UNL     1       9.119  14.948 -20.807  1.00  0.00     0.012 A 
ATOM      4  C   UNL     1       8.382  17.472 -19.839  1.00  0.00     0.157 A 
ATOM      5  C   UNL     1       8.950  15.149 -19.434  1.00  0.00     0.051 A 
ATOM      6  C   UNL     1       8.580  16.407 -18.945  1.00  0.00     0.157 A 
ENDROOT
BRANCH   1   7
ATOM      7  C   UNL     1       9.108  15.737 -23.161  1.00  0.00     0.010 C 
ATOM      8  C   UNL     1      10.073  16.308 -23.895  1.00  0.00     0.025 C 
BRANCH   8   9
ATOM      9  C   UNL     1      10.227  16.030 -25.331  1.00  0.00     0.064 C 
ATOM     10  O   UNL     1      11.371  16.068 -25.852  1.00  0.00    -0.545 OA
ATOM     11  O   UNL     1       9.127  15.720 -26.123  1.00  0.00    -0.545 OA
ENDBRANCH   8   9
ENDBRANCH   1   7
BRANCH   4  12
ATOM     12  O   UNL     1       8.025  18.740 -19.382  1.00  0.00    -0.504 OA
ATOM     13  H   UNL     1       8.619  19.549 -19.520  1.00  0.00     0.293 HD
ENDBRANCH   4  12
BRANCH   6  14
ATOM     14  O   UNL     1       8.412  16.605 -17.575  1.00  0.00    -0.504 OA
ATOM     15  H   UNL     1       9.167  16.443 -16.919  1.00  0.00     0.293 HD
ENDBRANCH   6  14
TORSDOF 4
ENDMDL
MODEL 2
REMARK VINA RESULT:    -5.428      0.874      1.941
REMARK INTER + INTRA:          -6.506
REMARK INTER:                  -6.374
REMARK INTRA:                  -0.132
REMARK UNBOUND:                -0.126
REMARK SMILES O=C([O-])C=Cc1ccc(O)c(O)c1
REMARK SMILES IDX 6 1 13 2 7 3 11 4 8 5 9 6 5 7 4 8 2 9 1 10 3 11 12 12 10 14
REMARK H PARENT 12 13 10 15
REMARK Flexibility Score: inf
ROOT
ATOM      1  C   UNL     1       8.871  15.876 -21.746  1.00  0.00    -0.022 A 
ATOM      2  C   UNL     1       8.806  14.752 -20.898  1.00  0.00     0.058 A 
ATOM      3  C   UNL     1       8.741  17.156 -21.186  1.00  0.00     0.012 A 
ATOM      4  C   UNL     1       8.639  14.908 -19.517  1.00  0.00     0.157 A 
ATOM      5  C   UNL     1       8.576  17.315 -19.807  1.00  0.00     0.051 A 
ATOM      6  C   UNL     1       8.527  16.196 -18.967  1.00  0.00     0.157 A 
ENDROOT
BRANCH   1   7
ATOM      7  C   UNL     1       9.035  15.758 -23.217  1.00  0.00     0.010 C 
ATOM      8  C   UNL     1      10.144  16.125 -23.874  1.00  0.00     0.025 C 
BRANCH   8   9
ATOM      9  C   UNL     1      10.258  16.003 -25.335  1.00  0.00     0.064 C 
ATOM     10  O   UNL     1      11.386  16.114 -25.882  1.00  0.00    -0.545 OA
ATOM     11  O   UNL     1       9.139  15.762 -26.125  1.00  0.00    -0.545 OA
ENDBRANCH   8   9
ENDBRANCH   1   7
BRANCH   4  12
ATOM     12  O   UNL     1       8.582  13.773 -18.708  1.00  0.00    -0.504 OA
ATOM     13  H   UNL     1       8.270  13.813 -17.745  1.00  0.00     0.293 HD
ENDBRANCH   4  12
BRANCH   6  14
ATOM     14  O   UNL     1       8.364  16.358 -17.592  1.00  0.00    -0.504 OA
ATOM     15  H   UNL     1       7.454  16.541 -17.184  1.00  0.00     0.293 HD
ENDBRANCH   6  14
TORSDOF 4
ENDMDL
MODEL 3
REMARK VINA RESULT:    -4.969      2.395      3.292
REMARK INTER + INTRA:          -5.966
REMARK INTER:                  -5.820
REMARK INTRA:                  -0.146
REMARK UNBOUND:                -0.126
REMARK SMILES O=C([O-])C=Cc1ccc(O)c(O)c1
REMARK SMILES IDX 6 1 13 2 7 3 11 4 8 5 9 6 5 7 4 8 2 9 1 10 3 11 12 12 10 14
REMARK H PARENT 12 13 10 15
REMARK Flexibility Score: inf
ROOT
ATOM      1  C   UNL     1       9.758  15.624 -19.620  1.00  0.00    -0.022 A 
ATOM      2  C   UNL     1      10.780  16.015 -18.730  1.00  0.00     0.058 A 
ATOM      3  C   UNL     1       9.011  14.472 -19.329  1.00  0.00     0.012 A 
ATOM      4  C   UNL     1      11.031  15.281 -17.564  1.00  0.00     0.157 A 
ATOM      5  C   UNL     1       9.258  13.739 -18.165  1.00  0.00     0.051 A 
ATOM      6  C   UNL     1      10.264  14.140 -17.278  1.00  0.00     0.157 A 
ENDROOT
BRANCH   1   7
ATOM      7  C   UNL     1       9.465  16.363 -20.873  1.00  0.00     0.010 C 
ATOM      8  C   UNL     1       9.112  15.770 -22.022  1.00  0.00     0.025 C 
BRANCH   8   9
ATOM      9  C   UNL     1       8.842  16.542 -23.244  1.00  0.00     0.064 C 
ATOM     10  O   UNL     1       8.160  17.597 -23.176  1.00  0.00    -0.545 OA
ATOM     11  O   UNL     1       9.332  16.127 -24.478  1.00  0.00    -0.545 OA
ENDBRANCH   8   9
ENDBRANCH   1   7
BRANCH   4  12
ATOM     12  O   UNL     1      12.048  15.699 -16.707  1.00  0.00    -0.504 OA
ATOM     13  H   UNL     1      12.276  15.197 -15.857  1.00  0.00     0.293 HD
ENDBRANCH   4  12
BRANCH   6  14
ATOM     14  O   UNL     1      10.507  13.408 -16.117  1.00  0.00    -0.504 OA
ATOM     15  H   UNL     1       9.791  12.828 -15.694  1.00  0.00     0.293 HD
ENDBRANCH   6  14
TORSDOF 4
ENDMDL
MODEL 4
REMARK VINA RESULT:    -4.929      2.479      3.538
REMARK INTER + INTRA:          -5.920
REMARK INTER:                  -5.795
REMARK INTRA:                  -0.124
REMARK UNBOUND:                -0.126
REMARK SMILES O=C([O-])C=Cc1ccc(O)c(O)c1
REMARK SMILES IDX 6 1 13 2 7 3 11 4 8 5 9 6 5 7 4 8 2 9 1 10 3 11 12 12 10 14
REMARK H PARENT 12 13 10 15
REMARK Flexibility Score: inf
ROOT
ATOM      1  C   UNL     1       9.826  15.609 -19.716  1.00  0.00    -0.022 A 
ATOM      2  C   UNL     1       9.349  14.315 -19.424  1.00  0.00     0.058 A 
ATOM      3  C   UNL     1      10.671  16.244 -18.792  1.00  0.00     0.012 A 
ATOM      4  C   UNL     1       9.730  13.662 -18.246  1.00  0.00     0.157 A 
ATOM      5  C   UNL     1      11.054  15.594 -17.616  1.00  0.00     0.051 A 
ATOM      6  C   UNL     1      10.590  14.303 -17.338  1.00  0.00     0.157 A 
ENDROOT
BRANCH   1   7
ATOM      7  C   UNL     1       9.440  16.345 -20.946  1.00  0.00     0.010 C 
ATOM      8  C   UNL     1       9.145  15.747 -22.109  1.00  0.00     0.025 C 
BRANCH   8   9
ATOM      9  C   UNL     1       8.780  16.517 -23.308  1.00  0.00     0.064 C 
ATOM     10  O   UNL     1       8.234  17.643 -23.181  1.00  0.00    -0.545 OA
ATOM     11  O   UNL     1       9.031  16.022 -24.583  1.00  0.00    -0.545 OA
ENDBRANCH   8   9
ENDBRANCH   1   7
BRANCH   4  12
ATOM     12  O   UNL     1       9.241  12.381 -17.992  1.00  0.00    -0.504 OA
ATOM     13  H   UNL     1       9.172  11.678 -18.718  1.00  0.00     0.293 HD
ENDBRANCH   4  12
BRANCH   6  14
ATOM     14  O   UNL     1      10.975  13.656 -16.165  1.00  0.00    -0.504 OA
ATOM     15  H   UNL     1      10.350  13.582 -15.370  1.00  0.00     0.293 HD
ENDBRANCH   6  14
TORSDOF 4
ENDMDL
MODEL 5
REMARK VINA RESULT:    -4.715      3.276      5.520
REMARK INTER + INTRA:          -5.668
REMARK INTER:                  -5.544
REMARK INTRA:                  -0.124
REMARK UNBOUND:                -0.126
REMARK SMILES O=C([O-])C=Cc1ccc(O)c(O)c1
REMARK SMILES IDX 6 1 13 2 7 3 11 4 8 5 9 6 5 7 4 8 2 9 1 10 3 11 12 12 10 14
REMARK H PARENT 12 13 10 15
REMARK Flexibility Score: inf
ROOT
ATOM      1  C   UNL     1       8.670  16.284 -19.917  1.00  0.00    -0.022 A 
ATOM      2  C   UNL     1       8.978  15.376 -18.883  1.00  0.00     0.058 A 
ATOM      3  C   UNL     1       8.655  15.821 -21.242  1.00  0.00     0.012 A 
ATOM      4  C   UNL     1       9.239  14.031 -19.168  1.00  0.00     0.157 A 
ATOM      5  C   UNL     1       8.914  14.478 -21.529  1.00  0.00     0.051 A 
ATOM      6  C   UNL     1       9.204  13.578 -20.497  1.00  0.00     0.157 A 
ENDROOT
BRANCH   1   7
ATOM      7  C   UNL     1       8.398  17.721 -19.663  1.00  0.00     0.010 C 
ATOM      8  C   UNL     1       8.731  18.353 -18.530  1.00  0.00     0.025 C 
BRANCH   8   9
ATOM      9  C   UNL     1       8.430  19.777 -18.317  1.00  0.00     0.064 C 
ATOM     10  O   UNL     1       9.323  20.639 -18.521  1.00  0.00    -0.545 OA
ATOM     11  O   UNL     1       7.170  20.189 -17.895  1.00  0.00    -0.545 OA
ENDBRANCH   8   9
ENDBRANCH   1   7
BRANCH   4  12
ATOM     12  O   UNL     1       9.538  13.161 -18.119  1.00  0.00    -0.504 OA
ATOM     13  H   UNL     1       8.999  12.321 -17.946  1.00  0.00     0.293 HD
ENDBRANCH   4  12
BRANCH   6  14
ATOM     14  O   UNL     1       9.461  12.239 -20.786  1.00  0.00    -0.504 OA
ATOM     15  H   UNL     1       8.966  11.489 -20.315  1.00  0.00     0.293 HD
ENDBRANCH   6  14
TORSDOF 4
ENDMDL
MODEL 6
REMARK VINA RESULT:    -4.690      2.267      3.298
REMARK INTER + INTRA:          -5.639
REMARK INTER:                  -5.486
REMARK INTRA:                  -0.153
REMARK UNBOUND:                -0.126
REMARK SMILES O=C([O-])C=Cc1ccc(O)c(O)c1
REMARK SMILES IDX 6 1 13 2 7 3 11 4 8 5 9 6 5 7 4 8 2 9 1 10 3 11 12 12 10 14
REMARK H PARENT 12 13 10 15
REMARK Flexibility Score: inf
ROOT
ATOM      1  C   UNL     1       9.058  16.189 -18.839  1.00  0.00    -0.022 A 
ATOM      2  C   UNL     1       8.196  16.558 -17.787  1.00  0.00     0.058 A 
ATOM      3  C   UNL     1      10.178  15.393 -18.550  1.00  0.00     0.012 A 
ATOM      4  C   UNL     1       8.436  16.118 -16.479  1.00  0.00     0.157 A 
ATOM      5  C   UNL     1      10.418  14.951 -17.246  1.00  0.00     0.051 A 
ATOM      6  C   UNL     1       9.550  15.308 -16.207  1.00  0.00     0.157 A 
ENDROOT
BRANCH   1   7
ATOM      7  C   UNL     1       8.851  16.641 -20.238  1.00  0.00     0.010 C 
ATOM      8  C   UNL     1       9.445  16.077 -21.298  1.00  0.00     0.025 C 
BRANCH   8   9
ATOM      9  C   UNL     1       9.220  16.566 -22.667  1.00  0.00     0.064 C 
ATOM     10  O   UNL     1       8.264  17.350 -22.897  1.00  0.00    -0.545 OA
ATOM     11  O   UNL     1      10.050  16.178 -23.713  1.00  0.00    -0.545 OA
ENDBRANCH   8   9
ENDBRANCH   1   7
BRANCH   4  12
ATOM     12  O   UNL     1       7.559  16.501 -15.464  1.00  0.00    -0.504 OA
ATOM     13  H   UNL     1       7.190  15.839 -14.793  1.00  0.00     0.293 HD
ENDBRANCH   4  12
BRANCH   6  14
ATOM     14  O   UNL     1       9.792  14.865 -14.908  1.00  0.00    -0.504 OA
ATOM     15  H   UNL     1       9.872  13.879 -14.689  1.00  0.00     0.293 HD
ENDBRANCH   6  14
TORSDOF 4
ENDMDL
MODEL 7
REMARK VINA RESULT:    -4.636      2.798      5.982
REMARK INTER + INTRA:          -5.575
REMARK INTER:                  -5.453
REMARK INTRA:                  -0.122
REMARK UNBOUND:                -0.126
REMARK SMILES O=C([O-])C=Cc1ccc(O)c(O)c1
REMARK SMILES IDX 6 1 13 2 7 3 11 4 8 5 9 6 5 7 4 8 2 9 1 10 3 11 12 12 10 14
REMARK H PARENT 12 13 10 15
REMARK Flexibility Score: inf
ROOT
ATOM      1  C   UNL     1       9.207  14.646 -19.303  1.00  0.00    -0.022 A 
ATOM      2  C   UNL     1       8.934  16.001 -19.026  1.00  0.00     0.058 A 
ATOM      3  C   UNL     1       9.134  14.199 -20.631  1.00  0.00     0.012 A 
ATOM      4  C   UNL     1       8.619  16.892 -20.059  1.00  0.00     0.157 A 
ATOM      5  C   UNL     1       8.822  15.086 -21.665  1.00  0.00     0.051 A 
ATOM      6  C   UNL     1       8.566  16.434 -21.386  1.00  0.00     0.157 A 
ENDROOT
BRANCH   1   7
ATOM      7  C   UNL     1       9.534  13.663 -18.240  1.00  0.00     0.010 C 
ATOM      8  C   UNL     1      10.384  13.910 -17.234  1.00  0.00     0.025 C 
BRANCH   8   9
ATOM      9  C   UNL     1      10.688  12.901 -16.208  1.00  0.00     0.064 C 
ATOM     10  O   UNL     1       9.979  12.835 -15.171  1.00  0.00    -0.545 OA
ATOM     11  O   UNL     1      11.746  12.012 -16.366  1.00  0.00    -0.545 OA
ENDBRANCH   8   9
ENDBRANCH   1   7
BRANCH   4  12
ATOM     12  O   UNL     1       8.357  18.226 -19.747  1.00  0.00    -0.504 OA
ATOM     13  H   UNL     1       8.125  18.910 -20.457  1.00  0.00     0.293 HD
ENDBRANCH   4  12
BRANCH   6  14
ATOM     14  O   UNL     1       8.256  17.318 -22.418  1.00  0.00    -0.504 OA
ATOM     15  H   UNL     1       8.710  18.221 -22.498  1.00  0.00     0.293 HD
ENDBRANCH   6  14
TORSDOF 4
ENDMDL
MODEL 8
REMARK VINA RESULT:    -4.607      3.175      6.756
REMARK INTER + INTRA:          -5.541
REMARK INTER:                  -5.417
REMARK INTRA:                  -0.124
REMARK UNBOUND:                -0.126
REMARK SMILES O=C([O-])C=Cc1ccc(O)c(O)c1
REMARK SMILES IDX 6 1 13 2 7 3 11 4 8 5 9 6 5 7 4 8 2 9 1 10 3 11 12 12 10 14
REMARK H PARENT 12 13 10 15
REMARK Flexibility Score: inf
ROOT
ATOM      1  C   UNL     1       9.825  15.116 -18.640  1.00  0.00    -0.022 A 
ATOM      2  C   UNL     1       8.796  14.343 -19.215  1.00  0.00     0.058 A 
ATOM      3  C   UNL     1      10.312  16.228 -19.344  1.00  0.00     0.012 A 
ATOM      4  C   UNL     1       8.251  14.690 -20.457  1.00  0.00     0.157 A 
ATOM      5  C   UNL     1       9.768  16.578 -20.583  1.00  0.00     0.051 A 
ATOM      6  C   UNL     1       8.737  15.815 -21.144  1.00  0.00     0.157 A 
ENDROOT
BRANCH   1   7
ATOM      7  C   UNL     1      10.441  14.779 -17.332  1.00  0.00     0.010 C 
ATOM      8  C   UNL     1       9.760  14.733 -16.178  1.00  0.00     0.025 C 
BRANCH   8   9
ATOM      9  C   UNL     1      10.415  14.406 -14.902  1.00  0.00     0.064 C 
ATOM     10  O   UNL     1       9.895  13.553 -14.138  1.00  0.00    -0.545 OA
ATOM     11  O   UNL     1      11.602  15.024 -14.526  1.00  0.00    -0.545 OA
ENDBRANCH   8   9
ENDBRANCH   1   7
BRANCH   4  12
ATOM     12  O   UNL     1       7.233  13.903 -20.994  1.00  0.00    -0.504 OA
ATOM     13  H   UNL     1       7.223  13.627 -21.969  1.00  0.00     0.293 HD
ENDBRANCH   4  12
BRANCH   6  14
ATOM     14  O   UNL     1       8.196  16.168 -22.379  1.00  0.00    -0.504 OA
ATOM     15  H   UNL     1       8.366  17.077 -22.793  1.00  0.00     0.293 HD
ENDBRANCH   6  14
TORSDOF 4
ENDMDL
