MODEL 1
REMARK VINA RESULT:    -5.137      0.000      0.000
REMARK INTER + INTRA:          -7.508
REMARK INTER:                  -6.939
REMARK INTRA:                  -0.569
REMARK UNBOUND:                -0.569
REMARK SMILES CC(=O)CCC=C(C)CCC=C(C)C
REMARK SMILES IDX 7 1 6 2 8 3 9 4 10 5 11 6 13 7 12 8 14 9 5 10 4 11 2 12 3 13
REMARK SMILES IDX 1 14
REMARK H PARENT
REMARK Flexibility Score: inf
ROOT
ATOM      1  C   UNL     1      -7.765  -3.368 -13.342  1.00  0.00    -0.077 C 
ATOM      2  C   UNL     1      -7.731  -2.189 -12.680  1.00  0.00    -0.028 C 
ATOM      3  C   UNL     1      -7.414  -4.673 -12.667  1.00  0.00     0.039 C 
ENDROOT
BRANCH   1   4
ATOM      4  C   UNL     1      -8.143  -3.378 -14.808  1.00  0.00     0.034 C 
BRANCH   4   5
ATOM      5  C   UNL     1      -9.014  -4.595 -15.137  1.00  0.00     0.032 C 
BRANCH   5   6
ATOM      6  C   UNL     1     -10.478  -4.236 -15.079  1.00  0.00    -0.028 C 
ATOM      7  C   UNL     1     -12.855  -4.513 -14.522  1.00  0.00     0.039 C 
ATOM      8  C   UNL     1     -11.437  -5.023 -14.544  1.00  0.00    -0.080 C 
ATOM      9  C   UNL     1     -11.130  -6.394 -13.987  1.00  0.00     0.039 C 
ENDBRANCH   5   6
ENDBRANCH   4   5
ENDBRANCH   1   4
BRANCH   2  10
ATOM     10  C   UNL     1      -7.406  -2.043 -11.215  1.00  0.00     0.035 C 
BRANCH  10  11
ATOM     11  C   UNL     1      -6.876  -0.637 -10.914  1.00  0.00     0.079 C 
BRANCH  11  12
ATOM     12  C   UNL     1      -6.570  -0.485  -9.450  1.00  0.00     0.130 C 
ATOM     13  O   UNL     1      -5.608  -1.065  -8.968  1.00  0.00    -0.300 OA
ATOM     14  C   UNL     1      -7.423   0.391  -8.583  1.00  0.00     0.087 C 
ENDBRANCH  11  12
ENDBRANCH  10  11
ENDBRANCH   2  10
TORSDOF 6
ENDMDL
MODEL 2
REMARK VINA RESULT:    -5.077      4.067      7.028
REMARK INTER + INTRA:          -7.427
REMARK INTER:                  -6.710
REMARK INTRA:                  -0.716
REMARK UNBOUND:                -0.569
REMARK SMILES CC(=O)CCC=C(C)CCC=C(C)C
REMARK SMILES IDX 7 1 6 2 8 3 9 4 10 5 11 6 13 7 12 8 14 9 5 10 4 11 2 12 3 13
REMARK SMILES IDX 1 14
REMARK H PARENT
REMARK Flexibility Score: inf
ROOT
ATOM      1  C   UNL     1      -7.036  -3.859 -14.947  1.00  0.00    -0.077 C 
ATOM      2  C   UNL     1      -8.337  -3.547 -15.143  1.00  0.00    -0.028 C 
ATOM      3  C   UNL     1      -6.461  -5.190 -15.372  1.00  0.00     0.039 C 
ENDROOT
BRANCH   1   4
ATOM      4  C   UNL     1      -6.135  -2.854 -14.262  1.00  0.00     0.034 C 
BRANCH   4   5
ATOM      5  C   UNL     1      -4.667  -3.104 -14.622  1.00  0.00     0.032 C 
BRANCH   5   6
ATOM      6  C   UNL     1      -4.174  -2.071 -15.605  1.00  0.00    -0.028 C 
ATOM      7  C   UNL     1      -3.286  -1.212 -17.729  1.00  0.00     0.039 C 
ATOM      8  C   UNL     1      -3.708  -2.354 -16.841  1.00  0.00    -0.080 C 
ATOM      9  C   UNL     1      -3.585  -3.774 -17.346  1.00  0.00     0.039 C 
ENDBRANCH   5   6
ENDBRANCH   4   5
ENDBRANCH   1   4
BRANCH   2  10
ATOM     10  C   UNL     1      -9.332  -4.439 -15.843  1.00  0.00     0.035 C 
BRANCH  10  11
ATOM     11  C   UNL     1     -10.746  -3.858 -15.743  1.00  0.00     0.079 C 
BRANCH  11  12
ATOM     12  C   UNL     1     -11.646  -4.778 -14.966  1.00  0.00     0.130 C 
ATOM     13  O   UNL     1     -12.843  -4.537 -14.891  1.00  0.00    -0.300 OA
ATOM     14  C   UNL     1     -11.091  -6.002 -14.302  1.00  0.00     0.087 C 
ENDBRANCH  11  12
ENDBRANCH  10  11
ENDBRANCH   2  10
TORSDOF 6
ENDMDL
MODEL 3
REMARK VINA RESULT:    -5.043      5.715      7.260
REMARK INTER + INTRA:          -7.381
REMARK INTER:                  -6.497
REMARK INTRA:                  -0.884
REMARK UNBOUND:                -0.569
REMARK SMILES CC(=O)CCC=C(C)CCC=C(C)C
REMARK SMILES IDX 7 1 6 2 8 3 9 4 10 5 11 6 13 7 12 8 14 9 5 10 4 11 2 12 3 13
REMARK SMILES IDX 1 14
REMARK H PARENT
REMARK Flexibility Score: inf
ROOT
ATOM      1  C   UNL     1      -3.973  -2.472 -16.410  1.00  0.00    -0.077 C 
ATOM      2  C   UNL     1      -3.616  -1.493 -17.272  1.00  0.00    -0.028 C 
ATOM      3  C   UNL     1      -3.716  -3.931 -16.708  1.00  0.00     0.039 C 
ENDROOT
BRANCH   1   4
ATOM      4  C   UNL     1      -4.670  -2.098 -15.119  1.00  0.00     0.034 C 
BRANCH   4   5
ATOM      5  C   UNL     1      -5.328  -3.325 -14.480  1.00  0.00     0.032 C 
BRANCH   5   6
ATOM      6  C   UNL     1      -6.829  -3.174 -14.454  1.00  0.00    -0.028 C 
ATOM      7  C   UNL     1      -9.171  -3.779 -14.884  1.00  0.00     0.039 C 
ATOM      8  C   UNL     1      -7.694  -4.040 -15.025  1.00  0.00    -0.080 C 
ATOM      9  C   UNL     1      -7.222  -5.244 -15.809  1.00  0.00     0.039 C 
ENDBRANCH   5   6
ENDBRANCH   4   5
ENDBRANCH   1   4
BRANCH   2  10
ATOM     10  C   UNL     1      -2.886  -1.724 -18.571  1.00  0.00     0.035 C 
BRANCH  10  11
ATOM     11  C   UNL     1      -1.420  -1.294 -18.454  1.00  0.00     0.079 C 
BRANCH  11  12
ATOM     12  C   UNL     1      -0.550  -2.463 -18.087  1.00  0.00     0.130 C 
ATOM     13  O   UNL     1      -0.170  -2.599 -16.932  1.00  0.00    -0.300 OA
ATOM     14  C   UNL     1      -0.161  -3.476 -19.122  1.00  0.00     0.087 C 
ENDBRANCH  11  12
ENDBRANCH  10  11
ENDBRANCH   2  10
TORSDOF 6
ENDMDL
MODEL 4
REMARK VINA RESULT:    -5.016      4.981      6.138
REMARK INTER + INTRA:          -7.345
REMARK INTER:                  -6.680
REMARK INTRA:                  -0.665
REMARK UNBOUND:                -0.569
REMARK SMILES CC(=O)CCC=C(C)CCC=C(C)C
REMARK SMILES IDX 7 1 6 2 8 3 9 4 10 5 11 6 13 7 12 8 14 9 5 10 4 11 2 12 3 13
REMARK SMILES IDX 1 14
REMARK H PARENT
REMARK Flexibility Score: inf
ROOT
ATOM      1  C   UNL     1      -5.247  -3.147 -14.978  1.00  0.00    -0.077 C 
ATOM      2  C   UNL     1      -4.399  -2.180 -15.397  1.00  0.00    -0.028 C 
ATOM      3  C   UNL     1      -5.121  -4.577 -15.448  1.00  0.00     0.039 C 
ENDROOT
BRANCH   1   4
ATOM      4  C   UNL     1      -6.367  -2.782 -14.027  1.00  0.00     0.034 C 
BRANCH   4   5
ATOM      5  C   UNL     1      -7.443  -3.873 -14.010  1.00  0.00     0.032 C 
BRANCH   5   6
ATOM      6  C   UNL     1      -8.647  -3.448 -14.812  1.00  0.00    -0.028 C 
ATOM      7  C   UNL     1     -10.398  -3.620 -16.529  1.00  0.00     0.039 C 
ATOM      8  C   UNL     1      -9.165  -4.151 -15.844  1.00  0.00    -0.080 C 
ATOM      9  C   UNL     1      -8.535  -5.434 -16.334  1.00  0.00     0.039 C 
ENDBRANCH   5   6
ENDBRANCH   4   5
ENDBRANCH   1   4
BRANCH   2  10
ATOM     10  C   UNL     1      -3.223  -2.413 -16.311  1.00  0.00     0.035 C 
BRANCH  10  11
ATOM     11  C   UNL     1      -3.386  -1.628 -17.617  1.00  0.00     0.079 C 
BRANCH  11  12
ATOM     12  C   UNL     1      -2.046  -1.310 -18.218  1.00  0.00     0.130 C 
ATOM     13  O   UNL     1      -1.800  -1.648 -19.368  1.00  0.00    -0.300 OA
ATOM     14  C   UNL     1      -1.017  -0.562 -17.426  1.00  0.00     0.087 C 
ENDBRANCH  11  12
ENDBRANCH  10  11
ENDBRANCH   2  10
TORSDOF 6
ENDMDL
MODEL 5
REMARK VINA RESULT:    -5.014      2.367      4.461
REMARK INTER + INTRA:          -7.342
REMARK INTER:                  -6.699
REMARK INTRA:                  -0.643
REMARK UNBOUND:                -0.569
REMARK SMILES CC(=O)CCC=C(C)CCC=C(C)C
REMARK SMILES IDX 7 1 6 2 8 3 9 4 10 5 11 6 13 7 12 8 14 9 5 10 4 11 2 12 3 13
REMARK SMILES IDX 1 14
REMARK H PARENT
REMARK Flexibility Score: inf
ROOT
ATOM      1  C   UNL     1      -6.201  -1.154  -9.698  1.00  0.00    -0.077 C 
ATOM      2  C   UNL     1      -6.954  -0.095  -9.320  1.00  0.00    -0.028 C 
ATOM      3  C   UNL     1      -4.842  -1.421  -9.096  1.00  0.00     0.039 C 
ENDROOT
BRANCH   1   4
ATOM      4  C   UNL     1      -6.727  -2.085 -10.769  1.00  0.00     0.034 C 
BRANCH   4   5
ATOM      5  C   UNL     1      -7.440  -1.297 -11.874  1.00  0.00     0.032 C 
BRANCH   5   6
ATOM      6  C   UNL     1      -8.263  -2.217 -12.740  1.00  0.00    -0.028 C 
ATOM      7  C   UNL     1      -8.718  -3.802 -14.563  1.00  0.00     0.039 C 
ATOM      8  C   UNL     1      -7.786  -2.885 -13.814  1.00  0.00    -0.080 C 
ATOM      9  C   UNL     1      -6.360  -2.723 -14.289  1.00  0.00     0.039 C 
ENDBRANCH   5   6
ENDBRANCH   4   5
ENDBRANCH   1   4
BRANCH   2  10
ATOM     10  C   UNL     1      -6.566   0.887  -8.243  1.00  0.00     0.035 C 
BRANCH  10  11
ATOM     11  C   UNL     1      -5.981   2.163  -8.856  1.00  0.00     0.079 C 
BRANCH  11  12
ATOM     12  C   UNL     1      -6.971   2.811  -9.784  1.00  0.00     0.130 C 
ATOM     13  O   UNL     1      -8.003   3.288  -9.334  1.00  0.00    -0.300 OA
ATOM     14  C   UNL     1      -6.692   2.896 -11.254  1.00  0.00     0.087 C 
ENDBRANCH  11  12
ENDBRANCH  10  11
ENDBRANCH   2  10
TORSDOF 6
ENDMDL
MODEL 6
REMARK VINA RESULT:    -4.997      2.865      7.037
REMARK INTER + INTRA:          -7.319
REMARK INTER:                  -6.887
REMARK INTRA:                  -0.431
REMARK UNBOUND:                -0.569
REMARK SMILES CC(=O)CCC=C(C)CCC=C(C)C
REMARK SMILES IDX 7 1 6 2 8 3 9 4 10 5 11 6 13 7 12 8 14 9 5 10 4 11 2 12 3 13
REMARK SMILES IDX 1 14
REMARK H PARENT
REMARK Flexibility Score: inf
ROOT
ATOM      1  C   UNL     1      -7.907  -2.829 -13.705  1.00  0.00    -0.077 C 
ATOM      2  C   UNL     1      -8.937  -3.474 -14.298  1.00  0.00    -0.028 C 
ATOM      3  C   UNL     1      -6.516  -2.836 -14.294  1.00  0.00     0.039 C 
ENDROOT
BRANCH   1   4
ATOM      4  C   UNL     1      -8.150  -2.096 -12.402  1.00  0.00     0.034 C 
BRANCH   4   5
ATOM      5  C   UNL     1      -6.824  -1.725 -11.731  1.00  0.00     0.032 C 
BRANCH   5   6
ATOM      6  C   UNL     1      -7.034  -0.656 -10.688  1.00  0.00    -0.028 C 
ATOM      7  C   UNL     1      -6.604   0.606  -8.623  1.00  0.00     0.039 C 
ATOM      8  C   UNL     1      -6.305  -0.539  -9.556  1.00  0.00    -0.080 C 
ATOM      9  C   UNL     1      -5.218  -1.526  -9.198  1.00  0.00     0.039 C 
ENDBRANCH   5   6
ENDBRANCH   4   5
ENDBRANCH   1   4
BRANCH   2  10
ATOM     10  C   UNL     1      -8.841  -4.210 -15.611  1.00  0.00     0.035 C 
BRANCH  10  11
ATOM     11  C   UNL     1     -10.139  -4.063 -16.411  1.00  0.00     0.079 C 
BRANCH  11  12
ATOM     12  C   UNL     1     -11.251  -4.847 -15.771  1.00  0.00     0.130 C 
ATOM     13  O   UNL     1     -11.078  -6.022 -15.481  1.00  0.00    -0.300 OA
ATOM     14  C   UNL     1     -12.564  -4.191 -15.466  1.00  0.00     0.087 C 
ENDBRANCH  11  12
ENDBRANCH  10  11
ENDBRANCH   2  10
TORSDOF 6
ENDMDL
MODEL 7
REMARK VINA RESULT:    -4.991      1.794      2.719
REMARK INTER + INTRA:          -7.311
REMARK INTER:                  -6.919
REMARK INTRA:                  -0.391
REMARK UNBOUND:                -0.569
REMARK SMILES CC(=O)CCC=C(C)CCC=C(C)C
REMARK SMILES IDX 7 1 6 2 8 3 9 4 10 5 11 6 13 7 12 8 14 9 5 10 4 11 2 12 3 13
REMARK SMILES IDX 1 14
REMARK H PARENT
REMARK Flexibility Score: inf
ROOT
ATOM      1  C   UNL     1      -7.377  -1.923 -11.469  1.00  0.00    -0.077 C 
ATOM      2  C   UNL     1      -7.146  -0.728 -10.880  1.00  0.00    -0.028 C 
ATOM      3  C   UNL     1      -6.832  -3.212 -10.899  1.00  0.00     0.039 C 
ENDROOT
BRANCH   1   4
ATOM      4  C   UNL     1      -8.185  -1.970 -12.748  1.00  0.00     0.034 C 
BRANCH   4   5
ATOM      5  C   UNL     1      -7.949  -3.287 -13.494  1.00  0.00     0.032 C 
BRANCH   5   6
ATOM      6  C   UNL     1      -9.036  -3.528 -14.511  1.00  0.00    -0.028 C 
ATOM      7  C   UNL     1     -10.126  -4.561 -16.457  1.00  0.00     0.039 C 
ATOM      8  C   UNL     1      -8.940  -4.397 -15.541  1.00  0.00    -0.080 C 
ATOM      9  C   UNL     1      -7.681  -5.190 -15.805  1.00  0.00     0.039 C 
ENDBRANCH   5   6
ENDBRANCH   4   5
ENDBRANCH   1   4
BRANCH   2  10
ATOM     10  C   UNL     1      -6.390  -0.544  -9.589  1.00  0.00     0.035 C 
BRANCH  10  11
ATOM     11  C   UNL     1      -7.127   0.427  -8.661  1.00  0.00     0.079 C 
BRANCH  11  12
ATOM     12  C   UNL     1      -6.501   1.793  -8.713  1.00  0.00     0.130 C 
ATOM     13  O   UNL     1      -5.616   2.086  -7.922  1.00  0.00    -0.300 OA
ATOM     14  C   UNL     1      -6.938   2.790  -9.743  1.00  0.00     0.087 C 
ENDBRANCH  11  12
ENDBRANCH  10  11
ENDBRANCH   2  10
TORSDOF 6
ENDMDL
MODEL 8
REMARK VINA RESULT:    -4.967      2.970      7.205
REMARK INTER + INTRA:          -7.278
REMARK INTER:                  -6.765
REMARK INTRA:                  -0.513
REMARK UNBOUND:                -0.569
REMARK SMILES CC(=O)CCC=C(C)CCC=C(C)C
REMARK SMILES IDX 7 1 6 2 8 3 9 4 10 5 11 6 13 7 12 8 14 9 5 10 4 11 2 12 3 13
REMARK SMILES IDX 1 14
REMARK H PARENT
REMARK Flexibility Score: inf
ROOT
ATOM      1  C   UNL     1      -6.913  -2.124 -12.191  1.00  0.00    -0.077 C 
ATOM      2  C   UNL     1      -8.044  -2.513 -12.823  1.00  0.00    -0.028 C 
ATOM      3  C   UNL     1      -5.556  -2.233 -12.846  1.00  0.00     0.039 C 
ENDROOT
BRANCH   1   4
ATOM      4  C   UNL     1      -7.008  -1.586 -10.780  1.00  0.00     0.034 C 
BRANCH   4   5
ATOM      5  C   UNL     1      -5.984  -0.468 -10.554  1.00  0.00     0.032 C 
BRANCH   5   6
ATOM      6  C   UNL     1      -6.671   0.869 -10.438  1.00  0.00    -0.028 C 
ATOM      7  C   UNL     1      -6.941   3.301 -10.669  1.00  0.00     0.039 C 
ATOM      8  C   UNL     1      -6.118   2.046 -10.806  1.00  0.00    -0.080 C 
ATOM      9  C   UNL     1      -4.704   2.137 -11.331  1.00  0.00     0.039 C 
ENDBRANCH   5   6
ENDBRANCH   4   5
ENDBRANCH   1   4
BRANCH   2  10
ATOM     10  C   UNL     1      -8.096  -3.032 -14.238  1.00  0.00     0.035 C 
BRANCH  10  11
ATOM     11  C   UNL     1      -8.908  -4.329 -14.312  1.00  0.00     0.079 C 
BRANCH  11  12
ATOM     12  C   UNL     1     -10.150  -4.135 -15.136  1.00  0.00     0.130 C 
ATOM     13  O   UNL     1     -11.235  -4.478 -14.689  1.00  0.00    -0.300 OA
ATOM     14  C   UNL     1     -10.070  -3.503 -16.493  1.00  0.00     0.087 C 
ENDBRANCH  11  12
ENDBRANCH  10  11
ENDBRANCH   2  10
TORSDOF 6
ENDMDL
MODEL 9
REMARK VINA RESULT:    -4.902      5.316      7.113
REMARK INTER + INTRA:          -7.190
REMARK INTER:                  -6.585
REMARK INTRA:                  -0.605
REMARK UNBOUND:                -0.569
REMARK SMILES CC(=O)CCC=C(C)CCC=C(C)C
REMARK SMILES IDX 7 1 6 2 8 3 9 4 10 5 11 6 13 7 12 8 14 9 5 10 4 11 2 12 3 13
REMARK SMILES IDX 1 14
REMARK H PARENT
REMARK Flexibility Score: inf
ROOT
ATOM      1  C   UNL     1      -3.889  -2.444 -15.012  1.00  0.00    -0.077 C 
ATOM      2  C   UNL     1      -5.024  -2.359 -14.282  1.00  0.00    -0.028 C 
ATOM      3  C   UNL     1      -2.526  -2.237 -14.394  1.00  0.00     0.039 C 
ENDROOT
BRANCH   1   4
ATOM      4  C   UNL     1      -3.988  -2.735 -16.494  1.00  0.00     0.034 C 
BRANCH   4   5
ATOM      5  C   UNL     1      -3.656  -1.486 -17.318  1.00  0.00     0.032 C 
BRANCH   5   6
ATOM      6  C   UNL     1      -2.829  -1.848 -18.526  1.00  0.00    -0.028 C 
ATOM      7  C   UNL     1      -0.802  -2.057 -19.900  1.00  0.00     0.039 C 
ATOM      8  C   UNL     1      -1.506  -1.603 -18.647  1.00  0.00    -0.080 C 
ATOM      9  C   UNL     1      -0.724  -0.879 -17.575  1.00  0.00     0.039 C 
ENDBRANCH   5   6
ENDBRANCH   4   5
ENDBRANCH   1   4
BRANCH   2  10
ATOM     10  C   UNL     1      -5.066  -2.111 -12.795  1.00  0.00     0.035 C 
BRANCH  10  11
ATOM     11  C   UNL     1      -6.305  -2.762 -12.171  1.00  0.00     0.079 C 
BRANCH  11  12
ATOM     12  C   UNL     1      -7.333  -1.722 -11.821  1.00  0.00     0.130 C 
ATOM     13  O   UNL     1      -8.418  -1.727 -12.384  1.00  0.00    -0.300 OA
ATOM     14  C   UNL     1      -7.046  -0.694 -10.768  1.00  0.00     0.087 C 
ENDBRANCH  11  12
ENDBRANCH  10  11
ENDBRANCH   2  10
TORSDOF 6
ENDMDL
