MODEL 1
REMARK VINA RESULT:    46.962      0.000      0.000
REMARK INTER + INTRA:          73.462
REMARK INTER:                  68.925
REMARK INTRA:                   4.537
REMARK UNBOUND:                 4.537
REMARK SMILES Cc1cc2c(C(C)C)c(O)c(O)c(C=O)c2c(O)c1-c1c(C)cc2c(C(C)C)c(O)c(O)c(C=O)c2c1O
REMARK SMILES IDX 1 1 2 2 3 3 4 4 16 5 13 6 11 7 9 8 5 9 17 10 19 11 20 12
REMARK SMILES IDX 37 13 21 14 36 15 23 16 22 17 24 18 33 19 25 20 31 21 29 22
REMARK SMILES IDX 38 23 34 25 35 26 26 27 27 28 28 29 32 30 30 32 18 34 6 36
REMARK SMILES IDX 7 37 8 38 14 39 15 40 10 41 12 43
REMARK H PARENT 38 24 32 31 30 33 18 35 10 42 12 44
REMARK Flexibility Score: inf
ROOT
ATOM      1  C   UNL     1      20.896  25.229  26.866  1.00  0.00     0.045 C 
ATOM      2  C   UNL     1      21.075  26.116  28.074  1.00  0.00    -0.039 A 
ATOM      3  C   UNL     1      19.951  26.586  28.753  1.00  0.00     0.013 A 
ATOM      4  C   UNL     1      20.054  27.449  29.866  1.00  0.00    -0.006 A 
ATOM      5  C   UNL     1      21.354  27.767  30.371  1.00  0.00     0.039 A 
ATOM      6  C   UNL     1      21.455  28.529  31.574  1.00  0.00     0.072 A 
ATOM      7  C   UNL     1      20.289  28.896  32.276  1.00  0.00     0.169 A 
ATOM      8  C   UNL     1      19.026  28.582  31.767  1.00  0.00     0.162 A 
ATOM      9  C   UNL     1      18.886  27.965  30.507  1.00  0.00     0.008 A 
ATOM     10  C   UNL     1      22.503  27.275  29.677  1.00  0.00     0.132 A 
ATOM     11  C   UNL     1      22.356  26.469  28.528  1.00  0.00     0.031 A 
ENDROOT
BRANCH  11  12
ATOM     12  C   UNL     1      23.554  25.963  27.808  1.00  0.00     0.031 A 
ATOM     13  C   UNL     1      24.569  26.857  27.404  1.00  0.00     0.132 A 
ATOM     14  C   UNL     1      23.678  24.589  27.543  1.00  0.00    -0.039 A 
ATOM     15  C   UNL     1      25.729  26.373  26.726  1.00  0.00     0.039 A 
ATOM     16  C   UNL     1      24.772  24.127  26.809  1.00  0.00     0.013 A 
ATOM     17  C   UNL     1      22.648  23.604  28.037  1.00  0.00     0.045 C 
ATOM     18  C   UNL     1      25.768  25.003  26.325  1.00  0.00    -0.006 A 
ATOM     19  C   UNL     1      26.846  27.210  26.425  1.00  0.00     0.072 A 
ATOM     20  C   UNL     1      26.813  24.534  25.474  1.00  0.00     0.008 A 
ATOM     21  C   UNL     1      27.961  26.674  25.746  1.00  0.00     0.169 A 
ATOM     22  C   UNL     1      27.940  25.359  25.272  1.00  0.00     0.162 A 
BRANCH  13  23
ATOM     23  O   UNL     1      24.412  28.225  27.651  1.00  0.00    -0.507 OA
ATOM     24  H   UNL     1      24.347  28.629  28.577  1.00  0.00     0.293 HD
ENDBRANCH  13  23
BRANCH  19  25
ATOM     25  C   UNL     1      26.917  28.612  26.885  1.00  0.00     0.264 C 
ATOM     26  O   UNL     1      27.793  29.393  26.429  1.00  0.00    -0.298 OA
ENDBRANCH  19  25
BRANCH  20  27
ATOM     27  C   UNL     1      26.741  23.157  24.791  1.00  0.00     0.017 C 
ATOM     28  C   UNL     1      27.911  22.965  23.821  1.00  0.00     0.012 C 
ATOM     29  C   UNL     1      25.392  22.877  24.103  1.00  0.00     0.012 C 
ENDBRANCH  20  27
BRANCH  21  30
ATOM     30  O   UNL     1      29.125  27.426  25.542  1.00  0.00    -0.504 OA
ATOM     31  H   UNL     1      29.448  28.153  26.166  1.00  0.00     0.293 HD
ENDBRANCH  21  30
BRANCH  22  32
ATOM     32  O   UNL     1      29.064  24.852  24.614  1.00  0.00    -0.504 OA
ATOM     33  H   UNL     1      29.919  24.599  25.094  1.00  0.00     0.293 HD
ENDBRANCH  22  32
ENDBRANCH  11  12
BRANCH  10  34
ATOM     34  O   UNL     1      23.791  27.574  30.135  1.00  0.00    -0.507 OA
ATOM     35  H   UNL     1      24.495  26.877  30.341  1.00  0.00     0.293 HD
ENDBRANCH  10  34
BRANCH   9  36
ATOM     36  C   UNL     1      17.490  27.844  29.868  1.00  0.00     0.017 C 
ATOM     37  C   UNL     1      16.707  29.152  30.019  1.00  0.00     0.012 C 
ATOM     38  C   UNL     1      17.512  27.372  28.402  1.00  0.00     0.012 C 
ENDBRANCH   9  36
BRANCH   6  39
ATOM     39  C   UNL     1      22.760  28.943  32.129  1.00  0.00     0.264 C 
ATOM     40  O   UNL     1      23.453  29.819  31.549  1.00  0.00    -0.298 OA
ENDBRANCH   6  39
BRANCH   8  41
ATOM     41  O   UNL     1      17.891  28.891  32.522  1.00  0.00    -0.504 OA
ATOM     42  H   UNL     1      17.263  28.187  32.889  1.00  0.00     0.293 HD
ENDBRANCH   8  41
BRANCH   7  43
ATOM     43  O   UNL     1      20.352  29.608  33.481  1.00  0.00    -0.504 OA
ATOM     44  H   UNL     1      19.615  29.621  34.172  1.00  0.00     0.293 HD
ENDBRANCH   7  43
TORSDOF 11
ENDMDL
MODEL 2
REMARK VINA RESULT:    47.332      2.223      4.255
REMARK INTER + INTRA:          74.006
REMARK INTER:                  73.925
REMARK INTRA:                   0.081
REMARK UNBOUND:                 4.537
REMARK SMILES Cc1cc2c(C(C)C)c(O)c(O)c(C=O)c2c(O)c1-c1c(C)cc2c(C(C)C)c(O)c(O)c(C=O)c2c1O
REMARK SMILES IDX 1 1 2 2 3 3 4 4 16 5 13 6 11 7 9 8 5 9 17 10 19 11 20 12
REMARK SMILES IDX 37 13 21 14 36 15 23 16 22 17 24 18 33 19 25 20 31 21 29 22
REMARK SMILES IDX 38 23 34 25 35 26 26 27 27 28 28 29 32 30 30 32 18 34 6 36
REMARK SMILES IDX 7 37 8 38 14 39 15 40 10 41 12 43
REMARK H PARENT 38 24 32 31 30 33 18 35 10 42 12 44
REMARK Flexibility Score: inf
ROOT
ATOM      1  C   UNL     1      23.783  28.303  30.677  1.00  0.00     0.045 C 
ATOM      2  C   UNL     1      22.485  27.933  30.000  1.00  0.00    -0.039 A 
ATOM      3  C   UNL     1      21.277  28.163  30.659  1.00  0.00     0.013 A 
ATOM      4  C   UNL     1      20.035  27.804  30.092  1.00  0.00    -0.006 A 
ATOM      5  C   UNL     1      20.011  27.282  28.761  1.00  0.00     0.039 A 
ATOM      6  C   UNL     1      18.748  27.043  28.139  1.00  0.00     0.072 A 
ATOM      7  C   UNL     1      17.557  27.385  28.811  1.00  0.00     0.169 A 
ATOM      8  C   UNL     1      17.596  27.890  30.113  1.00  0.00     0.162 A 
ATOM      9  C   UNL     1      18.815  27.995  30.812  1.00  0.00     0.008 A 
ATOM     10  C   UNL     1      21.252  27.056  28.087  1.00  0.00     0.132 A 
ATOM     11  C   UNL     1      22.476  27.368  28.715  1.00  0.00     0.031 A 
ENDROOT
BRANCH  11  12
ATOM     12  C   UNL     1      23.763  27.128  28.011  1.00  0.00     0.031 A 
ATOM     13  C   UNL     1      24.183  25.811  27.729  1.00  0.00     0.132 A 
ATOM     14  C   UNL     1      24.554  28.220  27.615  1.00  0.00    -0.039 A 
ATOM     15  C   UNL     1      25.411  25.577  27.037  1.00  0.00     0.039 A 
ATOM     16  C   UNL     1      25.793  27.989  27.014  1.00  0.00     0.013 A 
ATOM     17  C   UNL     1      24.087  29.639  27.831  1.00  0.00     0.045 C 
ATOM     18  C   UNL     1      26.277  26.683  26.784  1.00  0.00    -0.006 A 
ATOM     19  C   UNL     1      25.810  24.276  26.603  1.00  0.00     0.072 A 
ATOM     20  C   UNL     1      27.594  26.464  26.280  1.00  0.00     0.008 A 
ATOM     21  C   UNL     1      27.040  24.109  25.931  1.00  0.00     0.169 A 
ATOM     22  C   UNL     1      27.920  25.185  25.780  1.00  0.00     0.162 A 
BRANCH  13  23
ATOM     23  O   UNL     1      23.396  24.737  28.157  1.00  0.00    -0.507 OA
ATOM     24  H   UNL     1      23.761  23.923  28.635  1.00  0.00     0.293 HD
ENDBRANCH  13  23
BRANCH  19  25
ATOM     25  C   UNL     1      24.929  23.100  26.750  1.00  0.00     0.264 C 
ATOM     26  O   UNL     1      24.016  22.875  25.912  1.00  0.00    -0.298 OA
ENDBRANCH  19  25
BRANCH  20  27
ATOM     27  C   UNL     1      28.649  27.584  26.263  1.00  0.00     0.017 C 
ATOM     28  C   UNL     1      28.569  28.431  27.536  1.00  0.00     0.012 C 
ATOM     29  C   UNL     1      28.597  28.463  25.000  1.00  0.00     0.012 C 
ENDBRANCH  20  27
BRANCH  21  30
ATOM     30  O   UNL     1      27.411  22.876  25.379  1.00  0.00    -0.504 OA
ATOM     31  H   UNL     1      28.298  22.699  24.928  1.00  0.00     0.293 HD
ENDBRANCH  21  30
BRANCH  22  32
ATOM     32  O   UNL     1      29.125  24.991  25.099  1.00  0.00    -0.504 OA
ATOM     33  H   UNL     1      29.921  24.517  25.508  1.00  0.00     0.293 HD
ENDBRANCH  22  32
ENDBRANCH  11  12
BRANCH  10  34
ATOM     34  O   UNL     1      21.269  26.536  26.787  1.00  0.00    -0.507 OA
ATOM     35  H   UNL     1      22.109  26.236  26.308  1.00  0.00     0.293 HD
ENDBRANCH  10  34
BRANCH   9  36
ATOM     36  C   UNL     1      18.805  28.329  32.316  1.00  0.00     0.017 C 
ATOM     37  C   UNL     1      18.288  29.751  32.555  1.00  0.00     0.012 C 
ATOM     38  C   UNL     1      18.043  27.305  33.178  1.00  0.00     0.012 C 
ENDBRANCH   9  36
BRANCH   6  39
ATOM     39  C   UNL     1      18.641  26.456  26.789  1.00  0.00     0.264 C 
ATOM     40  O   UNL     1      17.686  25.688  26.498  1.00  0.00    -0.298 OA
ENDBRANCH   6  39
BRANCH   8  41
ATOM     41  O   UNL     1      16.405  28.292  30.724  1.00  0.00    -0.504 OA
ATOM     42  H   UNL     1      15.979  27.787  31.491  1.00  0.00     0.293 HD
ENDBRANCH   8  41
BRANCH   7  43
ATOM     43  O   UNL     1      16.302  27.204  28.215  1.00  0.00    -0.504 OA
ATOM     44  H   UNL     1      15.747  27.951  27.820  1.00  0.00     0.293 HD
ENDBRANCH   7  43
TORSDOF 11
ENDMDL
MODEL 3
REMARK VINA RESULT:    47.543      2.236      8.940
REMARK INTER + INTRA:          74.314
REMARK INTER:                  73.978
REMARK INTRA:                   0.336
REMARK UNBOUND:                 4.537
REMARK SMILES Cc1cc2c(C(C)C)c(O)c(O)c(C=O)c2c(O)c1-c1c(C)cc2c(C(C)C)c(O)c(O)c(C=O)c2c1O
REMARK SMILES IDX 1 1 2 2 3 3 4 4 16 5 13 6 11 7 9 8 5 9 17 10 19 11 20 12
REMARK SMILES IDX 37 13 21 14 36 15 23 16 22 17 24 18 33 19 25 20 31 21 29 22
REMARK SMILES IDX 38 23 34 25 35 26 26 27 27 28 28 29 32 30 30 32 18 34 6 36
REMARK SMILES IDX 7 37 8 38 14 39 15 40 10 41 12 43
REMARK H PARENT 38 24 32 31 30 33 18 35 10 42 12 44
REMARK Flexibility Score: inf
ROOT
ATOM      1  C   UNL     1      21.499  23.934  27.664  1.00  0.00     0.045 C 
ATOM      2  C   UNL     1      22.649  24.911  27.599  1.00  0.00    -0.039 A 
ATOM      3  C   UNL     1      23.898  24.473  27.161  1.00  0.00     0.013 A 
ATOM      4  C   UNL     1      25.019  25.331  27.113  1.00  0.00    -0.006 A 
ATOM      5  C   UNL     1      24.839  26.714  27.430  1.00  0.00     0.039 A 
ATOM      6  C   UNL     1      25.940  27.607  27.255  1.00  0.00     0.072 A 
ATOM      7  C   UNL     1      27.153  27.132  26.715  1.00  0.00     0.169 A 
ATOM      8  C   UNL     1      27.314  25.777  26.415  1.00  0.00     0.162 A 
ATOM      9  C   UNL     1      26.302  24.843  26.718  1.00  0.00     0.008 A 
ATOM     10  C   UNL     1      23.555  27.160  27.870  1.00  0.00     0.132 A 
ATOM     11  C   UNL     1      22.475  26.255  27.966  1.00  0.00     0.031 A 
ENDROOT
BRANCH  11  12
ATOM     12  C   UNL     1      21.142  26.723  28.427  1.00  0.00     0.031 A 
ATOM     13  C   UNL     1      20.075  26.842  27.511  1.00  0.00     0.132 A 
ATOM     14  C   UNL     1      20.945  27.034  29.783  1.00  0.00    -0.039 A 
ATOM     15  C   UNL     1      18.789  27.276  27.954  1.00  0.00     0.039 A 
ATOM     16  C   UNL     1      19.711  27.536  30.200  1.00  0.00     0.013 A 
ATOM     17  C   UNL     1      22.046  26.835  30.797  1.00  0.00     0.045 C 
ATOM     18  C   UNL     1      18.645  27.738  29.297  1.00  0.00    -0.006 A 
ATOM     19  C   UNL     1      17.644  27.277  27.100  1.00  0.00     0.072 A 
ATOM     20  C   UNL     1      17.433  28.365  29.715  1.00  0.00     0.008 A 
ATOM     21  C   UNL     1      16.401  27.725  27.595  1.00  0.00     0.169 A 
ATOM     22  C   UNL     1      16.300  28.267  28.879  1.00  0.00     0.162 A 
BRANCH  13  23
ATOM     23  O   UNL     1      20.301  26.556  26.160  1.00  0.00    -0.507 OA
ATOM     24  H   UNL     1      19.603  26.162  25.541  1.00  0.00     0.293 HD
ENDBRANCH  13  23
BRANCH  19  25
ATOM     25  C   UNL     1      17.694  26.731  25.727  1.00  0.00     0.264 C 
ATOM     26  O   UNL     1      18.091  27.444  24.769  1.00  0.00    -0.298 OA
ENDBRANCH  19  25
BRANCH  20  27
ATOM     27  C   UNL     1      17.336  29.126  31.049  1.00  0.00     0.017 C 
ATOM     28  C   UNL     1      17.210  30.634  30.810  1.00  0.00     0.012 C 
ATOM     29  C   UNL     1      18.480  28.808  32.028  1.00  0.00     0.012 C 
ENDBRANCH  20  27
BRANCH  21  30
ATOM     30  O   UNL     1      15.230  27.625  26.831  1.00  0.00    -0.504 OA
ATOM     31  H   UNL     1      14.298  27.599  27.222  1.00  0.00     0.293 HD
ENDBRANCH  21  30
BRANCH  22  32
ATOM     32  O   UNL     1      15.053  28.691  29.345  1.00  0.00    -0.504 OA
ATOM     33  H   UNL     1      14.760  29.660  29.338  1.00  0.00     0.293 HD
ENDBRANCH  22  32
ENDBRANCH  11  12
BRANCH  10  34
ATOM     34  O   UNL     1      23.343  28.504  28.198  1.00  0.00    -0.507 OA
ATOM     35  H   UNL     1      22.461  28.875  28.528  1.00  0.00     0.293 HD
ENDBRANCH  10  34
BRANCH   9  36
ATOM     36  C   UNL     1      26.595  23.336  26.597  1.00  0.00     0.017 C 
ATOM     37  C   UNL     1      26.488  22.875  25.140  1.00  0.00     0.012 C 
ATOM     38  C   UNL     1      27.937  22.908  27.221  1.00  0.00     0.012 C 
ENDBRANCH   9  36
BRANCH   6  39
ATOM     39  C   UNL     1      25.850  29.037  27.609  1.00  0.00     0.264 C 
ATOM     40  O   UNL     1      26.074  29.420  28.788  1.00  0.00    -0.298 OA
ENDBRANCH   6  39
BRANCH   8  41
ATOM     41  O   UNL     1      28.499  25.349  25.811  1.00  0.00    -0.504 OA
ATOM     42  H   UNL     1      29.264  24.933  26.326  1.00  0.00     0.293 HD
ENDBRANCH   8  41
BRANCH   7  43
ATOM     43  O   UNL     1      28.239  27.987  26.491  1.00  0.00    -0.504 OA
ATOM     44  H   UNL     1      28.941  28.209  27.184  1.00  0.00     0.293 HD
ENDBRANCH   7  43
TORSDOF 11
ENDMDL
MODEL 4
REMARK VINA RESULT:    48.572      2.436      9.106
REMARK INTER + INTRA:          75.825
REMARK INTER:                  75.210
REMARK INTRA:                   0.616
REMARK UNBOUND:                 4.537
REMARK SMILES Cc1cc2c(C(C)C)c(O)c(O)c(C=O)c2c(O)c1-c1c(C)cc2c(C(C)C)c(O)c(O)c(C=O)c2c1O
REMARK SMILES IDX 1 1 2 2 3 3 4 4 16 5 13 6 11 7 9 8 5 9 17 10 19 11 20 12
REMARK SMILES IDX 37 13 21 14 36 15 23 16 22 17 24 18 33 19 25 20 31 21 29 22
REMARK SMILES IDX 38 23 34 25 35 26 26 27 27 28 28 29 32 30 30 32 18 34 6 36
REMARK SMILES IDX 7 37 8 38 14 39 15 40 10 41 12 43
REMARK H PARENT 38 24 32 31 30 33 18 35 10 42 12 44
REMARK Flexibility Score: inf
ROOT
ATOM      1  C   UNL     1      23.631  29.545  28.332  1.00  0.00     0.045 C 
ATOM      2  C   UNL     1      24.100  28.161  27.954  1.00  0.00    -0.039 A 
ATOM      3  C   UNL     1      25.411  27.976  27.515  1.00  0.00     0.013 A 
ATOM      4  C   UNL     1      25.895  26.712  27.113  1.00  0.00    -0.006 A 
ATOM      5  C   UNL     1      25.044  25.572  27.257  1.00  0.00     0.039 A 
ATOM      6  C   UNL     1      25.576  24.277  26.977  1.00  0.00     0.072 A 
ATOM      7  C   UNL     1      26.936  24.135  26.631  1.00  0.00     0.169 A 
ATOM      8  C   UNL     1      27.754  25.259  26.490  1.00  0.00     0.162 A 
ATOM      9  C   UNL     1      27.223  26.560  26.610  1.00  0.00     0.008 A 
ATOM     10  C   UNL     1      23.704  25.765  27.716  1.00  0.00     0.132 A 
ATOM     11  C   UNL     1      23.238  27.056  28.046  1.00  0.00     0.031 A 
ENDROOT
BRANCH  11  12
ATOM     12  C   UNL     1      21.843  27.252  28.520  1.00  0.00     0.031 A 
ATOM     13  C   UNL     1      20.759  27.044  27.640  1.00  0.00     0.132 A 
ATOM     14  C   UNL     1      21.607  27.632  29.852  1.00  0.00    -0.039 A 
ATOM     15  C   UNL     1      19.416  27.215  28.096  1.00  0.00     0.039 A 
ATOM     16  C   UNL     1      20.299  27.880  30.274  1.00  0.00     0.013 A 
ATOM     17  C   UNL     1      22.744  27.779  30.833  1.00  0.00     0.045 C 
ATOM     18  C   UNL     1      19.198  27.753  29.400  1.00  0.00    -0.006 A 
ATOM     19  C   UNL     1      18.285  26.881  27.291  1.00  0.00     0.072 A 
ATOM     20  C   UNL     1      17.883  28.126  29.813  1.00  0.00     0.008 A 
ATOM     21  C   UNL     1      16.982  27.081  27.797  1.00  0.00     0.169 A 
ATOM     22  C   UNL     1      16.786  27.700  29.034  1.00  0.00     0.162 A 
BRANCH  13  23
ATOM     23  O   UNL     1      21.016  26.695  26.310  1.00  0.00    -0.507 OA
ATOM     24  H   UNL     1      21.312  25.773  26.015  1.00  0.00     0.293 HD
ENDBRANCH  13  23
BRANCH  19  25
ATOM     25  C   UNL     1      18.430  26.238  25.969  1.00  0.00     0.264 C 
ATOM     26  O   UNL     1      18.367  26.922  24.914  1.00  0.00    -0.298 OA
ENDBRANCH  19  25
BRANCH  20  27
ATOM     27  C   UNL     1      17.642  28.964  31.081  1.00  0.00     0.017 C 
ATOM     28  C   UNL     1      17.322  30.419  30.723  1.00  0.00     0.012 C 
ATOM     29  C   UNL     1      18.787  28.879  32.107  1.00  0.00     0.012 C 
ENDBRANCH  20  27
BRANCH  21  30
ATOM     30  O   UNL     1      15.850  26.650  27.092  1.00  0.00    -0.504 OA
ATOM     31  H   UNL     1      15.126  27.267  26.750  1.00  0.00     0.293 HD
ENDBRANCH  21  30
BRANCH  22  32
ATOM     32  O   UNL     1      15.485  27.873  29.513  1.00  0.00    -0.504 OA
ATOM     33  H   UNL     1      15.119  27.374  30.314  1.00  0.00     0.293 HD
ENDBRANCH  22  32
ENDBRANCH  11  12
BRANCH  10  34
ATOM     34  O   UNL     1      22.838  24.675  27.860  1.00  0.00    -0.507 OA
ATOM     35  H   UNL     1      21.893  24.650  27.500  1.00  0.00     0.293 HD
ENDBRANCH  10  34
BRANCH   9  36
ATOM     36  C   UNL     1      28.087  27.774  26.219  1.00  0.00     0.017 C 
ATOM     37  C   UNL     1      27.449  28.545  25.059  1.00  0.00     0.012 C 
ATOM     38  C   UNL     1      28.420  28.709  27.397  1.00  0.00     0.012 C 
ENDBRANCH   9  36
BRANCH   6  39
ATOM     39  C   UNL     1      24.747  23.058  27.051  1.00  0.00     0.264 C 
ATOM     40  O   UNL     1      23.803  22.876  26.238  1.00  0.00    -0.298 OA
ENDBRANCH   6  39
BRANCH   8  41
ATOM     41  O   UNL     1      29.114  25.082  26.222  1.00  0.00    -0.504 OA
ATOM     42  H   UNL     1      29.774  25.849  26.181  1.00  0.00     0.293 HD
ENDBRANCH   8  41
BRANCH   7  43
ATOM     43  O   UNL     1      27.503  22.877  26.390  1.00  0.00    -0.504 OA
ATOM     44  H   UNL     1      27.155  22.012  26.780  1.00  0.00     0.293 HD
ENDBRANCH   7  43
TORSDOF 11
ENDMDL
MODEL 5
REMARK VINA RESULT:    49.723      2.465      9.073
REMARK INTER + INTRA:          77.515
REMARK INTER:                  76.184
REMARK INTRA:                   1.331
REMARK UNBOUND:                 4.537
REMARK SMILES Cc1cc2c(C(C)C)c(O)c(O)c(C=O)c2c(O)c1-c1c(C)cc2c(C(C)C)c(O)c(O)c(C=O)c2c1O
REMARK SMILES IDX 1 1 2 2 3 3 4 4 16 5 13 6 11 7 9 8 5 9 17 10 19 11 20 12
REMARK SMILES IDX 37 13 21 14 36 15 23 16 22 17 24 18 33 19 25 20 31 21 29 22
REMARK SMILES IDX 38 23 34 25 35 26 26 27 27 28 28 29 32 30 30 32 18 34 6 36
REMARK SMILES IDX 7 37 8 38 14 39 15 40 10 41 12 43
REMARK H PARENT 38 24 32 31 30 33 18 35 10 42 12 44
REMARK Flexibility Score: inf
ROOT
ATOM      1  C   UNL     1      20.638  24.189  28.033  1.00  0.00     0.045 C 
ATOM      2  C   UNL     1      21.824  25.122  27.975  1.00  0.00    -0.039 A 
ATOM      3  C   UNL     1      23.083  24.613  27.659  1.00  0.00     0.013 A 
ATOM      4  C   UNL     1      24.235  25.430  27.626  1.00  0.00    -0.006 A 
ATOM      5  C   UNL     1      24.085  26.838  27.824  1.00  0.00     0.039 A 
ATOM      6  C   UNL     1      25.226  27.680  27.659  1.00  0.00     0.072 A 
ATOM      7  C   UNL     1      26.454  27.128  27.243  1.00  0.00     0.169 A 
ATOM      8  C   UNL     1      26.587  25.749  27.058  1.00  0.00     0.162 A 
ATOM      9  C   UNL     1      25.523  24.873  27.359  1.00  0.00     0.008 A 
ATOM     10  C   UNL     1      22.790  27.356  28.139  1.00  0.00     0.132 A 
ATOM     11  C   UNL     1      21.675  26.495  28.227  1.00  0.00     0.031 A 
ENDROOT
BRANCH  11  12
ATOM     12  C   UNL     1      20.332  27.039  28.558  1.00  0.00     0.031 A 
ATOM     13  C   UNL     1      19.346  27.155  27.555  1.00  0.00     0.132 A 
ATOM     14  C   UNL     1      20.043  27.425  29.878  1.00  0.00    -0.039 A 
ATOM     15  C   UNL     1      18.049  27.661  27.872  1.00  0.00     0.039 A 
ATOM     16  C   UNL     1      18.804  27.997  30.171  1.00  0.00     0.013 A 
ATOM     17  C   UNL     1      21.052  27.234  30.984  1.00  0.00     0.045 C 
ATOM     18  C   UNL     1      17.822  28.196  29.176  1.00  0.00    -0.006 A 
ATOM     19  C   UNL     1      16.975  27.665  26.930  1.00  0.00     0.072 A 
ATOM     20  C   UNL     1      16.609  28.891  29.466  1.00  0.00     0.008 A 
ATOM     21  C   UNL     1      15.718  28.187  27.302  1.00  0.00     0.169 A 
ATOM     22  C   UNL     1      15.541  28.796  28.548  1.00  0.00     0.162 A 
BRANCH  13  23
ATOM     23  O   UNL     1      19.663  26.792  26.241  1.00  0.00    -0.507 OA
ATOM     24  H   UNL     1      20.407  26.152  25.995  1.00  0.00     0.293 HD
ENDBRANCH  13  23
BRANCH  19  25
ATOM     25  C   UNL     1      17.108  27.049  25.593  1.00  0.00     0.264 C 
ATOM     26  O   UNL     1      17.954  27.485  24.769  1.00  0.00    -0.298 OA
ENDBRANCH  19  25
BRANCH  20  27
ATOM     27  C   UNL     1      16.441  29.721  30.751  1.00  0.00     0.017 C 
ATOM     28  C   UNL     1      15.026  30.300  30.848  1.00  0.00     0.012 C 
ATOM     29  C   UNL     1      17.508  30.819  30.922  1.00  0.00     0.012 C 
ENDBRANCH  20  27
BRANCH  21  30
ATOM     30  O   UNL     1      14.608  28.095  26.454  1.00  0.00    -0.504 OA
ATOM     31  H   UNL     1      13.750  27.615  26.690  1.00  0.00     0.293 HD
ENDBRANCH  21  30
BRANCH  22  32
ATOM     32  O   UNL     1      14.282  29.292  28.893  1.00  0.00    -0.504 OA
ATOM     33  H   UNL     1      13.419  28.809  28.678  1.00  0.00     0.293 HD
ENDBRANCH  22  32
ENDBRANCH  11  12
BRANCH  10  34
ATOM     34  O   UNL     1      22.606  28.728  28.349  1.00  0.00    -0.507 OA
ATOM     35  H   UNL     1      23.086  29.261  29.063  1.00  0.00     0.293 HD
ENDBRANCH  10  34
BRANCH   9  36
ATOM     36  C   UNL     1      25.769  23.353  27.372  1.00  0.00     0.017 C 
ATOM     37  C   UNL     1      26.303  22.875  26.018  1.00  0.00     0.012 C 
ATOM     38  C   UNL     1      26.669  22.875  28.528  1.00  0.00     0.012 C 
ENDBRANCH   9  36
BRANCH   6  39
ATOM     39  C   UNL     1      25.164  29.136  27.898  1.00  0.00     0.264 C 
ATOM     40  O   UNL     1      25.211  29.595  29.069  1.00  0.00    -0.298 OA
ENDBRANCH   6  39
BRANCH   8  41
ATOM     41  O   UNL     1      27.793  25.239  26.571  1.00  0.00    -0.504 OA
ATOM     42  H   UNL     1      28.191  24.363  26.886  1.00  0.00     0.293 HD
ENDBRANCH   8  41
BRANCH   7  43
ATOM     43  O   UNL     1      27.584  27.929  27.031  1.00  0.00    -0.504 OA
ATOM     44  H   UNL     1      28.031  28.054  26.133  1.00  0.00     0.293 HD
ENDBRANCH   7  43
TORSDOF 11
ENDMDL
