MODEL 1
REMARK VINA RESULT:    -4.363      0.000      0.000
REMARK INTER + INTRA:          -8.875
REMARK INTER:                  -7.424
REMARK INTRA:                  -1.451
REMARK UNBOUND:                -1.451
REMARK SMILES CCCCCCCCCCCCCC(=O)[O-]
REMARK SMILES IDX 8 1 9 2 10 3 11 4 12 5 13 6 14 7 15 8 16 9 7 10 6 11 5 12
REMARK SMILES IDX 4 13 3 14 2 15 1 16
REMARK H PARENT
REMARK Flexibility Score: inf
ROOT
ATOM      1  C   UNL     1      41.128 -11.803  30.281  1.00  0.00     0.000 C 
ENDROOT
BRANCH   1   2
ATOM      2  C   UNL     1      41.250 -13.178  29.602  1.00  0.00     0.000 C 
BRANCH   2   3
ATOM      3  C   UNL     1      40.687 -13.185  28.170  1.00  0.00     0.000 C 
BRANCH   3   4
ATOM      4  C   UNL     1      41.783 -13.009  27.106  1.00  0.00     0.000 C 
BRANCH   4   5
ATOM      5  C   UNL     1      41.790 -11.600  26.493  1.00  0.00     0.006 C 
BRANCH   5   6
ATOM      6  C   UNL     1      40.467 -10.853  26.711  1.00  0.00     0.053 C 
BRANCH   6   7
ATOM      7  C   UNL     1      40.333  -9.731  25.731  1.00  0.00     0.041 C 
ATOM      8  O   UNL     1      41.191  -9.577  24.823  1.00  0.00    -0.550 OA
ATOM      9  O   UNL     1      39.232  -8.886  25.789  1.00  0.00    -0.550 OA
ENDBRANCH   6   7
ENDBRANCH   5   6
ENDBRANCH   4   5
ENDBRANCH   3   4
ENDBRANCH   2   3
ENDBRANCH   1   2
BRANCH   1  10
ATOM     10  C   UNL     1      40.453 -11.886  31.660  1.00  0.00     0.000 C 
BRANCH  10  11
ATOM     11  C   UNL     1      39.320 -12.927  31.700  1.00  0.00    -0.000 C 
BRANCH  11  12
ATOM     12  C   UNL     1      37.946 -12.314  31.385  1.00  0.00    -0.000 C 
BRANCH  12  13
ATOM     13  C   UNL     1      37.421 -12.725  29.998  1.00  0.00    -0.000 C 
BRANCH  13  14
ATOM     14  C   UNL     1      37.066 -11.516  29.119  1.00  0.00    -0.000 C 
BRANCH  14  15
ATOM     15  C   UNL     1      37.283 -11.790  27.624  1.00  0.00    -0.003 C 
ATOM     16  C   UNL     1      36.442 -10.850  26.765  1.00  0.00     0.004 C 
ENDBRANCH  14  15
ENDBRANCH  13  14
ENDBRANCH  12  13
ENDBRANCH  11  12
ENDBRANCH  10  11
ENDBRANCH   1  10
TORSDOF 12
ENDMDL
MODEL 2
REMARK VINA RESULT:    -4.356      2.321      4.294
REMARK INTER + INTRA:          -8.862
REMARK INTER:                  -7.355
REMARK INTRA:                  -1.507
REMARK UNBOUND:                -1.451
REMARK SMILES CCCCCCCCCCCCCC(=O)[O-]
REMARK SMILES IDX 8 1 9 2 10 3 11 4 12 5 13 6 14 7 15 8 16 9 7 10 6 11 5 12
REMARK SMILES IDX 4 13 3 14 2 15 1 16
REMARK H PARENT
REMARK Flexibility Score: inf
ROOT
ATOM      1  C   UNL     1      37.370 -11.498  27.897  1.00  0.00     0.000 C 
ENDROOT
BRANCH   1   2
ATOM      2  C   UNL     1      38.729 -12.146  27.581  1.00  0.00     0.000 C 
BRANCH   2   3
ATOM      3  C   UNL     1      39.860 -11.113  27.437  1.00  0.00     0.000 C 
BRANCH   3   4
ATOM      4  C   UNL     1      41.127 -11.712  26.803  1.00  0.00     0.000 C 
BRANCH   4   5
ATOM      5  C   UNL     1      41.339 -13.185  27.184  1.00  0.00     0.006 C 
BRANCH   5   6
ATOM      6  C   UNL     1      42.632 -13.412  27.977  1.00  0.00     0.053 C 
BRANCH   6   7
ATOM      7  C   UNL     1      43.758 -13.752  27.053  1.00  0.00     0.041 C 
ATOM      8  O   UNL     1      44.925 -13.898  27.502  1.00  0.00    -0.550 OA
ATOM      9  O   UNL     1      43.510 -13.958  25.701  1.00  0.00    -0.550 OA
ENDBRANCH   6   7
ENDBRANCH   5   6
ENDBRANCH   4   5
ENDBRANCH   3   4
ENDBRANCH   2   3
ENDBRANCH   1   2
BRANCH   1  10
ATOM     10  C   UNL     1      36.984 -11.633  29.379  1.00  0.00     0.000 C 
BRANCH  10  11
ATOM     11  C   UNL     1      37.640 -12.851  30.050  1.00  0.00    -0.000 C 
BRANCH  11  12
ATOM     12  C   UNL     1      37.720 -12.709  31.579  1.00  0.00    -0.000 C 
BRANCH  12  13
ATOM     13  C   UNL     1      39.115 -12.271  32.059  1.00  0.00    -0.000 C 
BRANCH  13  14
ATOM     14  C   UNL     1      40.231 -12.695  31.092  1.00  0.00    -0.000 C 
BRANCH  14  15
ATOM     15  C   UNL     1      41.257 -11.578  30.849  1.00  0.00    -0.003 C 
ATOM     16  C   UNL     1      41.513 -10.781  32.125  1.00  0.00     0.004 C 
ENDBRANCH  14  15
ENDBRANCH  13  14
ENDBRANCH  12  13
ENDBRANCH  11  12
ENDBRANCH  10  11
ENDBRANCH   1  10
TORSDOF 12
ENDMDL
MODEL 3
REMARK VINA RESULT:    -4.348      1.517      3.551
REMARK INTER + INTRA:          -8.850
REMARK INTER:                  -7.414
REMARK INTRA:                  -1.435
REMARK UNBOUND:                -1.451
REMARK SMILES CCCCCCCCCCCCCC(=O)[O-]
REMARK SMILES IDX 8 1 9 2 10 3 11 4 12 5 13 6 14 7 15 8 16 9 7 10 6 11 5 12
REMARK SMILES IDX 4 13 3 14 2 15 1 16
REMARK H PARENT
REMARK Flexibility Score: inf
ROOT
ATOM      1  C   UNL     1      37.349 -11.464  27.858  1.00  0.00     0.000 C 
ENDROOT
BRANCH   1   2
ATOM      2  C   UNL     1      38.775 -11.937  27.524  1.00  0.00     0.000 C 
BRANCH   2   3
ATOM      3  C   UNL     1      39.798 -10.789  27.531  1.00  0.00     0.000 C 
BRANCH   3   4
ATOM      4  C   UNL     1      40.623 -10.726  26.235  1.00  0.00     0.000 C 
BRANCH   4   5
ATOM      5  C   UNL     1      40.308  -9.478  25.395  1.00  0.00     0.006 C 
BRANCH   5   6
ATOM      6  C   UNL     1      39.024  -8.769  25.846  1.00  0.00     0.053 C 
BRANCH   6   7
ATOM      7  C   UNL     1      37.927  -8.992  24.854  1.00  0.00     0.041 C 
ATOM      8  O   UNL     1      38.170  -8.946  23.620  1.00  0.00    -0.550 OA
ATOM      9  O   UNL     1      36.645  -9.300  25.293  1.00  0.00    -0.550 OA
ENDBRANCH   6   7
ENDBRANCH   5   6
ENDBRANCH   4   5
ENDBRANCH   3   4
ENDBRANCH   2   3
ENDBRANCH   1   2
BRANCH   1  10
ATOM     10  C   UNL     1      36.970 -11.731  29.323  1.00  0.00     0.000 C 
BRANCH  10  11
ATOM     11  C   UNL     1      37.707 -12.947  29.911  1.00  0.00    -0.000 C 
BRANCH  11  12
ATOM     12  C   UNL     1      37.769 -12.911  31.447  1.00  0.00    -0.000 C 
BRANCH  12  13
ATOM     13  C   UNL     1      38.709 -11.812  31.974  1.00  0.00    -0.000 C 
BRANCH  13  14
ATOM     14  C   UNL     1      40.166 -12.284  32.083  1.00  0.00    -0.000 C 
BRANCH  14  15
ATOM     15  C   UNL     1      41.059 -11.706  30.975  1.00  0.00    -0.003 C 
ATOM     16  C   UNL     1      41.533 -12.801  30.024  1.00  0.00     0.004 C 
ENDBRANCH  14  15
ENDBRANCH  13  14
ENDBRANCH  12  13
ENDBRANCH  11  12
ENDBRANCH  10  11
ENDBRANCH   1  10
TORSDOF 12
ENDMDL
MODEL 4
REMARK VINA RESULT:    -4.149     13.484     16.338
REMARK INTER + INTRA:          -8.511
REMARK INTER:                  -7.830
REMARK INTRA:                  -0.681
REMARK UNBOUND:                -1.451
REMARK SMILES CCCCCCCCCCCCCC(=O)[O-]
REMARK SMILES IDX 8 1 9 2 10 3 11 4 12 5 13 6 14 7 15 8 16 9 7 10 6 11 5 12
REMARK SMILES IDX 4 13 3 14 2 15 1 16
REMARK H PARENT
REMARK Flexibility Score: inf
ROOT
ATOM      1  C   UNL     1      45.897   1.494  22.138  1.00  0.00     0.000 C 
ENDROOT
BRANCH   1   2
ATOM      2  C   UNL     1      45.660   0.898  23.537  1.00  0.00     0.000 C 
BRANCH   2   3
ATOM      3  C   UNL     1      44.373   0.060  23.615  1.00  0.00     0.000 C 
BRANCH   3   4
ATOM      4  C   UNL     1      44.016  -0.599  22.272  1.00  0.00     0.000 C 
BRANCH   4   5
ATOM      5  C   UNL     1      42.530  -0.446  21.915  1.00  0.00     0.006 C 
BRANCH   5   6
ATOM      6  C   UNL     1      42.307   0.396  20.652  1.00  0.00     0.053 C 
BRANCH   6   7
ATOM      7  C   UNL     1      41.480  -0.359  19.660  1.00  0.00     0.041 C 
ATOM      8  O   UNL     1      40.758  -1.318  20.036  1.00  0.00    -0.550 OA
ATOM      9  O   UNL     1      41.469   0.030  18.326  1.00  0.00    -0.550 OA
ENDBRANCH   6   7
ENDBRANCH   5   6
ENDBRANCH   4   5
ENDBRANCH   3   4
ENDBRANCH   2   3
ENDBRANCH   1   2
BRANCH   1  10
ATOM     10  C   UNL     1      47.385   1.517  21.754  1.00  0.00     0.000 C 
BRANCH  10  11
ATOM     11  C   UNL     1      47.885   0.153  21.247  1.00  0.00    -0.000 C 
BRANCH  11  12
ATOM     12  C   UNL     1      49.204   0.263  20.465  1.00  0.00    -0.000 C 
BRANCH  12  13
ATOM     13  C   UNL     1      50.370  -0.450  21.171  1.00  0.00    -0.000 C 
BRANCH  13  14
ATOM     14  C   UNL     1      51.171  -1.353  20.222  1.00  0.00    -0.000 C 
BRANCH  14  15
ATOM     15  C   UNL     1      52.026  -0.553  19.228  1.00  0.00    -0.003 C 
ATOM     16  C   UNL     1      51.816  -1.049  17.800  1.00  0.00     0.004 C 
ENDBRANCH  14  15
ENDBRANCH  13  14
ENDBRANCH  12  13
ENDBRANCH  11  12
ENDBRANCH  10  11
ENDBRANCH   1  10
TORSDOF 12
ENDMDL
MODEL 5
REMARK VINA RESULT:    -4.123     13.165     15.648
REMARK INTER + INTRA:          -8.466
REMARK INTER:                  -7.004
REMARK INTRA:                  -1.462
REMARK UNBOUND:                -1.451
REMARK SMILES CCCCCCCCCCCCCC(=O)[O-]
REMARK SMILES IDX 8 1 9 2 10 3 11 4 12 5 13 6 14 7 15 8 16 9 7 10 6 11 5 12
REMARK SMILES IDX 4 13 3 14 2 15 1 16
REMARK H PARENT
REMARK Flexibility Score: inf
ROOT
ATOM      1  C   UNL     1      42.060   0.487  18.122  1.00  0.00     0.000 C 
ENDROOT
BRANCH   1   2
ATOM      2  C   UNL     1      41.191  -0.325  19.098  1.00  0.00     0.000 C 
BRANCH   2   3
ATOM      3  C   UNL     1      42.026  -1.142  20.097  1.00  0.00     0.000 C 
BRANCH   3   4
ATOM      4  C   UNL     1      42.225  -0.411  21.436  1.00  0.00     0.000 C 
BRANCH   4   5
ATOM      5  C   UNL     1      43.666  -0.516  21.957  1.00  0.00     0.006 C 
BRANCH   5   6
ATOM      6  C   UNL     1      43.739  -0.596  23.488  1.00  0.00     0.053 C 
BRANCH   6   7
ATOM      7  C   UNL     1      44.985   0.063  23.987  1.00  0.00     0.041 C 
ATOM      8  O   UNL     1      45.412   1.111  23.436  1.00  0.00    -0.550 OA
ATOM      9  O   UNL     1      45.649  -0.453  25.093  1.00  0.00    -0.550 OA
ENDBRANCH   6   7
ENDBRANCH   5   6
ENDBRANCH   4   5
ENDBRANCH   3   4
ENDBRANCH   2   3
ENDBRANCH   1   2
BRANCH   1  10
ATOM     10  C   UNL     1      42.166   1.968  18.519  1.00  0.00     0.000 C 
BRANCH  10  11
ATOM     11  C   UNL     1      43.561   2.338  19.051  1.00  0.00    -0.000 C 
BRANCH  11  12
ATOM     12  C   UNL     1      43.517   2.896  20.482  1.00  0.00    -0.000 C 
BRANCH  12  13
ATOM     13  C   UNL     1      42.080   3.091  20.995  1.00  0.00    -0.000 C 
BRANCH  13  14
ATOM     14  C   UNL     1      42.034   3.584  22.450  1.00  0.00    -0.000 C 
BRANCH  14  15
ATOM     15  C   UNL     1      40.914   2.919  23.263  1.00  0.00    -0.003 C 
ATOM     16  C   UNL     1      40.099   3.958  24.028  1.00  0.00     0.004 C 
ENDBRANCH  14  15
ENDBRANCH  13  14
ENDBRANCH  12  13
ENDBRANCH  11  12
ENDBRANCH  10  11
ENDBRANCH   1  10
TORSDOF 12
ENDMDL
MODEL 6
REMARK VINA RESULT:    -4.073     13.014     16.526
REMARK INTER + INTRA:          -8.382
REMARK INTER:                  -7.503
REMARK INTRA:                  -0.878
REMARK UNBOUND:                -1.451
REMARK SMILES CCCCCCCCCCCCCC(=O)[O-]
REMARK SMILES IDX 8 1 9 2 10 3 11 4 12 5 13 6 14 7 15 8 16 9 7 10 6 11 5 12
REMARK SMILES IDX 4 13 3 14 2 15 1 16
REMARK H PARENT
REMARK Flexibility Score: inf
ROOT
ATOM      1  C   UNL     1      46.499   1.990  21.535  1.00  0.00     0.000 C 
ENDROOT
BRANCH   1   2
ATOM      2  C   UNL     1      45.175   2.198  22.292  1.00  0.00     0.000 C 
BRANCH   2   3
ATOM      3  C   UNL     1      43.958   1.666  21.517  1.00  0.00     0.000 C 
BRANCH   3   4
ATOM      4  C   UNL     1      43.010   0.840  22.403  1.00  0.00     0.000 C 
BRANCH   4   5
ATOM      5  C   UNL     1      43.532  -0.581  22.662  1.00  0.00     0.006 C 
BRANCH   5   6
ATOM      6  C   UNL     1      43.403  -1.002  24.132  1.00  0.00     0.053 C 
BRANCH   6   7
ATOM      7  C   UNL     1      44.281  -0.154  24.997  1.00  0.00     0.041 C 
ATOM      8  O   UNL     1      43.776   0.717  25.752  1.00  0.00    -0.550 OA
ATOM      9  O   UNL     1      45.655  -0.361  25.006  1.00  0.00    -0.550 OA
ENDBRANCH   6   7
ENDBRANCH   5   6
ENDBRANCH   4   5
ENDBRANCH   3   4
ENDBRANCH   2   3
ENDBRANCH   1   2
BRANCH   1  10
ATOM     10  C   UNL     1      47.102   0.597  21.776  1.00  0.00     0.000 C 
BRANCH  10  11
ATOM     11  C   UNL     1      48.222   0.259  20.777  1.00  0.00    -0.000 C 
BRANCH  11  12
ATOM     12  C   UNL     1      49.620   0.586  21.327  1.00  0.00    -0.000 C 
BRANCH  12  13
ATOM     13  C   UNL     1      50.591  -0.602  21.217  1.00  0.00    -0.000 C 
BRANCH  13  14
ATOM     14  C   UNL     1      50.717  -1.129  19.779  1.00  0.00    -0.000 C 
BRANCH  14  15
ATOM     15  C   UNL     1      52.100  -0.858  19.170  1.00  0.00    -0.003 C 
ATOM     16  C   UNL     1      53.125  -0.538  20.255  1.00  0.00     0.004 C 
ENDBRANCH  14  15
ENDBRANCH  13  14
ENDBRANCH  12  13
ENDBRANCH  11  12
ENDBRANCH  10  11
ENDBRANCH   1  10
TORSDOF 12
ENDMDL
MODEL 7
REMARK VINA RESULT:    -4.071     13.865     15.743
REMARK INTER + INTRA:          -8.378
REMARK INTER:                  -7.723
REMARK INTRA:                  -0.655
REMARK UNBOUND:                -1.451
REMARK SMILES CCCCCCCCCCCCCC(=O)[O-]
REMARK SMILES IDX 8 1 9 2 10 3 11 4 12 5 13 6 14 7 15 8 16 9 7 10 6 11 5 12
REMARK SMILES IDX 4 13 3 14 2 15 1 16
REMARK H PARENT
REMARK Flexibility Score: inf
ROOT
ATOM      1  C   UNL     1      46.049   2.001  22.713  1.00  0.00     0.000 C 
ENDROOT
BRANCH   1   2
ATOM      2  C   UNL     1      47.222   1.873  21.725  1.00  0.00     0.000 C 
BRANCH   2   3
ATOM      3  C   UNL     1      47.533   0.412  21.359  1.00  0.00     0.000 C 
BRANCH   3   4
ATOM      4  C   UNL     1      48.993   0.029  21.656  1.00  0.00     0.000 C 
BRANCH   4   5
ATOM      5  C   UNL     1      49.905   0.181  20.429  1.00  0.00     0.006 C 
BRANCH   5   6
ATOM      6  C   UNL     1      50.503  -1.154  19.966  1.00  0.00     0.053 C 
BRANCH   6   7
ATOM      7  C   UNL     1      51.893  -0.954  19.452  1.00  0.00     0.041 C 
ATOM      8  O   UNL     1      52.177  -1.245  18.262  1.00  0.00    -0.550 OA
ATOM      9  O   UNL     1      52.865  -0.398  20.276  1.00  0.00    -0.550 OA
ENDBRANCH   6   7
ENDBRANCH   5   6
ENDBRANCH   4   5
ENDBRANCH   3   4
ENDBRANCH   2   3
ENDBRANCH   1   2
BRANCH   1  10
ATOM     10  C   UNL     1      45.556   0.636  23.220  1.00  0.00     0.000 C 
BRANCH  10  11
ATOM     11  C   UNL     1      44.229   0.740  23.992  1.00  0.00    -0.000 C 
BRANCH  11  12
ATOM     12  C   UNL     1      43.134  -0.166  23.405  1.00  0.00    -0.000 C 
BRANCH  12  13
ATOM     13  C   UNL     1      43.321  -0.416  21.898  1.00  0.00    -0.000 C 
BRANCH  13  14
ATOM     14  C   UNL     1      42.133   0.089  21.065  1.00  0.00    -0.000 C 
BRANCH  14  15
ATOM     15  C   UNL     1      41.840  -0.807  19.852  1.00  0.00    -0.003 C 
ATOM     16  C   UNL     1      40.663  -1.738  20.129  1.00  0.00     0.004 C 
ENDBRANCH  14  15
ENDBRANCH  13  14
ENDBRANCH  12  13
ENDBRANCH  11  12
ENDBRANCH  10  11
ENDBRANCH   1  10
TORSDOF 12
ENDMDL
MODEL 8
REMARK VINA RESULT:    -4.038      2.062      4.176
REMARK INTER + INTRA:          -8.321
REMARK INTER:                  -6.995
REMARK INTRA:                  -1.326
REMARK UNBOUND:                -1.451
REMARK SMILES CCCCCCCCCCCCCC(=O)[O-]
REMARK SMILES IDX 8 1 9 2 10 3 11 4 12 5 13 6 14 7 15 8 16 9 7 10 6 11 5 12
REMARK SMILES IDX 4 13 3 14 2 15 1 16
REMARK H PARENT
REMARK Flexibility Score: inf
ROOT
ATOM      1  C   UNL     1      37.289 -11.952  29.856  1.00  0.00     0.000 C 
ENDROOT
BRANCH   1   2
ATOM      2  C   UNL     1      37.991 -13.297  30.115  1.00  0.00     0.000 C 
BRANCH   2   3
ATOM      3  C   UNL     1      39.283 -13.145  30.934  1.00  0.00     0.000 C 
BRANCH   3   4
ATOM      4  C   UNL     1      40.470 -13.897  30.308  1.00  0.00     0.000 C 
BRANCH   4   5
ATOM      5  C   UNL     1      41.530 -12.948  29.728  1.00  0.00     0.006 C 
BRANCH   5   6
ATOM      6  C   UNL     1      42.540 -13.669  28.826  1.00  0.00     0.053 C 
BRANCH   6   7
ATOM      7  C   UNL     1      42.292 -13.333  27.390  1.00  0.00     0.041 C 
ATOM      8  O   UNL     1      41.412 -13.953  26.738  1.00  0.00    -0.550 OA
ATOM      9  O   UNL     1      42.998 -12.301  26.785  1.00  0.00    -0.550 OA
ENDBRANCH   6   7
ENDBRANCH   5   6
ENDBRANCH   4   5
ENDBRANCH   3   4
ENDBRANCH   2   3
ENDBRANCH   1   2
BRANCH   1  10
ATOM     10  C   UNL     1      37.267 -11.577  28.366  1.00  0.00     0.000 C 
BRANCH  10  11
ATOM     11  C   UNL     1      38.586 -11.919  27.652  1.00  0.00    -0.000 C 
BRANCH  11  12
ATOM     12  C   UNL     1      39.575 -10.743  27.647  1.00  0.00    -0.000 C 
BRANCH  12  13
ATOM     13  C   UNL     1      40.019 -10.351  26.227  1.00  0.00    -0.000 C 
BRANCH  13  14
ATOM     14  C   UNL     1      39.375  -9.040  25.748  1.00  0.00    -0.000 C 
BRANCH  14  15
ATOM     15  C   UNL     1      37.877  -9.194  25.447  1.00  0.00    -0.003 C 
ATOM     16  C   UNL     1      37.566  -8.818  24.001  1.00  0.00     0.004 C 
ENDBRANCH  14  15
ENDBRANCH  13  14
ENDBRANCH  12  13
ENDBRANCH  11  12
ENDBRANCH  10  11
ENDBRANCH   1  10
TORSDOF 12
ENDMDL
MODEL 9
REMARK VINA RESULT:    -3.949     13.640     15.824
REMARK INTER + INTRA:          -8.170
REMARK INTER:                  -6.464
REMARK INTRA:                  -1.706
REMARK UNBOUND:                -1.451
REMARK SMILES CCCCCCCCCCCCCC(=O)[O-]
REMARK SMILES IDX 8 1 9 2 10 3 11 4 12 5 13 6 14 7 15 8 16 9 7 10 6 11 5 12
REMARK SMILES IDX 4 13 3 14 2 15 1 16
REMARK H PARENT
REMARK Flexibility Score: inf
ROOT
ATOM      1  C   UNL     1      44.362   2.199  20.842  1.00  0.00     0.000 C 
ENDROOT
BRANCH   1   2
ATOM      2  C   UNL     1      45.028   2.788  22.097  1.00  0.00     0.000 C 
BRANCH   2   3
ATOM      3  C   UNL     1      46.434   2.216  22.347  1.00  0.00     0.000 C 
BRANCH   3   4
ATOM      4  C   UNL     1      46.621   0.820  21.729  1.00  0.00     0.000 C 
BRANCH   4   5
ATOM      5  C   UNL     1      47.873   0.731  20.842  1.00  0.00     0.006 C 
BRANCH   5   6
ATOM      6  C   UNL     1      49.039   0.015  21.535  1.00  0.00     0.053 C 
BRANCH   6   7
ATOM      7  C   UNL     1      50.239  -0.015  20.642  1.00  0.00     0.041 C 
ATOM      8  O   UNL     1      50.430   0.907  19.807  1.00  0.00    -0.550 OA
ATOM      9  O   UNL     1      51.172  -1.037  20.765  1.00  0.00    -0.550 OA
ENDBRANCH   6   7
ENDBRANCH   5   6
ENDBRANCH   4   5
ENDBRANCH   3   4
ENDBRANCH   2   3
ENDBRANCH   1   2
BRANCH   1  10
ATOM     10  C   UNL     1      42.828   2.289  20.892  1.00  0.00     0.000 C 
BRANCH  10  11
ATOM     11  C   UNL     1      42.209   1.262  21.855  1.00  0.00    -0.000 C 
BRANCH  11  12
ATOM     12  C   UNL     1      42.904  -0.108  21.782  1.00  0.00    -0.000 C 
BRANCH  12  13
ATOM     13  C   UNL     1      43.416  -0.583  23.152  1.00  0.00    -0.000 C 
BRANCH  13  14
ATOM     14  C   UNL     1      43.116   0.421  24.275  1.00  0.00    -0.000 C 
BRANCH  14  15
ATOM     15  C   UNL     1      44.310   0.625  25.220  1.00  0.00    -0.003 C 
ATOM     16  C   UNL     1      45.411  -0.394  24.940  1.00  0.00     0.004 C 
ENDBRANCH  14  15
ENDBRANCH  13  14
ENDBRANCH  12  13
ENDBRANCH  11  12
ENDBRANCH  10  11
ENDBRANCH   1  10
TORSDOF 12
ENDMDL
