MODEL 1
REMARK VINA RESULT:    -6.153      0.000      0.000
REMARK INTER + INTRA:          -7.595
REMARK INTER:                  -7.412
REMARK INTRA:                  -0.183
REMARK UNBOUND:                -0.183
REMARK SMILES O=c1c(O)c(-c2ccc(O)c(O)c2)oc2cc(O)cc(O)c12
REMARK SMILES IDX 5 1 3 2 2 3 1 4 22 5 20 6 19 7 17 8 16 9 15 10 14 11 6 12
REMARK SMILES IDX 7 13 8 14 9 15 13 16 11 17 10 18 12 20 4 22 21 24 18 26
REMARK H PARENT 10 19 12 21 4 23 21 25 18 27
REMARK Flexibility Score: inf
ROOT
ATOM      1  C   UNL     1      62.119  -7.906  -3.873  1.00  0.00     0.180 A 
ATOM      2  C   UNL     1      62.557  -8.844  -2.922  1.00  0.00     0.208 A 
ATOM      3  C   UNL     1      62.473  -8.520  -1.558  1.00  0.00     0.238 A 
ATOM      4  O   UNL     1      62.814  -9.385  -0.710  1.00  0.00    -0.285 OA
ATOM      5  C   UNL     1      61.969  -7.258  -1.163  1.00  0.00     0.111 A 
ATOM      6  C   UNL     1      61.875  -6.809   0.189  1.00  0.00     0.134 A 
ATOM      7  C   UNL     1      61.240  -5.594   0.471  1.00  0.00     0.093 A 
ATOM      8  C   UNL     1      60.751  -4.781  -0.553  1.00  0.00     0.123 A 
ATOM      9  C   UNL     1      60.891  -5.183  -1.882  1.00  0.00     0.094 A 
ATOM     10  C   UNL     1      61.488  -6.407  -2.192  1.00  0.00     0.146 A 
ATOM     11  O   UNL     1      61.591  -6.757  -3.469  1.00  0.00    -0.452 OA
ENDROOT
BRANCH   1  12
ATOM     12  C   UNL     1      62.199  -8.164  -5.329  1.00  0.00     0.025 A 
ATOM     13  C   UNL     1      61.419  -9.162  -5.939  1.00  0.00     0.016 A 
ATOM     14  C   UNL     1      61.529  -9.405  -7.311  1.00  0.00     0.051 A 
ATOM     15  C   UNL     1      62.428  -8.665  -8.089  1.00  0.00     0.157 A 
ATOM     16  C   UNL     1      63.114  -7.440  -6.111  1.00  0.00     0.062 A 
ATOM     17  C   UNL     1      63.225  -7.683  -7.487  1.00  0.00     0.158 A 
BRANCH  15  18
ATOM     18  O   UNL     1      62.541  -8.903  -9.458  1.00  0.00    -0.504 OA
ATOM     19  H   UNL     1      61.865  -8.534 -10.117  1.00  0.00     0.293 HD
ENDBRANCH  15  18
BRANCH  17  20
ATOM     20  O   UNL     1      64.125  -6.953  -8.262  1.00  0.00    -0.504 OA
ATOM     21  H   UNL     1      64.489  -7.315  -9.134  1.00  0.00     0.293 HD
ENDBRANCH  17  20
ENDBRANCH   1  12
BRANCH   2  22
ATOM     22  O   UNL     1      63.031 -10.092  -3.333  1.00  0.00    -0.502 OA
ATOM     23  H   UNL     1      63.153 -10.334  -4.309  1.00  0.00     0.293 HD
ENDBRANCH   2  22
BRANCH   6  24
ATOM     24  O   UNL     1      62.413  -7.500   1.279  1.00  0.00    -0.507 OA
ATOM     25  H   UNL     1      63.354  -7.388   1.623  1.00  0.00     0.293 HD
ENDBRANCH   6  24
BRANCH   8  26
ATOM     26  O   UNL     1      60.138  -3.571  -0.236  1.00  0.00    -0.508 OA
ATOM     27  H   UNL     1      59.181  -3.377  -0.506  1.00  0.00     0.293 HD
ENDBRANCH   8  26
TORSDOF 6
ENDMDL
MODEL 2
REMARK VINA RESULT:    -5.395      2.343      4.867
REMARK INTER + INTRA:          -6.683
REMARK INTER:                  -6.359
REMARK INTRA:                  -0.323
REMARK UNBOUND:                -0.183
REMARK SMILES O=c1c(O)c(-c2ccc(O)c(O)c2)oc2cc(O)cc(O)c12
REMARK SMILES IDX 5 1 3 2 2 3 1 4 22 5 20 6 19 7 17 8 16 9 15 10 14 11 6 12
REMARK SMILES IDX 7 13 8 14 9 15 13 16 11 17 10 18 12 20 4 22 21 24 18 26
REMARK H PARENT 10 19 12 21 4 23 21 25 18 27
REMARK Flexibility Score: inf
ROOT
ATOM      1  C   UNL     1      61.770  -6.461  -0.418  1.00  0.00     0.180 A 
ATOM      2  C   UNL     1      61.318  -5.133  -0.323  1.00  0.00     0.208 A 
ATOM      3  C   UNL     1      61.013  -4.607   0.943  1.00  0.00     0.238 A 
ATOM      4  O   UNL     1      60.662  -3.402   1.028  1.00  0.00    -0.285 OA
ATOM      5  C   UNL     1      61.147  -5.419   2.095  1.00  0.00     0.111 A 
ATOM      6  C   UNL     1      60.830  -5.003   3.423  1.00  0.00     0.134 A 
ATOM      7  C   UNL     1      61.125  -5.846   4.500  1.00  0.00     0.093 A 
ATOM      8  C   UNL     1      61.667  -7.114   4.296  1.00  0.00     0.123 A 
ATOM      9  C   UNL     1      61.927  -7.555   2.997  1.00  0.00     0.094 A 
ATOM     10  C   UNL     1      61.677  -6.723   1.904  1.00  0.00     0.146 A 
ATOM     11  O   UNL     1      61.948  -7.176   0.686  1.00  0.00    -0.452 OA
ENDROOT
BRANCH   1  12
ATOM     12  C   UNL     1      62.087  -7.093  -1.719  1.00  0.00     0.025 A 
ATOM     13  C   UNL     1      63.379  -7.025  -2.270  1.00  0.00     0.016 A 
ATOM     14  C   UNL     1      63.650  -7.609  -3.511  1.00  0.00     0.051 A 
ATOM     15  C   UNL     1      62.632  -8.255  -4.224  1.00  0.00     0.157 A 
ATOM     16  C   UNL     1      61.067  -7.724  -2.449  1.00  0.00     0.062 A 
ATOM     17  C   UNL     1      61.337  -8.309  -3.694  1.00  0.00     0.158 A 
BRANCH  15  18
ATOM     18  O   UNL     1      62.898  -8.840  -5.461  1.00  0.00    -0.504 OA
ATOM     19  H   UNL     1      62.423  -8.536  -6.304  1.00  0.00     0.293 HD
ENDBRANCH  15  18
BRANCH  17  20
ATOM     20  O   UNL     1      60.324  -8.946  -4.409  1.00  0.00    -0.504 OA
ATOM     21  H   UNL     1      59.347  -8.783  -4.202  1.00  0.00     0.293 HD
ENDBRANCH  17  20
ENDBRANCH   1  12
BRANCH   2  22
ATOM     22  O   UNL     1      61.213  -4.342  -1.470  1.00  0.00    -0.502 OA
ATOM     23  H   UNL     1      62.001  -4.161  -2.080  1.00  0.00     0.293 HD
ENDBRANCH   2  22
BRANCH   6  24
ATOM     24  O   UNL     1      60.200  -3.793   3.731  1.00  0.00    -0.507 OA
ATOM     25  H   UNL     1      59.331  -3.478   3.328  1.00  0.00     0.293 HD
ENDBRANCH   6  24
BRANCH   8  26
ATOM     26  O   UNL     1      61.935  -7.933   5.391  1.00  0.00    -0.508 OA
ATOM     27  H   UNL     1      61.247  -8.083   6.120  1.00  0.00     0.293 HD
ENDBRANCH   8  26
TORSDOF 6
ENDMDL
MODEL 3
REMARK VINA RESULT:    -4.863      2.318      3.857
REMARK INTER + INTRA:          -6.042
REMARK INTER:                  -5.844
REMARK INTRA:                  -0.198
REMARK UNBOUND:                -0.183
REMARK SMILES O=c1c(O)c(-c2ccc(O)c(O)c2)oc2cc(O)cc(O)c12
REMARK SMILES IDX 5 1 3 2 2 3 1 4 22 5 20 6 19 7 17 8 16 9 15 10 14 11 6 12
REMARK SMILES IDX 7 13 8 14 9 15 13 16 11 17 10 18 12 20 4 22 21 24 18 26
REMARK H PARENT 10 19 12 21 4 23 21 25 18 27
REMARK Flexibility Score: inf
ROOT
ATOM      1  C   UNL     1      62.132  -7.346  -0.373  1.00  0.00     0.180 A 
ATOM      2  C   UNL     1      62.390  -8.476   0.422  1.00  0.00     0.208 A 
ATOM      3  C   UNL     1      62.235  -8.378   1.815  1.00  0.00     0.238 A 
ATOM      4  O   UNL     1      62.414  -9.408   2.516  1.00  0.00    -0.285 OA
ATOM      5  C   UNL     1      61.841  -7.149   2.396  1.00  0.00     0.111 A 
ATOM      6  C   UNL     1      61.691  -6.926   3.798  1.00  0.00     0.134 A 
ATOM      7  C   UNL     1      61.171  -5.709   4.251  1.00  0.00     0.093 A 
ATOM      8  C   UNL     1      60.854  -4.683   3.360  1.00  0.00     0.123 A 
ATOM      9  C   UNL     1      61.053  -4.869   1.991  1.00  0.00     0.094 A 
ATOM     10  C   UNL     1      61.537  -6.086   1.506  1.00  0.00     0.146 A 
ATOM     11  O   UNL     1      61.700  -6.226   0.196  1.00  0.00    -0.452 OA
ENDROOT
BRANCH   1  12
ATOM     12  C   UNL     1      62.297  -7.364  -1.844  1.00  0.00     0.025 A 
ATOM     13  C   UNL     1      63.305  -6.614  -2.476  1.00  0.00     0.016 A 
ATOM     14  C   UNL     1      63.426  -6.627  -3.869  1.00  0.00     0.051 A 
ATOM     15  C   UNL     1      62.537  -7.377  -4.648  1.00  0.00     0.157 A 
ATOM     16  C   UNL     1      61.395  -8.096  -2.633  1.00  0.00     0.062 A 
ATOM     17  C   UNL     1      61.517  -8.110  -4.029  1.00  0.00     0.158 A 
BRANCH  15  18
ATOM     18  O   UNL     1      62.656  -7.394  -6.037  1.00  0.00    -0.504 OA
ATOM     19  H   UNL     1      62.965  -6.578  -6.553  1.00  0.00     0.293 HD
ENDBRANCH  15  18
BRANCH  17  20
ATOM     20  O   UNL     1      60.628  -8.849  -4.808  1.00  0.00    -0.504 OA
ATOM     21  H   UNL     1      60.937  -9.358  -5.626  1.00  0.00     0.293 HD
ENDBRANCH  17  20
ENDBRANCH   1  12
BRANCH   2  22
ATOM     22  O   UNL     1      62.757  -9.686  -0.173  1.00  0.00    -0.502 OA
ATOM     23  H   UNL     1      63.627  -9.801  -0.680  1.00  0.00     0.293 HD
ENDBRANCH   2  22
BRANCH   6  24
ATOM     24  O   UNL     1      62.064  -7.850   4.779  1.00  0.00    -0.507 OA
ATOM     25  H   UNL     1      61.832  -8.831   4.762  1.00  0.00     0.293 HD
ENDBRANCH   6  24
BRANCH   8  26
ATOM     26  O   UNL     1      60.352  -3.478   3.849  1.00  0.00    -0.508 OA
ATOM     27  H   UNL     1      59.587  -2.999   3.388  1.00  0.00     0.293 HD
ENDBRANCH   8  26
TORSDOF 6
ENDMDL
MODEL 4
REMARK VINA RESULT:    -4.535      3.392      8.111
REMARK INTER + INTRA:          -5.646
REMARK INTER:                  -6.088
REMARK INTRA:                   0.442
REMARK UNBOUND:                -0.183
REMARK SMILES O=c1c(O)c(-c2ccc(O)c(O)c2)oc2cc(O)cc(O)c12
REMARK SMILES IDX 5 1 3 2 2 3 1 4 22 5 20 6 19 7 17 8 16 9 15 10 14 11 6 12
REMARK SMILES IDX 7 13 8 14 9 15 13 16 11 17 10 18 12 20 4 22 21 24 18 26
REMARK H PARENT 10 19 12 21 4 23 21 25 18 27
REMARK Flexibility Score: inf
ROOT
ATOM      1  C   UNL     1      62.549  -8.247   1.746  1.00  0.00     0.180 A 
ATOM      2  C   UNL     1      63.342  -9.004   0.866  1.00  0.00     0.208 A 
ATOM      3  C   UNL     1      63.365  -8.662  -0.496  1.00  0.00     0.238 A 
ATOM      4  O   UNL     1      64.119  -9.308  -1.269  1.00  0.00    -0.285 OA
ATOM      5  C   UNL     1      62.581  -7.580  -0.963  1.00  0.00     0.111 A 
ATOM      6  C   UNL     1      62.497  -7.169  -2.328  1.00  0.00     0.134 A 
ATOM      7  C   UNL     1      61.794  -6.005  -2.657  1.00  0.00     0.093 A 
ATOM      8  C   UNL     1      61.119  -5.271  -1.682  1.00  0.00     0.123 A 
ATOM      9  C   UNL     1      61.145  -5.696  -0.353  1.00  0.00     0.094 A 
ATOM     10  C   UNL     1      61.868  -6.834   0.011  1.00  0.00     0.146 A 
ATOM     11  O   UNL     1      61.877  -7.198   1.288  1.00  0.00    -0.452 OA
ENDROOT
BRANCH   1  12
ATOM     12  C   UNL     1      62.455  -8.562   3.190  1.00  0.00     0.025 A 
ATOM     13  C   UNL     1      63.017  -9.736   3.721  1.00  0.00     0.016 A 
ATOM     14  C   UNL     1      62.895 -10.024   5.083  1.00  0.00     0.051 A 
ATOM     15  C   UNL     1      62.198  -9.153   5.930  1.00  0.00     0.157 A 
ATOM     16  C   UNL     1      61.739  -7.703   4.040  1.00  0.00     0.062 A 
ATOM     17  C   UNL     1      61.616  -7.992   5.406  1.00  0.00     0.158 A 
BRANCH  15  18
ATOM     18  O   UNL     1      62.075  -9.436   7.289  1.00  0.00    -0.504 OA
ATOM     19  H   UNL     1      62.464 -10.281   7.692  1.00  0.00     0.293 HD
ENDBRANCH  15  18
BRANCH  17  20
ATOM     20  O   UNL     1      60.916  -7.130   6.249  1.00  0.00    -0.504 OA
ATOM     21  H   UNL     1      60.475  -7.460   7.098  1.00  0.00     0.293 HD
ENDBRANCH  17  20
ENDBRANCH   1  12
BRANCH   2  22
ATOM     22  O   UNL     1      64.125 -10.055   1.352  1.00  0.00    -0.502 OA
ATOM     23  H   UNL     1      63.776 -11.004   1.427  1.00  0.00     0.293 HD
ENDBRANCH   2  22
BRANCH   6  24
ATOM     24  O   UNL     1      63.058  -7.883  -3.393  1.00  0.00    -0.507 OA
ATOM     25  H   UNL     1      63.433  -8.816  -3.325  1.00  0.00     0.293 HD
ENDBRANCH   6  24
BRANCH   8  26
ATOM     26  O   UNL     1      60.416  -4.125  -2.049  1.00  0.00    -0.508 OA
ATOM     27  H   UNL     1      59.621  -3.798  -1.512  1.00  0.00     0.293 HD
ENDBRANCH   8  26
TORSDOF 6
ENDMDL
MODEL 5
REMARK VINA RESULT:    -4.532     15.860     16.762
REMARK INTER + INTRA:          -5.643
REMARK INTER:                  -5.358
REMARK INTRA:                  -0.285
REMARK UNBOUND:                -0.183
REMARK SMILES O=c1c(O)c(-c2ccc(O)c(O)c2)oc2cc(O)cc(O)c12
REMARK SMILES IDX 5 1 3 2 2 3 1 4 22 5 20 6 19 7 17 8 16 9 15 10 14 11 6 12
REMARK SMILES IDX 7 13 8 14 9 15 13 16 11 17 10 18 12 20 4 22 21 24 18 26
REMARK H PARENT 10 19 12 21 4 23 21 25 18 27
REMARK Flexibility Score: inf
ROOT
ATOM      1  C   UNL     1      61.711   9.134  -3.618  1.00  0.00     0.180 A 
ATOM      2  C   UNL     1      62.891   8.901  -2.892  1.00  0.00     0.208 A 
ATOM      3  C   UNL     1      62.858   8.991  -1.490  1.00  0.00     0.238 A 
ATOM      4  O   UNL     1      63.905   8.726  -0.843  1.00  0.00    -0.285 OA
ATOM      5  C   UNL     1      61.651   9.330  -0.835  1.00  0.00     0.111 A 
ATOM      6  C   UNL     1      61.511   9.488   0.577  1.00  0.00     0.134 A 
ATOM      7  C   UNL     1      60.241   9.696   1.127  1.00  0.00     0.093 A 
ATOM      8  C   UNL     1      59.114   9.816   0.313  1.00  0.00     0.123 A 
ATOM      9  C   UNL     1      59.248   9.723  -1.073  1.00  0.00     0.094 A 
ATOM     10  C   UNL     1      60.497   9.479  -1.648  1.00  0.00     0.146 A 
ATOM     11  O   UNL     1      60.580   9.386  -2.970  1.00  0.00    -0.452 OA
ENDROOT
BRANCH   1  12
ATOM     12  C   UNL     1      61.673   9.082  -5.097  1.00  0.00     0.025 A 
ATOM     13  C   UNL     1      62.200  10.125  -5.880  1.00  0.00     0.016 A 
ATOM     14  C   UNL     1      62.131  10.065  -7.274  1.00  0.00     0.051 A 
ATOM     15  C   UNL     1      61.524   8.972  -7.905  1.00  0.00     0.157 A 
ATOM     16  C   UNL     1      61.046   8.000  -5.735  1.00  0.00     0.062 A 
ATOM     17  C   UNL     1      60.977   7.939  -7.134  1.00  0.00     0.158 A 
BRANCH  15  18
ATOM     18  O   UNL     1      61.454   8.908  -9.296  1.00  0.00    -0.504 OA
ATOM     19  H   UNL     1      62.260   9.110  -9.877  1.00  0.00     0.293 HD
ENDBRANCH  15  18
BRANCH  17  20
ATOM     20  O   UNL     1      60.366   6.856  -7.764  1.00  0.00    -0.504 OA
ATOM     21  H   UNL     1      59.416   6.910  -8.110  1.00  0.00     0.293 HD
ENDBRANCH  17  20
ENDBRANCH   1  12
BRANCH   2  22
ATOM     22  O   UNL     1      64.068   8.546  -3.557  1.00  0.00    -0.502 OA
ATOM     23  H   UNL     1      64.854   9.179  -3.648  1.00  0.00     0.293 HD
ENDBRANCH   2  22
BRANCH   6  24
ATOM     24  O   UNL     1      62.585   9.478   1.473  1.00  0.00    -0.507 OA
ATOM     25  H   UNL     1      63.359   8.833   1.435  1.00  0.00     0.293 HD
ENDBRANCH   6  24
BRANCH   8  26
ATOM     26  O   UNL     1      57.867  10.039   0.894  1.00  0.00    -0.508 OA
ATOM     27  H   UNL     1      57.013   9.969   0.354  1.00  0.00     0.293 HD
ENDBRANCH   8  26
TORSDOF 6
ENDMDL
MODEL 6
REMARK VINA RESULT:    -4.428     16.319     18.678
REMARK INTER + INTRA:          -5.517
REMARK INTER:                  -5.194
REMARK INTRA:                  -0.323
REMARK UNBOUND:                -0.183
REMARK SMILES O=c1c(O)c(-c2ccc(O)c(O)c2)oc2cc(O)cc(O)c12
REMARK SMILES IDX 5 1 3 2 2 3 1 4 22 5 20 6 19 7 17 8 16 9 15 10 14 11 6 12
REMARK SMILES IDX 7 13 8 14 9 15 13 16 11 17 10 18 12 20 4 22 21 24 18 26
REMARK H PARENT 10 19 12 21 4 23 21 25 18 27
REMARK Flexibility Score: inf
ROOT
ATOM      1  C   UNL     1      61.311   8.718   3.516  1.00  0.00     0.180 A 
ATOM      2  C   UNL     1      59.972   9.145   3.481  1.00  0.00     0.208 A 
ATOM      3  C   UNL     1      59.363   9.373   2.236  1.00  0.00     0.238 A 
ATOM      4  O   UNL     1      58.149   9.702   2.209  1.00  0.00    -0.285 OA
ATOM      5  C   UNL     1      60.105   9.190   1.044  1.00  0.00     0.111 A 
ATOM      6  C   UNL     1      59.601   9.430  -0.269  1.00  0.00     0.134 A 
ATOM      7  C   UNL     1      60.381   9.090  -1.381  1.00  0.00     0.093 A 
ATOM      8  C   UNL     1      61.669   8.578  -1.228  1.00  0.00     0.123 A 
ATOM      9  C   UNL     1      62.194   8.394   0.052  1.00  0.00     0.094 A 
ATOM     10  C   UNL     1      61.427   8.691   1.180  1.00  0.00     0.146 A 
ATOM     11  O   UNL     1      61.959   8.491   2.380  1.00  0.00    -0.452 OA
ENDROOT
BRANCH   1  12
ATOM     12  C   UNL     1      62.028   8.480   4.790  1.00  0.00     0.025 A 
ATOM     13  C   UNL     1      62.623   9.536   5.503  1.00  0.00     0.016 A 
ATOM     14  C   UNL     1      63.315   9.284   6.690  1.00  0.00     0.051 A 
ATOM     15  C   UNL     1      63.436   7.975   7.174  1.00  0.00     0.157 A 
ATOM     16  C   UNL     1      62.171   7.167   5.269  1.00  0.00     0.062 A 
ATOM     17  C   UNL     1      62.866   6.915   6.460  1.00  0.00     0.158 A 
BRANCH  15  18
ATOM     18  O   UNL     1      64.125   7.720   8.359  1.00  0.00    -0.504 OA
ATOM     19  H   UNL     1      63.913   6.911   8.931  1.00  0.00     0.293 HD
ENDBRANCH  15  18
BRANCH  17  20
ATOM     20  O   UNL     1      62.993   5.612   6.939  1.00  0.00    -0.504 OA
ATOM     21  H   UNL     1      62.446   5.280   7.724  1.00  0.00     0.293 HD
ENDBRANCH  17  20
ENDBRANCH   1  12
BRANCH   2  22
ATOM     22  O   UNL     1      59.252   9.299   4.668  1.00  0.00    -0.502 OA
ATOM     23  H   UNL     1      58.790   8.524   5.129  1.00  0.00     0.293 HD
ENDBRANCH   2  22
BRANCH   6  24
ATOM     24  O   UNL     1      58.363  10.024  -0.534  1.00  0.00    -0.507 OA
ATOM     25  H   UNL     1      58.128  10.982  -0.321  1.00  0.00     0.293 HD
ENDBRANCH   6  24
BRANCH   8  26
ATOM     26  O   UNL     1      62.423   8.264  -2.358  1.00  0.00    -0.508 OA
ATOM     27  H   UNL     1      63.297   8.735  -2.558  1.00  0.00     0.293 HD
ENDBRANCH   8  26
TORSDOF 6
ENDMDL
MODEL 7
REMARK VINA RESULT:    -4.204     16.454     17.507
REMARK INTER + INTRA:          -5.248
REMARK INTER:                  -4.954
REMARK INTRA:                  -0.294
REMARK UNBOUND:                -0.183
REMARK SMILES O=c1c(O)c(-c2ccc(O)c(O)c2)oc2cc(O)cc(O)c12
REMARK SMILES IDX 5 1 3 2 2 3 1 4 22 5 20 6 19 7 17 8 16 9 15 10 14 11 6 12
REMARK SMILES IDX 7 13 8 14 9 15 13 16 11 17 10 18 12 20 4 22 21 24 18 26
REMARK H PARENT 10 19 12 21 4 23 21 25 18 27
REMARK Flexibility Score: inf
ROOT
ATOM      1  C   UNL     1      62.115   8.206   3.416  1.00  0.00     0.180 A 
ATOM      2  C   UNL     1      63.046   7.246   3.850  1.00  0.00     0.208 A 
ATOM      3  C   UNL     1      63.030   6.842   5.195  1.00  0.00     0.238 A 
ATOM      4  O   UNL     1      63.829   5.943   5.565  1.00  0.00    -0.285 OA
ATOM      5  C   UNL     1      62.097   7.415   6.092  1.00  0.00     0.111 A 
ATOM      6  C   UNL     1      62.017   7.109   7.484  1.00  0.00     0.134 A 
ATOM      7  C   UNL     1      60.971   7.637   8.249  1.00  0.00     0.093 A 
ATOM      8  C   UNL     1      60.038   8.511   7.688  1.00  0.00     0.123 A 
ATOM      9  C   UNL     1      60.141   8.863   6.342  1.00  0.00     0.094 A 
ATOM     10  C   UNL     1      61.153   8.324   5.545  1.00  0.00     0.146 A 
ATOM     11  O   UNL     1      61.210   8.676   4.266  1.00  0.00    -0.452 OA
ENDROOT
BRANCH   1  12
ATOM     12  C   UNL     1      62.086   8.700   2.021  1.00  0.00     0.025 A 
ATOM     13  C   UNL     1      63.021   9.643   1.559  1.00  0.00     0.016 A 
ATOM     14  C   UNL     1      62.959  10.113   0.244  1.00  0.00     0.051 A 
ATOM     15  C   UNL     1      61.957   9.659  -0.622  1.00  0.00     0.157 A 
ATOM     16  C   UNL     1      61.070   8.265   1.154  1.00  0.00     0.062 A 
ATOM     17  C   UNL     1      61.008   8.736  -0.165  1.00  0.00     0.158 A 
BRANCH  15  18
ATOM     18  O   UNL     1      61.892  10.124  -1.935  1.00  0.00    -0.504 OA
ATOM     19  H   UNL     1      61.006  10.317  -2.386  1.00  0.00     0.293 HD
ENDBRANCH  15  18
BRANCH  17  20
ATOM     20  O   UNL     1      60.006   8.292  -1.026  1.00  0.00    -0.504 OA
ATOM     21  H   UNL     1      59.681   7.333  -1.012  1.00  0.00     0.293 HD
ENDBRANCH  17  20
ENDBRANCH   1  12
BRANCH   2  22
ATOM     22  O   UNL     1      63.945   6.678   2.944  1.00  0.00    -0.502 OA
ATOM     23  H   UNL     1      64.261   7.165   2.113  1.00  0.00     0.293 HD
ENDBRANCH   2  22
BRANCH   6  24
ATOM     24  O   UNL     1      62.951   6.321   8.165  1.00  0.00    -0.507 OA
ATOM     25  H   UNL     1      62.728   5.487   8.687  1.00  0.00     0.293 HD
ENDBRANCH   6  24
BRANCH   8  26
ATOM     26  O   UNL     1      59.018   9.029   8.483  1.00  0.00    -0.508 OA
ATOM     27  H   UNL     1      58.256   8.448   8.812  1.00  0.00     0.293 HD
ENDBRANCH   8  26
TORSDOF 6
ENDMDL
MODEL 8
REMARK VINA RESULT:    -4.179      3.685      9.139
REMARK INTER + INTRA:          -5.218
REMARK INTER:                  -5.318
REMARK INTRA:                   0.100
REMARK UNBOUND:                -0.183
REMARK SMILES O=c1c(O)c(-c2ccc(O)c(O)c2)oc2cc(O)cc(O)c12
REMARK SMILES IDX 5 1 3 2 2 3 1 4 22 5 20 6 19 7 17 8 16 9 15 10 14 11 6 12
REMARK SMILES IDX 7 13 8 14 9 15 13 16 11 17 10 18 12 20 4 22 21 24 18 26
REMARK H PARENT 10 19 12 21 4 23 21 25 18 27
REMARK Flexibility Score: inf
ROOT
ATOM      1  C   UNL     1      61.532  -6.665   2.642  1.00  0.00     0.180 A 
ATOM      2  C   UNL     1      61.163  -5.337   2.367  1.00  0.00     0.208 A 
ATOM      3  C   UNL     1      61.180  -4.887   1.036  1.00  0.00     0.238 A 
ATOM      4  O   UNL     1      60.796  -3.714   0.790  1.00  0.00    -0.285 OA
ATOM      5  C   UNL     1      61.582  -5.764   0.001  1.00  0.00     0.111 A 
ATOM      6  C   UNL     1      61.674  -5.404  -1.377  1.00  0.00     0.134 A 
ATOM      7  C   UNL     1      61.956  -6.389  -2.331  1.00  0.00     0.093 A 
ATOM      8  C   UNL     1      62.212  -7.707  -1.953  1.00  0.00     0.123 A 
ATOM      9  C   UNL     1      62.183  -8.058  -0.603  1.00  0.00     0.094 A 
ATOM     10  C   UNL     1      61.869  -7.105   0.369  1.00  0.00     0.146 A 
ATOM     11  O   UNL     1      61.840  -7.482   1.642  1.00  0.00    -0.452 OA
ENDROOT
BRANCH   1  12
ATOM     12  C   UNL     1      61.563  -7.204   4.020  1.00  0.00     0.025 A 
ATOM     13  C   UNL     1      62.634  -7.995   4.473  1.00  0.00     0.016 A 
ATOM     14  C   UNL     1      62.631  -8.513   5.771  1.00  0.00     0.051 A 
ATOM     15  C   UNL     1      61.553  -8.261   6.629  1.00  0.00     0.157 A 
ATOM     16  C   UNL     1      60.476  -6.973   4.878  1.00  0.00     0.062 A 
ATOM     17  C   UNL     1      60.471  -7.493   6.180  1.00  0.00     0.158 A 
BRANCH  15  18
ATOM     18  O   UNL     1      61.545  -8.776   7.924  1.00  0.00    -0.504 OA
ATOM     19  H   UNL     1      60.879  -9.484   8.210  1.00  0.00     0.293 HD
ENDBRANCH  15  18
BRANCH  17  20
ATOM     20  O   UNL     1      59.396  -7.250   7.033  1.00  0.00    -0.504 OA
ATOM     21  H   UNL     1      58.567  -7.832   7.021  1.00  0.00     0.293 HD
ENDBRANCH  17  20
ENDBRANCH   1  12
BRANCH   2  22
ATOM     22  O   UNL     1      60.750  -4.493   3.401  1.00  0.00    -0.502 OA
ATOM     23  H   UNL     1      61.070  -3.535   3.483  1.00  0.00     0.293 HD
ENDBRANCH   2  22
BRANCH   6  24
ATOM     24  O   UNL     1      61.528  -4.097  -1.853  1.00  0.00    -0.507 OA
ATOM     25  H   UNL     1      60.648  -3.671  -2.100  1.00  0.00     0.293 HD
ENDBRANCH   6  24
BRANCH   8  26
ATOM     26  O   UNL     1      62.504  -8.658  -2.929  1.00  0.00    -0.508 OA
ATOM     27  H   UNL     1      63.157  -9.412  -2.753  1.00  0.00     0.293 HD
ENDBRANCH   8  26
TORSDOF 6
ENDMDL
