MODEL 1
REMARK VINA RESULT:   105.938      0.000      0.000
REMARK INTER + INTRA:         109.034
REMARK INTER:                 109.034
REMARK INTRA:                   0.000
REMARK UNBOUND:                 0.000
REMARK SMILES CC1(C)CC[C@]2(C)CC[C@]3(C)C(=CC[C@H]4[C@@]5(C)CC[C@H](O)C(C)(C)[C@H]5CC[C@]43C)[C@H]2C1
REMARK SMILES IDX 1 1 2 2 4 3 5 4 6 5 8 6 9 7 10 8 12 9 13 10 14 11 15 12
REMARK SMILES IDX 28 13 27 14 26 15 25 16 16 17 18 18 19 19 20 20 22 21 23 22
REMARK SMILES IDX 24 23 17 24 29 25 30 26 31 27 11 28 7 29 3 30 21 31
REMARK H PARENT 21 32
REMARK Flexibility Score: inf
ROOT
ATOM      1  C   UNL     1     -28.553  26.688   7.337  1.00  0.00     0.011 C 
ATOM      2  C   UNL     1     -28.900  26.122   5.938  1.00  0.00    -0.035 C 
ATOM      3  C   UNL     1     -28.960  27.262   4.884  1.00  0.00     0.007 C 
ATOM      4  C   UNL     1     -30.203  28.162   5.024  1.00  0.00     0.008 C 
ATOM      5  C   UNL     1     -31.544  27.373   5.034  1.00  0.00    -0.026 C 
ATOM      6  C   UNL     1     -32.694  28.361   5.387  1.00  0.00     0.008 C 
ATOM      7  C   UNL     1     -34.057  27.678   5.679  1.00  0.00     0.012 C 
ATOM      8  C   UNL     1     -34.014  26.484   6.706  1.00  0.00    -0.006 C 
ATOM      9  C   UNL     1     -32.845  25.589   6.254  1.00  0.00    -0.064 C 
ATOM     10  C   UNL     1     -33.048  24.393   5.665  1.00  0.00    -0.027 C 
ATOM     11  C   UNL     1     -34.380  23.758   5.459  1.00  0.00     0.032 C 
ATOM     12  C   UNL     1     -35.587  24.730   5.533  1.00  0.00     0.006 C 
ATOM     13  C   UNL     1     -35.429  25.696   6.767  1.00  0.00    -0.020 C 
ATOM     14  C   UNL     1     -35.547  24.838   8.073  1.00  0.00     0.008 C 
ATOM     15  C   UNL     1     -36.417  23.565   7.993  1.00  0.00     0.005 C 
ATOM     16  C   UNL     1     -37.532  23.556   6.910  1.00  0.00     0.003 C 
ATOM     17  C   UNL     1     -37.008  23.975   5.458  1.00  0.00    -0.025 C 
ATOM     18  C   UNL     1     -36.919  22.706   4.547  1.00  0.00     0.010 C 
ATOM     19  C   UNL     1     -38.222  21.888   4.422  1.00  0.00     0.033 C 
ATOM     20  C   UNL     1     -39.171  21.992   5.638  1.00  0.00     0.120 C 
ATOM     21  C   UNL     1     -38.411  22.226   6.977  1.00  0.00    -0.006 C 
ATOM     22  C   UNL     1     -37.581  20.949   7.307  1.00  0.00     0.014 C 
ATOM     23  C   UNL     1     -39.470  22.356   8.106  1.00  0.00     0.014 C 
ATOM     24  C   UNL     1     -38.033  24.948   4.753  1.00  0.00     0.012 C 
ATOM     25  C   UNL     1     -36.580  26.756   6.789  1.00  0.00     0.012 C 
ATOM     26  C   UNL     1     -31.477  26.275   6.135  1.00  0.00     0.022 C 
ATOM     27  C   UNL     1     -30.246  25.344   5.964  1.00  0.00     0.015 C 
ATOM     28  C   UNL     1     -33.675  27.062   8.125  1.00  0.00     0.017 C 
ATOM     29  C   UNL     1     -31.810  26.780   3.621  1.00  0.00     0.012 C 
ATOM     30  C   UNL     1     -27.775  25.142   5.541  1.00  0.00     0.011 C 
ENDROOT
BRANCH  20  31
ATOM     31  O   UNL     1     -40.124  23.007   5.436  1.00  0.00    -0.393 OA
ATOM     32  H   UNL     1     -41.012  22.567   5.376  1.00  0.00     0.210 HD
ENDBRANCH  20  31
TORSDOF 1
ENDMDL
MODEL 2
REMARK VINA RESULT:   108.478      1.451      3.502
REMARK INTER + INTRA:         111.648
REMARK INTER:                 111.648
REMARK INTRA:                   0.000
REMARK UNBOUND:                 0.000
REMARK SMILES CC1(C)CC[C@]2(C)CC[C@]3(C)C(=CC[C@H]4[C@@]5(C)CC[C@H](O)C(C)(C)[C@H]5CC[C@]43C)[C@H]2C1
REMARK SMILES IDX 1 1 2 2 4 3 5 4 6 5 8 6 9 7 10 8 12 9 13 10 14 11 15 12
REMARK SMILES IDX 28 13 27 14 26 15 25 16 16 17 18 18 19 19 20 20 22 21 23 22
REMARK SMILES IDX 24 23 17 24 29 25 30 26 31 27 11 28 7 29 3 30 21 31
REMARK H PARENT 21 32
REMARK Flexibility Score: inf
ROOT
ATOM      1  C   UNL     1     -28.457  27.461   4.061  1.00  0.00     0.011 C 
ATOM      2  C   UNL     1     -29.067  27.859   5.427  1.00  0.00    -0.035 C 
ATOM      3  C   UNL     1     -28.323  27.145   6.589  1.00  0.00     0.007 C 
ATOM      4  C   UNL     1     -28.637  25.640   6.687  1.00  0.00     0.008 C 
ATOM      5  C   UNL     1     -30.159  25.326   6.755  1.00  0.00    -0.026 C 
ATOM      6  C   UNL     1     -30.350  23.786   6.639  1.00  0.00     0.008 C 
ATOM      7  C   UNL     1     -31.822  23.336   6.443  1.00  0.00     0.012 C 
ATOM      8  C   UNL     1     -32.616  24.082   5.304  1.00  0.00    -0.006 C 
ATOM      9  C   UNL     1     -32.346  25.582   5.525  1.00  0.00    -0.064 C 
ATOM     10  C   UNL     1     -33.290  26.413   6.012  1.00  0.00    -0.027 C 
ATOM     11  C   UNL     1     -34.698  26.026   6.309  1.00  0.00     0.032 C 
ATOM     12  C   UNL     1     -34.937  24.502   6.474  1.00  0.00     0.006 C 
ATOM     13  C   UNL     1     -34.193  23.711   5.332  1.00  0.00    -0.020 C 
ATOM     14  C   UNL     1     -34.885  24.062   3.970  1.00  0.00     0.008 C 
ATOM     15  C   UNL     1     -36.384  24.429   4.024  1.00  0.00     0.005 C 
ATOM     16  C   UNL     1     -37.191  23.860   5.224  1.00  0.00     0.003 C 
ATOM     17  C   UNL     1     -36.492  24.122   6.639  1.00  0.00    -0.025 C 
ATOM     18  C   UNL     1     -37.264  25.250   7.403  1.00  0.00     0.010 C 
ATOM     19  C   UNL     1     -38.775  25.003   7.598  1.00  0.00     0.033 C 
ATOM     20  C   UNL     1     -39.431  24.112   6.518  1.00  0.00     0.120 C 
ATOM     21  C   UNL     1     -38.738  24.240   5.129  1.00  0.00    -0.006 C 
ATOM     22  C   UNL     1     -38.992  25.676   4.578  1.00  0.00     0.014 C 
ATOM     23  C   UNL     1     -39.455  23.270   4.150  1.00  0.00     0.014 C 
ATOM     24  C   UNL     1     -36.580  22.837   7.552  1.00  0.00     0.012 C 
ATOM     25  C   UNL     1     -34.330  22.167   5.550  1.00  0.00     0.012 C 
ATOM     26  C   UNL     1     -30.871  26.007   5.551  1.00  0.00     0.022 C 
ATOM     27  C   UNL     1     -30.586  27.531   5.482  1.00  0.00     0.015 C 
ATOM     28  C   UNL     1     -32.004  23.668   3.920  1.00  0.00     0.017 C 
ATOM     29  C   UNL     1     -30.727  25.799   8.124  1.00  0.00     0.012 C 
ATOM     30  C   UNL     1     -28.888  29.383   5.591  1.00  0.00     0.011 C 
ENDROOT
BRANCH  20  31
ATOM     31  O   UNL     1     -39.447  22.766   6.930  1.00  0.00    -0.393 OA
ATOM     32  H   UNL     1     -40.145  22.683   7.631  1.00  0.00     0.210 HD
ENDBRANCH  20  31
TORSDOF 1
ENDMDL
