MODEL 1
REMARK VINA RESULT:    -6.552      0.000      0.000
REMARK INTER + INTRA:          -8.296
REMARK INTER:                  -7.892
REMARK INTRA:                  -0.404
REMARK UNBOUND:                -0.404
REMARK SMILES O=c1c(O)c(-c2ccc(O)cc2O)oc2cc(O)cc(O)c12
REMARK SMILES IDX 5 1 3 2 2 3 1 4 22 5 20 6 19 7 17 8 16 9 15 10 14 11 6 12
REMARK SMILES IDX 8 13 7 14 9 15 11 16 12 17 10 18 13 20 4 22 21 24 18 26
REMARK H PARENT 10 19 13 21 4 23 21 25 18 27
REMARK Flexibility Score: inf
ROOT
ATOM      1  C   UNL     1      68.188  48.044   9.051  1.00  0.00     0.184 A 
ATOM      2  C   UNL     1      67.198  48.884   9.590  1.00  0.00     0.208 A 
ATOM      3  C   UNL     1      65.866  48.446   9.596  1.00  0.00     0.238 A 
ATOM      4  O   UNL     1      64.969  49.193  10.074  1.00  0.00    -0.285 OA
ATOM      5  C   UNL     1      65.548  47.176   9.070  1.00  0.00     0.111 A 
ATOM      6  C   UNL     1      64.231  46.658   9.039  1.00  0.00     0.134 A 
ATOM      7  C   UNL     1      63.998  45.384   8.503  1.00  0.00     0.093 A 
ATOM      8  C   UNL     1      65.051  44.619   7.996  1.00  0.00     0.123 A 
ATOM      9  C   UNL     1      66.354  45.125   8.022  1.00  0.00     0.094 A 
ATOM     10  C   UNL     1      66.609  46.394   8.553  1.00  0.00     0.146 A 
ATOM     11  O   UNL     1      67.855  46.852   8.564  1.00  0.00    -0.451 OA
ENDROOT
BRANCH   1  12
ATOM     12  C   UNL     1      69.606  48.459   9.001  1.00  0.00     0.063 A 
ATOM     13  C   UNL     1      71.776  48.601  10.094  1.00  0.00     0.047 A 
ATOM     14  C   UNL     1      70.447  48.172  10.091  1.00  0.00     0.020 A 
ATOM     15  C   UNL     1      72.282  49.329   9.011  1.00  0.00     0.119 A 
ATOM     16  C   UNL     1      71.454  49.621   7.925  1.00  0.00     0.093 A 
ATOM     17  C   UNL     1      70.122  49.188   7.905  1.00  0.00     0.130 A 
BRANCH  15  18
ATOM     18  O   UNL     1      73.605  49.766   9.006  1.00  0.00    -0.508 OA
ATOM     19  H   UNL     1      74.349  49.198   8.621  1.00  0.00     0.293 HD
ENDBRANCH  15  18
BRANCH  17  20
ATOM     20  O   UNL     1      69.352  49.478   6.777  1.00  0.00    -0.507 OA
ATOM     21  H   UNL     1      68.377  49.746   6.829  1.00  0.00     0.293 HD
ENDBRANCH  17  20
ENDBRANCH   1  12
BRANCH   2  22
ATOM     22  O   UNL     1      67.550  50.127  10.125  1.00  0.00    -0.502 OA
ATOM     23  H   UNL     1      67.349  50.997   9.649  1.00  0.00     0.293 HD
ENDBRANCH   2  22
BRANCH   6  24
ATOM     24  O   UNL     1      63.158  47.396   9.538  1.00  0.00    -0.507 OA
ATOM     25  H   UNL     1      62.723  48.137   8.999  1.00  0.00     0.293 HD
ENDBRANCH   6  24
BRANCH   8  26
ATOM     26  O   UNL     1      64.791  43.356   7.469  1.00  0.00    -0.508 OA
ATOM     27  H   UNL     1      65.541  42.732   7.194  1.00  0.00     0.293 HD
ENDBRANCH   8  26
TORSDOF 6
ENDMDL
MODEL 2
REMARK VINA RESULT:    -6.058      2.092      6.948
REMARK INTER + INTRA:          -7.701
REMARK INTER:                  -7.327
REMARK INTRA:                  -0.374
REMARK UNBOUND:                -0.404
REMARK SMILES O=c1c(O)c(-c2ccc(O)cc2O)oc2cc(O)cc(O)c12
REMARK SMILES IDX 5 1 3 2 2 3 1 4 22 5 20 6 19 7 17 8 16 9 15 10 14 11 6 12
REMARK SMILES IDX 8 13 7 14 9 15 11 16 12 17 10 18 13 20 4 22 21 24 18 26
REMARK H PARENT 10 19 13 21 4 23 21 25 18 27
REMARK Flexibility Score: inf
ROOT
ATOM      1  C   UNL     1      69.401  48.085   8.205  1.00  0.00     0.184 A 
ATOM      2  C   UNL     1      69.658  48.329   6.845  1.00  0.00     0.208 A 
ATOM      3  C   UNL     1      70.982  48.275   6.384  1.00  0.00     0.238 A 
ATOM      4  O   UNL     1      71.224  48.496   5.166  1.00  0.00    -0.285 OA
ATOM      5  C   UNL     1      72.022  47.971   7.288  1.00  0.00     0.111 A 
ATOM      6  C   UNL     1      73.382  47.894   6.905  1.00  0.00     0.134 A 
ATOM      7  C   UNL     1      74.357  47.582   7.863  1.00  0.00     0.093 A 
ATOM      8  C   UNL     1      74.001  47.348   9.193  1.00  0.00     0.123 A 
ATOM      9  C   UNL     1      72.659  47.423   9.578  1.00  0.00     0.094 A 
ATOM     10  C   UNL     1      71.671  47.732   8.638  1.00  0.00     0.146 A 
ATOM     11  O   UNL     1      70.404  47.800   9.030  1.00  0.00    -0.451 OA
ENDROOT
BRANCH   1  12
ATOM     12  C   UNL     1      68.029  48.146   8.752  1.00  0.00     0.063 A 
ATOM     13  C   UNL     1      65.795  47.189   8.889  1.00  0.00     0.047 A 
ATOM     14  C   UNL     1      67.113  47.128   8.432  1.00  0.00     0.020 A 
ATOM     15  C   UNL     1      65.371  48.272   9.667  1.00  0.00     0.119 A 
ATOM     16  C   UNL     1      66.273  49.289   9.989  1.00  0.00     0.093 A 
ATOM     17  C   UNL     1      67.599  49.235   9.546  1.00  0.00     0.130 A 
BRANCH  15  18
ATOM     18  O   UNL     1      64.057  48.345  10.125  1.00  0.00    -0.508 OA
ATOM     19  H   UNL     1      63.353  48.880   9.631  1.00  0.00     0.293 HD
ENDBRANCH  15  18
BRANCH  17  20
ATOM     20  O   UNL     1      68.465  50.262   9.928  1.00  0.00    -0.507 OA
ATOM     21  H   UNL     1      68.461  50.670  10.854  1.00  0.00     0.293 HD
ENDBRANCH  17  20
ENDBRANCH   1  12
BRANCH   2  22
ATOM     22  O   UNL     1      68.602  48.604   5.972  1.00  0.00    -0.502 OA
ATOM     23  H   UNL     1      68.470  49.516   5.552  1.00  0.00     0.293 HD
ENDBRANCH   2  22
BRANCH   6  24
ATOM     24  O   UNL     1      73.770  48.123   5.585  1.00  0.00    -0.507 OA
ATOM     25  H   UNL     1      74.623  48.622   5.358  1.00  0.00     0.293 HD
ENDBRANCH   6  24
BRANCH   8  26
ATOM     26  O   UNL     1      74.990  47.040  10.125  1.00  0.00    -0.508 OA
ATOM     27  H   UNL     1      75.916  46.744   9.836  1.00  0.00     0.293 HD
ENDBRANCH   8  26
TORSDOF 6
ENDMDL
MODEL 3
REMARK VINA RESULT:    -5.939      2.815      3.798
REMARK INTER + INTRA:          -7.558
REMARK INTER:                  -7.180
REMARK INTRA:                  -0.378
REMARK UNBOUND:                -0.404
REMARK SMILES O=c1c(O)c(-c2ccc(O)cc2O)oc2cc(O)cc(O)c12
REMARK SMILES IDX 5 1 3 2 2 3 1 4 22 5 20 6 19 7 17 8 16 9 15 10 14 11 6 12
REMARK SMILES IDX 8 13 7 14 9 15 11 16 12 17 10 18 13 20 4 22 21 24 18 26
REMARK H PARENT 10 19 13 21 4 23 21 25 18 27
REMARK Flexibility Score: inf
ROOT
ATOM      1  C   UNL     1      70.326  47.703   7.204  1.00  0.00     0.184 A 
ATOM      2  C   UNL     1      70.446  48.692   8.196  1.00  0.00     0.208 A 
ATOM      3  C   UNL     1      69.288  49.141   8.849  1.00  0.00     0.238 A 
ATOM      4  O   UNL     1      69.383  50.030   9.739  1.00  0.00    -0.285 OA
ATOM      5  C   UNL     1      68.036  48.591   8.504  1.00  0.00     0.111 A 
ATOM      6  C   UNL     1      66.822  48.987   9.114  1.00  0.00     0.134 A 
ATOM      7  C   UNL     1      65.617  48.388   8.717  1.00  0.00     0.093 A 
ATOM      8  C   UNL     1      65.602  47.407   7.724  1.00  0.00     0.123 A 
ATOM      9  C   UNL     1      66.797  47.012   7.116  1.00  0.00     0.094 A 
ATOM     10  C   UNL     1      68.010  47.596   7.498  1.00  0.00     0.146 A 
ATOM     11  O   UNL     1      69.131  47.205   6.903  1.00  0.00    -0.451 OA
ENDROOT
BRANCH   1  12
ATOM     12  C   UNL     1      71.508  47.203   6.469  1.00  0.00     0.063 A 
ATOM     13  C   UNL     1      73.526  45.843   6.447  1.00  0.00     0.047 A 
ATOM     14  C   UNL     1      72.372  46.289   7.096  1.00  0.00     0.020 A 
ATOM     15  C   UNL     1      73.835  46.311   5.164  1.00  0.00     0.119 A 
ATOM     16  C   UNL     1      72.984  47.222   4.535  1.00  0.00     0.093 A 
ATOM     17  C   UNL     1      71.819  47.669   5.171  1.00  0.00     0.130 A 
BRANCH  15  18
ATOM     18  O   UNL     1      74.985  45.876   4.509  1.00  0.00    -0.508 OA
ATOM     19  H   UNL     1      75.003  45.006   3.991  1.00  0.00     0.293 HD
ENDBRANCH  15  18
BRANCH  17  20
ATOM     20  O   UNL     1      70.988  48.552   4.479  1.00  0.00    -0.507 OA
ATOM     21  H   UNL     1      71.324  49.407   4.055  1.00  0.00     0.293 HD
ENDBRANCH  17  20
ENDBRANCH   1  12
BRANCH   2  22
ATOM     22  O   UNL     1      71.705  49.199   8.531  1.00  0.00    -0.502 OA
ATOM     23  H   UNL     1      72.118  49.985   8.046  1.00  0.00     0.293 HD
ENDBRANCH   2  22
BRANCH   6  24
ATOM     24  O   UNL     1      66.804  49.964  10.110  1.00  0.00    -0.507 OA
ATOM     25  H   UNL     1      66.816  50.952   9.886  1.00  0.00     0.293 HD
ENDBRANCH   6  24
BRANCH   8  26
ATOM     26  O   UNL     1      64.391  46.828   7.349  1.00  0.00    -0.508 OA
ATOM     27  H   UNL     1      63.600  47.394   7.063  1.00  0.00     0.293 HD
ENDBRANCH   8  26
TORSDOF 6
ENDMDL
MODEL 4
REMARK VINA RESULT:    -5.804      5.191      8.735
REMARK INTER + INTRA:          -7.395
REMARK INTER:                  -6.989
REMARK INTRA:                  -0.406
REMARK UNBOUND:                -0.404
REMARK SMILES O=c1c(O)c(-c2ccc(O)cc2O)oc2cc(O)cc(O)c12
REMARK SMILES IDX 5 1 3 2 2 3 1 4 22 5 20 6 19 7 17 8 16 9 15 10 14 11 6 12
REMARK SMILES IDX 8 13 7 14 9 15 11 16 12 17 10 18 13 20 4 22 21 24 18 26
REMARK H PARENT 10 19 13 21 4 23 21 25 18 27
REMARK Flexibility Score: inf
ROOT
ATOM      1  C   UNL     1      71.559  44.017   6.232  1.00  0.00     0.184 A 
ATOM      2  C   UNL     1      71.882  44.431   4.929  1.00  0.00     0.208 A 
ATOM      3  C   UNL     1      72.599  45.624   4.754  1.00  0.00     0.238 A 
ATOM      4  O   UNL     1      72.892  46.007   3.589  1.00  0.00    -0.285 OA
ATOM      5  C   UNL     1      72.985  46.376   5.884  1.00  0.00     0.111 A 
ATOM      6  C   UNL     1      73.711  47.588   5.796  1.00  0.00     0.134 A 
ATOM      7  C   UNL     1      74.061  48.275   6.967  1.00  0.00     0.093 A 
ATOM      8  C   UNL     1      73.699  47.777   8.221  1.00  0.00     0.123 A 
ATOM      9  C   UNL     1      72.981  46.581   8.315  1.00  0.00     0.094 A 
ATOM     10  C   UNL     1      72.623  45.880   7.159  1.00  0.00     0.146 A 
ATOM     11  O   UNL     1      71.939  44.748   7.276  1.00  0.00    -0.451 OA
ENDROOT
BRANCH   1  12
ATOM     12  C   UNL     1      70.789  42.778   6.477  1.00  0.00     0.063 A 
ATOM     13  C   UNL     1      70.773  40.370   6.832  1.00  0.00     0.047 A 
ATOM     14  C   UNL     1      71.476  41.564   6.655  1.00  0.00     0.020 A 
ATOM     15  C   UNL     1      69.374  40.372   6.828  1.00  0.00     0.119 A 
ATOM     16  C   UNL     1      68.683  41.573   6.650  1.00  0.00     0.093 A 
ATOM     17  C   UNL     1      69.375  42.777   6.481  1.00  0.00     0.130 A 
BRANCH  15  18
ATOM     18  O   UNL     1      68.663  39.186   7.000  1.00  0.00    -0.508 OA
ATOM     19  H   UNL     1      68.951  38.488   7.674  1.00  0.00     0.293 HD
ENDBRANCH  15  18
BRANCH  17  20
ATOM     20  O   UNL     1      68.632  43.952   6.343  1.00  0.00    -0.507 OA
ATOM     21  H   UNL     1      68.599  44.485   5.483  1.00  0.00     0.293 HD
ENDBRANCH  17  20
ENDBRANCH   1  12
BRANCH   2  22
ATOM     22  O   UNL     1      71.505  43.651   3.832  1.00  0.00    -0.502 OA
ATOM     23  H   UNL     1      70.546  43.595   3.511  1.00  0.00     0.293 HD
ENDBRANCH   2  22
BRANCH   6  24
ATOM     24  O   UNL     1      74.088  48.111   4.559  1.00  0.00    -0.507 OA
ATOM     25  H   UNL     1      74.725  48.895   4.484  1.00  0.00     0.293 HD
ENDBRANCH   6  24
BRANCH   8  26
ATOM     26  O   UNL     1      74.060  48.480   9.369  1.00  0.00    -0.508 OA
ATOM     27  H   UNL     1      73.362  48.867   9.994  1.00  0.00     0.293 HD
ENDBRANCH   8  26
TORSDOF 6
ENDMDL
MODEL 5
REMARK VINA RESULT:    -5.770      2.074      7.025
REMARK INTER + INTRA:          -7.354
REMARK INTER:                  -7.486
REMARK INTRA:                   0.132
REMARK UNBOUND:                -0.404
REMARK SMILES O=c1c(O)c(-c2ccc(O)cc2O)oc2cc(O)cc(O)c12
REMARK SMILES IDX 5 1 3 2 2 3 1 4 22 5 20 6 19 7 17 8 16 9 15 10 14 11 6 12
REMARK SMILES IDX 8 13 7 14 9 15 11 16 12 17 10 18 13 20 4 22 21 24 18 26
REMARK H PARENT 10 19 13 21 4 23 21 25 18 27
REMARK Flexibility Score: inf
ROOT
ATOM      1  C   UNL     1      64.605  45.960   8.871  1.00  0.00     0.184 A 
ATOM      2  C   UNL     1      64.377  47.195   9.502  1.00  0.00     0.208 A 
ATOM      3  C   UNL     1      65.390  48.166   9.479  1.00  0.00     0.238 A 
ATOM      4  O   UNL     1      65.197  49.276  10.046  1.00  0.00    -0.285 OA
ATOM      5  C   UNL     1      66.606  47.887   8.821  1.00  0.00     0.111 A 
ATOM      6  C   UNL     1      67.677  48.811   8.750  1.00  0.00     0.134 A 
ATOM      7  C   UNL     1      68.853  48.459   8.073  1.00  0.00     0.093 A 
ATOM      8  C   UNL     1      68.982  47.207   7.469  1.00  0.00     0.123 A 
ATOM      9  C   UNL     1      67.929  46.290   7.536  1.00  0.00     0.094 A 
ATOM     10  C   UNL     1      66.746  46.620   8.206  1.00  0.00     0.146 A 
ATOM     11  O   UNL     1      65.762  45.730   8.258  1.00  0.00    -0.451 OA
ENDROOT
BRANCH   1  12
ATOM     12  C   UNL     1      63.582  44.893   8.877  1.00  0.00     0.063 A 
ATOM     13  C   UNL     1      61.757  43.761  10.023  1.00  0.00     0.047 A 
ATOM     14  C   UNL     1      62.696  44.793   9.964  1.00  0.00     0.020 A 
ATOM     15  C   UNL     1      61.694  42.810   8.998  1.00  0.00     0.119 A 
ATOM     16  C   UNL     1      62.571  42.899   7.915  1.00  0.00     0.093 A 
ATOM     17  C   UNL     1      63.511  43.934   7.839  1.00  0.00     0.130 A 
BRANCH  15  18
ATOM     18  O   UNL     1      60.764  41.773   9.048  1.00  0.00    -0.508 OA
ATOM     19  H   UNL     1      60.156  41.645   9.848  1.00  0.00     0.293 HD
ENDBRANCH  15  18
BRANCH  17  20
ATOM     20  O   UNL     1      64.338  43.994   6.715  1.00  0.00    -0.507 OA
ATOM     21  H   UNL     1      64.975  43.250   6.460  1.00  0.00     0.293 HD
ENDBRANCH  17  20
ENDBRANCH   1  12
BRANCH   2  22
ATOM     22  O   UNL     1      63.151  47.448  10.125  1.00  0.00    -0.502 OA
ATOM     23  H   UNL     1      62.411  47.969   9.672  1.00  0.00     0.293 HD
ENDBRANCH   2  22
BRANCH   6  24
ATOM     24  O   UNL     1      67.579  50.070   9.343  1.00  0.00    -0.507 OA
ATOM     25  H   UNL     1      68.347  50.732   9.318  1.00  0.00     0.293 HD
ENDBRANCH   6  24
BRANCH   8  26
ATOM     26  O   UNL     1      70.162  46.884   6.803  1.00  0.00    -0.508 OA
ATOM     27  H   UNL     1      70.893  46.343   7.251  1.00  0.00     0.293 HD
ENDBRANCH   8  26
TORSDOF 6
ENDMDL
MODEL 6
REMARK VINA RESULT:    -5.715      2.086      7.270
REMARK INTER + INTRA:          -7.288
REMARK INTER:                  -6.916
REMARK INTRA:                  -0.372
REMARK UNBOUND:                -0.404
REMARK SMILES O=c1c(O)c(-c2ccc(O)cc2O)oc2cc(O)cc(O)c12
REMARK SMILES IDX 5 1 3 2 2 3 1 4 22 5 20 6 19 7 17 8 16 9 15 10 14 11 6 12
REMARK SMILES IDX 8 13 7 14 9 15 11 16 12 17 10 18 13 20 4 22 21 24 18 26
REMARK H PARENT 10 19 13 21 4 23 21 25 18 27
REMARK Flexibility Score: inf
ROOT
ATOM      1  C   UNL     1      65.945  45.379   8.642  1.00  0.00     0.184 A 
ATOM      2  C   UNL     1      67.113  44.920   8.010  1.00  0.00     0.208 A 
ATOM      3  C   UNL     1      68.215  45.783   7.911  1.00  0.00     0.238 A 
ATOM      4  O   UNL     1      69.268  45.382   7.343  1.00  0.00    -0.285 OA
ATOM      5  C   UNL     1      68.131  47.084   8.450  1.00  0.00     0.111 A 
ATOM      6  C   UNL     1      69.196  48.015   8.394  1.00  0.00     0.134 A 
ATOM      7  C   UNL     1      69.035  49.289   8.958  1.00  0.00     0.093 A 
ATOM      8  C   UNL     1      67.834  49.650   9.573  1.00  0.00     0.123 A 
ATOM      9  C   UNL     1      66.778  48.735   9.630  1.00  0.00     0.094 A 
ATOM     10  C   UNL     1      66.918  47.460   9.075  1.00  0.00     0.146 A 
ATOM     11  O   UNL     1      65.899  46.611   9.141  1.00  0.00    -0.451 OA
ENDROOT
BRANCH   1  12
ATOM     12  C   UNL     1      64.747  44.521   8.761  1.00  0.00     0.063 A 
ATOM     13  C   UNL     1      63.675  42.558   9.721  1.00  0.00     0.047 A 
ATOM     14  C   UNL     1      64.772  43.417   9.631  1.00  0.00     0.020 A 
ATOM     15  C   UNL     1      62.538  42.787   8.937  1.00  0.00     0.119 A 
ATOM     16  C   UNL     1      62.504  43.880   8.068  1.00  0.00     0.093 A 
ATOM     17  C   UNL     1      63.593  44.754   7.976  1.00  0.00     0.130 A 
BRANCH  15  18
ATOM     18  O   UNL     1      61.439  41.934   9.016  1.00  0.00    -0.508 OA
ATOM     19  H   UNL     1      60.515  42.232   8.727  1.00  0.00     0.293 HD
ENDBRANCH  15  18
BRANCH  17  20
ATOM     20  O   UNL     1      63.489  45.850   7.116  1.00  0.00    -0.507 OA
ATOM     21  H   UNL     1      62.644  46.070   6.605  1.00  0.00     0.293 HD
ENDBRANCH  17  20
ENDBRANCH   1  12
BRANCH   2  22
ATOM     22  O   UNL     1      67.172  43.616   7.507  1.00  0.00    -0.502 OA
ATOM     23  H   UNL     1      66.828  43.376   6.586  1.00  0.00     0.293 HD
ENDBRANCH   2  22
BRANCH   6  24
ATOM     24  O   UNL     1      70.408  47.684   7.787  1.00  0.00    -0.507 OA
ATOM     25  H   UNL     1      70.567  47.835   6.798  1.00  0.00     0.293 HD
ENDBRANCH   6  24
BRANCH   8  26
ATOM     26  O   UNL     1      67.701  50.923  10.125  1.00  0.00    -0.508 OA
ATOM     27  H   UNL     1      66.938  51.536   9.864  1.00  0.00     0.293 HD
ENDBRANCH   8  26
TORSDOF 6
ENDMDL
MODEL 7
REMARK VINA RESULT:    -5.714      2.086      6.451
REMARK INTER + INTRA:          -7.287
REMARK INTER:                  -6.891
REMARK INTRA:                  -0.396
REMARK UNBOUND:                -0.404
REMARK SMILES O=c1c(O)c(-c2ccc(O)cc2O)oc2cc(O)cc(O)c12
REMARK SMILES IDX 5 1 3 2 2 3 1 4 22 5 20 6 19 7 17 8 16 9 15 10 14 11 6 12
REMARK SMILES IDX 8 13 7 14 9 15 11 16 12 17 10 18 13 20 4 22 21 24 18 26
REMARK H PARENT 10 19 13 21 4 23 21 25 18 27
REMARK Flexibility Score: inf
ROOT
ATOM      1  C   UNL     1      68.470  47.676   8.499  1.00  0.00     0.184 A 
ATOM      2  C   UNL     1      68.920  48.863   9.102  1.00  0.00     0.208 A 
ATOM      3  C   UNL     1      70.252  49.260   8.909  1.00  0.00     0.238 A 
ATOM      4  O   UNL     1      70.667  50.323   9.447  1.00  0.00    -0.285 OA
ATOM      5  C   UNL     1      71.106  48.468   8.113  1.00  0.00     0.111 A 
ATOM      6  C   UNL     1      72.460  48.797   7.867  1.00  0.00     0.134 A 
ATOM      7  C   UNL     1      73.244  47.959   7.061  1.00  0.00     0.093 A 
ATOM      8  C   UNL     1      72.703  46.800   6.500  1.00  0.00     0.123 A 
ATOM      9  C   UNL     1      71.366  46.469   6.740  1.00  0.00     0.094 A 
ATOM     10  C   UNL     1      70.567  47.291   7.540  1.00  0.00     0.146 A 
ATOM     11  O   UNL     1      69.301  46.953   7.754  1.00  0.00    -0.451 OA
ENDROOT
BRANCH   1  12
ATOM     12  C   UNL     1      67.083  47.198   8.682  1.00  0.00     0.063 A 
ATOM     13  C   UNL     1      65.406  46.160  10.108  1.00  0.00     0.047 A 
ATOM     14  C   UNL     1      66.694  46.669   9.925  1.00  0.00     0.020 A 
ATOM     15  C   UNL     1      64.492  46.165   9.048  1.00  0.00     0.119 A 
ATOM     16  C   UNL     1      64.870  46.686   7.809  1.00  0.00     0.093 A 
ATOM     17  C   UNL     1      66.154  47.209   7.615  1.00  0.00     0.130 A 
BRANCH  15  18
ATOM     18  O   UNL     1      63.206  45.655   9.218  1.00  0.00    -0.508 OA
ATOM     19  H   UNL     1      63.046  44.670   9.394  1.00  0.00     0.293 HD
ENDBRANCH  15  18
BRANCH  17  20
ATOM     20  O   UNL     1      66.465  47.749   6.365  1.00  0.00    -0.507 OA
ATOM     21  H   UNL     1      67.028  48.582   6.249  1.00  0.00     0.293 HD
ENDBRANCH  17  20
ENDBRANCH   1  12
BRANCH   2  22
ATOM     22  O   UNL     1      68.041  49.638   9.865  1.00  0.00    -0.502 OA
ATOM     23  H   UNL     1      67.344  49.226  10.472  1.00  0.00     0.293 HD
ENDBRANCH   2  22
BRANCH   6  24
ATOM     24  O   UNL     1      73.030  49.948   8.413  1.00  0.00    -0.507 OA
ATOM     25  H   UNL     1      73.869  50.363   8.024  1.00  0.00     0.293 HD
ENDBRANCH   6  24
BRANCH   8  26
ATOM     26  O   UNL     1      73.504  45.985   5.702  1.00  0.00    -0.508 OA
ATOM     27  H   UNL     1      74.444  46.259   5.442  1.00  0.00     0.293 HD
ENDBRANCH   8  26
TORSDOF 6
ENDMDL
MODEL 8
REMARK VINA RESULT:    -5.699      1.715      3.266
REMARK INTER + INTRA:          -7.268
REMARK INTER:                  -6.979
REMARK INTRA:                  -0.289
REMARK UNBOUND:                -0.404
REMARK SMILES O=c1c(O)c(-c2ccc(O)cc2O)oc2cc(O)cc(O)c12
REMARK SMILES IDX 5 1 3 2 2 3 1 4 22 5 20 6 19 7 17 8 16 9 15 10 14 11 6 12
REMARK SMILES IDX 8 13 7 14 9 15 11 16 12 17 10 18 13 20 4 22 21 24 18 26
REMARK H PARENT 10 19 13 21 4 23 21 25 18 27
REMARK Flexibility Score: inf
ROOT
ATOM      1  C   UNL     1      68.369  46.919   7.962  1.00  0.00     0.184 A 
ATOM      2  C   UNL     1      68.667  45.545   7.956  1.00  0.00     0.208 A 
ATOM      3  C   UNL     1      67.610  44.622   7.919  1.00  0.00     0.238 A 
ATOM      4  O   UNL     1      67.866  43.387   7.916  1.00  0.00    -0.285 OA
ATOM      5  C   UNL     1      66.279  45.089   7.882  1.00  0.00     0.111 A 
ATOM      6  C   UNL     1      65.158  44.226   7.842  1.00  0.00     0.134 A 
ATOM      7  C   UNL     1      63.865  44.768   7.803  1.00  0.00     0.093 A 
ATOM      8  C   UNL     1      63.671  46.151   7.805  1.00  0.00     0.123 A 
ATOM      9  C   UNL     1      64.775  47.009   7.846  1.00  0.00     0.094 A 
ATOM     10  C   UNL     1      66.073  46.489   7.885  1.00  0.00     0.146 A 
ATOM     11  O   UNL     1      67.103  47.325   7.925  1.00  0.00    -0.451 OA
ENDROOT
BRANCH   1  12
ATOM     12  C   UNL     1      69.439  47.938   8.017  1.00  0.00     0.063 A 
ATOM     13  C   UNL     1      71.468  48.884   7.063  1.00  0.00     0.047 A 
ATOM     14  C   UNL     1      70.414  47.969   7.006  1.00  0.00     0.020 A 
ATOM     15  C   UNL     1      71.564  49.777   8.136  1.00  0.00     0.119 A 
ATOM     16  C   UNL     1      70.601  49.752   9.148  1.00  0.00     0.093 A 
ATOM     17  C   UNL     1      69.535  48.847   9.097  1.00  0.00     0.130 A 
BRANCH  15  18
ATOM     18  O   UNL     1      72.613  50.692   8.206  1.00  0.00    -0.508 OA
ATOM     19  H   UNL     1      72.453  51.689   8.126  1.00  0.00     0.293 HD
ENDBRANCH  15  18
BRANCH  17  20
ATOM     20  O   UNL     1      68.583  48.891  10.117  1.00  0.00    -0.507 OA
ATOM     21  H   UNL     1      68.804  49.166  11.066  1.00  0.00     0.293 HD
ENDBRANCH  17  20
ENDBRANCH   1  12
BRANCH   2  22
ATOM     22  O   UNL     1      69.997  45.117   7.968  1.00  0.00    -0.502 OA
ATOM     23  H   UNL     1      70.387  44.583   8.735  1.00  0.00     0.293 HD
ENDBRANCH   2  22
BRANCH   6  24
ATOM     24  O   UNL     1      65.318  42.840   7.838  1.00  0.00    -0.507 OA
ATOM     25  H   UNL     1      65.450  42.316   8.696  1.00  0.00     0.293 HD
ENDBRANCH   6  24
BRANCH   8  26
ATOM     26  O   UNL     1      62.376  46.663   7.766  1.00  0.00    -0.508 OA
ATOM     27  H   UNL     1      62.028  47.161   6.955  1.00  0.00     0.293 HD
ENDBRANCH   8  26
TORSDOF 6
ENDMDL
MODEL 9
REMARK VINA RESULT:    -5.674      2.761      6.706
REMARK INTER + INTRA:          -7.238
REMARK INTER:                  -6.893
REMARK INTRA:                  -0.345
REMARK UNBOUND:                -0.404
REMARK SMILES O=c1c(O)c(-c2ccc(O)cc2O)oc2cc(O)cc(O)c12
REMARK SMILES IDX 5 1 3 2 2 3 1 4 22 5 20 6 19 7 17 8 16 9 15 10 14 11 6 12
REMARK SMILES IDX 8 13 7 14 9 15 11 16 12 17 10 18 13 20 4 22 21 24 18 26
REMARK H PARENT 10 19 13 21 4 23 21 25 18 27
REMARK Flexibility Score: inf
ROOT
ATOM      1  C   UNL     1      69.526  47.893   7.622  1.00  0.00     0.184 A 
ATOM      2  C   UNL     1      69.921  48.435   6.387  1.00  0.00     0.208 A 
ATOM      3  C   UNL     1      71.179  48.093   5.867  1.00  0.00     0.238 A 
ATOM      4  O   UNL     1      71.545  48.575   4.760  1.00  0.00    -0.285 OA
ATOM      5  C   UNL     1      72.013  47.211   6.586  1.00  0.00     0.111 A 
ATOM      6  C   UNL     1      73.294  46.814   6.132  1.00  0.00     0.134 A 
ATOM      7  C   UNL     1      74.062  45.931   6.904  1.00  0.00     0.093 A 
ATOM      8  C   UNL     1      73.578  45.440   8.119  1.00  0.00     0.123 A 
ATOM      9  C   UNL     1      72.314  45.829   8.573  1.00  0.00     0.094 A 
ATOM     10  C   UNL     1      71.532  46.708   7.819  1.00  0.00     0.146 A 
ATOM     11  O   UNL     1      70.337  47.064   8.274  1.00  0.00    -0.451 OA
ENDROOT
BRANCH   1  12
ATOM     12  C   UNL     1      68.221  48.231   8.228  1.00  0.00     0.063 A 
ATOM     13  C   UNL     1      66.969  49.316  10.011  1.00  0.00     0.047 A 
ATOM     14  C   UNL     1      68.184  49.028   9.386  1.00  0.00     0.020 A 
ATOM     15  C   UNL     1      65.774  48.806   9.492  1.00  0.00     0.119 A 
ATOM     16  C   UNL     1      65.800  48.010   8.344  1.00  0.00     0.093 A 
ATOM     17  C   UNL     1      67.011  47.723   7.702  1.00  0.00     0.130 A 
BRANCH  15  18
ATOM     18  O   UNL     1      64.556  49.083  10.110  1.00  0.00    -0.508 OA
ATOM     19  H   UNL     1      63.921  48.344  10.385  1.00  0.00     0.293 HD
ENDBRANCH  15  18
BRANCH  17  20
ATOM     20  O   UNL     1      66.973  46.952   6.538  1.00  0.00    -0.507 OA
ATOM     21  H   UNL     1      66.489  47.245   5.698  1.00  0.00     0.293 HD
ENDBRANCH  17  20
ENDBRANCH   1  12
BRANCH   2  22
ATOM     22  O   UNL     1      69.060  49.286   5.688  1.00  0.00    -0.502 OA
ATOM     23  H   UNL     1      68.981  49.266   4.679  1.00  0.00     0.293 HD
ENDBRANCH   2  22
BRANCH   6  24
ATOM     24  O   UNL     1      73.805  47.287   4.923  1.00  0.00    -0.507 OA
ATOM     25  H   UNL     1      73.272  47.237   4.062  1.00  0.00     0.293 HD
ENDBRANCH   6  24
BRANCH   8  26
ATOM     26  O   UNL     1      74.362  44.563   8.866  1.00  0.00    -0.508 OA
ATOM     27  H   UNL     1      74.019  44.145   9.722  1.00  0.00     0.293 HD
ENDBRANCH   8  26
TORSDOF 6
ENDMDL
