MODEL 1
REMARK VINA RESULT:    -6.402      0.000      0.000
REMARK INTER + INTRA:          -7.249
REMARK INTER:                  -6.964
REMARK INTRA:                  -0.285
REMARK UNBOUND:                -0.285
REMARK SMILES CC1(C)CC[C@@]2(C(=O)[O-])CC[C@]3(C)C(=CC[C@H]4[C@@]5(C)CC[C@@H](O)C(C)(C)[C@@H]5CC[C@]43C)[C@H]2C1
REMARK SMILES IDX 6 1 5 2 10 3 32 4 4 5 11 6 14 7 33 8 2 9 12 10 15 11 1 12
REMARK SMILES IDX 3 13 13 14 30 15 16 16 17 17 29 18 31 19 18 20 28 21 27 22
REMARK SMILES IDX 20 23 19 24 24 25 21 26 22 27 25 28 26 29 7 30 8 31 9 32
REMARK SMILES IDX 23 33
REMARK H PARENT 23 34
REMARK Flexibility Score: inf
ROOT
ATOM      1  C   UNL     1      20.042  -6.380  21.156  1.00  0.00     0.017 C 
ATOM      2  C   UNL     1      20.914  -6.050  22.409  1.00  0.00     0.014 C 
ATOM      3  C   UNL     1      21.054  -6.666  19.993  1.00  0.00     0.014 C 
ATOM      4  C   UNL     1      19.060  -7.616  21.350  1.00  0.00     0.028 C 
ATOM      5  C   UNL     1      20.216  -6.266  23.749  1.00  0.00     0.007 C 
ATOM      6  C   UNL     1      20.447  -7.226  18.683  1.00  0.00     0.013 C 
ATOM      7  C   UNL     1      19.363  -8.738  20.336  1.00  0.00    -0.064 C 
ATOM      8  C   UNL     1      18.707  -8.052  22.814  1.00  0.00     0.015 C 
ATOM      9  C   UNL     1      19.734  -7.718  23.927  1.00  0.00    -0.035 C 
ATOM     10  C   UNL     1      19.334  -8.334  18.853  1.00  0.00    -0.006 C 
ATOM     11  C   UNL     1      20.020  -9.833  20.735  1.00  0.00    -0.027 C 
ATOM     12  C   UNL     1      20.919  -8.709  23.936  1.00  0.00     0.011 C 
ATOM     13  C   UNL     1      19.030  -7.828  25.300  1.00  0.00     0.011 C 
ATOM     14  C   UNL     1      17.943  -7.665  18.563  1.00  0.00     0.017 C 
ATOM     15  C   UNL     1      19.550  -9.577  17.834  1.00  0.00    -0.020 C 
ATOM     16  C   UNL     1      20.590 -10.873  19.840  1.00  0.00     0.032 C 
ATOM     17  C   UNL     1      20.726 -10.527  18.326  1.00  0.00     0.006 C 
ATOM     18  C   UNL     1      18.255 -10.452  17.727  1.00  0.00     0.008 C 
ATOM     19  C   UNL     1      19.856  -8.970  16.414  1.00  0.00     0.012 C 
ATOM     20  C   UNL     1      20.925 -11.867  17.452  1.00  0.00    -0.025 C 
ATOM     21  C   UNL     1      18.402 -11.728  16.870  1.00  0.00     0.005 C 
ATOM     22  C   UNL     1      19.549 -12.639  17.362  1.00  0.00     0.003 C 
ATOM     23  C   UNL     1      21.970 -12.828  18.121  1.00  0.00     0.010 C 
ATOM     24  C   UNL     1      21.514 -11.479  16.057  1.00  0.00     0.012 C 
ATOM     25  C   UNL     1      19.598 -14.076  16.699  1.00  0.00    -0.006 C 
ATOM     26  C   UNL     1      22.070 -14.214  17.452  1.00  0.00     0.033 C 
ATOM     27  C   UNL     1      20.709 -14.929  17.398  1.00  0.00     0.120 C 
ATOM     28  C   UNL     1      19.834 -14.050  15.166  1.00  0.00     0.014 C 
ATOM     29  C   UNL     1      18.242 -14.809  16.912  1.00  0.00     0.014 C 
ENDROOT
BRANCH   1  30
ATOM     30  C   UNL     1      19.223  -5.130  20.836  1.00  0.00     0.048 C 
ATOM     31  O   UNL     1      17.966  -5.165  20.913  1.00  0.00    -0.550 OA
ATOM     32  O   UNL     1      19.837  -3.936  20.472  1.00  0.00    -0.550 OA
ENDBRANCH   1  30
BRANCH  27  33
ATOM     33  O   UNL     1      20.314 -15.260  18.708  1.00  0.00    -0.393 OA
ATOM     34  H   UNL     1      19.336 -15.429  18.685  1.00  0.00     0.210 HD
ENDBRANCH  27  33
TORSDOF 2
ENDMDL
MODEL 2
REMARK VINA RESULT:    -6.401      1.748      8.421
REMARK INTER + INTRA:          -7.247
REMARK INTER:                  -6.961
REMARK INTRA:                  -0.286
REMARK UNBOUND:                -0.285
REMARK SMILES CC1(C)CC[C@@]2(C(=O)[O-])CC[C@]3(C)C(=CC[C@H]4[C@@]5(C)CC[C@@H](O)C(C)(C)[C@@H]5CC[C@]43C)[C@H]2C1
REMARK SMILES IDX 6 1 5 2 10 3 32 4 4 5 11 6 14 7 33 8 2 9 12 10 15 11 1 12
REMARK SMILES IDX 3 13 13 14 30 15 16 16 17 17 29 18 31 19 18 20 28 21 27 22
REMARK SMILES IDX 20 23 19 24 24 25 21 26 22 27 25 28 26 29 7 30 8 31 9 32
REMARK SMILES IDX 23 33
REMARK H PARENT 23 34
REMARK Flexibility Score: inf
ROOT
ATOM      1  C   UNL     1      20.072 -14.572  16.058  1.00  0.00     0.017 C 
ATOM      2  C   UNL     1      20.949 -14.902  14.809  1.00  0.00     0.014 C 
ATOM      3  C   UNL     1      21.078 -14.273  17.223  1.00  0.00     0.014 C 
ATOM      4  C   UNL     1      19.081 -13.345  15.855  1.00  0.00     0.028 C 
ATOM      5  C   UNL     1      20.253 -14.699  13.466  1.00  0.00     0.007 C 
ATOM      6  C   UNL     1      20.463 -13.711  18.528  1.00  0.00     0.013 C 
ATOM      7  C   UNL     1      19.373 -12.216  16.864  1.00  0.00    -0.064 C 
ATOM      8  C   UNL     1      18.728 -12.918  14.387  1.00  0.00     0.015 C 
ATOM      9  C   UNL     1      19.761 -13.251  13.280  1.00  0.00    -0.035 C 
ATOM     10  C   UNL     1      19.342 -12.612  18.349  1.00  0.00    -0.006 C 
ATOM     11  C   UNL     1      20.022 -11.118  16.461  1.00  0.00    -0.027 C 
ATOM     12  C   UNL     1      20.938 -12.251  13.269  1.00  0.00     0.011 C 
ATOM     13  C   UNL     1      19.060 -13.153  11.904  1.00  0.00     0.011 C 
ATOM     14  C   UNL     1      17.956 -13.290  18.638  1.00  0.00     0.017 C 
ATOM     15  C   UNL     1      19.546 -11.362  19.362  1.00  0.00    -0.020 C 
ATOM     16  C   UNL     1      20.582 -10.069  17.352  1.00  0.00     0.032 C 
ATOM     17  C   UNL     1      20.717 -10.406  18.869  1.00  0.00     0.006 C 
ATOM     18  C   UNL     1      18.245 -10.497  19.461  1.00  0.00     0.008 C 
ATOM     19  C   UNL     1      19.853 -11.960  20.786  1.00  0.00     0.012 C 
ATOM     20  C   UNL     1      20.903  -9.061  19.736  1.00  0.00    -0.025 C 
ATOM     21  C   UNL     1      18.380  -9.215  20.312  1.00  0.00     0.005 C 
ATOM     22  C   UNL     1      19.521  -8.298  19.818  1.00  0.00     0.003 C 
ATOM     23  C   UNL     1      21.943  -8.095  19.065  1.00  0.00     0.010 C 
ATOM     24  C   UNL     1      21.491  -9.437  21.135  1.00  0.00     0.012 C 
ATOM     25  C   UNL     1      19.557  -6.857  20.474  1.00  0.00    -0.006 C 
ATOM     26  C   UNL     1      22.031  -6.705  19.727  1.00  0.00     0.033 C 
ATOM     27  C   UNL     1      20.664  -5.999  19.774  1.00  0.00     0.120 C 
ATOM     28  C   UNL     1      19.789  -6.874  22.008  1.00  0.00     0.014 C 
ATOM     29  C   UNL     1      18.196  -6.136  20.254  1.00  0.00     0.014 C 
ENDROOT
BRANCH   1  30
ATOM     30  C   UNL     1      19.261 -15.827  16.382  1.00  0.00     0.048 C 
ATOM     31  O   UNL     1      18.003 -15.801  16.304  1.00  0.00    -0.550 OA
ATOM     32  O   UNL     1      19.883 -17.016  16.750  1.00  0.00    -0.550 OA
ENDBRANCH   1  30
BRANCH  27  33
ATOM     33  O   UNL     1      20.270  -5.678  18.461  1.00  0.00    -0.393 OA
ATOM     34  H   UNL     1      19.301  -5.466  18.490  1.00  0.00     0.210 HD
ENDBRANCH  27  33
TORSDOF 2
ENDMDL
MODEL 3
REMARK VINA RESULT:    -5.923      1.878      7.923
REMARK INTER + INTRA:          -6.728
REMARK INTER:                  -6.706
REMARK INTRA:                  -0.022
REMARK UNBOUND:                -0.285
REMARK SMILES CC1(C)CC[C@@]2(C(=O)[O-])CC[C@]3(C)C(=CC[C@H]4[C@@]5(C)CC[C@@H](O)C(C)(C)[C@@H]5CC[C@]43C)[C@H]2C1
REMARK SMILES IDX 6 1 5 2 10 3 32 4 4 5 11 6 14 7 33 8 2 9 12 10 15 11 1 12
REMARK SMILES IDX 3 13 13 14 30 15 16 16 17 17 29 18 31 19 18 20 28 21 27 22
REMARK SMILES IDX 20 23 19 24 24 25 21 26 22 27 25 28 26 29 7 30 8 31 9 32
REMARK SMILES IDX 23 33
REMARK H PARENT 23 34
REMARK Flexibility Score: inf
ROOT
ATOM      1  C   UNL     1      19.357 -14.086  16.002  1.00  0.00     0.017 C 
ATOM      2  C   UNL     1      18.933 -15.480  16.565  1.00  0.00     0.014 C 
ATOM      3  C   UNL     1      18.116 -13.148  16.198  1.00  0.00     0.014 C 
ATOM      4  C   UNL     1      20.639 -13.460  16.706  1.00  0.00     0.028 C 
ATOM      5  C   UNL     1      20.091 -16.383  16.980  1.00  0.00     0.007 C 
ATOM      6  C   UNL     1      18.347 -11.644  15.911  1.00  0.00     0.013 C 
ATOM      7  C   UNL     1      20.312 -12.106  17.367  1.00  0.00    -0.064 C 
ATOM      8  C   UNL     1      21.593 -14.427  17.491  1.00  0.00     0.015 C 
ATOM      9  C   UNL     1      20.978 -15.732  18.058  1.00  0.00    -0.035 C 
ATOM     10  C   UNL     1      19.703 -11.035  16.447  1.00  0.00    -0.006 C 
ATOM     11  C   UNL     1      20.161 -12.035  18.694  1.00  0.00    -0.027 C 
ATOM     12  C   UNL     1      20.189 -15.480  19.362  1.00  0.00     0.011 C 
ATOM     13  C   UNL     1      22.125 -16.714  18.396  1.00  0.00     0.011 C 
ATOM     14  C   UNL     1      20.663 -10.852  15.218  1.00  0.00     0.017 C 
ATOM     15  C   UNL     1      19.484  -9.601  17.171  1.00  0.00    -0.020 C 
ATOM     16  C   UNL     1      19.614 -10.873  19.441  1.00  0.00     0.032 C 
ATOM     17  C   UNL     1      18.862  -9.779  18.623  1.00  0.00     0.006 C 
ATOM     18  C   UNL     1      20.840  -8.836  17.333  1.00  0.00     0.008 C 
ATOM     19  C   UNL     1      18.541  -8.747  16.243  1.00  0.00     0.012 C 
ATOM     20  C   UNL     1      18.736  -8.417  19.477  1.00  0.00    -0.025 C 
ATOM     21  C   UNL     1      20.750  -7.511  18.119  1.00  0.00     0.005 C 
ATOM     22  C   UNL     1      20.144  -7.702  19.527  1.00  0.00     0.003 C 
ATOM     23  C   UNL     1      18.298  -8.715  20.954  1.00  0.00     0.010 C 
ATOM     24  C   UNL     1      17.609  -7.531  18.854  1.00  0.00     0.012 C 
ATOM     25  C   UNL     1      20.254  -6.444  20.483  1.00  0.00    -0.006 C 
ATOM     26  C   UNL     1      18.345  -7.487  21.886  1.00  0.00     0.033 C 
ATOM     27  C   UNL     1      19.738  -6.832  21.909  1.00  0.00     0.120 C 
ATOM     28  C   UNL     1      19.492  -5.196  19.964  1.00  0.00     0.014 C 
ATOM     29  C   UNL     1      21.741  -6.009  20.625  1.00  0.00     0.014 C 
ENDROOT
BRANCH   1  30
ATOM     30  C   UNL     1      19.640 -14.269  14.511  1.00  0.00     0.048 C 
ATOM     31  O   UNL     1      20.671 -14.889  14.137  1.00  0.00    -0.550 OA
ATOM     32  O   UNL     1      18.768 -13.777  13.544  1.00  0.00    -0.550 OA
ENDBRANCH   1  30
BRANCH  27  33
ATOM     33  O   UNL     1      20.645  -7.711  22.530  1.00  0.00    -0.393 OA
ATOM     34  H   UNL     1      20.241  -8.617  22.502  1.00  0.00     0.210 HD
ENDBRANCH  27  33
TORSDOF 2
ENDMDL
MODEL 4
REMARK VINA RESULT:    -5.890      1.825      3.837
REMARK INTER + INTRA:          -6.692
REMARK INTER:                  -6.584
REMARK INTRA:                  -0.107
REMARK UNBOUND:                -0.285
REMARK SMILES CC1(C)CC[C@@]2(C(=O)[O-])CC[C@]3(C)C(=CC[C@H]4[C@@]5(C)CC[C@@H](O)C(C)(C)[C@@H]5CC[C@]43C)[C@H]2C1
REMARK SMILES IDX 6 1 5 2 10 3 32 4 4 5 11 6 14 7 33 8 2 9 12 10 15 11 1 12
REMARK SMILES IDX 3 13 13 14 30 15 16 16 17 17 29 18 31 19 18 20 28 21 27 22
REMARK SMILES IDX 20 23 19 24 24 25 21 26 22 27 25 28 26 29 7 30 8 31 9 32
REMARK SMILES IDX 23 33
REMARK H PARENT 23 34
REMARK Flexibility Score: inf
ROOT
ATOM      1  C   UNL     1      19.379  -6.890  21.249  1.00  0.00     0.017 C 
ATOM      2  C   UNL     1      18.945  -5.492  20.707  1.00  0.00     0.014 C 
ATOM      3  C   UNL     1      18.143  -7.833  21.044  1.00  0.00     0.014 C 
ATOM      4  C   UNL     1      20.663  -7.499  20.534  1.00  0.00     0.028 C 
ATOM      5  C   UNL     1      20.097  -4.577  20.301  1.00  0.00     0.007 C 
ATOM      6  C   UNL     1      18.383  -9.340  21.310  1.00  0.00     0.013 C 
ATOM      7  C   UNL     1      20.341  -8.846  19.856  1.00  0.00    -0.064 C 
ATOM      8  C   UNL     1      21.609  -6.517  19.759  1.00  0.00     0.015 C 
ATOM      9  C   UNL     1      20.985  -5.207  19.211  1.00  0.00    -0.035 C 
ATOM     10  C   UNL     1      19.741  -9.933  20.763  1.00  0.00    -0.006 C 
ATOM     11  C   UNL     1      20.188  -8.901  18.528  1.00  0.00    -0.027 C 
ATOM     12  C   UNL     1      20.193  -5.447  17.906  1.00  0.00     0.011 C 
ATOM     13  C   UNL     1      22.125  -4.215  18.883  1.00  0.00     0.011 C 
ATOM     14  C   UNL     1      20.706 -10.127  21.986  1.00  0.00     0.017 C 
ATOM     15  C   UNL     1      19.529 -11.359  20.020  1.00  0.00    -0.020 C 
ATOM     16  C   UNL     1      19.646 -10.056  17.767  1.00  0.00     0.032 C 
ATOM     17  C   UNL     1      18.902 -11.165  18.572  1.00  0.00     0.006 C 
ATOM     18  C   UNL     1      20.889 -12.113  19.845  1.00  0.00     0.008 C 
ATOM     19  C   UNL     1      18.594 -12.230  20.939  1.00  0.00     0.012 C 
ATOM     20  C   UNL     1      18.782 -12.516  17.700  1.00  0.00    -0.025 C 
ATOM     21  C   UNL     1      20.805 -13.429  19.041  1.00  0.00     0.005 C 
ATOM     22  C   UNL     1      20.194 -13.222  17.637  1.00  0.00     0.003 C 
ATOM     23  C   UNL     1      18.338 -12.201  16.228  1.00  0.00     0.010 C 
ATOM     24  C   UNL     1      17.661 -13.418  18.315  1.00  0.00     0.012 C 
ATOM     25  C   UNL     1      20.308 -14.467  16.664  1.00  0.00    -0.006 C 
ATOM     26  C   UNL     1      18.390 -13.417  15.280  1.00  0.00     0.033 C 
ATOM     27  C   UNL     1      19.786 -14.063  15.245  1.00  0.00     0.120 C 
ATOM     28  C   UNL     1      19.555 -15.726  17.168  1.00  0.00     0.014 C 
ATOM     29  C   UNL     1      21.798 -14.891  16.512  1.00  0.00     0.014 C 
ENDROOT
BRANCH   1  30
ATOM     30  C   UNL     1      19.664  -6.725  22.742  1.00  0.00     0.048 C 
ATOM     31  O   UNL     1      20.760  -6.234  23.122  1.00  0.00    -0.550 OA
ATOM     32  O   UNL     1      18.727  -7.094  23.702  1.00  0.00    -0.550 OA
ENDBRANCH   1  30
BRANCH  27  33
ATOM     33  O   UNL     1      20.687 -13.170  14.633  1.00  0.00    -0.393 OA
ATOM     34  H   UNL     1      20.148 -12.440  14.231  1.00  0.00     0.210 HD
ENDBRANCH  27  33
TORSDOF 2
ENDMDL
MODEL 5
REMARK VINA RESULT:    -4.468      1.955      3.954
REMARK INTER + INTRA:          -5.145
REMARK INTER:                  -5.602
REMARK INTRA:                   0.456
REMARK UNBOUND:                -0.285
REMARK SMILES CC1(C)CC[C@@]2(C(=O)[O-])CC[C@]3(C)C(=CC[C@H]4[C@@]5(C)CC[C@@H](O)C(C)(C)[C@@H]5CC[C@]43C)[C@H]2C1
REMARK SMILES IDX 6 1 5 2 10 3 32 4 4 5 11 6 14 7 33 8 2 9 12 10 15 11 1 12
REMARK SMILES IDX 3 13 13 14 30 15 16 16 17 17 29 18 31 19 18 20 28 21 27 22
REMARK SMILES IDX 20 23 19 24 24 25 21 26 22 27 25 28 26 29 7 30 8 31 9 32
REMARK SMILES IDX 23 33
REMARK H PARENT 23 34
REMARK Flexibility Score: inf
ROOT
ATOM      1  C   UNL     1      18.826  -7.715  20.648  1.00  0.00     0.017 C 
ATOM      2  C   UNL     1      18.586  -6.279  20.084  1.00  0.00     0.014 C 
ATOM      3  C   UNL     1      17.594  -8.568  20.188  1.00  0.00     0.014 C 
ATOM      4  C   UNL     1      20.180  -8.392  20.159  1.00  0.00     0.028 C 
ATOM      5  C   UNL     1      19.847  -5.433  19.927  1.00  0.00     0.007 C 
ATOM      6  C   UNL     1      17.688 -10.093  20.442  1.00  0.00     0.013 C 
ATOM      7  C   UNL     1      19.907  -9.698  19.388  1.00  0.00    -0.064 C 
ATOM      8  C   UNL     1      21.311  -7.457  19.604  1.00  0.00     0.015 C 
ATOM      9  C   UNL     1      20.881  -6.097  18.997  1.00  0.00    -0.035 C 
ATOM     10  C   UNL     1      19.085 -10.763  20.132  1.00  0.00    -0.006 C 
ATOM     11  C   UNL     1      19.999  -9.713  18.053  1.00  0.00    -0.027 C 
ATOM     12  C   UNL     1      20.331  -6.254  17.562  1.00  0.00     0.011 C 
ATOM     13  C   UNL     1      22.120  -5.176  18.917  1.00  0.00     0.011 C 
ATOM     14  C   UNL     1      19.794 -11.048  21.504  1.00  0.00     0.017 C 
ATOM     15  C   UNL     1      18.926 -12.154  19.315  1.00  0.00    -0.020 C 
ATOM     16  C   UNL     1      19.537 -10.812  17.167  1.00  0.00     0.032 C 
ATOM     17  C   UNL     1      18.590 -11.888  17.784  1.00  0.00     0.006 C 
ATOM     18  C   UNL     1      20.247 -12.994  19.365  1.00  0.00     0.008 C 
ATOM     19  C   UNL     1      17.786 -12.982  20.017  1.00  0.00     0.012 C 
ATOM     20  C   UNL     1      18.551 -13.207  16.859  1.00  0.00    -0.025 C 
ATOM     21  C   UNL     1      20.231 -14.282  18.515  1.00  0.00     0.005 C 
ATOM     22  C   UNL     1      19.905 -14.004  17.031  1.00  0.00     0.003 C 
ATOM     23  C   UNL     1      18.406 -12.831  15.342  1.00  0.00     0.010 C 
ATOM     24  C   UNL     1      17.283 -14.046  17.227  1.00  0.00     0.012 C 
ATOM     25  C   UNL     1      20.120 -15.232  16.053  1.00  0.00    -0.006 C 
ATOM     26  C   UNL     1      18.558 -14.025  14.379  1.00  0.00     0.033 C 
ATOM     27  C   UNL     1      19.894 -14.762  14.577  1.00  0.00     0.120 C 
ATOM     28  C   UNL     1      19.211 -16.449  16.368  1.00  0.00     0.014 C 
ATOM     29  C   UNL     1      21.583 -15.750  16.162  1.00  0.00     0.014 C 
ENDROOT
BRANCH   1  30
ATOM     30  C   UNL     1      18.841  -7.603  22.172  1.00  0.00     0.048 C 
ATOM     31  O   UNL     1      18.558  -6.507  22.726  1.00  0.00    -0.550 OA
ATOM     32  O   UNL     1      19.147  -8.698  22.975  1.00  0.00    -0.550 OA
ENDBRANCH   1  30
BRANCH  27  33
ATOM     33  O   UNL     1      20.946 -13.918  14.171  1.00  0.00    -0.393 OA
ATOM     34  H   UNL     1      21.299 -14.280  13.317  1.00  0.00     0.210 HD
ENDBRANCH  27  33
TORSDOF 2
ENDMDL
MODEL 6
REMARK VINA RESULT:    -3.744      1.864      7.771
REMARK INTER + INTRA:          -4.357
REMARK INTER:                  -4.062
REMARK INTRA:                  -0.295
REMARK UNBOUND:                -0.285
REMARK SMILES CC1(C)CC[C@@]2(C(=O)[O-])CC[C@]3(C)C(=CC[C@H]4[C@@]5(C)CC[C@@H](O)C(C)(C)[C@@H]5CC[C@]43C)[C@H]2C1
REMARK SMILES IDX 6 1 5 2 10 3 32 4 4 5 11 6 14 7 33 8 2 9 12 10 15 11 1 12
REMARK SMILES IDX 3 13 13 14 30 15 16 16 17 17 29 18 31 19 18 20 28 21 27 22
REMARK SMILES IDX 20 23 19 24 24 25 21 26 22 27 25 28 26 29 7 30 8 31 9 32
REMARK SMILES IDX 23 33
REMARK H PARENT 23 34
REMARK Flexibility Score: inf
ROOT
ATOM      1  C   UNL     1      18.177 -13.460  17.300  1.00  0.00     0.017 C 
ATOM      2  C   UNL     1      18.296 -14.872  17.957  1.00  0.00     0.014 C 
ATOM      3  C   UNL     1      17.042 -12.715  18.085  1.00  0.00     0.014 C 
ATOM      4  C   UNL     1      19.521 -12.609  17.331  1.00  0.00     0.028 C 
ATOM      5  C   UNL     1      19.641 -15.563  17.750  1.00  0.00     0.007 C 
ATOM      6  C   UNL     1      16.867 -11.210  17.765  1.00  0.00     0.013 C 
ATOM      7  C   UNL     1      19.331 -11.290  18.106  1.00  0.00    -0.064 C 
ATOM      8  C   UNL     1      20.872 -13.376  17.546  1.00  0.00     0.015 C 
ATOM      9  C   UNL     1      20.814 -14.729  18.299  1.00  0.00    -0.035 C 
ATOM     10  C   UNL     1      18.199 -10.373  17.613  1.00  0.00    -0.006 C 
ATOM     11  C   UNL     1      19.814 -11.174  19.348  1.00  0.00    -0.027 C 
ATOM     12  C   UNL     1      20.702 -14.535  19.828  1.00  0.00     0.011 C 
ATOM     13  C   UNL     1      22.125 -15.504  18.028  1.00  0.00     0.011 C 
ATOM     14  C   UNL     1      18.425 -10.108  16.082  1.00  0.00     0.017 C 
ATOM     15  C   UNL     1      18.120  -8.955  18.394  1.00  0.00    -0.020 C 
ATOM     16  C   UNL     1      19.505 -10.073  20.297  1.00  0.00     0.032 C 
ATOM     17  C   UNL     1      18.292  -9.151  19.963  1.00  0.00     0.006 C 
ATOM     18  C   UNL     1      19.252  -7.983  17.917  1.00  0.00     0.008 C 
ATOM     19  C   UNL     1      16.729  -8.305  18.046  1.00  0.00     0.012 C 
ATOM     20  C   UNL     1      18.368  -7.783  20.812  1.00  0.00    -0.025 C 
ATOM     21  C   UNL     1      19.331  -6.649  18.690  1.00  0.00     0.005 C 
ATOM     22  C   UNL     1      19.499  -6.858  20.211  1.00  0.00     0.003 C 
ATOM     23  C   UNL     1      18.730  -8.068  22.312  1.00  0.00     0.010 C 
ATOM     24  C   UNL     1      16.954  -7.114  20.820  1.00  0.00     0.012 C 
ATOM     25  C   UNL     1      19.842  -5.551  21.036  1.00  0.00    -0.006 C 
ATOM     26  C   UNL     1      19.013  -6.801  23.145  1.00  0.00     0.033 C 
ATOM     27  C   UNL     1      20.128  -5.940  22.525  1.00  0.00     0.120 C 
ATOM     28  C   UNL     1      18.738  -4.463  20.974  1.00  0.00     0.014 C 
ATOM     29  C   UNL     1      21.131  -4.886  20.471  1.00  0.00     0.014 C 
ENDROOT
BRANCH   1  30
ATOM     30  C   UNL     1      17.750 -13.674  15.848  1.00  0.00     0.048 C 
ATOM     31  O   UNL     1      16.596 -14.108  15.589  1.00  0.00    -0.550 OA
ATOM     32  O   UNL     1      18.608 -13.383  14.791  1.00  0.00    -0.550 OA
ENDBRANCH   1  30
BRANCH  27  33
ATOM     33  O   UNL     1      21.348  -6.636  22.619  1.00  0.00    -0.393 OA
ATOM     34  H   UNL     1      21.692  -6.500  23.540  1.00  0.00     0.210 HD
ENDBRANCH  27  33
TORSDOF 2
ENDMDL
