MODEL 1
REMARK VINA RESULT:    -3.848      0.000      0.000
REMARK INTER + INTRA:          -4.631
REMARK INTER:                  -4.523
REMARK INTRA:                  -0.108
REMARK UNBOUND:                -0.108
REMARK SMILES O=C([O-])CCC(=O)[O-]
REMARK SMILES IDX 4 1 2 2 1 3 3 4 5 5 6 6 7 7 8 8
REMARK H PARENT
REMARK Flexibility Score: inf
ROOT
ATOM      1  C   UNL     1     -11.678  50.419  54.796  1.00  0.00     0.059 C 
ENDROOT
BRANCH   1   2
ATOM      2  C   UNL     1     -10.416  50.939  54.179  1.00  0.00     0.042 C 
ATOM      3  O   UNL     1     -10.391  52.085  53.657  1.00  0.00    -0.550 OA
ATOM      4  O   UNL     1      -9.257  50.174  54.216  1.00  0.00    -0.550 OA
ENDBRANCH   1   2
BRANCH   1   5
ATOM      5  C   UNL     1     -12.273  49.266  53.980  1.00  0.00     0.059 C 
BRANCH   5   6
ATOM      6  C   UNL     1     -13.397  49.731  53.105  1.00  0.00     0.042 C 
ATOM      7  O   UNL     1     -14.583  49.392  53.361  1.00  0.00    -0.550 OA
ATOM      8  O   UNL     1     -13.129  50.507  51.984  1.00  0.00    -0.550 OA
ENDBRANCH   5   6
ENDBRANCH   1   5
TORSDOF 3
ENDMDL
MODEL 2
REMARK VINA RESULT:    -3.758      0.255      3.847
REMARK INTER + INTRA:          -4.525
REMARK INTER:                  -4.422
REMARK INTRA:                  -0.103
REMARK UNBOUND:                -0.108
REMARK SMILES O=C([O-])CCC(=O)[O-]
REMARK SMILES IDX 4 1 2 2 1 3 3 4 5 5 6 6 7 7 8 8
REMARK H PARENT
REMARK Flexibility Score: inf
ROOT
ATOM      1  C   UNL     1     -12.433  49.162  53.962  1.00  0.00     0.059 C 
ENDROOT
BRANCH   1   2
ATOM      2  C   UNL     1     -13.515  49.657  53.052  1.00  0.00     0.042 C 
ATOM      3  O   UNL     1     -13.229  50.388  52.067  1.00  0.00    -0.550 OA
ATOM      4  O   UNL     1     -14.834  49.279  53.269  1.00  0.00    -0.550 OA
ENDBRANCH   1   2
BRANCH   1   5
ATOM      5  C   UNL     1     -11.811  50.304  54.775  1.00  0.00     0.059 C 
BRANCH   5   6
ATOM      6  C   UNL     1     -10.468  50.695  54.238  1.00  0.00     0.042 C 
ATOM      7  O   UNL     1     -10.306  51.815  53.685  1.00  0.00    -0.550 OA
ATOM      8  O   UNL     1      -9.405  49.804  54.312  1.00  0.00    -0.550 OA
ENDBRANCH   5   6
ENDBRANCH   1   5
TORSDOF 3
ENDMDL
MODEL 3
REMARK VINA RESULT:    -3.738     17.138     18.218
REMARK INTER + INTRA:          -4.502
REMARK INTER:                  -4.380
REMARK INTRA:                  -0.122
REMARK UNBOUND:                -0.108
REMARK SMILES O=C([O-])CCC(=O)[O-]
REMARK SMILES IDX 4 1 2 2 1 3 3 4 5 5 6 6 7 7 8 8
REMARK H PARENT
REMARK Flexibility Score: inf
ROOT
ATOM      1  C   UNL     1     -13.374  59.993  38.618  1.00  0.00     0.059 C 
ENDROOT
BRANCH   1   2
ATOM      2  C   UNL     1     -14.709  60.673  38.617  1.00  0.00     0.042 C 
ATOM      3  O   UNL     1     -15.767  59.990  38.625  1.00  0.00    -0.550 OA
ATOM      4  O   UNL     1     -14.784  62.060  38.649  1.00  0.00    -0.550 OA
ENDBRANCH   1   2
BRANCH   1   5
ATOM      5  C   UNL     1     -12.730  60.014  40.009  1.00  0.00     0.059 C 
BRANCH   5   6
ATOM      6  C   UNL     1     -11.636  61.034  40.095  1.00  0.00     0.042 C 
ATOM      7  O   UNL     1     -10.964  61.156  41.153  1.00  0.00    -0.550 OA
ATOM      8  O   UNL     1     -11.386  61.877  39.019  1.00  0.00    -0.550 OA
ENDBRANCH   5   6
ENDBRANCH   1   5
TORSDOF 3
ENDMDL
MODEL 4
REMARK VINA RESULT:    -3.737     17.280     18.122
REMARK INTER + INTRA:          -4.501
REMARK INTER:                  -4.431
REMARK INTRA:                  -0.070
REMARK UNBOUND:                -0.108
REMARK SMILES O=C([O-])CCC(=O)[O-]
REMARK SMILES IDX 4 1 2 2 1 3 3 4 5 5 6 6 7 7 8 8
REMARK H PARENT
REMARK Flexibility Score: inf
ROOT
ATOM      1  C   UNL     1     -13.325  60.128  38.784  1.00  0.00     0.059 C 
ENDROOT
BRANCH   1   2
ATOM      2  C   UNL     1     -12.625  60.156  40.109  1.00  0.00     0.042 C 
ATOM      3  O   UNL     1     -11.404  60.454  40.173  1.00  0.00    -0.550 OA
ATOM      4  O   UNL     1     -13.332  59.892  41.275  1.00  0.00    -0.550 OA
ENDBRANCH   1   2
BRANCH   1   5
ATOM      5  C   UNL     1     -14.817  60.454  38.927  1.00  0.00     0.059 C 
BRANCH   5   6
ATOM      6  C   UNL     1     -15.117  61.860  38.504  1.00  0.00     0.042 C 
ATOM      7  O   UNL     1     -16.176  62.121  37.875  1.00  0.00    -0.550 OA
ATOM      8  O   UNL     1     -14.206  62.874  38.770  1.00  0.00    -0.550 OA
ENDBRANCH   5   6
ENDBRANCH   1   5
TORSDOF 3
ENDMDL
MODEL 5
REMARK VINA RESULT:    -3.737     17.148     17.877
REMARK INTER + INTRA:          -4.501
REMARK INTER:                  -4.381
REMARK INTRA:                  -0.120
REMARK UNBOUND:                -0.108
REMARK SMILES O=C([O-])CCC(=O)[O-]
REMARK SMILES IDX 4 1 2 2 1 3 3 4 5 5 6 6 7 7 8 8
REMARK H PARENT
REMARK Flexibility Score: inf
ROOT
ATOM      1  C   UNL     1     -12.729  60.007  40.009  1.00  0.00     0.059 C 
ENDROOT
BRANCH   1   2
ATOM      2  C   UNL     1     -11.650  61.043  40.092  1.00  0.00     0.042 C 
ATOM      3  O   UNL     1     -10.948  61.143  41.132  1.00  0.00    -0.550 OA
ATOM      4  O   UNL     1     -11.394  61.870  39.006  1.00  0.00    -0.550 OA
ENDBRANCH   1   2
BRANCH   1   5
ATOM      5  C   UNL     1     -13.379  59.978  38.620  1.00  0.00     0.059 C 
BRANCH   5   6
ATOM      6  C   UNL     1     -14.704  60.678  38.618  1.00  0.00     0.042 C 
ATOM      7  O   UNL     1     -15.774  60.012  38.602  1.00  0.00    -0.550 OA
ATOM      8  O   UNL     1     -14.758  62.065  38.593  1.00  0.00    -0.550 OA
ENDBRANCH   5   6
ENDBRANCH   1   5
TORSDOF 3
ENDMDL
MODEL 6
REMARK VINA RESULT:    -3.726     17.363     18.413
REMARK INTER + INTRA:          -4.488
REMARK INTER:                  -4.430
REMARK INTRA:                  -0.057
REMARK UNBOUND:                -0.108
REMARK SMILES O=C([O-])CCC(=O)[O-]
REMARK SMILES IDX 4 1 2 2 1 3 3 4 5 5 6 6 7 7 8 8
REMARK H PARENT
REMARK Flexibility Score: inf
ROOT
ATOM      1  C   UNL     1     -14.897  60.366  38.697  1.00  0.00     0.059 C 
ENDROOT
BRANCH   1   2
ATOM      2  C   UNL     1     -15.208  61.792  38.361  1.00  0.00     0.042 C 
ATOM      3  O   UNL     1     -16.329  62.098  37.875  1.00  0.00    -0.550 OA
ATOM      4  O   UNL     1     -14.276  62.788  38.622  1.00  0.00    -0.550 OA
ENDBRANCH   1   2
BRANCH   1   5
ATOM      5  C   UNL     1     -13.393  60.081  38.614  1.00  0.00     0.059 C 
BRANCH   5   6
ATOM      6  C   UNL     1     -12.754  60.097  39.970  1.00  0.00     0.042 C 
ATOM      7  O   UNL     1     -13.404  59.725  40.982  1.00  0.00    -0.550 OA
ATOM      8  O   UNL     1     -11.454  60.562  40.119  1.00  0.00    -0.550 OA
ENDBRANCH   5   6
ENDBRANCH   1   5
TORSDOF 3
ENDMDL
MODEL 7
REMARK VINA RESULT:    -3.589     11.790     13.283
REMARK INTER + INTRA:          -4.326
REMARK INTER:                  -4.204
REMARK INTRA:                  -0.122
REMARK UNBOUND:                -0.108
REMARK SMILES O=C([O-])CCC(=O)[O-]
REMARK SMILES IDX 4 1 2 2 1 3 3 4 5 5 6 6 7 7 8 8
REMARK H PARENT
REMARK Flexibility Score: inf
ROOT
ATOM      1  C   UNL     1      -7.780  62.494  54.347  1.00  0.00     0.059 C 
ENDROOT
BRANCH   1   2
ATOM      2  C   UNL     1      -7.360  63.498  53.318  1.00  0.00     0.042 C 
ATOM      3  O   UNL     1      -8.044  64.539  53.133  1.00  0.00    -0.550 OA
ATOM      4  O   UNL     1      -6.192  63.304  52.592  1.00  0.00    -0.550 OA
ENDBRANCH   1   2
BRANCH   1   5
ATOM      5  C   UNL     1      -7.103  61.137  54.121  1.00  0.00     0.059 C 
BRANCH   5   6
ATOM      6  C   UNL     1      -6.124  60.822  55.210  1.00  0.00     0.042 C 
ATOM      7  O   UNL     1      -5.000  61.390  55.238  1.00  0.00    -0.550 OA
ATOM      8  O   UNL     1      -6.437  59.870  56.172  1.00  0.00    -0.550 OA
ENDBRANCH   5   6
ENDBRANCH   1   5
TORSDOF 3
ENDMDL
MODEL 8
REMARK VINA RESULT:    -3.569     10.904     11.934
REMARK INTER + INTRA:          -4.303
REMARK INTER:                  -4.232
REMARK INTRA:                  -0.071
REMARK UNBOUND:                -0.108
REMARK SMILES O=C([O-])CCC(=O)[O-]
REMARK SMILES IDX 4 1 2 2 1 3 3 4 5 5 6 6 7 7 8 8
REMARK H PARENT
REMARK Flexibility Score: inf
ROOT
ATOM      1  C   UNL     1      -5.745  60.498  54.833  1.00  0.00     0.059 C 
ENDROOT
BRANCH   1   2
ATOM      2  C   UNL     1      -5.618  59.288  55.707  1.00  0.00     0.042 C 
ATOM      3  O   UNL     1      -6.647  58.731  56.171  1.00  0.00    -0.550 OA
ATOM      4  O   UNL     1      -4.365  58.752  55.975  1.00  0.00    -0.550 OA
ENDBRANCH   1   2
BRANCH   1   5
ATOM      5  C   UNL     1      -6.847  61.440  55.330  1.00  0.00     0.059 C 
BRANCH   5   6
ATOM      6  C   UNL     1      -7.664  61.980  54.196  1.00  0.00     0.042 C 
ATOM      7  O   UNL     1      -7.958  61.243  53.218  1.00  0.00    -0.550 OA
ATOM      8  O   UNL     1      -8.067  63.309  54.201  1.00  0.00    -0.550 OA
ENDBRANCH   5   6
ENDBRANCH   1   5
TORSDOF 3
ENDMDL
MODEL 9
REMARK VINA RESULT:    -3.559     11.867     13.155
REMARK INTER + INTRA:          -4.292
REMARK INTER:                  -4.171
REMARK INTRA:                  -0.121
REMARK UNBOUND:                -0.108
REMARK SMILES O=C([O-])CCC(=O)[O-]
REMARK SMILES IDX 4 1 2 2 1 3 3 4 5 5 6 6 7 7 8 8
REMARK H PARENT
REMARK Flexibility Score: inf
ROOT
ATOM      1  C   UNL     1      -7.046  61.125  54.113  1.00  0.00     0.059 C 
ENDROOT
BRANCH   1   2
ATOM      2  C   UNL     1      -6.053  60.846  55.200  1.00  0.00     0.042 C 
ATOM      3  O   UNL     1      -4.926  61.407  55.188  1.00  0.00    -0.550 OA
ATOM      4  O   UNL     1      -6.389  59.997  56.248  1.00  0.00    -0.550 OA
ENDBRANCH   1   2
BRANCH   1   5
ATOM      5  C   UNL     1      -7.777  62.452  54.343  1.00  0.00     0.059 C 
BRANCH   5   6
ATOM      6  C   UNL     1      -7.376  63.484  53.333  1.00  0.00     0.042 C 
ATOM      7  O   UNL     1      -8.080  64.516  53.165  1.00  0.00    -0.550 OA
ATOM      8  O   UNL     1      -6.247  63.287  52.549  1.00  0.00    -0.550 OA
ENDBRANCH   5   6
ENDBRANCH   1   5
TORSDOF 3
ENDMDL
