MODEL 1
REMARK VINA RESULT:    -5.338      0.000      0.000
REMARK INTER + INTRA:          -6.027
REMARK INTER:                  -5.962
REMARK INTRA:                  -0.066
REMARK UNBOUND:                -0.066
REMARK SMILES COc1ccc(C(=O)[O-])cc1
REMARK SMILES IDX 6 1 5 2 10 3 4 4 11 5 3 6 7 7 8 8 9 9 2 10 1 11
REMARK H PARENT
REMARK Flexibility Score: inf
ROOT
ATOM      1  C   UNL     1     -44.048 -38.428 106.687  1.00  0.00    -0.003 A 
ATOM      2  C   UNL     1     -43.529 -37.999 105.454  1.00  0.00     0.014 A 
ATOM      3  C   UNL     1     -44.723 -39.660 106.750  1.00  0.00     0.014 A 
ATOM      4  C   UNL     1     -43.682 -38.785 104.309  1.00  0.00     0.047 A 
ATOM      5  C   UNL     1     -44.874 -40.446 105.604  1.00  0.00     0.047 A 
ATOM      6  C   UNL     1     -44.353 -40.011 104.370  1.00  0.00     0.118 A 
ENDROOT
BRANCH   1   7
ATOM      7  C   UNL     1     -43.885 -37.594 107.897  1.00  0.00     0.071 C 
ATOM      8  O   UNL     1     -43.628 -38.123 109.011  1.00  0.00    -0.545 OA
ATOM      9  O   UNL     1     -44.013 -36.211 107.822  1.00  0.00    -0.545 OA
ENDBRANCH   1   7
BRANCH   6  10
ATOM     10  O   UNL     1     -44.480 -40.763 103.193  1.00  0.00    -0.497 OA
ATOM     11  C   UNL     1     -44.338 -40.233 101.880  1.00  0.00     0.278 C 
ENDBRANCH   6  10
TORSDOF 2
ENDMDL
MODEL 2
REMARK VINA RESULT:    -5.237      5.195      7.008
REMARK INTER + INTRA:          -5.915
REMARK INTER:                  -5.851
REMARK INTRA:                  -0.064
REMARK UNBOUND:                -0.066
REMARK SMILES COc1ccc(C(=O)[O-])cc1
REMARK SMILES IDX 6 1 5 2 10 3 4 4 11 5 3 6 7 7 8 8 9 9 2 10 1 11
REMARK H PARENT
REMARK Flexibility Score: inf
ROOT
ATOM      1  C   UNL     1     -39.324 -42.793 102.523  1.00  0.00    -0.003 A 
ATOM      2  C   UNL     1     -39.290 -41.463 102.069  1.00  0.00     0.014 A 
ATOM      3  C   UNL     1     -40.570 -43.393 102.779  1.00  0.00     0.014 A 
ATOM      4  C   UNL     1     -40.477 -40.751 101.875  1.00  0.00     0.047 A 
ATOM      5  C   UNL     1     -41.756 -42.679 102.584  1.00  0.00     0.047 A 
ATOM      6  C   UNL     1     -41.716 -41.348 102.129  1.00  0.00     0.118 A 
ENDROOT
BRANCH   1   7
ATOM      7  C   UNL     1     -38.067 -43.544 102.729  1.00  0.00     0.071 C 
ATOM      8  O   UNL     1     -38.053 -44.802 102.660  1.00  0.00    -0.545 OA
ATOM      9  O   UNL     1     -36.880 -42.872 103.000  1.00  0.00    -0.545 OA
ENDBRANCH   1   7
BRANCH   6  10
ATOM     10  O   UNL     1     -42.878 -40.590 101.919  1.00  0.00    -0.497 OA
ATOM     11  C   UNL     1     -44.196 -41.041 102.209  1.00  0.00     0.278 C 
ENDBRANCH   6  10
TORSDOF 2
ENDMDL
MODEL 3
REMARK VINA RESULT:    -5.233      5.174      7.136
REMARK INTER + INTRA:          -5.911
REMARK INTER:                  -5.847
REMARK INTRA:                  -0.064
REMARK UNBOUND:                -0.066
REMARK SMILES COc1ccc(C(=O)[O-])cc1
REMARK SMILES IDX 6 1 5 2 10 3 4 4 11 5 3 6 7 7 8 8 9 9 2 10 1 11
REMARK H PARENT
REMARK Flexibility Score: inf
ROOT
ATOM      1  C   UNL     1     -39.331 -42.745 102.514  1.00  0.00    -0.003 A 
ATOM      2  C   UNL     1     -40.575 -43.339 102.791  1.00  0.00     0.014 A 
ATOM      3  C   UNL     1     -39.299 -41.417 102.054  1.00  0.00     0.014 A 
ATOM      4  C   UNL     1     -41.759 -42.619 102.610  1.00  0.00     0.047 A 
ATOM      5  C   UNL     1     -40.484 -40.698 101.875  1.00  0.00     0.047 A 
ATOM      6  C   UNL     1     -41.727 -41.298 102.153  1.00  0.00     0.118 A 
ENDROOT
BRANCH   1   7
ATOM      7  C   UNL     1     -38.080 -43.510 102.705  1.00  0.00     0.071 C 
ATOM      8  O   UNL     1     -38.076 -44.766 102.613  1.00  0.00    -0.545 OA
ATOM      9  O   UNL     1     -36.888 -42.852 102.988  1.00  0.00    -0.545 OA
ENDBRANCH   1   7
BRANCH   6  10
ATOM     10  O   UNL     1     -42.943 -40.618 101.989  1.00  0.00    -0.497 OA
ATOM     11  C   UNL     1     -43.990 -40.596 102.953  1.00  0.00     0.278 C 
ENDBRANCH   6  10
TORSDOF 2
ENDMDL
MODEL 4
REMARK VINA RESULT:    -5.100      1.310      4.686
REMARK INTER + INTRA:          -5.763
REMARK INTER:                  -5.702
REMARK INTRA:                  -0.060
REMARK UNBOUND:                -0.066
REMARK SMILES COc1ccc(C(=O)[O-])cc1
REMARK SMILES IDX 6 1 5 2 10 3 4 4 11 5 3 6 7 7 8 8 9 9 2 10 1 11
REMARK H PARENT
REMARK Flexibility Score: inf
ROOT
ATOM      1  C   UNL     1     -43.726 -39.330 105.271  1.00  0.00    -0.003 A 
ATOM      2  C   UNL     1     -43.299 -38.042 104.904  1.00  0.00     0.014 A 
ATOM      3  C   UNL     1     -44.282 -39.523 106.548  1.00  0.00     0.014 A 
ATOM      4  C   UNL     1     -43.426 -36.973 105.794  1.00  0.00     0.047 A 
ATOM      5  C   UNL     1     -44.409 -38.452 107.438  1.00  0.00     0.047 A 
ATOM      6  C   UNL     1     -43.980 -37.165 107.064  1.00  0.00     0.118 A 
ENDROOT
BRANCH   1   7
ATOM      7  C   UNL     1     -43.589 -40.460 104.327  1.00  0.00     0.071 C 
ATOM      8  O   UNL     1     -44.380 -40.581 103.355  1.00  0.00    -0.545 OA
ATOM      9  O   UNL     1     -42.584 -41.404 104.500  1.00  0.00    -0.545 OA
ENDBRANCH   1   7
BRANCH   6  10
ATOM     10  O   UNL     1     -44.086 -36.059 107.921  1.00  0.00    -0.497 OA
ATOM     11  C   UNL     1     -43.276 -34.892 107.832  1.00  0.00     0.278 C 
ENDBRANCH   6  10
TORSDOF 2
ENDMDL
MODEL 5
REMARK VINA RESULT:    -5.060      0.933      4.773
REMARK INTER + INTRA:          -5.717
REMARK INTER:                  -5.650
REMARK INTRA:                  -0.067
REMARK UNBOUND:                -0.066
REMARK SMILES COc1ccc(C(=O)[O-])cc1
REMARK SMILES IDX 6 1 5 2 10 3 4 4 11 5 3 6 7 7 8 8 9 9 2 10 1 11
REMARK H PARENT
REMARK Flexibility Score: inf
ROOT
ATOM      1  C   UNL     1     -44.106 -39.964 104.164  1.00  0.00    -0.003 A 
ATOM      2  C   UNL     1     -43.417 -38.757 104.376  1.00  0.00     0.014 A 
ATOM      3  C   UNL     1     -44.892 -40.490 105.205  1.00  0.00     0.014 A 
ATOM      4  C   UNL     1     -43.513 -38.093 105.602  1.00  0.00     0.047 A 
ATOM      5  C   UNL     1     -44.988 -39.823 106.430  1.00  0.00     0.047 A 
ATOM      6  C   UNL     1     -44.295 -38.615 106.637  1.00  0.00     0.118 A 
ENDROOT
BRANCH   1   7
ATOM      7  C   UNL     1     -44.002 -40.665 102.867  1.00  0.00     0.071 C 
ATOM      8  O   UNL     1     -42.902 -40.722 102.256  1.00  0.00    -0.545 OA
ATOM      9  O   UNL     1     -45.118 -41.273 102.303  1.00  0.00    -0.545 OA
ENDBRANCH   1   7
BRANCH   6  10
ATOM     10  O   UNL     1     -44.359 -37.910 107.848  1.00  0.00    -0.497 OA
ATOM     11  C   UNL     1     -43.621 -36.726 108.130  1.00  0.00     0.278 C 
ENDBRANCH   6  10
TORSDOF 2
ENDMDL
MODEL 6
REMARK VINA RESULT:    -5.020      1.266      4.866
REMARK INTER + INTRA:          -5.672
REMARK INTER:                  -5.615
REMARK INTRA:                  -0.057
REMARK UNBOUND:                -0.066
REMARK SMILES COc1ccc(C(=O)[O-])cc1
REMARK SMILES IDX 6 1 5 2 10 3 4 4 11 5 3 6 7 7 8 8 9 9 2 10 1 11
REMARK H PARENT
REMARK Flexibility Score: inf
ROOT
ATOM      1  C   UNL     1     -43.603 -39.414 105.061  1.00  0.00    -0.003 A 
ATOM      2  C   UNL     1     -44.434 -39.538 106.187  1.00  0.00     0.014 A 
ATOM      3  C   UNL     1     -42.878 -38.223 104.878  1.00  0.00     0.014 A 
ATOM      4  C   UNL     1     -44.537 -38.494 107.110  1.00  0.00     0.047 A 
ATOM      5  C   UNL     1     -42.982 -37.179 105.802  1.00  0.00     0.047 A 
ATOM      6  C   UNL     1     -43.816 -37.309 106.929  1.00  0.00     0.118 A 
ENDROOT
BRANCH   1   7
ATOM      7  C   UNL     1     -43.496 -40.521 104.086  1.00  0.00     0.071 C 
ATOM      8  O   UNL     1     -42.585 -41.384 104.193  1.00  0.00    -0.545 OA
ATOM      9  O   UNL     1     -44.402 -40.625 103.036  1.00  0.00    -0.545 OA
ENDBRANCH   1   7
BRANCH   6  10
ATOM     10  O   UNL     1     -43.954 -36.290 107.883  1.00  0.00    -0.497 OA
ATOM     11  C   UNL     1     -43.212 -35.076 107.877  1.00  0.00     0.278 C 
ENDBRANCH   6  10
TORSDOF 2
ENDMDL
MODEL 7
REMARK VINA RESULT:    -4.976      5.245      6.326
REMARK INTER + INTRA:          -5.624
REMARK INTER:                  -5.564
REMARK INTRA:                  -0.060
REMARK UNBOUND:                -0.066
REMARK SMILES COc1ccc(C(=O)[O-])cc1
REMARK SMILES IDX 6 1 5 2 10 3 4 4 11 5 3 6 7 7 8 8 9 9 2 10 1 11
REMARK H PARENT
REMARK Flexibility Score: inf
ROOT
ATOM      1  C   UNL     1     -41.465 -42.332 103.947  1.00  0.00    -0.003 A 
ATOM      2  C   UNL     1     -40.364 -42.690 104.744  1.00  0.00     0.014 A 
ATOM      3  C   UNL     1     -41.613 -42.932 102.684  1.00  0.00     0.014 A 
ATOM      4  C   UNL     1     -39.432 -43.626 104.286  1.00  0.00     0.047 A 
ATOM      5  C   UNL     1     -40.680 -43.868 102.228  1.00  0.00     0.047 A 
ATOM      6  C   UNL     1     -39.579 -44.222 103.030  1.00  0.00     0.118 A 
ENDROOT
BRANCH   1   7
ATOM      7  C   UNL     1     -42.448 -41.341 104.433  1.00  0.00     0.071 C 
ATOM      8  O   UNL     1     -42.704 -41.243 105.663  1.00  0.00    -0.545 OA
ATOM      9  O   UNL     1     -43.105 -40.503 103.540  1.00  0.00    -0.545 OA
ENDBRANCH   1   7
BRANCH   6  10
ATOM     10  O   UNL     1     -38.617 -45.156 102.617  1.00  0.00    -0.497 OA
ATOM     11  C   UNL     1     -38.412 -46.425 103.228  1.00  0.00     0.278 C 
ENDBRANCH   6  10
TORSDOF 2
ENDMDL
MODEL 8
REMARK VINA RESULT:    -4.921      1.719      2.114
REMARK INTER + INTRA:          -5.562
REMARK INTER:                  -5.501
REMARK INTRA:                  -0.061
REMARK UNBOUND:                -0.066
REMARK SMILES COc1ccc(C(=O)[O-])cc1
REMARK SMILES IDX 6 1 5 2 10 3 4 4 11 5 3 6 7 7 8 8 9 9 2 10 1 11
REMARK H PARENT
REMARK Flexibility Score: inf
ROOT
ATOM      1  C   UNL     1     -43.103 -37.181 106.195  1.00  0.00    -0.003 A 
ATOM      2  C   UNL     1     -44.061 -37.595 105.255  1.00  0.00     0.014 A 
ATOM      3  C   UNL     1     -41.899 -37.899 106.302  1.00  0.00     0.014 A 
ATOM      4  C   UNL     1     -43.819 -38.704 104.439  1.00  0.00     0.047 A 
ATOM      5  C   UNL     1     -41.658 -39.008 105.485  1.00  0.00     0.047 A 
ATOM      6  C   UNL     1     -42.622 -39.419 104.544  1.00  0.00     0.118 A 
ENDROOT
BRANCH   1   7
ATOM      7  C   UNL     1     -43.361 -36.008 107.058  1.00  0.00     0.071 C 
ATOM      8  O   UNL     1     -43.640 -36.158 108.277  1.00  0.00    -0.545 OA
ATOM      9  O   UNL     1     -43.300 -34.721 106.534  1.00  0.00    -0.545 OA
ENDBRANCH   1   7
BRANCH   6  10
ATOM     10  O   UNL     1     -42.428 -40.525 103.703  1.00  0.00    -0.497 OA
ATOM     11  C   UNL     1     -43.178 -40.778 102.520  1.00  0.00     0.278 C 
ENDBRANCH   6  10
TORSDOF 2
ENDMDL
MODEL 9
REMARK VINA RESULT:    -4.912      5.319      7.283
REMARK INTER + INTRA:          -5.553
REMARK INTER:                  -5.495
REMARK INTRA:                  -0.057
REMARK UNBOUND:                -0.066
REMARK SMILES COc1ccc(C(=O)[O-])cc1
REMARK SMILES IDX 6 1 5 2 10 3 4 4 11 5 3 6 7 7 8 8 9 9 2 10 1 11
REMARK H PARENT
REMARK Flexibility Score: inf
ROOT
ATOM      1  C   UNL     1     -40.054 -44.139 103.372  1.00  0.00    -0.003 A 
ATOM      2  C   UNL     1     -39.970 -43.374 104.547  1.00  0.00     0.014 A 
ATOM      3  C   UNL     1     -40.997 -43.781 102.393  1.00  0.00     0.014 A 
ATOM      4  C   UNL     1     -40.811 -42.274 104.738  1.00  0.00     0.047 A 
ATOM      5  C   UNL     1     -41.838 -42.680 102.585  1.00  0.00     0.047 A 
ATOM      6  C   UNL     1     -41.749 -41.917 103.765  1.00  0.00     0.118 A 
ENDROOT
BRANCH   1   7
ATOM      7  C   UNL     1     -39.163 -45.303 103.173  1.00  0.00     0.071 C 
ATOM      8  O   UNL     1     -37.940 -45.137 102.923  1.00  0.00    -0.545 OA
ATOM      9  O   UNL     1     -39.664 -46.597 103.260  1.00  0.00    -0.545 OA
ENDBRANCH   1   7
BRANCH   6  10
ATOM     10  O   UNL     1     -42.570 -40.805 104.004  1.00  0.00    -0.497 OA
ATOM     11  C   UNL     1     -43.765 -40.517 103.286  1.00  0.00     0.278 C 
ENDBRANCH   6  10
TORSDOF 2
ENDMDL
