MODEL 1
REMARK VINA RESULT:    -5.723      0.000      0.000
REMARK INTER + INTRA:         -18.391
REMARK INTER:                 -15.090
REMARK INTRA:                  -3.301
REMARK UNBOUND:                -3.301
REMARK SMILES CCCCCCCCCCCCCCCCCCCCCCCCCCCCCC(=O)[O-]
REMARK SMILES IDX 16 1 17 2 18 3 19 4 20 5 21 6 22 7 23 8 24 9 25 10 26 11
REMARK SMILES IDX 27 12 28 13 29 14 30 15 31 16 32 17 15 18 14 19 13 20 12 21
REMARK SMILES IDX 11 22 10 23 9 24 8 25 7 26 6 27 5 28 4 29 3 30 2 31 1 32
REMARK H PARENT
REMARK Flexibility Score: inf
ROOT
ATOM      1  C   UNL     1      -0.493 -27.620   7.520  1.00  0.00     0.000 C 
ENDROOT
BRANCH   1   2
ATOM      2  C   UNL     1      -0.349 -29.122   7.226  1.00  0.00     0.000 C 
BRANCH   2   3
ATOM      3  C   UNL     1      -0.146 -29.410   5.730  1.00  0.00     0.000 C 
BRANCH   3   4
ATOM      4  C   UNL     1       1.165 -28.821   5.182  1.00  0.00     0.000 C 
BRANCH   4   5
ATOM      5  C   UNL     1       1.908 -29.797   4.251  1.00  0.00     0.000 C 
BRANCH   5   6
ATOM      6  C   UNL     1       1.798 -29.413   2.764  1.00  0.00     0.000 C 
BRANCH   6   7
ATOM      7  C   UNL     1       0.403 -29.605   2.136  1.00  0.00     0.000 C 
BRANCH   7   8
ATOM      8  C   UNL     1      -0.194 -28.300   1.588  1.00  0.00     0.000 C 
BRANCH   8   9
ATOM      9  C   UNL     1      -1.437 -27.878   2.384  1.00  0.00     0.000 C 
BRANCH   9  10
ATOM     10  C   UNL     1      -1.228 -26.576   3.175  1.00  0.00     0.000 C 
BRANCH  10  11
ATOM     11  C   UNL     1       0.188 -25.981   3.027  1.00  0.00     0.000 C 
BRANCH  11  12
ATOM     12  C   UNL     1       0.204 -24.727   2.133  1.00  0.00     0.000 C 
BRANCH  12  13
ATOM     13  C   UNL     1      -1.199 -24.336   1.633  1.00  0.00     0.006 C 
BRANCH  13  14
ATOM     14  C   UNL     1      -1.226 -23.810   0.190  1.00  0.00     0.053 C 
BRANCH  14  15
ATOM     15  C   UNL     1      -2.049 -24.682  -0.708  1.00  0.00     0.041 C 
ATOM     16  O   UNL     1      -2.462 -25.800  -0.304  1.00  0.00    -0.550 OA
ATOM     17  O   UNL     1      -2.380 -24.249  -1.987  1.00  0.00    -0.550 OA
ENDBRANCH  14  15
ENDBRANCH  13  14
ENDBRANCH  12  13
ENDBRANCH  11  12
ENDBRANCH  10  11
ENDBRANCH   9  10
ENDBRANCH   8   9
ENDBRANCH   7   8
ENDBRANCH   6   7
ENDBRANCH   5   6
ENDBRANCH   4   5
ENDBRANCH   3   4
ENDBRANCH   2   3
ENDBRANCH   1   2
BRANCH   1  18
ATOM     18  C   UNL     1      -1.229 -27.340   8.842  1.00  0.00     0.000 C 
BRANCH  18  19
ATOM     19  C   UNL     1      -0.436 -26.405   9.774  1.00  0.00     0.000 C 
BRANCH  19  20
ATOM     20  C   UNL     1       1.096 -26.512   9.646  1.00  0.00     0.000 C 
BRANCH  20  21
ATOM     21  C   UNL     1       1.830 -26.941  10.933  1.00  0.00     0.000 C 
BRANCH  21  22
ATOM     22  C   UNL     1       1.105 -28.011  11.771  1.00  0.00     0.000 C 
BRANCH  22  23
ATOM     23  C   UNL     1       0.646 -27.549  13.169  1.00  0.00     0.000 C 
BRANCH  23  24
ATOM     24  C   UNL     1       0.394 -26.030  13.280  1.00  0.00    -0.000 C 
BRANCH  24  25
ATOM     25  C   UNL     1      -0.842 -25.692  14.133  1.00  0.00    -0.000 C 
BRANCH  25  26
ATOM     26  C   UNL     1      -1.080 -24.174  14.244  1.00  0.00    -0.000 C 
BRANCH  26  27
ATOM     27  C   UNL     1      -2.405 -23.704  13.617  1.00  0.00    -0.000 C 
BRANCH  27  28
ATOM     28  C   UNL     1      -2.692 -24.395  12.273  1.00  0.00    -0.000 C 
BRANCH  28  29
ATOM     29  C   UNL     1      -3.882 -23.770  11.527  1.00  0.00    -0.000 C 
BRANCH  29  30
ATOM     30  C   UNL     1      -4.310 -24.588  10.299  1.00  0.00    -0.000 C 
BRANCH  30  31
ATOM     31  C   UNL     1      -4.091 -26.087  10.537  1.00  0.00    -0.003 C 
ATOM     32  C   UNL     1      -5.413 -26.806  10.787  1.00  0.00     0.004 C 
ENDBRANCH  30  31
ENDBRANCH  29  30
ENDBRANCH  28  29
ENDBRANCH  27  28
ENDBRANCH  26  27
ENDBRANCH  25  26
ENDBRANCH  24  25
ENDBRANCH  23  24
ENDBRANCH  22  23
ENDBRANCH  21  22
ENDBRANCH  20  21
ENDBRANCH  19  20
ENDBRANCH  18  19
ENDBRANCH   1  18
TORSDOF 28
ENDMDL
MODEL 2
REMARK VINA RESULT:    -5.440      1.099      1.817
REMARK INTER + INTRA:         -17.646
REMARK INTER:                 -14.837
REMARK INTRA:                  -2.809
REMARK UNBOUND:                -3.301
REMARK SMILES CCCCCCCCCCCCCCCCCCCCCCCCCCCCCC(=O)[O-]
REMARK SMILES IDX 16 1 17 2 18 3 19 4 20 5 21 6 22 7 23 8 24 9 25 10 26 11
REMARK SMILES IDX 27 12 28 13 29 14 30 15 31 16 32 17 15 18 14 19 13 20 12 21
REMARK SMILES IDX 11 22 10 23 9 24 8 25 7 26 6 27 5 28 4 29 3 30 2 31 1 32
REMARK H PARENT
REMARK Flexibility Score: inf
ROOT
ATOM      1  C   UNL     1      -0.323 -26.871   8.323  1.00  0.00     0.000 C 
ENDROOT
BRANCH   1   2
ATOM      2  C   UNL     1      -0.891 -28.293   8.183  1.00  0.00     0.000 C 
BRANCH   2   3
ATOM      3  C   UNL     1      -0.203 -29.091   7.063  1.00  0.00     0.000 C 
BRANCH   3   4
ATOM      4  C   UNL     1      -0.319 -28.412   5.689  1.00  0.00     0.000 C 
BRANCH   4   5
ATOM      5  C   UNL     1       1.029 -28.335   4.951  1.00  0.00     0.000 C 
BRANCH   5   6
ATOM      6  C   UNL     1       1.616 -29.721   4.621  1.00  0.00     0.000 C 
BRANCH   6   7
ATOM      7  C   UNL     1       1.565 -30.120   3.133  1.00  0.00     0.000 C 
BRANCH   7   8
ATOM      8  C   UNL     1       1.050 -28.993   2.225  1.00  0.00     0.000 C 
BRANCH   8   9
ATOM      9  C   UNL     1      -0.307 -29.352   1.605  1.00  0.00     0.000 C 
BRANCH   9  10
ATOM     10  C   UNL     1      -1.439 -28.413   2.057  1.00  0.00     0.000 C 
BRANCH  10  11
ATOM     11  C   UNL     1      -1.441 -27.051   1.332  1.00  0.00     0.000 C 
BRANCH  11  12
ATOM     12  C   UNL     1      -1.434 -25.866   2.316  1.00  0.00     0.000 C 
BRANCH  12  13
ATOM     13  C   UNL     1      -0.867 -24.578   1.690  1.00  0.00     0.006 C 
BRANCH  13  14
ATOM     14  C   UNL     1      -1.861 -23.827   0.791  1.00  0.00     0.053 C 
BRANCH  14  15
ATOM     15  C   UNL     1      -1.511 -23.956  -0.659  1.00  0.00     0.041 C 
ATOM     16  O   UNL     1      -2.274 -23.479  -1.541  1.00  0.00    -0.550 OA
ATOM     17  O   UNL     1      -0.330 -24.581  -1.038  1.00  0.00    -0.550 OA
ENDBRANCH  14  15
ENDBRANCH  13  14
ENDBRANCH  12  13
ENDBRANCH  11  12
ENDBRANCH  10  11
ENDBRANCH   9  10
ENDBRANCH   8   9
ENDBRANCH   7   8
ENDBRANCH   6   7
ENDBRANCH   5   6
ENDBRANCH   4   5
ENDBRANCH   3   4
ENDBRANCH   2   3
ENDBRANCH   1   2
BRANCH   1  18
ATOM     18  C   UNL     1       1.199 -26.857   8.543  1.00  0.00     0.000 C 
BRANCH  18  19
ATOM     19  C   UNL     1       1.605 -26.101   9.822  1.00  0.00     0.000 C 
BRANCH  19  20
ATOM     20  C   UNL     1       1.342 -26.864  11.136  1.00  0.00     0.000 C 
BRANCH  20  21
ATOM     21  C   UNL     1       0.461 -26.118  12.158  1.00  0.00     0.000 C 
BRANCH  21  22
ATOM     22  C   UNL     1       1.234 -25.387  13.274  1.00  0.00     0.000 C 
BRANCH  22  23
ATOM     23  C   UNL     1       0.872 -25.814  14.710  1.00  0.00     0.000 C 
BRANCH  23  24
ATOM     24  C   UNL     1      -0.605 -26.223  14.894  1.00  0.00    -0.000 C 
BRANCH  24  25
ATOM     25  C   UNL     1      -1.313 -25.418  15.999  1.00  0.00    -0.000 C 
BRANCH  25  26
ATOM     26  C   UNL     1      -2.314 -24.396  15.429  1.00  0.00    -0.000 C 
BRANCH  26  27
ATOM     27  C   UNL     1      -1.848 -23.731  14.120  1.00  0.00    -0.000 C 
BRANCH  27  28
ATOM     28  C   UNL     1      -3.028 -23.330  13.217  1.00  0.00    -0.000 C 
BRANCH  28  29
ATOM     29  C   UNL     1      -2.999 -24.040  11.855  1.00  0.00    -0.000 C 
BRANCH  29  30
ATOM     30  C   UNL     1      -4.397 -24.192  11.234  1.00  0.00    -0.000 C 
BRANCH  30  31
ATOM     31  C   UNL     1      -4.455 -25.413  10.309  1.00  0.00    -0.003 C 
ATOM     32  C   UNL     1      -3.179 -26.245  10.411  1.00  0.00     0.004 C 
ENDBRANCH  30  31
ENDBRANCH  29  30
ENDBRANCH  28  29
ENDBRANCH  27  28
ENDBRANCH  26  27
ENDBRANCH  25  26
ENDBRANCH  24  25
ENDBRANCH  23  24
ENDBRANCH  22  23
ENDBRANCH  21  22
ENDBRANCH  20  21
ENDBRANCH  19  20
ENDBRANCH  18  19
ENDBRANCH   1  18
TORSDOF 28
ENDMDL
MODEL 3
REMARK VINA RESULT:    -5.367      1.570      2.618
REMARK INTER + INTRA:         -17.453
REMARK INTER:                 -13.757
REMARK INTRA:                  -3.697
REMARK UNBOUND:                -3.301
REMARK SMILES CCCCCCCCCCCCCCCCCCCCCCCCCCCCCC(=O)[O-]
REMARK SMILES IDX 16 1 17 2 18 3 19 4 20 5 21 6 22 7 23 8 24 9 25 10 26 11
REMARK SMILES IDX 27 12 28 13 29 14 30 15 31 16 32 17 15 18 14 19 13 20 12 21
REMARK SMILES IDX 11 22 10 23 9 24 8 25 7 26 6 27 5 28 4 29 3 30 2 31 1 32
REMARK H PARENT
REMARK Flexibility Score: inf
ROOT
ATOM      1  C   UNL     1       0.183 -29.425   8.501  1.00  0.00     0.000 C 
ENDROOT
BRANCH   1   2
ATOM      2  C   UNL     1       0.613 -29.349   7.026  1.00  0.00     0.000 C 
BRANCH   2   3
ATOM      3  C   UNL     1      -0.422 -28.626   6.149  1.00  0.00     0.000 C 
BRANCH   3   4
ATOM      4  C   UNL     1      -0.306 -27.095   6.229  1.00  0.00     0.000 C 
BRANCH   4   5
ATOM      5  C   UNL     1       0.092 -26.461   4.885  1.00  0.00     0.000 C 
BRANCH   5   6
ATOM      6  C   UNL     1       1.527 -26.815   4.452  1.00  0.00     0.000 C 
BRANCH   6   7
ATOM      7  C   UNL     1       1.675 -27.301   2.997  1.00  0.00     0.000 C 
BRANCH   7   8
ATOM      8  C   UNL     1       1.187 -28.743   2.792  1.00  0.00     0.000 C 
BRANCH   8   9
ATOM      9  C   UNL     1       0.065 -28.809   1.746  1.00  0.00     0.000 C 
BRANCH   9  10
ATOM     10  C   UNL     1      -1.270 -28.246   2.265  1.00  0.00     0.000 C 
BRANCH  10  11
ATOM     11  C   UNL     1      -1.953 -27.270   1.285  1.00  0.00     0.000 C 
BRANCH  11  12
ATOM     12  C   UNL     1      -0.942 -26.340   0.588  1.00  0.00     0.000 C 
BRANCH  12  13
ATOM     13  C   UNL     1      -0.736 -25.015   1.345  1.00  0.00     0.006 C 
BRANCH  13  14
ATOM     14  C   UNL     1      -1.500 -23.824   0.744  1.00  0.00     0.053 C 
BRANCH  14  15
ATOM     15  C   UNL     1      -1.264 -23.694  -0.729  1.00  0.00     0.041 C 
ATOM     16  O   UNL     1      -2.235 -23.707  -1.531  1.00  0.00    -0.550 OA
ATOM     17  O   UNL     1       0.027 -23.532  -1.216  1.00  0.00    -0.550 OA
ENDBRANCH  14  15
ENDBRANCH  13  14
ENDBRANCH  12  13
ENDBRANCH  11  12
ENDBRANCH  10  11
ENDBRANCH   9  10
ENDBRANCH   8   9
ENDBRANCH   7   8
ENDBRANCH   6   7
ENDBRANCH   5   6
ENDBRANCH   4   5
ENDBRANCH   3   4
ENDBRANCH   2   3
ENDBRANCH   1   2
BRANCH   1  18
ATOM     18  C   UNL     1       1.212 -30.151   9.384  1.00  0.00     0.000 C 
BRANCH  18  19
ATOM     19  C   UNL     1       0.676 -30.445  10.797  1.00  0.00     0.000 C 
BRANCH  19  20
ATOM     20  C   UNL     1       1.348 -29.636  11.925  1.00  0.00     0.000 C 
BRANCH  20  21
ATOM     21  C   UNL     1       1.092 -30.167  13.350  1.00  0.00     0.000 C 
BRANCH  21  22
ATOM     22  C   UNL     1       0.772 -29.085  14.400  1.00  0.00     0.000 C 
BRANCH  22  23
ATOM     23  C   UNL     1       1.036 -27.635  13.950  1.00  0.00     0.000 C 
BRANCH  23  24
ATOM     24  C   UNL     1      -0.087 -26.644  14.325  1.00  0.00    -0.000 C 
BRANCH  24  25
ATOM     25  C   UNL     1      -0.588 -25.828  13.119  1.00  0.00    -0.000 C 
BRANCH  25  26
ATOM     26  C   UNL     1       0.471 -25.714  12.008  1.00  0.00    -0.000 C 
BRANCH  26  27
ATOM     27  C   UNL     1       0.058 -26.381  10.683  1.00  0.00    -0.000 C 
BRANCH  27  28
ATOM     28  C   UNL     1      -1.371 -26.950  10.738  1.00  0.00    -0.000 C 
BRANCH  28  29
ATOM     29  C   UNL     1      -2.361 -26.150   9.876  1.00  0.00    -0.000 C 
BRANCH  29  30
ATOM     30  C   UNL     1      -3.178 -25.139  10.695  1.00  0.00    -0.000 C 
BRANCH  30  31
ATOM     31  C   UNL     1      -4.653 -25.163  10.277  1.00  0.00    -0.003 C 
ATOM     32  C   UNL     1      -5.217 -26.580  10.321  1.00  0.00     0.004 C 
ENDBRANCH  30  31
ENDBRANCH  29  30
ENDBRANCH  28  29
ENDBRANCH  27  28
ENDBRANCH  26  27
ENDBRANCH  25  26
ENDBRANCH  24  25
ENDBRANCH  23  24
ENDBRANCH  22  23
ENDBRANCH  21  22
ENDBRANCH  20  21
ENDBRANCH  19  20
ENDBRANCH  18  19
ENDBRANCH   1  18
TORSDOF 28
ENDMDL
MODEL 4
REMARK VINA RESULT:    -5.327      2.033      5.342
REMARK INTER + INTRA:         -17.347
REMARK INTER:                 -13.952
REMARK INTRA:                  -3.395
REMARK UNBOUND:                -3.301
REMARK SMILES CCCCCCCCCCCCCCCCCCCCCCCCCCCCCC(=O)[O-]
REMARK SMILES IDX 16 1 17 2 18 3 19 4 20 5 21 6 22 7 23 8 24 9 25 10 26 11
REMARK SMILES IDX 27 12 28 13 29 14 30 15 31 16 32 17 15 18 14 19 13 20 12 21
REMARK SMILES IDX 11 22 10 23 9 24 8 25 7 26 6 27 5 28 4 29 3 30 2 31 1 32
REMARK H PARENT
REMARK Flexibility Score: inf
ROOT
ATOM      1  C   UNL     1      -3.620 -24.846  10.149  1.00  0.00     0.000 C 
ENDROOT
BRANCH   1   2
ATOM      2  C   UNL     1      -3.329 -26.353  10.243  1.00  0.00     0.000 C 
BRANCH   2   3
ATOM      3  C   UNL     1      -1.822 -26.659  10.268  1.00  0.00     0.000 C 
BRANCH   3   4
ATOM      4  C   UNL     1      -1.368 -27.515   9.076  1.00  0.00     0.000 C 
BRANCH   4   5
ATOM      5  C   UNL     1      -0.213 -26.870   8.290  1.00  0.00     0.000 C 
BRANCH   5   6
ATOM      6  C   UNL     1      -0.099 -27.392   6.845  1.00  0.00     0.000 C 
BRANCH   6   7
ATOM      7  C   UNL     1      -0.077 -28.926   6.699  1.00  0.00     0.000 C 
BRANCH   7   8
ATOM      8  C   UNL     1      -0.023 -29.391   5.236  1.00  0.00     0.000 C 
BRANCH   8   9
ATOM      9  C   UNL     1       1.383 -29.214   4.646  1.00  0.00     0.000 C 
BRANCH   9  10
ATOM     10  C   UNL     1       1.639 -30.119   3.428  1.00  0.00     0.000 C 
BRANCH  10  11
ATOM     11  C   UNL     1       0.374 -30.404   2.592  1.00  0.00     0.000 C 
BRANCH  11  12
ATOM     12  C   UNL     1       0.177 -29.377   1.462  1.00  0.00     0.000 C 
BRANCH  12  13
ATOM     13  C   UNL     1      -0.949 -28.371   1.764  1.00  0.00     0.006 C 
BRANCH  13  14
ATOM     14  C   UNL     1      -0.499 -26.902   1.752  1.00  0.00     0.053 C 
BRANCH  14  15
ATOM     15  C   UNL     1      -0.492 -26.308   3.127  1.00  0.00     0.041 C 
ATOM     16  O   UNL     1      -1.556 -26.245   3.797  1.00  0.00    -0.550 OA
ATOM     17  O   UNL     1       0.697 -25.845   3.680  1.00  0.00    -0.550 OA
ENDBRANCH  14  15
ENDBRANCH  13  14
ENDBRANCH  12  13
ENDBRANCH  11  12
ENDBRANCH  10  11
ENDBRANCH   9  10
ENDBRANCH   8   9
ENDBRANCH   7   8
ENDBRANCH   6   7
ENDBRANCH   5   6
ENDBRANCH   4   5
ENDBRANCH   3   4
ENDBRANCH   2   3
ENDBRANCH   1   2
BRANCH   1  18
ATOM     18  C   UNL     1      -4.393 -24.312  11.368  1.00  0.00     0.000 C 
BRANCH  18  19
ATOM     19  C   UNL     1      -3.508 -23.478  12.312  1.00  0.00     0.000 C 
BRANCH  19  20
ATOM     20  C   UNL     1      -2.301 -24.234  12.903  1.00  0.00     0.000 C 
BRANCH  20  21
ATOM     21  C   UNL     1      -1.979 -23.901  14.374  1.00  0.00     0.000 C 
BRANCH  21  22
ATOM     22  C   UNL     1      -0.487 -23.987  14.750  1.00  0.00     0.000 C 
BRANCH  22  23
ATOM     23  C   UNL     1       0.201 -25.323  14.405  1.00  0.00     0.000 C 
BRANCH  23  24
ATOM     24  C   UNL     1       1.461 -25.174  13.526  1.00  0.00    -0.000 C 
BRANCH  24  25
ATOM     25  C   UNL     1       1.180 -25.433  12.035  1.00  0.00    -0.000 C 
BRANCH  25  26
ATOM     26  C   UNL     1       1.960 -26.646  11.494  1.00  0.00    -0.000 C 
BRANCH  26  27
ATOM     27  C   UNL     1       1.280 -27.999  11.777  1.00  0.00    -0.000 C 
BRANCH  27  28
ATOM     28  C   UNL     1       2.099 -29.186  11.241  1.00  0.00    -0.000 C 
BRANCH  28  29
ATOM     29  C   UNL     1       1.430 -29.873  10.039  1.00  0.00    -0.000 C 
BRANCH  29  30
ATOM     30  C   UNL     1       1.347 -31.399  10.198  1.00  0.00    -0.000 C 
BRANCH  30  31
ATOM     31  C   UNL     1       0.037 -31.808  10.882  1.00  0.00    -0.003 C 
ATOM     32  C   UNL     1       0.188 -33.137  11.617  1.00  0.00     0.004 C 
ENDBRANCH  30  31
ENDBRANCH  29  30
ENDBRANCH  28  29
ENDBRANCH  27  28
ENDBRANCH  26  27
ENDBRANCH  25  26
ENDBRANCH  24  25
ENDBRANCH  23  24
ENDBRANCH  22  23
ENDBRANCH  21  22
ENDBRANCH  20  21
ENDBRANCH  19  20
ENDBRANCH  18  19
ENDBRANCH   1  18
TORSDOF 28
ENDMDL
MODEL 5
REMARK VINA RESULT:    -5.317      3.610     10.861
REMARK INTER + INTRA:         -17.321
REMARK INTER:                 -14.158
REMARK INTRA:                  -3.164
REMARK UNBOUND:                -3.301
REMARK SMILES CCCCCCCCCCCCCCCCCCCCCCCCCCCCCC(=O)[O-]
REMARK SMILES IDX 16 1 17 2 18 3 19 4 20 5 21 6 22 7 23 8 24 9 25 10 26 11
REMARK SMILES IDX 27 12 28 13 29 14 30 15 31 16 32 17 15 18 14 19 13 20 12 21
REMARK SMILES IDX 11 22 10 23 9 24 8 25 7 26 6 27 5 28 4 29 3 30 2 31 1 32
REMARK H PARENT
REMARK Flexibility Score: inf
ROOT
ATOM      1  C   UNL     1      -3.415 -26.845  10.122  1.00  0.00     0.000 C 
ENDROOT
BRANCH   1   2
ATOM      2  C   UNL     1      -4.311 -25.609  10.310  1.00  0.00     0.000 C 
BRANCH   2   3
ATOM      3  C   UNL     1      -3.516 -24.371  10.759  1.00  0.00     0.000 C 
BRANCH   3   4
ATOM      4  C   UNL     1      -4.235 -23.566  11.853  1.00  0.00     0.000 C 
BRANCH   4   5
ATOM      5  C   UNL     1      -3.298 -23.171  13.009  1.00  0.00     0.000 C 
BRANCH   5   6
ATOM      6  C   UNL     1      -2.163 -24.186  13.240  1.00  0.00     0.000 C 
BRANCH   6   7
ATOM      7  C   UNL     1      -1.303 -23.938  14.494  1.00  0.00     0.000 C 
BRANCH   7   8
ATOM      8  C   UNL     1      -1.848 -24.641  15.746  1.00  0.00     0.000 C 
BRANCH   8   9
ATOM      9  C   UNL     1      -0.775 -24.745  16.839  1.00  0.00     0.000 C 
BRANCH   9  10
ATOM     10  C   UNL     1       0.202 -25.911  16.609  1.00  0.00     0.000 C 
BRANCH  10  11
ATOM     11  C   UNL     1       1.552 -25.477  16.003  1.00  0.00     0.000 C 
BRANCH  11  12
ATOM     12  C   UNL     1       1.821 -26.142  14.640  1.00  0.00     0.000 C 
BRANCH  12  13
ATOM     13  C   UNL     1       0.872 -27.321  14.357  1.00  0.00     0.006 C 
BRANCH  13  14
ATOM     14  C   UNL     1       0.533 -27.511  12.870  1.00  0.00     0.053 C 
BRANCH  14  15
ATOM     15  C   UNL     1       0.993 -28.840  12.356  1.00  0.00     0.041 C 
ATOM     16  O   UNL     1       1.824 -29.522  13.013  1.00  0.00    -0.550 OA
ATOM     17  O   UNL     1       0.485 -29.339  11.163  1.00  0.00    -0.550 OA
ENDBRANCH  14  15
ENDBRANCH  13  14
ENDBRANCH  12  13
ENDBRANCH  11  12
ENDBRANCH  10  11
ENDBRANCH   9  10
ENDBRANCH   8   9
ENDBRANCH   7   8
ENDBRANCH   6   7
ENDBRANCH   5   6
ENDBRANCH   4   5
ENDBRANCH   3   4
ENDBRANCH   2   3
ENDBRANCH   1   2
BRANCH   1  18
ATOM     18  C   UNL     1      -1.921 -26.489  10.038  1.00  0.00     0.000 C 
BRANCH  18  19
ATOM     19  C   UNL     1      -1.170 -27.332   8.991  1.00  0.00     0.000 C 
BRANCH  19  20
ATOM     20  C   UNL     1       0.128 -26.694   8.456  1.00  0.00     0.000 C 
BRANCH  20  21
ATOM     21  C   UNL     1       0.572 -27.187   7.064  1.00  0.00     0.000 C 
BRANCH  21  22
ATOM     22  C   UNL     1      -0.533 -27.862   6.228  1.00  0.00     0.000 C 
BRANCH  22  23
ATOM     23  C   UNL     1      -0.074 -29.067   5.384  1.00  0.00     0.000 C 
BRANCH  23  24
ATOM     24  C   UNL     1       1.443 -29.095   5.098  1.00  0.00    -0.000 C 
BRANCH  24  25
ATOM     25  C   UNL     1       1.769 -29.516   3.653  1.00  0.00    -0.000 C 
BRANCH  25  26
ATOM     26  C   UNL     1       0.563 -30.163   2.946  1.00  0.00    -0.000 C 
BRANCH  26  27
ATOM     27  C   UNL     1       0.205 -29.506   1.600  1.00  0.00    -0.000 C 
BRANCH  27  28
ATOM     28  C   UNL     1      -0.224 -28.037   1.764  1.00  0.00    -0.000 C 
BRANCH  28  29
ATOM     29  C   UNL     1      -1.750 -27.873   1.854  1.00  0.00    -0.000 C 
BRANCH  29  30
ATOM     30  C   UNL     1      -2.201 -26.414   1.688  1.00  0.00    -0.000 C 
BRANCH  30  31
ATOM     31  C   UNL     1      -1.151 -25.449   2.252  1.00  0.00    -0.003 C 
ATOM     32  C   UNL     1      -1.248 -25.354   3.772  1.00  0.00     0.004 C 
ENDBRANCH  30  31
ENDBRANCH  29  30
ENDBRANCH  28  29
ENDBRANCH  27  28
ENDBRANCH  26  27
ENDBRANCH  25  26
ENDBRANCH  24  25
ENDBRANCH  23  24
ENDBRANCH  22  23
ENDBRANCH  21  22
ENDBRANCH  20  21
ENDBRANCH  19  20
ENDBRANCH  18  19
ENDBRANCH   1  18
TORSDOF 28
ENDMDL
MODEL 6
REMARK VINA RESULT:    -5.216      3.038      9.896
REMARK INTER + INTRA:         -17.055
REMARK INTER:                 -13.967
REMARK INTRA:                  -3.088
REMARK UNBOUND:                -3.301
REMARK SMILES CCCCCCCCCCCCCCCCCCCCCCCCCCCCCC(=O)[O-]
REMARK SMILES IDX 16 1 17 2 18 3 19 4 20 5 21 6 22 7 23 8 24 9 25 10 26 11
REMARK SMILES IDX 27 12 28 13 29 14 30 15 31 16 32 17 15 18 14 19 13 20 12 21
REMARK SMILES IDX 11 22 10 23 9 24 8 25 7 26 6 27 5 28 4 29 3 30 2 31 1 32
REMARK H PARENT
REMARK Flexibility Score: inf
ROOT
ATOM      1  C   UNL     1      -0.465 -27.578   7.520  1.00  0.00     0.000 C 
ENDROOT
BRANCH   1   2
ATOM      2  C   UNL     1       0.084 -28.901   8.081  1.00  0.00     0.000 C 
BRANCH   2   3
ATOM      3  C   UNL     1      -0.429 -29.193   9.501  1.00  0.00     0.000 C 
BRANCH   3   4
ATOM      4  C   UNL     1       0.497 -28.638  10.595  1.00  0.00     0.000 C 
BRANCH   4   5
ATOM      5  C   UNL     1      -0.132 -27.460  11.360  1.00  0.00     0.000 C 
BRANCH   5   6
ATOM      6  C   UNL     1       0.447 -26.093  10.947  1.00  0.00     0.000 C 
BRANCH   6   7
ATOM      7  C   UNL     1       1.759 -25.694  11.651  1.00  0.00     0.000 C 
BRANCH   7   8
ATOM      8  C   UNL     1       1.616 -25.591  13.177  1.00  0.00     0.000 C 
BRANCH   8   9
ATOM      9  C   UNL     1       0.888 -24.302  13.583  1.00  0.00     0.000 C 
BRANCH   9  10
ATOM     10  C   UNL     1      -0.337 -24.563  14.477  1.00  0.00     0.000 C 
BRANCH  10  11
ATOM     11  C   UNL     1      -1.623 -23.869  13.983  1.00  0.00     0.000 C 
BRANCH  11  12
ATOM     12  C   UNL     1      -2.223 -24.563  12.747  1.00  0.00     0.000 C 
BRANCH  12  13
ATOM     13  C   UNL     1      -3.537 -23.910  12.278  1.00  0.00     0.006 C 
BRANCH  13  14
ATOM     14  C   UNL     1      -3.876 -24.171  10.803  1.00  0.00     0.053 C 
BRANCH  14  15
ATOM     15  C   UNL     1      -4.151 -25.619  10.539  1.00  0.00     0.041 C 
ATOM     16  O   UNL     1      -5.297 -26.097  10.748  1.00  0.00    -0.550 OA
ATOM     17  O   UNL     1      -3.146 -26.439  10.039  1.00  0.00    -0.550 OA
ENDBRANCH  14  15
ENDBRANCH  13  14
ENDBRANCH  12  13
ENDBRANCH  11  12
ENDBRANCH  10  11
ENDBRANCH   9  10
ENDBRANCH   8   9
ENDBRANCH   7   8
ENDBRANCH   6   7
ENDBRANCH   5   6
ENDBRANCH   4   5
ENDBRANCH   3   4
ENDBRANCH   2   3
ENDBRANCH   1   2
BRANCH   1  18
ATOM     18  C   UNL     1      -0.113 -27.370   6.037  1.00  0.00     0.000 C 
BRANCH  18  19
ATOM     19  C   UNL     1       1.171 -28.112   5.624  1.00  0.00     0.000 C 
BRANCH  19  20
ATOM     20  C   UNL     1       1.940 -27.471   4.451  1.00  0.00     0.000 C 
BRANCH  20  21
ATOM     21  C   UNL     1       2.125 -28.379   3.219  1.00  0.00     0.000 C 
BRANCH  21  22
ATOM     22  C   UNL     1       1.403 -29.739   3.296  1.00  0.00     0.000 C 
BRANCH  22  23
ATOM     23  C   UNL     1       0.327 -29.973   2.218  1.00  0.00     0.000 C 
BRANCH  23  24
ATOM     24  C   UNL     1      -0.164 -28.683   1.526  1.00  0.00    -0.000 C 
BRANCH  24  25
ATOM     25  C   UNL     1      -1.641 -28.371   1.826  1.00  0.00    -0.000 C 
BRANCH  25  26
ATOM     26  C   UNL     1      -1.907 -26.859   1.951  1.00  0.00    -0.000 C 
BRANCH  26  27
ATOM     27  C   UNL     1      -0.727 -26.066   2.543  1.00  0.00    -0.000 C 
BRANCH  27  28
ATOM     28  C   UNL     1      -1.062 -24.577   2.735  1.00  0.00    -0.000 C 
BRANCH  28  29
ATOM     29  C   UNL     1      -1.595 -23.920   1.451  1.00  0.00    -0.000 C 
BRANCH  29  30
ATOM     30  C   UNL     1      -0.507 -23.734   0.382  1.00  0.00    -0.000 C 
BRANCH  30  31
ATOM     31  C   UNL     1      -0.923 -24.388  -0.941  1.00  0.00    -0.003 C 
ATOM     32  C   UNL     1      -2.163 -25.259  -0.761  1.00  0.00     0.004 C 
ENDBRANCH  30  31
ENDBRANCH  29  30
ENDBRANCH  28  29
ENDBRANCH  27  28
ENDBRANCH  26  27
ENDBRANCH  25  26
ENDBRANCH  24  25
ENDBRANCH  23  24
ENDBRANCH  22  23
ENDBRANCH  21  22
ENDBRANCH  20  21
ENDBRANCH  19  20
ENDBRANCH  18  19
ENDBRANCH   1  18
TORSDOF 28
ENDMDL
MODEL 7
REMARK VINA RESULT:    -5.210      3.088      9.679
REMARK INTER + INTRA:         -17.040
REMARK INTER:                 -13.166
REMARK INTRA:                  -3.874
REMARK UNBOUND:                -3.301
REMARK SMILES CCCCCCCCCCCCCCCCCCCCCCCCCCCCCC(=O)[O-]
REMARK SMILES IDX 16 1 17 2 18 3 19 4 20 5 21 6 22 7 23 8 24 9 25 10 26 11
REMARK SMILES IDX 27 12 28 13 29 14 30 15 31 16 32 17 15 18 14 19 13 20 12 21
REMARK SMILES IDX 11 22 10 23 9 24 8 25 7 26 6 27 5 28 4 29 3 30 2 31 1 32
REMARK H PARENT
REMARK Flexibility Score: inf
ROOT
ATOM      1  C   UNL     1       1.471 -27.831  10.731  1.00  0.00     0.000 C 
ENDROOT
BRANCH   1   2
ATOM      2  C   UNL     1       0.423 -28.812  11.283  1.00  0.00     0.000 C 
BRANCH   2   3
ATOM      3  C   UNL     1       0.891 -29.507  12.573  1.00  0.00     0.000 C 
BRANCH   3   4
ATOM      4  C   UNL     1       2.124 -28.834  13.198  1.00  0.00     0.000 C 
BRANCH   4   5
ATOM      5  C   UNL     1       1.809 -28.159  14.546  1.00  0.00     0.000 C 
BRANCH   5   6
ATOM      6  C   UNL     1       0.299 -28.028  14.817  1.00  0.00     0.000 C 
BRANCH   6   7
ATOM      7  C   UNL     1      -0.215 -26.587  15.003  1.00  0.00     0.000 C 
BRANCH   7   8
ATOM      8  C   UNL     1       0.476 -25.578  14.072  1.00  0.00     0.000 C 
BRANCH   8   9
ATOM      9  C   UNL     1      -0.099 -24.167  14.255  1.00  0.00     0.000 C 
BRANCH   9  10
ATOM     10  C   UNL     1      -1.624 -24.111  14.057  1.00  0.00     0.000 C 
BRANCH  10  11
ATOM     11  C   UNL     1      -2.062 -24.238  12.584  1.00  0.00     0.000 C 
BRANCH  11  12
ATOM     12  C   UNL     1      -3.516 -23.779  12.365  1.00  0.00     0.000 C 
BRANCH  12  13
ATOM     13  C   UNL     1      -4.027 -24.082  10.944  1.00  0.00     0.006 C 
BRANCH  13  14
ATOM     14  C   UNL     1      -3.855 -25.546  10.514  1.00  0.00     0.053 C 
BRANCH  14  15
ATOM     15  C   UNL     1      -5.173 -26.238  10.345  1.00  0.00     0.041 C 
ATOM     16  O   UNL     1      -5.796 -26.157   9.254  1.00  0.00    -0.550 OA
ATOM     17  O   UNL     1      -5.701 -26.995  11.384  1.00  0.00    -0.550 OA
ENDBRANCH  14  15
ENDBRANCH  13  14
ENDBRANCH  12  13
ENDBRANCH  11  12
ENDBRANCH  10  11
ENDBRANCH   9  10
ENDBRANCH   8   9
ENDBRANCH   7   8
ENDBRANCH   6   7
ENDBRANCH   5   6
ENDBRANCH   4   5
ENDBRANCH   3   4
ENDBRANCH   2   3
ENDBRANCH   1   2
BRANCH   1  18
ATOM     18  C   UNL     1       0.848 -26.520  10.223  1.00  0.00     0.000 C 
BRANCH  18  19
ATOM     19  C   UNL     1      -0.511 -26.739   9.533  1.00  0.00     0.000 C 
BRANCH  19  20
ATOM     20  C   UNL     1      -0.441 -26.899   8.002  1.00  0.00     0.000 C 
BRANCH  20  21
ATOM     21  C   UNL     1       0.979 -26.833   7.403  1.00  0.00     0.000 C 
BRANCH  21  22
ATOM     22  C   UNL     1       1.483 -28.148   6.776  1.00  0.00     0.000 C 
BRANCH  22  23
ATOM     23  C   UNL     1       0.399 -29.217   6.534  1.00  0.00     0.000 C 
BRANCH  23  24
ATOM     24  C   UNL     1      -0.130 -29.262   5.084  1.00  0.00    -0.000 C 
BRANCH  24  25
ATOM     25  C   UNL     1       0.955 -29.660   4.067  1.00  0.00    -0.000 C 
BRANCH  25  26
ATOM     26  C   UNL     1       0.360 -30.266   2.783  1.00  0.00    -0.000 C 
BRANCH  26  27
ATOM     27  C   UNL     1       0.286 -29.278   1.604  1.00  0.00    -0.000 C 
BRANCH  27  28
ATOM     28  C   UNL     1      -1.041 -28.499   1.578  1.00  0.00    -0.000 C 
BRANCH  28  29
ATOM     29  C   UNL     1      -0.849 -26.994   1.829  1.00  0.00    -0.000 C 
BRANCH  29  30
ATOM     30  C   UNL     1      -1.496 -26.524   3.142  1.00  0.00    -0.000 C 
BRANCH  30  31
ATOM     31  C   UNL     1      -0.534 -25.632   3.936  1.00  0.00    -0.003 C 
ATOM     32  C   UNL     1       0.896 -25.763   3.419  1.00  0.00     0.004 C 
ENDBRANCH  30  31
ENDBRANCH  29  30
ENDBRANCH  28  29
ENDBRANCH  27  28
ENDBRANCH  26  27
ENDBRANCH  25  26
ENDBRANCH  24  25
ENDBRANCH  23  24
ENDBRANCH  22  23
ENDBRANCH  21  22
ENDBRANCH  20  21
ENDBRANCH  19  20
ENDBRANCH  18  19
ENDBRANCH   1  18
TORSDOF 28
ENDMDL
MODEL 8
REMARK VINA RESULT:    -5.177      4.003     10.083
REMARK INTER + INTRA:         -16.951
REMARK INTER:                 -13.643
REMARK INTRA:                  -3.308
REMARK UNBOUND:                -3.301
REMARK SMILES CCCCCCCCCCCCCCCCCCCCCCCCCCCCCC(=O)[O-]
REMARK SMILES IDX 16 1 17 2 18 3 19 4 20 5 21 6 22 7 23 8 24 9 25 10 26 11
REMARK SMILES IDX 27 12 28 13 29 14 30 15 31 16 32 17 15 18 14 19 13 20 12 21
REMARK SMILES IDX 11 22 10 23 9 24 8 25 7 26 6 27 5 28 4 29 3 30 2 31 1 32
REMARK H PARENT
REMARK Flexibility Score: inf
ROOT
ATOM      1  C   UNL     1      -4.378 -25.287  10.065  1.00  0.00     0.000 C 
ENDROOT
BRANCH   1   2
ATOM      2  C   UNL     1      -4.369 -24.125  11.073  1.00  0.00     0.000 C 
BRANCH   2   3
ATOM      3  C   UNL     1      -3.005 -23.957  11.762  1.00  0.00     0.000 C 
BRANCH   3   4
ATOM      4  C   UNL     1      -3.120 -23.358  13.173  1.00  0.00     0.000 C 
BRANCH   4   5
ATOM      5  C   UNL     1      -1.978 -23.809  14.102  1.00  0.00     0.000 C 
BRANCH   5   6
ATOM      6  C   UNL     1      -0.962 -24.733  13.405  1.00  0.00     0.000 C 
BRANCH   6   7
ATOM      7  C   UNL     1       0.235 -25.168  14.273  1.00  0.00     0.000 C 
BRANCH   7   8
ATOM      8  C   UNL     1       1.577 -25.087  13.530  1.00  0.00     0.000 C 
BRANCH   8   9
ATOM      9  C   UNL     1       1.961 -26.442  12.920  1.00  0.00     0.000 C 
BRANCH   9  10
ATOM     10  C   UNL     1       1.284 -27.630  13.626  1.00  0.00     0.000 C 
BRANCH  10  11
ATOM     11  C   UNL     1       1.473 -28.974  12.894  1.00  0.00     0.000 C 
BRANCH  11  12
ATOM     12  C   UNL     1       2.010 -28.789  11.462  1.00  0.00     0.000 C 
BRANCH  12  13
ATOM     13  C   UNL     1       1.745 -30.013  10.566  1.00  0.00     0.006 C 
BRANCH  13  14
ATOM     14  C   UNL     1       0.367 -30.659  10.778  1.00  0.00     0.053 C 
BRANCH  14  15
ATOM     15  C   UNL     1       0.479 -32.054  11.313  1.00  0.00     0.041 C 
ATOM     16  O   UNL     1       1.512 -32.414  11.935  1.00  0.00    -0.550 OA
ATOM     17  O   UNL     1      -0.570 -32.950  11.145  1.00  0.00    -0.550 OA
ENDBRANCH  14  15
ENDBRANCH  13  14
ENDBRANCH  12  13
ENDBRANCH  11  12
ENDBRANCH  10  11
ENDBRANCH   9  10
ENDBRANCH   8   9
ENDBRANCH   7   8
ENDBRANCH   6   7
ENDBRANCH   5   6
ENDBRANCH   4   5
ENDBRANCH   3   4
ENDBRANCH   2   3
ENDBRANCH   1   2
BRANCH   1  18
ATOM     18  C   UNL     1      -3.415 -26.421  10.456  1.00  0.00     0.000 C 
BRANCH  18  19
ATOM     19  C   UNL     1      -2.179 -26.489   9.541  1.00  0.00     0.000 C 
BRANCH  19  20
ATOM     20  C   UNL     1      -0.836 -26.667  10.278  1.00  0.00     0.000 C 
BRANCH  20  21
ATOM     21  C   UNL     1       0.419 -26.461   9.407  1.00  0.00     0.000 C 
BRANCH  21  22
ATOM     22  C   UNL     1       0.265 -26.879   7.932  1.00  0.00     0.000 C 
BRANCH  22  23
ATOM     23  C   UNL     1       1.583 -26.988   7.139  1.00  0.00     0.000 C 
BRANCH  23  24
ATOM     24  C   UNL     1       1.408 -26.892   5.609  1.00  0.00    -0.000 C 
BRANCH  24  25
ATOM     25  C   UNL     1       0.606 -28.070   5.025  1.00  0.00    -0.000 C 
BRANCH  25  26
ATOM     26  C   UNL     1      -0.571 -27.601   4.151  1.00  0.00    -0.000 C 
BRANCH  26  27
ATOM     27  C   UNL     1      -1.074 -26.186   4.491  1.00  0.00    -0.000 C 
BRANCH  27  28
ATOM     28  C   UNL     1      -1.229 -25.305   3.239  1.00  0.00    -0.000 C 
BRANCH  28  29
ATOM     29  C   UNL     1      -0.283 -25.721   2.101  1.00  0.00    -0.000 C 
BRANCH  29  30
ATOM     30  C   UNL     1      -1.026 -26.342   0.908  1.00  0.00    -0.000 C 
BRANCH  30  31
ATOM     31  C   UNL     1      -2.377 -25.651   0.685  1.00  0.00    -0.003 C 
ATOM     32  C   UNL     1      -2.745 -25.622  -0.795  1.00  0.00     0.004 C 
ENDBRANCH  30  31
ENDBRANCH  29  30
ENDBRANCH  28  29
ENDBRANCH  27  28
ENDBRANCH  26  27
ENDBRANCH  25  26
ENDBRANCH  24  25
ENDBRANCH  23  24
ENDBRANCH  22  23
ENDBRANCH  21  22
ENDBRANCH  20  21
ENDBRANCH  19  20
ENDBRANCH  18  19
ENDBRANCH   1  18
TORSDOF 28
ENDMDL
MODEL 9
REMARK VINA RESULT:    -4.916      4.240      9.914
REMARK INTER + INTRA:         -16.264
REMARK INTER:                 -11.684
REMARK INTRA:                  -4.580
REMARK UNBOUND:                -3.301
REMARK SMILES CCCCCCCCCCCCCCCCCCCCCCCCCCCCCC(=O)[O-]
REMARK SMILES IDX 16 1 17 2 18 3 19 4 20 5 21 6 22 7 23 8 24 9 25 10 26 11
REMARK SMILES IDX 27 12 28 13 29 14 30 15 31 16 32 17 15 18 14 19 13 20 12 21
REMARK SMILES IDX 11 22 10 23 9 24 8 25 7 26 6 27 5 28 4 29 3 30 2 31 1 32
REMARK H PARENT
REMARK Flexibility Score: inf
ROOT
ATOM      1  C   UNL     1       1.118 -28.060  10.850  1.00  0.00     0.000 C 
ENDROOT
BRANCH   1   2
ATOM      2  C   UNL     1      -0.135 -28.940  10.708  1.00  0.00     0.000 C 
BRANCH   2   3
ATOM      3  C   UNL     1       0.136 -30.219   9.897  1.00  0.00     0.000 C 
BRANCH   3   4
ATOM      4  C   UNL     1       1.623 -30.609   9.878  1.00  0.00     0.000 C 
BRANCH   4   5
ATOM      5  C   UNL     1       1.887 -31.967  10.551  1.00  0.00     0.000 C 
BRANCH   5   6
ATOM      6  C   UNL     1       0.640 -32.552  11.241  1.00  0.00     0.000 C 
BRANCH   6   7
ATOM      7  C   UNL     1       0.572 -32.344  12.766  1.00  0.00     0.000 C 
BRANCH   7   8
ATOM      8  C   UNL     1       1.738 -31.506  13.311  1.00  0.00     0.000 C 
BRANCH   8   9
ATOM      9  C   UNL     1       1.262 -30.524  14.392  1.00  0.00     0.000 C 
BRANCH   9  10
ATOM     10  C   UNL     1       1.572 -29.057  14.047  1.00  0.00     0.000 C 
BRANCH  10  11
ATOM     11  C   UNL     1       0.458 -28.075  14.462  1.00  0.00     0.000 C 
BRANCH  11  12
ATOM     12  C   UNL     1       1.015 -26.698  14.870  1.00  0.00     0.000 C 
BRANCH  12  13
ATOM     13  C   UNL     1       0.792 -25.624  13.789  1.00  0.00     0.006 C 
BRANCH  13  14
ATOM     14  C   UNL     1      -0.667 -25.494  13.325  1.00  0.00     0.053 C 
BRANCH  14  15
ATOM     15  C   UNL     1      -1.351 -24.317  13.950  1.00  0.00     0.041 C 
ATOM     16  O   UNL     1      -2.372 -23.816  13.410  1.00  0.00    -0.550 OA
ATOM     17  O   UNL     1      -0.875 -23.788  15.143  1.00  0.00    -0.550 OA
ENDBRANCH  14  15
ENDBRANCH  13  14
ENDBRANCH  12  13
ENDBRANCH  11  12
ENDBRANCH  10  11
ENDBRANCH   9  10
ENDBRANCH   8   9
ENDBRANCH   7   8
ENDBRANCH   6   7
ENDBRANCH   5   6
ENDBRANCH   4   5
ENDBRANCH   3   4
ENDBRANCH   2   3
ENDBRANCH   1   2
BRANCH   1  18
ATOM     18  C   UNL     1       0.985 -26.713  10.119  1.00  0.00     0.000 C 
BRANCH  18  19
ATOM     19  C   UNL     1      -0.410 -26.513   9.498  1.00  0.00     0.000 C 
BRANCH  19  20
ATOM     20  C   UNL     1      -0.493 -26.804   7.986  1.00  0.00     0.000 C 
BRANCH  20  21
ATOM     21  C   UNL     1       0.867 -26.932   7.270  1.00  0.00     0.000 C 
BRANCH  21  22
ATOM     22  C   UNL     1       1.178 -28.331   6.706  1.00  0.00     0.000 C 
BRANCH  22  23
ATOM     23  C   UNL     1      -0.056 -29.184   6.349  1.00  0.00     0.000 C 
BRANCH  23  24
ATOM     24  C   UNL     1      -0.123 -29.606   4.866  1.00  0.00    -0.000 C 
BRANCH  24  25
ATOM     25  C   UNL     1       1.269 -29.846   4.252  1.00  0.00    -0.000 C 
BRANCH  25  26
ATOM     26  C   UNL     1       1.298 -29.560   2.739  1.00  0.00    -0.000 C 
BRANCH  26  27
ATOM     27  C   UNL     1       0.993 -28.094   2.377  1.00  0.00    -0.000 C 
BRANCH  27  28
ATOM     28  C   UNL     1       1.795 -27.102   3.236  1.00  0.00    -0.000 C 
BRANCH  28  29
ATOM     29  C   UNL     1       1.202 -25.684   3.214  1.00  0.00    -0.000 C 
BRANCH  29  30
ATOM     30  C   UNL     1       0.076 -25.528   2.180  1.00  0.00    -0.000 C 
BRANCH  30  31
ATOM     31  C   UNL     1      -1.283 -25.369   2.871  1.00  0.00    -0.003 C 
ATOM     32  C   UNL     1      -1.249 -25.927   4.291  1.00  0.00     0.004 C 
ENDBRANCH  30  31
ENDBRANCH  29  30
ENDBRANCH  28  29
ENDBRANCH  27  28
ENDBRANCH  26  27
ENDBRANCH  25  26
ENDBRANCH  24  25
ENDBRANCH  23  24
ENDBRANCH  22  23
ENDBRANCH  21  22
ENDBRANCH  20  21
ENDBRANCH  19  20
ENDBRANCH  18  19
ENDBRANCH   1  18
TORSDOF 28
ENDMDL
