MODEL 1
REMARK VINA RESULT:    -5.711      0.000      0.000
REMARK INTER + INTRA:          -6.588
REMARK INTER:                  -6.379
REMARK INTRA:                  -0.208
REMARK UNBOUND:                -0.208
REMARK SMILES CC(C)c1ccc(C(=O)[O-])cc1
REMARK SMILES IDX 7 1 6 2 11 3 5 4 12 5 4 6 8 7 9 8 10 9 2 10 1 11 3 12
REMARK H PARENT
REMARK Flexibility Score: inf
ROOT
ATOM      1  C   UNL     1     151.986 145.361 131.873  1.00  0.00    -0.003 A 
ATOM      2  C   UNL     1     151.311 144.369 131.143  1.00  0.00     0.010 A 
ATOM      3  C   UNL     1     152.763 144.982 132.980  1.00  0.00     0.010 A 
ATOM      4  C   UNL     1     151.410 143.024 131.513  1.00  0.00     0.004 A 
ATOM      5  C   UNL     1     152.863 143.637 133.349  1.00  0.00     0.004 A 
ATOM      6  C   UNL     1     152.189 142.644 132.621  1.00  0.00    -0.045 A 
ENDROOT
BRANCH   1   7
ATOM      7  C   UNL     1     151.884 146.785 131.485  1.00  0.00     0.071 C 
ATOM      8  O   UNL     1     151.217 147.594 132.185  1.00  0.00    -0.545 OA
ATOM      9  O   UNL     1     152.522 147.252 130.342  1.00  0.00    -0.545 OA
ENDBRANCH   1   7
BRANCH   6  10
ATOM     10  C   UNL     1     152.306 141.188 133.033  1.00  0.00     0.013 C 
ATOM     11  C   UNL     1     153.084 141.047 134.346  1.00  0.00     0.012 C 
ATOM     12  C   UNL     1     152.942 140.347 131.921  1.00  0.00     0.012 C 
ENDBRANCH   6  10
TORSDOF 2
ENDMDL
MODEL 2
REMARK VINA RESULT:    -5.691      0.059      1.399
REMARK INTER + INTRA:          -6.565
REMARK INTER:                  -6.357
REMARK INTRA:                  -0.207
REMARK UNBOUND:                -0.208
REMARK SMILES CC(C)c1ccc(C(=O)[O-])cc1
REMARK SMILES IDX 7 1 6 2 11 3 5 4 12 5 4 6 8 7 9 8 10 9 2 10 1 11 3 12
REMARK H PARENT
REMARK Flexibility Score: inf
ROOT
ATOM      1  C   UNL     1     152.005 145.410 131.870  1.00  0.00    -0.003 A 
ATOM      2  C   UNL     1     152.788 145.036 132.976  1.00  0.00     0.010 A 
ATOM      3  C   UNL     1     151.319 144.416 131.154  1.00  0.00     0.010 A 
ATOM      4  C   UNL     1     152.883 143.694 133.357  1.00  0.00     0.004 A 
ATOM      5  C   UNL     1     151.413 143.074 131.536  1.00  0.00     0.004 A 
ATOM      6  C   UNL     1     152.195 142.698 132.640  1.00  0.00    -0.045 A 
ENDROOT
BRANCH   1   7
ATOM      7  C   UNL     1     151.903 146.829 131.464  1.00  0.00     0.071 C 
ATOM      8  O   UNL     1     151.192 147.635 132.122  1.00  0.00    -0.545 OA
ATOM      9  O   UNL     1     152.590 147.293 130.348  1.00  0.00    -0.545 OA
ENDBRANCH   1   7
BRANCH   6  10
ATOM     10  C   UNL     1     152.289 141.238 133.042  1.00  0.00     0.013 C 
ATOM     11  C   UNL     1     153.045 141.077 134.366  1.00  0.00     0.012 C 
ATOM     12  C   UNL     1     152.933 140.398 131.933  1.00  0.00     0.012 C 
ENDBRANCH   6  10
TORSDOF 2
ENDMDL
MODEL 3
REMARK VINA RESULT:    -5.578      3.278      5.256
REMARK INTER + INTRA:          -6.438
REMARK INTER:                  -6.236
REMARK INTRA:                  -0.202
REMARK UNBOUND:                -0.208
REMARK SMILES CC(C)c1ccc(C(=O)[O-])cc1
REMARK SMILES IDX 7 1 6 2 11 3 5 4 12 5 4 6 8 7 9 8 10 9 2 10 1 11 3 12
REMARK H PARENT
REMARK Flexibility Score: inf
ROOT
ATOM      1  C   UNL     1     152.700 142.736 133.850  1.00  0.00    -0.003 A 
ATOM      2  C   UNL     1     153.200 143.969 134.303  1.00  0.00     0.010 A 
ATOM      3  C   UNL     1     152.033 142.684 132.615  1.00  0.00     0.010 A 
ATOM      4  C   UNL     1     153.035 145.126 133.537  1.00  0.00     0.004 A 
ATOM      5  C   UNL     1     151.869 143.842 131.848  1.00  0.00     0.004 A 
ATOM      6  C   UNL     1     152.368 145.075 132.299  1.00  0.00    -0.045 A 
ENDROOT
BRANCH   1   7
ATOM      7  C   UNL     1     152.872 141.509 134.658  1.00  0.00     0.071 C 
ATOM      8  O   UNL     1     152.581 141.503 135.884  1.00  0.00    -0.545 OA
ATOM      9  O   UNL     1     153.357 140.344 134.075  1.00  0.00    -0.545 OA
ENDBRANCH   1   7
BRANCH   6  10
ATOM     10  C   UNL     1     152.182 146.323 131.457  1.00  0.00     0.013 C 
ATOM     11  C   UNL     1     153.530 146.977 131.134  1.00  0.00     0.012 C 
ATOM     12  C   UNL     1     151.237 147.318 132.142  1.00  0.00     0.012 C 
ENDBRANCH   6  10
TORSDOF 2
ENDMDL
MODEL 4
REMARK VINA RESULT:    -5.560      3.261      5.058
REMARK INTER + INTRA:          -6.419
REMARK INTER:                  -6.214
REMARK INTRA:                  -0.205
REMARK UNBOUND:                -0.208
REMARK SMILES CC(C)c1ccc(C(=O)[O-])cc1
REMARK SMILES IDX 7 1 6 2 11 3 5 4 12 5 4 6 8 7 9 8 10 9 2 10 1 11 3 12
REMARK H PARENT
REMARK Flexibility Score: inf
ROOT
ATOM      1  C   UNL     1     152.670 142.771 133.845  1.00  0.00    -0.003 A 
ATOM      2  C   UNL     1     151.977 142.685 132.625  1.00  0.00     0.010 A 
ATOM      3  C   UNL     1     153.186 144.013 134.249  1.00  0.00     0.010 A 
ATOM      4  C   UNL     1     151.806 143.818 131.825  1.00  0.00     0.004 A 
ATOM      5  C   UNL     1     153.014 145.147 133.449  1.00  0.00     0.004 A 
ATOM      6  C   UNL     1     152.323 145.063 132.229  1.00  0.00    -0.045 A 
ENDROOT
BRANCH   1   7
ATOM      7  C   UNL     1     152.853 141.573 134.694  1.00  0.00     0.071 C 
ATOM      8  O   UNL     1     152.564 141.606 135.920  1.00  0.00    -0.545 OA
ATOM      9  O   UNL     1     153.349 140.394 134.150  1.00  0.00    -0.545 OA
ENDBRANCH   1   7
BRANCH   6  10
ATOM     10  C   UNL     1     152.144 146.301 131.371  1.00  0.00     0.013 C 
ATOM     11  C   UNL     1     153.494 146.953 131.053  1.00  0.00     0.012 C 
ATOM     12  C   UNL     1     151.191 147.303 132.035  1.00  0.00     0.012 C 
ENDBRANCH   6  10
TORSDOF 2
ENDMDL
MODEL 5
REMARK VINA RESULT:    -5.064      2.494      3.402
REMARK INTER + INTRA:          -5.865
REMARK INTER:                  -5.656
REMARK INTRA:                  -0.208
REMARK UNBOUND:                -0.208
REMARK SMILES CC(C)c1ccc(C(=O)[O-])cc1
REMARK SMILES IDX 7 1 6 2 11 3 5 4 12 5 4 6 8 7 9 8 10 9 2 10 1 11 3 12
REMARK H PARENT
REMARK Flexibility Score: inf
ROOT
ATOM      1  C   UNL     1     153.428 145.667 134.592  1.00  0.00    -0.003 A 
ATOM      2  C   UNL     1     153.057 146.084 133.303  1.00  0.00     0.010 A 
ATOM      3  C   UNL     1     153.306 144.309 134.931  1.00  0.00     0.010 A 
ATOM      4  C   UNL     1     152.573 145.161 132.371  1.00  0.00     0.004 A 
ATOM      5  C   UNL     1     152.823 143.387 133.998  1.00  0.00     0.004 A 
ATOM      6  C   UNL     1     152.451 143.801 132.709  1.00  0.00    -0.045 A 
ENDROOT
BRANCH   1   7
ATOM      7  C   UNL     1     153.940 146.641 135.582  1.00  0.00     0.071 C 
ATOM      8  O   UNL     1     153.158 147.196 136.399  1.00  0.00    -0.545 OA
ATOM      9  O   UNL     1     155.293 146.957 135.623  1.00  0.00    -0.545 OA
ENDBRANCH   1   7
BRANCH   6  10
ATOM     10  C   UNL     1     151.928 142.789 131.707  1.00  0.00     0.013 C 
ATOM     11  C   UNL     1     150.511 143.149 131.246  1.00  0.00     0.012 C 
ATOM     12  C   UNL     1     151.977 141.367 132.279  1.00  0.00     0.012 C 
ENDBRANCH   6  10
TORSDOF 2
ENDMDL
MODEL 6
REMARK VINA RESULT:    -5.013      2.394      3.890
REMARK INTER + INTRA:          -5.808
REMARK INTER:                  -5.605
REMARK INTRA:                  -0.203
REMARK UNBOUND:                -0.208
REMARK SMILES CC(C)c1ccc(C(=O)[O-])cc1
REMARK SMILES IDX 7 1 6 2 11 3 5 4 12 5 4 6 8 7 9 8 10 9 2 10 1 11 3 12
REMARK H PARENT
REMARK Flexibility Score: inf
ROOT
ATOM      1  C   UNL     1     151.492 144.232 131.515  1.00  0.00    -0.003 A 
ATOM      2  C   UNL     1     151.812 145.594 131.644  1.00  0.00     0.010 A 
ATOM      3  C   UNL     1     152.027 143.316 132.435  1.00  0.00     0.010 A 
ATOM      4  C   UNL     1     152.652 146.031 132.673  1.00  0.00     0.004 A 
ATOM      5  C   UNL     1     152.865 143.753 133.465  1.00  0.00     0.004 A 
ATOM      6  C   UNL     1     153.188 145.114 133.596  1.00  0.00    -0.045 A 
ENDROOT
BRANCH   1   7
ATOM      7  C   UNL     1     150.603 143.766 130.427  1.00  0.00     0.071 C 
ATOM      8  O   UNL     1     149.645 142.986 130.672  1.00  0.00    -0.545 OA
ATOM      9  O   UNL     1     150.815 144.184 129.118  1.00  0.00    -0.545 OA
ENDBRANCH   1   7
BRANCH   6  10
ATOM     10  C   UNL     1     154.100 145.574 134.717  1.00  0.00     0.013 C 
ATOM     11  C   UNL     1     153.358 146.497 135.690  1.00  0.00     0.012 C 
ATOM     12  C   UNL     1     155.359 146.253 134.164  1.00  0.00     0.012 C 
ENDBRANCH   6  10
TORSDOF 2
ENDMDL
MODEL 7
REMARK VINA RESULT:    -4.977      2.697      3.498
REMARK INTER + INTRA:          -5.768
REMARK INTER:                  -5.564
REMARK INTRA:                  -0.204
REMARK UNBOUND:                -0.208
REMARK SMILES CC(C)c1ccc(C(=O)[O-])cc1
REMARK SMILES IDX 7 1 6 2 11 3 5 4 12 5 4 6 8 7 9 8 10 9 2 10 1 11 3 12
REMARK H PARENT
REMARK Flexibility Score: inf
ROOT
ATOM      1  C   UNL     1     153.317 145.620 135.352  1.00  0.00    -0.003 A 
ATOM      2  C   UNL     1     153.360 145.443 133.958  1.00  0.00     0.010 A 
ATOM      3  C   UNL     1     152.932 144.541 136.163  1.00  0.00     0.010 A 
ATOM      4  C   UNL     1     153.023 144.212 133.389  1.00  0.00     0.004 A 
ATOM      5  C   UNL     1     152.595 143.310 135.594  1.00  0.00     0.004 A 
ATOM      6  C   UNL     1     152.637 143.130 134.201  1.00  0.00    -0.045 A 
ENDROOT
BRANCH   1   7
ATOM      7  C   UNL     1     153.673 146.922 135.958  1.00  0.00     0.071 C 
ATOM      8  O   UNL     1     154.880 147.248 136.114  1.00  0.00    -0.545 OA
ATOM      9  O   UNL     1     152.679 147.805 136.365  1.00  0.00    -0.545 OA
ENDBRANCH   1   7
BRANCH   6  10
ATOM     10  C   UNL     1     152.269 141.789 133.597  1.00  0.00     0.013 C 
ATOM     11  C   UNL     1     153.388 140.763 133.804  1.00  0.00     0.012 C 
ATOM     12  C   UNL     1     151.917 141.929 132.111  1.00  0.00     0.012 C 
ENDBRANCH   6  10
TORSDOF 2
ENDMDL
MODEL 8
REMARK VINA RESULT:    -4.844      2.800      4.309
REMARK INTER + INTRA:          -5.619
REMARK INTER:                  -5.407
REMARK INTRA:                  -0.211
REMARK UNBOUND:                -0.208
REMARK SMILES CC(C)c1ccc(C(=O)[O-])cc1
REMARK SMILES IDX 7 1 6 2 11 3 5 4 12 5 4 6 8 7 9 8 10 9 2 10 1 11 3 12
REMARK H PARENT
REMARK Flexibility Score: inf
ROOT
ATOM      1  C   UNL     1     152.090 144.063 132.320  1.00  0.00    -0.003 A 
ATOM      2  C   UNL     1     152.458 145.356 131.913  1.00  0.00     0.010 A 
ATOM      3  C   UNL     1     152.632 143.541 133.506  1.00  0.00     0.010 A 
ATOM      4  C   UNL     1     153.352 146.112 132.677  1.00  0.00     0.004 A 
ATOM      5  C   UNL     1     153.525 144.298 134.270  1.00  0.00     0.004 A 
ATOM      6  C   UNL     1     153.895 145.591 133.866  1.00  0.00    -0.045 A 
ENDROOT
BRANCH   1   7
ATOM      7  C   UNL     1     151.144 143.259 131.513  1.00  0.00     0.071 C 
ATOM      8  O   UNL     1     150.716 142.154 131.940  1.00  0.00    -0.545 OA
ATOM      9  O   UNL     1     150.715 143.714 130.272  1.00  0.00    -0.545 OA
ENDBRANCH   1   7
BRANCH   6  10
ATOM     10  C   UNL     1     154.866 146.400 134.705  1.00  0.00     0.013 C 
ATOM     11  C   UNL     1     156.314 145.972 134.441  1.00  0.00     0.012 C 
ATOM     12  C   UNL     1     154.525 146.302 136.196  1.00  0.00     0.012 C 
ENDBRANCH   6  10
TORSDOF 2
ENDMDL
MODEL 9
REMARK VINA RESULT:    -4.770      3.815      5.610
REMARK INTER + INTRA:          -5.536
REMARK INTER:                  -5.331
REMARK INTRA:                  -0.206
REMARK UNBOUND:                -0.208
REMARK SMILES CC(C)c1ccc(C(=O)[O-])cc1
REMARK SMILES IDX 7 1 6 2 11 3 5 4 12 5 4 6 8 7 9 8 10 9 2 10 1 11 3 12
REMARK H PARENT
REMARK Flexibility Score: inf
ROOT
ATOM      1  C   UNL     1     152.833 142.995 134.324  1.00  0.00    -0.003 A 
ATOM      2  C   UNL     1     152.509 143.043 135.690  1.00  0.00     0.010 A 
ATOM      3  C   UNL     1     153.177 144.186 133.664  1.00  0.00     0.010 A 
ATOM      4  C   UNL     1     152.528 144.257 136.382  1.00  0.00     0.004 A 
ATOM      5  C   UNL     1     153.198 145.400 134.356  1.00  0.00     0.004 A 
ATOM      6  C   UNL     1     152.874 145.451 135.722  1.00  0.00    -0.045 A 
ENDROOT
BRANCH   1   7
ATOM      7  C   UNL     1     152.813 141.712 133.588  1.00  0.00     0.071 C 
ATOM      8  O   UNL     1     152.283 141.635 132.447  1.00  0.00    -0.545 OA
ATOM      9  O   UNL     1     153.379 140.571 134.146  1.00  0.00    -0.545 OA
ENDBRANCH   1   7
BRANCH   6  10
ATOM     10  C   UNL     1     152.900 146.775 136.460  1.00  0.00     0.013 C 
ATOM     11  C   UNL     1     151.852 147.742 135.898  1.00  0.00     0.012 C 
ATOM     12  C   UNL     1     154.299 147.400 136.429  1.00  0.00     0.012 C 
ENDBRANCH   6  10
TORSDOF 2
ENDMDL
