MODEL 1
REMARK VINA RESULT:    -5.084      0.000      0.000
REMARK INTER + INTRA:          -7.260
REMARK INTER:                  -6.868
REMARK INTRA:                  -0.392
REMARK UNBOUND:                -0.392
REMARK SMILES CCCCCCC=CC(=O)[O-]
REMARK SMILES IDX 5 1 6 2 7 3 8 4 9 5 10 6 11 7 4 8 3 9 2 10 1 11
REMARK H PARENT
REMARK Flexibility Score: inf
ROOT
ATOM      1  C   UNL     1     -18.506  56.893  -5.204  1.00  0.00     0.004 C 
ENDROOT
BRANCH   1   2
ATOM      2  C   UNL     1     -19.661  57.082  -4.209  1.00  0.00     0.027 C 
BRANCH   2   3
ATOM      3  C   UNL     1     -20.379  58.390  -4.423  1.00  0.00    -0.025 C 
ATOM      4  C   UNL     1     -21.660  58.560  -4.795  1.00  0.00     0.020 C 
BRANCH   4   5
ATOM      5  C   UNL     1     -22.667  57.512  -5.065  1.00  0.00     0.064 C 
ATOM      6  O   UNL     1     -22.520  56.655  -5.974  1.00  0.00    -0.545 OA
ATOM      7  O   UNL     1     -23.821  57.480  -4.294  1.00  0.00    -0.545 OA
ENDBRANCH   4   5
ENDBRANCH   2   3
ENDBRANCH   1   2
BRANCH   1   8
ATOM      8  C   UNL     1     -18.332  58.093  -6.144  1.00  0.00     0.000 C 
BRANCH   8   9
ATOM      9  C   UNL     1     -16.971  58.766  -5.930  1.00  0.00    -0.000 C 
BRANCH   9  10
ATOM     10  C   UNL     1     -16.963  59.590  -4.638  1.00  0.00    -0.003 C 
ATOM     11  C   UNL     1     -15.686  60.417  -4.520  1.00  0.00     0.004 C 
ENDBRANCH   9  10
ENDBRANCH   8   9
ENDBRANCH   1   8
TORSDOF 6
ENDMDL
MODEL 2
REMARK VINA RESULT:    -5.056      9.953     12.283
REMARK INTER + INTRA:          -7.221
REMARK INTER:                  -6.794
REMARK INTRA:                  -0.427
REMARK UNBOUND:                -0.392
REMARK SMILES CCCCCCC=CC(=O)[O-]
REMARK SMILES IDX 5 1 6 2 7 3 8 4 9 5 10 6 11 7 4 8 3 9 2 10 1 11
REMARK H PARENT
REMARK Flexibility Score: inf
ROOT
ATOM      1  C   UNL     1     -29.389  55.892   1.725  1.00  0.00     0.004 C 
ENDROOT
BRANCH   1   2
ATOM      2  C   UNL     1     -28.526  56.636   0.696  1.00  0.00     0.027 C 
BRANCH   2   3
ATOM      3  C   UNL     1     -29.164  57.929   0.257  1.00  0.00    -0.025 C 
ATOM      4  C   UNL     1     -29.352  58.353  -1.006  1.00  0.00     0.020 C 
BRANCH   4   5
ATOM      5  C   UNL     1     -28.994  57.649  -2.255  1.00  0.00     0.064 C 
ATOM      6  O   UNL     1     -27.819  57.629  -2.703  1.00  0.00    -0.545 OA
ATOM      7  O   UNL     1     -29.994  56.997  -2.964  1.00  0.00    -0.545 OA
ENDBRANCH   4   5
ENDBRANCH   2   3
ENDBRANCH   1   2
BRANCH   1   8
ATOM      8  C   UNL     1     -30.418  56.804   2.405  1.00  0.00     0.000 C 
BRANCH   8   9
ATOM      9  C   UNL     1     -30.883  56.208   3.739  1.00  0.00    -0.000 C 
BRANCH   9  10
ATOM     10  C   UNL     1     -30.870  57.268   4.847  1.00  0.00    -0.003 C 
ATOM     11  C   UNL     1     -29.611  58.126   4.775  1.00  0.00     0.004 C 
ENDBRANCH   9  10
ENDBRANCH   8   9
ENDBRANCH   1   8
TORSDOF 6
ENDMDL
MODEL 3
REMARK VINA RESULT:    -5.039     10.257     12.599
REMARK INTER + INTRA:          -7.198
REMARK INTER:                  -6.548
REMARK INTRA:                  -0.651
REMARK UNBOUND:                -0.392
REMARK SMILES CCCCCCC=CC(=O)[O-]
REMARK SMILES IDX 5 1 6 2 7 3 8 4 9 5 10 6 11 7 4 8 3 9 2 10 1 11
REMARK H PARENT
REMARK Flexibility Score: inf
ROOT
ATOM      1  C   UNL     1     -29.009  59.093   2.236  1.00  0.00     0.004 C 
ENDROOT
BRANCH   1   2
ATOM      2  C   UNL     1     -28.463  58.187   3.349  1.00  0.00     0.027 C 
BRANCH   2   3
ATOM      3  C   UNL     1     -29.242  58.340   4.631  1.00  0.00    -0.025 C 
ATOM      4  C   UNL     1     -30.352  57.669   4.990  1.00  0.00     0.020 C 
BRANCH   4   5
ATOM      5  C   UNL     1     -31.057  56.620   4.225  1.00  0.00     0.064 C 
ATOM      6  O   UNL     1     -31.052  55.412   4.576  1.00  0.00    -0.545 OA
ATOM      7  O   UNL     1     -31.742  56.980   3.072  1.00  0.00    -0.545 OA
ENDBRANCH   4   5
ENDBRANCH   2   3
ENDBRANCH   1   2
BRANCH   1   8
ATOM      8  C   UNL     1     -29.305  58.328   0.941  1.00  0.00     0.000 C 
BRANCH   8   9
ATOM      9  C   UNL     1     -28.649  56.942   0.959  1.00  0.00    -0.000 C 
BRANCH   9  10
ATOM     10  C   UNL     1     -27.469  56.880  -0.017  1.00  0.00    -0.003 C 
ATOM     11  C   UNL     1     -26.139  56.819   0.729  1.00  0.00     0.004 C 
ENDBRANCH   9  10
ENDBRANCH   8   9
ENDBRANCH   1   8
TORSDOF 6
ENDMDL
MODEL 4
REMARK VINA RESULT:    -4.977     10.318     12.496
REMARK INTER + INTRA:          -7.115
REMARK INTER:                  -6.627
REMARK INTRA:                  -0.488
REMARK UNBOUND:                -0.392
REMARK SMILES CCCCCCC=CC(=O)[O-]
REMARK SMILES IDX 5 1 6 2 7 3 8 4 9 5 10 6 11 7 4 8 3 9 2 10 1 11
REMARK H PARENT
REMARK Flexibility Score: inf
ROOT
ATOM      1  C   UNL     1     -29.851  58.738   0.740  1.00  0.00     0.004 C 
ENDROOT
BRANCH   1   2
ATOM      2  C   UNL     1     -29.355  58.153   2.071  1.00  0.00     0.027 C 
BRANCH   2   3
ATOM      3  C   UNL     1     -29.790  56.721   2.253  1.00  0.00    -0.025 C 
ATOM      4  C   UNL     1     -30.616  56.239   3.199  1.00  0.00     0.020 C 
BRANCH   4   5
ATOM      5  C   UNL     1     -31.301  56.996   4.268  1.00  0.00     0.064 C 
ATOM      6  O   UNL     1     -30.733  57.299   5.348  1.00  0.00    -0.545 OA
ATOM      7  O   UNL     1     -32.622  57.376   4.075  1.00  0.00    -0.545 OA
ENDBRANCH   4   5
ENDBRANCH   2   3
ENDBRANCH   1   2
BRANCH   1   8
ATOM      8  C   UNL     1     -29.858  57.706  -0.394  1.00  0.00     0.000 C 
BRANCH   8   9
ATOM      9  C   UNL     1     -29.195  58.271  -1.656  1.00  0.00    -0.000 C 
BRANCH   9  10
ATOM     10  C   UNL     1     -27.993  57.417  -2.074  1.00  0.00    -0.003 C 
ATOM     11  C   UNL     1     -27.192  56.960  -0.858  1.00  0.00     0.004 C 
ENDBRANCH   9  10
ENDBRANCH   8   9
ENDBRANCH   1   8
TORSDOF 6
ENDMDL
MODEL 5
REMARK VINA RESULT:    -4.929      9.182     11.579
REMARK INTER + INTRA:          -7.051
REMARK INTER:                  -6.498
REMARK INTRA:                  -0.553
REMARK UNBOUND:                -0.392
REMARK SMILES CCCCCCC=CC(=O)[O-]
REMARK SMILES IDX 5 1 6 2 7 3 8 4 9 5 10 6 11 7 4 8 3 9 2 10 1 11
REMARK H PARENT
REMARK Flexibility Score: inf
ROOT
ATOM      1  C   UNL     1     -28.581  55.979   1.140  1.00  0.00     0.004 C 
ENDROOT
BRANCH   1   2
ATOM      2  C   UNL     1     -28.048  57.275   0.513  1.00  0.00     0.027 C 
BRANCH   2   3
ATOM      3  C   UNL     1     -27.264  57.009  -0.747  1.00  0.00    -0.025 C 
ATOM      4  C   UNL     1     -27.675  57.202  -2.013  1.00  0.00     0.020 C 
BRANCH   4   5
ATOM      5  C   UNL     1     -28.978  57.732  -2.467  1.00  0.00     0.064 C 
ATOM      6  O   UNL     1     -29.845  57.007  -3.016  1.00  0.00    -0.545 OA
ATOM      7  O   UNL     1     -29.247  59.083  -2.289  1.00  0.00    -0.545 OA
ENDBRANCH   4   5
ENDBRANCH   2   3
ENDBRANCH   1   2
BRANCH   1   8
ATOM      8  C   UNL     1     -29.962  56.156   1.784  1.00  0.00     0.000 C 
BRANCH   8   9
ATOM      9  C   UNL     1     -30.468  57.593   1.614  1.00  0.00    -0.000 C 
BRANCH   9  10
ATOM     10  C   UNL     1     -31.727  57.632   0.740  1.00  0.00    -0.003 C 
ATOM     11  C   UNL     1     -31.766  56.449  -0.222  1.00  0.00     0.004 C 
ENDBRANCH   9  10
ENDBRANCH   8   9
ENDBRANCH   1   8
TORSDOF 6
ENDMDL
MODEL 6
REMARK VINA RESULT:    -4.867      1.262      2.133
REMARK INTER + INTRA:          -6.966
REMARK INTER:                  -6.565
REMARK INTRA:                  -0.401
REMARK UNBOUND:                -0.392
REMARK SMILES CCCCCCC=CC(=O)[O-]
REMARK SMILES IDX 5 1 6 2 7 3 8 4 9 5 10 6 11 7 4 8 3 9 2 10 1 11
REMARK H PARENT
REMARK Flexibility Score: inf
ROOT
ATOM      1  C   UNL     1     -17.350  58.720  -5.994  1.00  0.00     0.004 C 
ENDROOT
BRANCH   1   2
ATOM      2  C   UNL     1     -18.443  57.648  -6.111  1.00  0.00     0.027 C 
BRANCH   2   3
ATOM      3  C   UNL     1     -18.871  57.131  -4.761  1.00  0.00    -0.025 C 
ATOM      4  C   UNL     1     -20.122  57.094  -4.267  1.00  0.00     0.020 C 
BRANCH   4   5
ATOM      5  C   UNL     1     -21.367  57.533  -4.932  1.00  0.00     0.064 C 
ATOM      6  O   UNL     1     -21.958  56.826  -5.788  1.00  0.00    -0.545 OA
ATOM      7  O   UNL     1     -21.896  58.773  -4.604  1.00  0.00    -0.545 OA
ENDBRANCH   4   5
ENDBRANCH   2   3
ENDBRANCH   1   2
BRANCH   1   8
ATOM      8  C   UNL     1     -17.347  59.416  -4.627  1.00  0.00     0.000 C 
BRANCH   8   9
ATOM      9  C   UNL     1     -16.087  60.270  -4.447  1.00  0.00    -0.000 C 
BRANCH   9  10
ATOM     10  C   UNL     1     -15.937  60.727  -2.992  1.00  0.00    -0.003 C 
ATOM     11  C   UNL     1     -17.060  60.173  -2.121  1.00  0.00     0.004 C 
ENDBRANCH   9  10
ENDBRANCH   8   9
ENDBRANCH   1   8
TORSDOF 6
ENDMDL
MODEL 7
REMARK VINA RESULT:    -4.851     10.396     12.901
REMARK INTER + INTRA:          -6.945
REMARK INTER:                  -6.705
REMARK INTRA:                  -0.240
REMARK UNBOUND:                -0.392
REMARK SMILES CCCCCCC=CC(=O)[O-]
REMARK SMILES IDX 5 1 6 2 7 3 8 4 9 5 10 6 11 7 4 8 3 9 2 10 1 11
REMARK H PARENT
REMARK Flexibility Score: inf
ROOT
ATOM      1  C   UNL     1     -30.220  56.690   2.766  1.00  0.00     0.004 C 
ENDROOT
BRANCH   1   2
ATOM      2  C   UNL     1     -29.514  55.838   1.701  1.00  0.00     0.027 C 
BRANCH   2   3
ATOM      3  C   UNL     1     -28.373  56.580   1.053  1.00  0.00    -0.025 C 
ATOM      4  C   UNL     1     -28.426  57.338  -0.057  1.00  0.00     0.020 C 
BRANCH   4   5
ATOM      5  C   UNL     1     -29.610  57.636  -0.890  1.00  0.00     0.064 C 
ATOM      6  O   UNL     1     -30.688  58.059  -0.400  1.00  0.00    -0.545 OA
ATOM      7  O   UNL     1     -29.531  57.429  -2.260  1.00  0.00    -0.545 OA
ENDBRANCH   4   5
ENDBRANCH   2   3
ENDBRANCH   1   2
BRANCH   1   8
ATOM      8  C   UNL     1     -29.414  57.934   3.159  1.00  0.00     0.000 C 
BRANCH   8   9
ATOM      9  C   UNL     1     -29.360  58.096   4.682  1.00  0.00    -0.000 C 
BRANCH   9  10
ATOM     10  C   UNL     1     -30.717  57.769   5.317  1.00  0.00    -0.003 C 
ATOM     11  C   UNL     1     -30.852  58.415   6.692  1.00  0.00     0.004 C 
ENDBRANCH   9  10
ENDBRANCH   8   9
ENDBRANCH   1   8
TORSDOF 6
ENDMDL
MODEL 8
REMARK VINA RESULT:    -4.849     10.576     12.900
REMARK INTER + INTRA:          -6.942
REMARK INTER:                  -6.742
REMARK INTRA:                  -0.200
REMARK UNBOUND:                -0.392
REMARK SMILES CCCCCCC=CC(=O)[O-]
REMARK SMILES IDX 5 1 6 2 7 3 8 4 9 5 10 6 11 7 4 8 3 9 2 10 1 11
REMARK H PARENT
REMARK Flexibility Score: inf
ROOT
ATOM      1  C   UNL     1     -29.637  58.444   1.590  1.00  0.00     0.004 C 
ENDROOT
BRANCH   1   2
ATOM      2  C   UNL     1     -29.359  57.815   2.963  1.00  0.00     0.027 C 
BRANCH   2   3
ATOM      3  C   UNL     1     -30.584  57.148   3.534  1.00  0.00    -0.025 C 
ATOM      4  C   UNL     1     -31.058  57.259   4.788  1.00  0.00     0.020 C 
BRANCH   4   5
ATOM      5  C   UNL     1     -30.503  58.070   5.892  1.00  0.00     0.064 C 
ATOM      6  O   UNL     1     -31.230  58.760   6.652  1.00  0.00    -0.545 OA
ATOM      7  O   UNL     1     -29.129  58.077   6.089  1.00  0.00    -0.545 OA
ENDBRANCH   4   5
ENDBRANCH   2   3
ENDBRANCH   1   2
BRANCH   1   8
ATOM      8  C   UNL     1     -29.220  57.535   0.426  1.00  0.00     0.000 C 
BRANCH   8   9
ATOM      9  C   UNL     1     -28.086  56.592   0.844  1.00  0.00    -0.000 C 
BRANCH   9  10
ATOM     10  C   UNL     1     -26.791  56.926   0.095  1.00  0.00    -0.003 C 
ATOM     11  C   UNL     1     -25.606  57.011   1.053  1.00  0.00     0.004 C 
ENDBRANCH   9  10
ENDBRANCH   8   9
ENDBRANCH   1   8
TORSDOF 6
ENDMDL
MODEL 9
REMARK VINA RESULT:    -4.642      4.235      6.036
REMARK INTER + INTRA:          -6.662
REMARK INTER:                  -6.297
REMARK INTRA:                  -0.365
REMARK UNBOUND:                -0.392
REMARK SMILES CCCCCCC=CC(=O)[O-]
REMARK SMILES IDX 5 1 6 2 7 3 8 4 9 5 10 6 11 7 4 8 3 9 2 10 1 11
REMARK H PARENT
REMARK Flexibility Score: inf
ROOT
ATOM      1  C   UNL     1     -17.891  57.832  -5.988  1.00  0.00     0.004 C 
ENDROOT
BRANCH   1   2
ATOM      2  C   UNL     1     -17.160  59.168  -5.798  1.00  0.00     0.027 C 
BRANCH   2   3
ATOM      3  C   UNL     1     -17.090  59.570  -4.347  1.00  0.00    -0.025 C 
ATOM      4  C   UNL     1     -16.184  60.382  -3.773  1.00  0.00     0.020 C 
BRANCH   4   5
ATOM      5  C   UNL     1     -15.060  61.084  -4.428  1.00  0.00     0.064 C 
ATOM      6  O   UNL     1     -14.965  62.337  -4.442  1.00  0.00    -0.545 OA
ATOM      7  O   UNL     1     -14.080  60.329  -5.059  1.00  0.00    -0.545 OA
ENDBRANCH   4   5
ENDBRANCH   2   3
ENDBRANCH   1   2
BRANCH   1   8
ATOM      8  C   UNL     1     -19.139  57.959  -6.871  1.00  0.00     0.000 C 
BRANCH   8   9
ATOM      9  C   UNL     1     -20.070  59.060  -6.351  1.00  0.00    -0.000 C 
BRANCH   9  10
ATOM     10  C   UNL     1     -20.729  58.644  -5.031  1.00  0.00    -0.003 C 
ATOM     11  C   UNL     1     -21.884  57.677  -5.272  1.00  0.00     0.004 C 
ENDBRANCH   9  10
ENDBRANCH   8   9
ENDBRANCH   1   8
TORSDOF 6
ENDMDL
