MODEL 1
REMARK VINA RESULT:    -5.422      0.000      0.000
REMARK INTER + INTRA:         -10.725
REMARK INTER:                  -9.543
REMARK INTRA:                  -1.182
REMARK UNBOUND:                -1.182
REMARK SMILES CCCCCCCCCCCCCCC(=O)[O-]
REMARK SMILES IDX 9 1 10 2 11 3 12 4 13 5 14 6 15 7 16 8 17 9 8 10 7 11 6 12
REMARK SMILES IDX 5 13 4 14 3 15 2 16 1 17
REMARK H PARENT
REMARK Flexibility Score: inf
ROOT
ATOM      1  C   UNL     1      45.369  -7.662  25.962  1.00  0.00     0.000 C 
ENDROOT
BRANCH   1   2
ATOM      2  C   UNL     1      45.391  -7.069  24.542  1.00  0.00     0.000 C 
BRANCH   2   3
ATOM      3  C   UNL     1      46.247  -7.908  23.578  1.00  0.00     0.000 C 
BRANCH   3   4
ATOM      4  C   UNL     1      47.423  -7.115  22.961  1.00  0.00     0.000 C 
BRANCH   4   5
ATOM      5  C   UNL     1      48.802  -7.575  23.462  1.00  0.00     0.006 C 
BRANCH   5   6
ATOM      6  C   UNL     1      48.968  -7.406  24.977  1.00  0.00     0.053 C 
BRANCH   6   7
ATOM      7  C   UNL     1      49.175  -5.965  25.322  1.00  0.00     0.041 C 
ATOM      8  O   UNL     1      48.217  -5.276  25.762  1.00  0.00    -0.550 OA
ATOM      9  O   UNL     1      50.412  -5.371  25.113  1.00  0.00    -0.550 OA
ENDBRANCH   6   7
ENDBRANCH   5   6
ENDBRANCH   4   5
ENDBRANCH   3   4
ENDBRANCH   2   3
ENDBRANCH   1   2
BRANCH   1  10
ATOM     10  C   UNL     1      45.169  -6.592  27.047  1.00  0.00     0.000 C 
BRANCH  10  11
ATOM     11  C   UNL     1      44.435  -5.349  26.524  1.00  0.00    -0.000 C 
BRANCH  11  12
ATOM     12  C   UNL     1      43.092  -5.162  27.241  1.00  0.00    -0.000 C 
BRANCH  12  13
ATOM     13  C   UNL     1      43.297  -4.679  28.681  1.00  0.00    -0.000 C 
BRANCH  13  14
ATOM     14  C   UNL     1      42.905  -3.201  28.827  1.00  0.00    -0.000 C 
BRANCH  14  15
ATOM     15  C   UNL     1      44.078  -2.310  29.273  1.00  0.00    -0.000 C 
BRANCH  15  16
ATOM     16  C   UNL     1      45.181  -2.115  28.218  1.00  0.00    -0.003 C 
ATOM     17  C   UNL     1      45.678  -0.672  28.133  1.00  0.00     0.004 C 
ENDBRANCH  15  16
ENDBRANCH  14  15
ENDBRANCH  13  14
ENDBRANCH  12  13
ENDBRANCH  11  12
ENDBRANCH  10  11
ENDBRANCH   1  10
TORSDOF 13
ENDMDL
MODEL 2
REMARK VINA RESULT:    -4.882      1.849      3.165
REMARK INTER + INTRA:          -9.774
REMARK INTER:                  -8.579
REMARK INTRA:                  -1.195
REMARK UNBOUND:                -1.182
REMARK SMILES CCCCCCCCCCCCCCC(=O)[O-]
REMARK SMILES IDX 9 1 10 2 11 3 12 4 13 5 14 6 15 7 16 8 17 9 8 10 7 11 6 12
REMARK SMILES IDX 5 13 4 14 3 15 2 16 1 17
REMARK H PARENT
REMARK Flexibility Score: inf
ROOT
ATOM      1  C   UNL     1      45.522  -6.582  26.806  1.00  0.00     0.000 C 
ENDROOT
BRANCH   1   2
ATOM      2  C   UNL     1      45.024  -6.674  25.353  1.00  0.00     0.000 C 
BRANCH   2   3
ATOM      3  C   UNL     1      45.636  -7.874  24.607  1.00  0.00     0.000 C 
BRANCH   3   4
ATOM      4  C   UNL     1      46.242  -7.494  23.237  1.00  0.00     0.000 C 
BRANCH   4   5
ATOM      5  C   UNL     1      47.678  -6.954  23.330  1.00  0.00     0.006 C 
BRANCH   5   6
ATOM      6  C   UNL     1      48.461  -7.554  24.504  1.00  0.00     0.053 C 
BRANCH   6   7
ATOM      7  C   UNL     1      49.382  -6.533  25.095  1.00  0.00     0.041 C 
ATOM      8  O   UNL     1      50.629  -6.694  25.035  1.00  0.00    -0.550 OA
ATOM      9  O   UNL     1      48.861  -5.427  25.755  1.00  0.00    -0.550 OA
ENDBRANCH   6   7
ENDBRANCH   5   6
ENDBRANCH   4   5
ENDBRANCH   3   4
ENDBRANCH   2   3
ENDBRANCH   1   2
BRANCH   1  10
ATOM     10  C   UNL     1      45.737  -5.131  27.266  1.00  0.00     0.000 C 
BRANCH  10  11
ATOM     11  C   UNL     1      44.445  -4.474  27.775  1.00  0.00    -0.000 C 
BRANCH  11  12
ATOM     12  C   UNL     1      43.701  -5.404  28.742  1.00  0.00    -0.000 C 
BRANCH  12  13
ATOM     13  C   UNL     1      42.215  -5.506  28.376  1.00  0.00    -0.000 C 
BRANCH  13  14
ATOM     14  C   UNL     1      41.959  -4.969  26.961  1.00  0.00    -0.000 C 
BRANCH  14  15
ATOM     15  C   UNL     1      40.549  -5.301  26.440  1.00  0.00    -0.000 C 
BRANCH  15  16
ATOM     16  C   UNL     1      39.601  -4.094  26.322  1.00  0.00    -0.003 C 
ATOM     17  C   UNL     1      38.421  -4.165  27.290  1.00  0.00     0.004 C 
ENDBRANCH  15  16
ENDBRANCH  14  15
ENDBRANCH  13  14
ENDBRANCH  12  13
ENDBRANCH  11  12
ENDBRANCH  10  11
ENDBRANCH   1  10
TORSDOF 13
ENDMDL
MODEL 3
REMARK VINA RESULT:    -4.860      2.664      4.261
REMARK INTER + INTRA:          -9.735
REMARK INTER:                  -8.960
REMARK INTRA:                  -0.775
REMARK UNBOUND:                -1.182
REMARK SMILES CCCCCCCCCCCCCCC(=O)[O-]
REMARK SMILES IDX 9 1 10 2 11 3 12 4 13 5 14 6 15 7 16 8 17 9 8 10 7 11 6 12
REMARK SMILES IDX 5 13 4 14 3 15 2 16 1 17
REMARK H PARENT
REMARK Flexibility Score: inf
ROOT
ATOM      1  C   UNL     1      45.367  -6.412  27.192  1.00  0.00     0.000 C 
ENDROOT
BRANCH   1   2
ATOM      2  C   UNL     1      45.756  -7.588  26.280  1.00  0.00     0.000 C 
BRANCH   2   3
ATOM      3  C   UNL     1      45.262  -7.389  24.836  1.00  0.00     0.000 C 
BRANCH   3   4
ATOM      4  C   UNL     1      46.403  -7.420  23.794  1.00  0.00     0.000 C 
BRANCH   4   5
ATOM      5  C   UNL     1      47.807  -7.436  24.422  1.00  0.00     0.006 C 
BRANCH   5   6
ATOM      6  C   UNL     1      48.574  -6.129  24.192  1.00  0.00     0.053 C 
BRANCH   6   7
ATOM      7  C   UNL     1      49.102  -5.598  25.488  1.00  0.00     0.041 C 
ATOM      8  O   UNL     1      50.242  -5.942  25.896  1.00  0.00    -0.550 OA
ATOM      9  O   UNL     1      48.314  -4.761  26.268  1.00  0.00    -0.550 OA
ENDBRANCH   6   7
ENDBRANCH   5   6
ENDBRANCH   4   5
ENDBRANCH   3   4
ENDBRANCH   2   3
ENDBRANCH   1   2
BRANCH   1  10
ATOM     10  C   UNL     1      44.008  -5.798  26.818  1.00  0.00     0.000 C 
BRANCH  10  11
ATOM     11  C   UNL     1      43.335  -5.085  28.000  1.00  0.00    -0.000 C 
BRANCH  11  12
ATOM     12  C   UNL     1      42.089  -4.317  27.541  1.00  0.00    -0.000 C 
BRANCH  12  13
ATOM     13  C   UNL     1      41.107  -5.243  26.814  1.00  0.00    -0.000 C 
BRANCH  13  14
ATOM     14  C   UNL     1      39.725  -4.587  26.683  1.00  0.00    -0.000 C 
BRANCH  14  15
ATOM     15  C   UNL     1      38.786  -5.349  25.730  1.00  0.00    -0.000 C 
BRANCH  15  16
ATOM     16  C   UNL     1      37.862  -6.372  26.414  1.00  0.00    -0.003 C 
ATOM     17  C   UNL     1      36.856  -7.004  25.452  1.00  0.00     0.004 C 
ENDBRANCH  15  16
ENDBRANCH  14  15
ENDBRANCH  13  14
ENDBRANCH  12  13
ENDBRANCH  11  12
ENDBRANCH  10  11
ENDBRANCH   1  10
TORSDOF 13
ENDMDL
MODEL 4
REMARK VINA RESULT:    -4.838      3.358      7.444
REMARK INTER + INTRA:          -9.696
REMARK INTER:                  -8.601
REMARK INTRA:                  -1.095
REMARK UNBOUND:                -1.182
REMARK SMILES CCCCCCCCCCCCCCC(=O)[O-]
REMARK SMILES IDX 9 1 10 2 11 3 12 4 13 5 14 6 15 7 16 8 17 9 8 10 7 11 6 12
REMARK SMILES IDX 5 13 4 14 3 15 2 16 1 17
REMARK H PARENT
REMARK Flexibility Score: inf
ROOT
ATOM      1  C   UNL     1      43.615  -5.232  26.789  1.00  0.00     0.000 C 
ENDROOT
BRANCH   1   2
ATOM      2  C   UNL     1      44.216  -4.700  28.101  1.00  0.00     0.000 C 
BRANCH   2   3
ATOM      3  C   UNL     1      45.210  -3.551  27.858  1.00  0.00     0.000 C 
BRANCH   3   4
ATOM      4  C   UNL     1      44.840  -2.256  28.618  1.00  0.00     0.000 C 
BRANCH   4   5
ATOM      5  C   UNL     1      43.373  -2.211  29.075  1.00  0.00     0.006 C 
BRANCH   5   6
ATOM      6  C   UNL     1      43.224  -1.831  30.553  1.00  0.00     0.053 C 
BRANCH   6   7
ATOM      7  C   UNL     1      42.467  -2.890  31.291  1.00  0.00     0.041 C 
ATOM      8  O   UNL     1      42.466  -2.907  32.550  1.00  0.00    -0.550 OA
ATOM      9  O   UNL     1      41.803  -3.888  30.588  1.00  0.00    -0.550 OA
ENDBRANCH   6   7
ENDBRANCH   5   6
ENDBRANCH   4   5
ENDBRANCH   3   4
ENDBRANCH   2   3
ENDBRANCH   1   2
BRANCH   1  10
ATOM     10  C   UNL     1      44.626  -6.037  25.957  1.00  0.00     0.000 C 
BRANCH  10  11
ATOM     11  C   UNL     1      45.137  -7.284  26.694  1.00  0.00    -0.000 C 
BRANCH  11  12
ATOM     12  C   UNL     1      46.472  -7.760  26.106  1.00  0.00    -0.000 C 
BRANCH  12  13
ATOM     13  C   UNL     1      47.339  -6.572  25.673  1.00  0.00    -0.000 C 
BRANCH  13  14
ATOM     14  C   UNL     1      48.581  -7.048  24.906  1.00  0.00    -0.000 C 
BRANCH  14  15
ATOM     15  C   UNL     1      48.598  -6.579  23.440  1.00  0.00    -0.000 C 
BRANCH  15  16
ATOM     16  C   UNL     1      48.113  -7.624  22.420  1.00  0.00    -0.003 C 
ATOM     17  C   UNL     1      46.596  -7.614  22.230  1.00  0.00     0.004 C 
ENDBRANCH  15  16
ENDBRANCH  14  15
ENDBRANCH  13  14
ENDBRANCH  12  13
ENDBRANCH  11  12
ENDBRANCH  10  11
ENDBRANCH   1  10
TORSDOF 13
ENDMDL
MODEL 5
REMARK VINA RESULT:    -4.821      4.237      7.946
REMARK INTER + INTRA:          -9.667
REMARK INTER:                  -8.742
REMARK INTRA:                  -0.925
REMARK UNBOUND:                -1.182
REMARK SMILES CCCCCCCCCCCCCCC(=O)[O-]
REMARK SMILES IDX 9 1 10 2 11 3 12 4 13 5 14 6 15 7 16 8 17 9 8 10 7 11 6 12
REMARK SMILES IDX 5 13 4 14 3 15 2 16 1 17
REMARK H PARENT
REMARK Flexibility Score: inf
ROOT
ATOM      1  C   UNL     1      44.338  -3.946  28.228  1.00  0.00     0.000 C 
ENDROOT
BRANCH   1   2
ATOM      2  C   UNL     1      42.977  -4.403  28.780  1.00  0.00     0.000 C 
BRANCH   2   3
ATOM      3  C   UNL     1      41.823  -4.085  27.813  1.00  0.00     0.000 C 
BRANCH   3   4
ATOM      4  C   UNL     1      41.233  -5.343  27.135  1.00  0.00     0.000 C 
BRANCH   4   5
ATOM      5  C   UNL     1      39.696  -5.338  27.066  1.00  0.00     0.006 C 
BRANCH   5   6
ATOM      6  C   UNL     1      39.107  -6.744  26.896  1.00  0.00     0.053 C 
BRANCH   6   7
ATOM      7  C   UNL     1      38.229  -6.798  25.685  1.00  0.00     0.041 C 
ATOM      8  O   UNL     1      38.413  -5.997  24.732  1.00  0.00    -0.550 OA
ATOM      9  O   UNL     1      37.175  -7.702  25.632  1.00  0.00    -0.550 OA
ENDBRANCH   6   7
ENDBRANCH   5   6
ENDBRANCH   4   5
ENDBRANCH   3   4
ENDBRANCH   2   3
ENDBRANCH   1   2
BRANCH   1  10
ATOM     10  C   UNL     1      45.254  -5.125  27.864  1.00  0.00     0.000 C 
BRANCH  10  11
ATOM     11  C   UNL     1      45.400  -5.315  26.347  1.00  0.00    -0.000 C 
BRANCH  11  12
ATOM     12  C   UNL     1      44.719  -6.611  25.888  1.00  0.00    -0.000 C 
BRANCH  12  13
ATOM     13  C   UNL     1      45.648  -7.433  24.986  1.00  0.00    -0.000 C 
BRANCH  13  14
ATOM     14  C   UNL     1      47.090  -7.406  25.512  1.00  0.00    -0.000 C 
BRANCH  14  15
ATOM     15  C   UNL     1      48.140  -7.439  24.386  1.00  0.00    -0.000 C 
BRANCH  15  16
ATOM     16  C   UNL     1      47.562  -7.407  22.960  1.00  0.00    -0.003 C 
ATOM     17  C   UNL     1      48.574  -7.830  21.896  1.00  0.00     0.004 C 
ENDBRANCH  15  16
ENDBRANCH  14  15
ENDBRANCH  13  14
ENDBRANCH  12  13
ENDBRANCH  11  12
ENDBRANCH  10  11
ENDBRANCH   1  10
TORSDOF 13
ENDMDL
MODEL 6
REMARK VINA RESULT:    -4.817      3.938      7.543
REMARK INTER + INTRA:          -9.660
REMARK INTER:                  -8.580
REMARK INTRA:                  -1.080
REMARK UNBOUND:                -1.182
REMARK SMILES CCCCCCCCCCCCCCC(=O)[O-]
REMARK SMILES IDX 9 1 10 2 11 3 12 4 13 5 14 6 15 7 16 8 17 9 8 10 7 11 6 12
REMARK SMILES IDX 5 13 4 14 3 15 2 16 1 17
REMARK H PARENT
REMARK Flexibility Score: inf
ROOT
ATOM      1  C   UNL     1      45.657  -5.410  27.520  1.00  0.00     0.000 C 
ENDROOT
BRANCH   1   2
ATOM      2  C   UNL     1      44.772  -6.060  26.442  1.00  0.00     0.000 C 
BRANCH   2   3
ATOM      3  C   UNL     1      43.347  -5.481  26.437  1.00  0.00     0.000 C 
BRANCH   3   4
ATOM      4  C   UNL     1      42.795  -5.209  27.855  1.00  0.00     0.000 C 
BRANCH   4   5
ATOM      5  C   UNL     1      41.320  -4.775  27.867  1.00  0.00     0.006 C 
BRANCH   5   6
ATOM      6  C   UNL     1      40.456  -5.588  26.894  1.00  0.00     0.053 C 
BRANCH   6   7
ATOM      7  C   UNL     1      39.203  -4.842  26.560  1.00  0.00     0.041 C 
ATOM      8  O   UNL     1      39.221  -3.587  26.455  1.00  0.00    -0.550 OA
ATOM      9  O   UNL     1      38.004  -5.528  26.413  1.00  0.00    -0.550 OA
ENDBRANCH   6   7
ENDBRANCH   5   6
ENDBRANCH   4   5
ENDBRANCH   3   4
ENDBRANCH   2   3
ENDBRANCH   1   2
BRANCH   1  10
ATOM     10  C   UNL     1      46.158  -4.016  27.112  1.00  0.00     0.000 C 
BRANCH  10  11
ATOM     11  C   UNL     1      47.100  -4.057  25.900  1.00  0.00    -0.000 C 
BRANCH  11  12
ATOM     12  C   UNL     1      48.262  -5.029  26.141  1.00  0.00    -0.000 C 
BRANCH  12  13
ATOM     13  C   UNL     1      48.759  -5.633  24.822  1.00  0.00    -0.000 C 
BRANCH  13  14
ATOM     14  C   UNL     1      48.416  -7.127  24.737  1.00  0.00    -0.000 C 
BRANCH  14  15
ATOM     15  C   UNL     1      47.085  -7.397  24.013  1.00  0.00    -0.000 C 
BRANCH  15  16
ATOM     16  C   UNL     1      47.160  -7.338  22.477  1.00  0.00    -0.003 C 
ATOM     17  C   UNL     1      48.462  -7.914  21.920  1.00  0.00     0.004 C 
ENDBRANCH  15  16
ENDBRANCH  14  15
ENDBRANCH  13  14
ENDBRANCH  12  13
ENDBRANCH  11  12
ENDBRANCH  10  11
ENDBRANCH   1  10
TORSDOF 13
ENDMDL
MODEL 7
REMARK VINA RESULT:    -4.765      2.867      7.540
REMARK INTER + INTRA:          -9.568
REMARK INTER:                  -8.830
REMARK INTRA:                  -0.738
REMARK UNBOUND:                -1.182
REMARK SMILES CCCCCCCCCCCCCCC(=O)[O-]
REMARK SMILES IDX 9 1 10 2 11 3 12 4 13 5 14 6 15 7 16 8 17 9 8 10 7 11 6 12
REMARK SMILES IDX 5 13 4 14 3 15 2 16 1 17
REMARK H PARENT
REMARK Flexibility Score: inf
ROOT
ATOM      1  C   UNL     1      43.310  -5.090  27.312  1.00  0.00     0.000 C 
ENDROOT
BRANCH   1   2
ATOM      2  C   UNL     1      41.895  -5.064  26.711  1.00  0.00     0.000 C 
BRANCH   2   3
ATOM      3  C   UNL     1      40.922  -4.222  27.556  1.00  0.00     0.000 C 
BRANCH   3   4
ATOM      4  C   UNL     1      41.360  -4.087  29.033  1.00  0.00     0.000 C 
BRANCH   4   5
ATOM      5  C   UNL     1      40.835  -2.812  29.714  1.00  0.00     0.006 C 
BRANCH   5   6
ATOM      6  C   UNL     1      41.839  -1.654  29.654  1.00  0.00     0.053 C 
BRANCH   6   7
ATOM      7  C   UNL     1      43.182  -2.100  30.140  1.00  0.00     0.041 C 
ATOM      8  O   UNL     1      43.351  -2.396  31.352  1.00  0.00    -0.550 OA
ATOM      9  O   UNL     1      44.258  -2.143  29.264  1.00  0.00    -0.550 OA
ENDBRANCH   6   7
ENDBRANCH   5   6
ENDBRANCH   4   5
ENDBRANCH   3   4
ENDBRANCH   2   3
ENDBRANCH   1   2
BRANCH   1  10
ATOM     10  C   UNL     1      44.338  -5.749  26.378  1.00  0.00     0.000 C 
BRANCH  10  11
ATOM     11  C   UNL     1      45.273  -6.718  27.117  1.00  0.00    -0.000 C 
BRANCH  11  12
ATOM     12  C   UNL     1      45.672  -7.892  26.214  1.00  0.00    -0.000 C 
BRANCH  12  13
ATOM     13  C   UNL     1      46.339  -7.396  24.926  1.00  0.00    -0.000 C 
BRANCH  13  14
ATOM     14  C   UNL     1      47.864  -7.331  25.086  1.00  0.00    -0.000 C 
BRANCH  14  15
ATOM     15  C   UNL     1      48.592  -6.996  23.771  1.00  0.00    -0.000 C 
BRANCH  15  16
ATOM     16  C   UNL     1      47.976  -7.629  22.511  1.00  0.00    -0.003 C 
ATOM     17  C   UNL     1      49.009  -7.917  21.421  1.00  0.00     0.004 C 
ENDBRANCH  15  16
ENDBRANCH  14  15
ENDBRANCH  13  14
ENDBRANCH  12  13
ENDBRANCH  11  12
ENDBRANCH  10  11
ENDBRANCH   1  10
TORSDOF 13
ENDMDL
MODEL 8
REMARK VINA RESULT:    -4.761      5.372      8.474
REMARK INTER + INTRA:          -9.561
REMARK INTER:                  -8.756
REMARK INTRA:                  -0.806
REMARK UNBOUND:                -1.182
REMARK SMILES CCCCCCCCCCCCCCC(=O)[O-]
REMARK SMILES IDX 9 1 10 2 11 3 12 4 13 5 14 6 15 7 16 8 17 9 8 10 7 11 6 12
REMARK SMILES IDX 5 13 4 14 3 15 2 16 1 17
REMARK H PARENT
REMARK Flexibility Score: inf
ROOT
ATOM      1  C   UNL     1      41.246  -4.382  27.414  1.00  0.00     0.000 C 
ENDROOT
BRANCH   1   2
ATOM      2  C   UNL     1      40.081  -4.215  26.424  1.00  0.00     0.000 C 
BRANCH   2   3
ATOM      3  C   UNL     1      38.830  -4.995  26.866  1.00  0.00     0.000 C 
BRANCH   3   4
ATOM      4  C   UNL     1      39.100  -6.501  27.093  1.00  0.00     0.000 C 
BRANCH   4   5
ATOM      5  C   UNL     1      38.772  -7.373  25.870  1.00  0.00     0.006 C 
BRANCH   5   6
ATOM      6  C   UNL     1      37.900  -6.646  24.840  1.00  0.00     0.053 C 
BRANCH   6   7
ATOM      7  C   UNL     1      36.499  -7.172  24.877  1.00  0.00     0.041 C 
ATOM      8  O   UNL     1      36.088  -7.808  25.883  1.00  0.00    -0.550 OA
ATOM      9  O   UNL     1      35.665  -7.004  23.779  1.00  0.00    -0.550 OA
ENDBRANCH   6   7
ENDBRANCH   5   6
ENDBRANCH   4   5
ENDBRANCH   3   4
ENDBRANCH   2   3
ENDBRANCH   1   2
BRANCH   1  10
ATOM     10  C   UNL     1      42.454  -5.099  26.790  1.00  0.00     0.000 C 
BRANCH  10  11
ATOM     11  C   UNL     1      43.412  -5.672  27.845  1.00  0.00    -0.000 C 
BRANCH  11  12
ATOM     12  C   UNL     1      44.736  -4.898  27.862  1.00  0.00    -0.000 C 
BRANCH  12  13
ATOM     13  C   UNL     1      45.682  -5.398  26.764  1.00  0.00    -0.000 C 
BRANCH  13  14
ATOM     14  C   UNL     1      45.657  -6.930  26.671  1.00  0.00    -0.000 C 
BRANCH  14  15
ATOM     15  C   UNL     1      46.515  -7.476  25.514  1.00  0.00    -0.000 C 
BRANCH  15  16
ATOM     16  C   UNL     1      45.736  -7.793  24.226  1.00  0.00    -0.003 C 
ATOM     17  C   UNL     1      46.572  -7.601  22.960  1.00  0.00     0.004 C 
ENDBRANCH  15  16
ENDBRANCH  14  15
ENDBRANCH  13  14
ENDBRANCH  12  13
ENDBRANCH  11  12
ENDBRANCH  10  11
ENDBRANCH   1  10
TORSDOF 13
ENDMDL
MODEL 9
REMARK VINA RESULT:    -4.740      2.058      3.525
REMARK INTER + INTRA:          -9.525
REMARK INTER:                  -8.648
REMARK INTRA:                  -0.877
REMARK UNBOUND:                -1.182
REMARK SMILES CCCCCCCCCCCCCCC(=O)[O-]
REMARK SMILES IDX 9 1 10 2 11 3 12 4 13 5 14 6 15 7 16 8 17 9 8 10 7 11 6 12
REMARK SMILES IDX 5 13 4 14 3 15 2 16 1 17
REMARK H PARENT
REMARK Flexibility Score: inf
ROOT
ATOM      1  C   UNL     1      43.160  -5.373  27.229  1.00  0.00     0.000 C 
ENDROOT
BRANCH   1   2
ATOM      2  C   UNL     1      44.452  -5.715  26.467  1.00  0.00     0.000 C 
BRANCH   2   3
ATOM      3  C   UNL     1      45.229  -6.865  27.133  1.00  0.00     0.000 C 
BRANCH   3   4
ATOM      4  C   UNL     1      45.936  -7.791  26.116  1.00  0.00     0.000 C 
BRANCH   4   5
ATOM      5  C   UNL     1      45.680  -7.401  24.651  1.00  0.00     0.006 C 
BRANCH   5   6
ATOM      6  C   UNL     1      46.956  -7.417  23.802  1.00  0.00     0.053 C 
BRANCH   6   7
ATOM      7  C   UNL     1      48.087  -6.780  24.546  1.00  0.00     0.041 C 
ATOM      8  O   UNL     1      48.084  -5.539  24.763  1.00  0.00    -0.550 OA
ATOM      9  O   UNL     1      49.168  -7.548  24.958  1.00  0.00    -0.550 OA
ENDBRANCH   6   7
ENDBRANCH   5   6
ENDBRANCH   4   5
ENDBRANCH   3   4
ENDBRANCH   2   3
ENDBRANCH   1   2
BRANCH   1  10
ATOM     10  C   UNL     1      43.433  -4.825  28.639  1.00  0.00     0.000 C 
BRANCH  10  11
ATOM     11  C   UNL     1      44.015  -3.403  28.619  1.00  0.00    -0.000 C 
BRANCH  11  12
ATOM     12  C   UNL     1      42.953  -2.370  29.018  1.00  0.00    -0.000 C 
BRANCH  12  13
ATOM     13  C   UNL     1      43.503  -1.388  30.059  1.00  0.00    -0.000 C 
BRANCH  13  14
ATOM     14  C   UNL     1      42.640  -1.390  31.328  1.00  0.00    -0.000 C 
BRANCH  14  15
ATOM     15  C   UNL     1      43.284  -2.168  32.491  1.00  0.00    -0.000 C 
BRANCH  15  16
ATOM     16  C   UNL     1      42.884  -3.651  32.578  1.00  0.00    -0.003 C 
ATOM     17  C   UNL     1      43.395  -4.334  33.847  1.00  0.00     0.004 C 
ENDBRANCH  15  16
ENDBRANCH  14  15
ENDBRANCH  13  14
ENDBRANCH  12  13
ENDBRANCH  11  12
ENDBRANCH  10  11
ENDBRANCH   1  10
TORSDOF 13
ENDMDL
