MODEL 1
REMARK VINA RESULT:    -5.228      0.000      0.000
REMARK INTER + INTRA:          -5.381
REMARK INTER:                  -5.381
REMARK INTRA:                   0.000
REMARK UNBOUND:                 0.000
REMARK SMILES Cc1cccc(O)c1C
REMARK SMILES IDX 1 1 2 2 8 3 6 4 5 5 4 6 3 7 9 8 7 9
REMARK H PARENT 7 10
REMARK Flexibility Score: inf
ROOT
ATOM      1  C   UNL     1     -10.859  -4.838  -8.995  1.00  0.00     0.045 C 
ATOM      2  C   UNL     1     -10.370  -3.718  -9.877  1.00  0.00    -0.045 A 
ATOM      3  C   UNL     1      -9.375  -2.796  -9.446  1.00  0.00    -0.006 A 
ATOM      4  C   UNL     1      -8.963  -1.766 -10.330  1.00  0.00     0.118 A 
ATOM      5  C   UNL     1      -9.530  -1.666 -11.603  1.00  0.00     0.046 A 
ATOM      6  C   UNL     1     -10.503  -2.571 -12.018  1.00  0.00     0.004 A 
ATOM      7  C   UNL     1     -10.920  -3.589 -11.164  1.00  0.00     0.004 A 
ATOM      8  C   UNL     1      -8.748  -2.886  -8.073  1.00  0.00     0.048 C 
ENDROOT
BRANCH   4   9
ATOM      9  O   UNL     1      -7.992  -0.827  -9.974  1.00  0.00    -0.508 OA
ATOM     10  H   UNL     1      -8.175  -0.036  -9.370  1.00  0.00     0.293 HD
ENDBRANCH   4   9
TORSDOF 1
ENDMDL
MODEL 2
REMARK VINA RESULT:    -5.105      2.070      2.806
REMARK INTER + INTRA:          -5.254
REMARK INTER:                  -5.254
REMARK INTRA:                   0.000
REMARK UNBOUND:                 0.000
REMARK SMILES Cc1cccc(O)c1C
REMARK SMILES IDX 1 1 2 2 8 3 6 4 5 5 4 6 3 7 9 8 7 9
REMARK H PARENT 7 10
REMARK Flexibility Score: inf
ROOT
ATOM      1  C   UNL     1      -9.612  -3.612  -8.316  1.00  0.00     0.045 C 
ATOM      2  C   UNL     1     -10.016  -2.998  -9.632  1.00  0.00    -0.045 A 
ATOM      3  C   UNL     1     -10.303  -3.791 -10.779  1.00  0.00    -0.006 A 
ATOM      4  C   UNL     1     -10.677  -3.145 -11.985  1.00  0.00     0.118 A 
ATOM      5  C   UNL     1     -10.760  -1.751 -12.037  1.00  0.00     0.046 A 
ATOM      6  C   UNL     1     -10.477  -0.982 -10.912  1.00  0.00     0.004 A 
ATOM      7  C   UNL     1     -10.109  -1.598  -9.719  1.00  0.00     0.004 A 
ATOM      8  C   UNL     1     -10.220  -5.300 -10.745  1.00  0.00     0.048 C 
ENDROOT
BRANCH   4   9
ATOM      9  O   UNL     1     -10.972  -3.858 -13.149  1.00  0.00    -0.508 OA
ATOM     10  H   UNL     1     -11.518  -4.709 -13.160  1.00  0.00     0.293 HD
ENDBRANCH   4   9
TORSDOF 1
ENDMDL
MODEL 3
REMARK VINA RESULT:    -4.999      0.925      2.667
REMARK INTER + INTRA:          -5.145
REMARK INTER:                  -5.145
REMARK INTRA:                   0.000
REMARK UNBOUND:                 0.000
REMARK SMILES Cc1cccc(O)c1C
REMARK SMILES IDX 1 1 2 2 8 3 6 4 5 5 4 6 3 7 9 8 7 9
REMARK H PARENT 7 10
REMARK Flexibility Score: inf
ROOT
ATOM      1  C   UNL     1     -10.863  -3.281 -12.606  1.00  0.00     0.045 C 
ATOM      2  C   UNL     1     -10.413  -3.328 -11.167  1.00  0.00    -0.045 A 
ATOM      3  C   UNL     1      -9.462  -2.408 -10.643  1.00  0.00    -0.006 A 
ATOM      4  C   UNL     1      -9.086  -2.512  -9.279  1.00  0.00     0.118 A 
ATOM      5  C   UNL     1      -9.646  -3.505  -8.471  1.00  0.00     0.046 A 
ATOM      6  C   UNL     1     -10.574  -4.401  -8.991  1.00  0.00     0.004 A 
ATOM      7  C   UNL     1     -10.957  -4.315 -10.327  1.00  0.00     0.004 A 
ATOM      8  C   UNL     1      -8.845  -1.326 -11.499  1.00  0.00     0.048 C 
ENDROOT
BRANCH   4   9
ATOM      9  O   UNL     1      -8.159  -1.645  -8.696  1.00  0.00    -0.508 OA
ATOM     10  H   UNL     1      -7.393  -1.955  -8.113  1.00  0.00     0.293 HD
ENDBRANCH   4   9
TORSDOF 1
ENDMDL
MODEL 4
REMARK VINA RESULT:    -4.874      1.104      2.635
REMARK INTER + INTRA:          -5.017
REMARK INTER:                  -5.017
REMARK INTRA:                   0.000
REMARK UNBOUND:                 0.000
REMARK SMILES Cc1cccc(O)c1C
REMARK SMILES IDX 1 1 2 2 8 3 6 4 5 5 4 6 3 7 9 8 7 9
REMARK H PARENT 7 10
REMARK Flexibility Score: inf
ROOT
ATOM      1  C   UNL     1     -10.967  -5.103  -8.699  1.00  0.00     0.045 C 
ATOM      2  C   UNL     1     -10.073  -3.920  -8.970  1.00  0.00    -0.045 A 
ATOM      3  C   UNL     1      -9.985  -3.320 -10.257  1.00  0.00    -0.006 A 
ATOM      4  C   UNL     1      -9.122  -2.209 -10.440  1.00  0.00     0.118 A 
ATOM      5  C   UNL     1      -8.374  -1.718  -9.366  1.00  0.00     0.046 A 
ATOM      6  C   UNL     1      -8.465  -2.311  -8.110  1.00  0.00     0.004 A 
ATOM      7  C   UNL     1      -9.307  -3.402  -7.912  1.00  0.00     0.004 A 
ATOM      8  C   UNL     1     -10.785  -3.833 -11.433  1.00  0.00     0.048 C 
ENDROOT
BRANCH   4   9
ATOM      9  O   UNL     1      -8.985  -1.570 -11.674  1.00  0.00    -0.508 OA
ATOM     10  H   UNL     1      -8.279  -1.816 -12.356  1.00  0.00     0.293 HD
ENDBRANCH   4   9
TORSDOF 1
ENDMDL
MODEL 5
REMARK VINA RESULT:    -4.847      1.530      2.806
REMARK INTER + INTRA:          -4.988
REMARK INTER:                  -4.988
REMARK INTRA:                   0.000
REMARK UNBOUND:                 0.000
REMARK SMILES Cc1cccc(O)c1C
REMARK SMILES IDX 1 1 2 2 8 3 6 4 5 5 4 6 3 7 9 8 7 9
REMARK H PARENT 7 10
REMARK Flexibility Score: inf
ROOT
ATOM      1  C   UNL     1      -8.192  -2.523  -7.746  1.00  0.00     0.045 C 
ATOM      2  C   UNL     1      -9.278  -2.892  -8.724  1.00  0.00    -0.045 A 
ATOM      3  C   UNL     1      -9.494  -2.160  -9.925  1.00  0.00    -0.006 A 
ATOM      4  C   UNL     1     -10.536  -2.565 -10.799  1.00  0.00     0.118 A 
ATOM      5  C   UNL     1     -11.332  -3.668 -10.478  1.00  0.00     0.046 A 
ATOM      6  C   UNL     1     -11.114  -4.379  -9.301  1.00  0.00     0.004 A 
ATOM      7  C   UNL     1     -10.097  -3.997  -8.431  1.00  0.00     0.004 A 
ATOM      8  C   UNL     1      -8.646  -0.964 -10.293  1.00  0.00     0.048 C 
ENDROOT
BRANCH   4   9
ATOM      9  O   UNL     1     -10.806  -1.894 -11.994  1.00  0.00    -0.508 OA
ATOM     10  H   UNL     1     -10.467  -2.201 -12.896  1.00  0.00     0.293 HD
ENDBRANCH   4   9
TORSDOF 1
ENDMDL
MODEL 6
REMARK VINA RESULT:    -4.842      1.673      2.869
REMARK INTER + INTRA:          -4.984
REMARK INTER:                  -4.984
REMARK INTRA:                   0.000
REMARK UNBOUND:                 0.000
REMARK SMILES Cc1cccc(O)c1C
REMARK SMILES IDX 1 1 2 2 8 3 6 4 5 5 4 6 3 7 9 8 7 9
REMARK H PARENT 7 10
REMARK Flexibility Score: inf
ROOT
ATOM      1  C   UNL     1      -8.311  -0.507 -11.230  1.00  0.00     0.045 C 
ATOM      2  C   UNL     1      -9.181  -1.713 -10.980  1.00  0.00    -0.045 A 
ATOM      3  C   UNL     1      -9.215  -2.371  -9.720  1.00  0.00    -0.006 A 
ATOM      4  C   UNL     1     -10.058  -3.500  -9.557  1.00  0.00     0.118 A 
ATOM      5  C   UNL     1     -10.841  -3.951 -10.623  1.00  0.00     0.046 A 
ATOM      6  C   UNL     1     -10.802  -3.302 -11.854  1.00  0.00     0.004 A 
ATOM      7  C   UNL     1      -9.981  -2.192 -12.033  1.00  0.00     0.004 A 
ATOM      8  C   UNL     1      -8.378  -1.901  -8.552  1.00  0.00     0.048 C 
ENDROOT
BRANCH   4   9
ATOM      9  O   UNL     1     -10.143  -4.197  -8.348  1.00  0.00    -0.508 OA
ATOM     10  H   UNL     1     -10.708  -5.025  -8.219  1.00  0.00     0.293 HD
ENDBRANCH   4   9
TORSDOF 1
ENDMDL
MODEL 7
REMARK VINA RESULT:    -4.837      1.300      2.473
REMARK INTER + INTRA:          -4.979
REMARK INTER:                  -4.979
REMARK INTRA:                   0.000
REMARK UNBOUND:                 0.000
REMARK SMILES Cc1cccc(O)c1C
REMARK SMILES IDX 1 1 2 2 8 3 6 4 5 5 4 6 3 7 9 8 7 9
REMARK H PARENT 7 10
REMARK Flexibility Score: inf
ROOT
ATOM      1  C   UNL     1     -10.960  -3.657 -12.349  1.00  0.00     0.045 C 
ATOM      2  C   UNL     1     -10.174  -2.856 -11.342  1.00  0.00    -0.045 A 
ATOM      3  C   UNL     1     -10.020  -3.283  -9.993  1.00  0.00    -0.006 A 
ATOM      4  C   UNL     1      -9.267  -2.478  -9.100  1.00  0.00     0.118 A 
ATOM      5  C   UNL     1      -8.689  -1.287  -9.546  1.00  0.00     0.046 A 
ATOM      6  C   UNL     1      -8.845  -0.876 -10.867  1.00  0.00     0.004 A 
ATOM      7  C   UNL     1      -9.580  -1.652 -11.759  1.00  0.00     0.004 A 
ATOM      8  C   UNL     1     -10.635  -4.567  -9.488  1.00  0.00     0.048 C 
ENDROOT
BRANCH   4   9
ATOM      9  O   UNL     1      -9.074  -2.833  -7.763  1.00  0.00    -0.508 OA
ATOM     10  H   UNL     1      -9.712  -2.581  -7.020  1.00  0.00     0.293 HD
ENDBRANCH   4   9
TORSDOF 1
ENDMDL
MODEL 8
REMARK VINA RESULT:    -4.681      1.934      3.845
REMARK INTER + INTRA:          -4.818
REMARK INTER:                  -4.818
REMARK INTRA:                   0.000
REMARK UNBOUND:                 0.000
REMARK SMILES Cc1cccc(O)c1C
REMARK SMILES IDX 1 1 2 2 8 3 6 4 5 5 4 6 3 7 9 8 7 9
REMARK H PARENT 7 10
REMARK Flexibility Score: inf
ROOT
ATOM      1  C   UNL     1      -9.167  -1.069 -11.328  1.00  0.00     0.045 C 
ATOM      2  C   UNL     1      -9.292  -1.970 -10.126  1.00  0.00    -0.045 A 
ATOM      3  C   UNL     1     -10.106  -3.137 -10.139  1.00  0.00    -0.006 A 
ATOM      4  C   UNL     1     -10.176  -3.938  -8.970  1.00  0.00     0.118 A 
ATOM      5  C   UNL     1      -9.454  -3.579  -7.829  1.00  0.00     0.046 A 
ATOM      6  C   UNL     1      -8.661  -2.436  -7.824  1.00  0.00     0.004 A 
ATOM      7  C   UNL     1      -8.579  -1.637  -8.961  1.00  0.00     0.004 A 
ATOM      8  C   UNL     1     -10.895  -3.545 -11.362  1.00  0.00     0.048 C 
ENDROOT
BRANCH   4   9
ATOM      9  O   UNL     1     -10.954  -5.097  -8.910  1.00  0.00    -0.508 OA
ATOM     10  H   UNL     1     -11.446  -5.398  -8.078  1.00  0.00     0.293 HD
ENDBRANCH   4   9
TORSDOF 1
ENDMDL
MODEL 9
REMARK VINA RESULT:    -4.074      1.824      2.929
REMARK INTER + INTRA:          -4.193
REMARK INTER:                  -4.193
REMARK INTRA:                   0.000
REMARK UNBOUND:                 0.000
REMARK SMILES Cc1cccc(O)c1C
REMARK SMILES IDX 1 1 2 2 8 3 6 4 5 5 4 6 3 7 9 8 7 9
REMARK H PARENT 7 10
REMARK Flexibility Score: inf
ROOT
ATOM      1  C   UNL     1      -8.249  -0.841  -7.596  1.00  0.00     0.045 C 
ATOM      2  C   UNL     1      -8.744  -1.303  -8.943  1.00  0.00    -0.045 A 
ATOM      3  C   UNL     1      -9.328  -2.586  -9.135  1.00  0.00    -0.006 A 
ATOM      4  C   UNL     1      -9.771  -2.953 -10.432  1.00  0.00     0.118 A 
ATOM      5  C   UNL     1      -9.633  -2.061 -11.498  1.00  0.00     0.046 A 
ATOM      6  C   UNL     1      -9.060  -0.807 -11.304  1.00  0.00     0.004 A 
ATOM      7  C   UNL     1      -8.619  -0.429 -10.038  1.00  0.00     0.004 A 
ATOM      8  C   UNL     1      -9.488  -3.566  -7.996  1.00  0.00     0.048 C 
ENDROOT
BRANCH   4   9
ATOM      9  O   UNL     1     -10.353  -4.195 -10.694  1.00  0.00    -0.508 OA
ATOM     10  H   UNL     1      -9.916  -4.908 -11.264  1.00  0.00     0.293 HD
ENDBRANCH   4   9
TORSDOF 1
ENDMDL
