MODEL 1
REMARK VINA RESULT:    -2.113      0.000      0.000
REMARK INTER + INTRA:          -4.655
REMARK INTER:                  -3.965
REMARK INTRA:                  -0.690
REMARK UNBOUND:                -0.690
REMARK SMILES O=C([O-])CCCCCCCCCCCCCCC(=O)[O-]
REMARK SMILES IDX 10 1 9 2 8 3 7 4 6 5 5 6 4 7 2 8 1 9 3 10 11 11 12 12 13 13
REMARK SMILES IDX 14 14 15 15 16 16 17 17 18 18 19 19 20 20
REMARK H PARENT
REMARK Flexibility Score: inf
ROOT
ATOM      1  C   UNL     1      13.186  10.164  15.034  1.00  0.00     0.000 C 
ENDROOT
BRANCH   1   2
ATOM      2  C   UNL     1      12.126  11.043  14.339  1.00  0.00     0.000 C 
BRANCH   2   3
ATOM      3  C   UNL     1      12.061  12.502  14.833  1.00  0.00     0.000 C 
BRANCH   3   4
ATOM      4  C   UNL     1      13.197  12.913  15.789  1.00  0.00     0.000 C 
BRANCH   4   5
ATOM      5  C   UNL     1      13.605  14.399  15.718  1.00  0.00     0.000 C 
BRANCH   5   6
ATOM      6  C   UNL     1      12.774  15.260  14.745  1.00  0.00     0.006 C 
BRANCH   6   7
ATOM      7  C   UNL     1      13.601  15.993  13.678  1.00  0.00     0.053 C 
BRANCH   7   8
ATOM      8  C   UNL     1      13.195  15.605  12.289  1.00  0.00     0.041 C 
ATOM      9  O   UNL     1      13.202  16.459  11.363  1.00  0.00    -0.550 OA
ATOM     10  O   UNL     1      12.841  14.291  12.010  1.00  0.00    -0.550 OA
ENDBRANCH   7   8
ENDBRANCH   6   7
ENDBRANCH   5   6
ENDBRANCH   4   5
ENDBRANCH   3   4
ENDBRANCH   2   3
ENDBRANCH   1   2
BRANCH   1  11
ATOM     11  C   UNL     1      12.783   8.694  15.251  1.00  0.00     0.000 C 
BRANCH  11  12
ATOM     12  C   UNL     1      13.978   7.729  15.181  1.00  0.00     0.000 C 
BRANCH  12  13
ATOM     13  C   UNL     1      13.644   6.319  15.702  1.00  0.00     0.000 C 
BRANCH  13  14
ATOM     14  C   UNL     1      12.498   6.247  16.728  1.00  0.00     0.000 C 
BRANCH  14  15
ATOM     15  C   UNL     1      12.927   6.685  18.140  1.00  0.00     0.000 C 
BRANCH  15  16
ATOM     16  C   UNL     1      13.068   5.502  19.110  1.00  0.00     0.006 C 
BRANCH  16  17
ATOM     17  C   UNL     1      11.715   4.982  19.614  1.00  0.00     0.053 C 
BRANCH  17  18
ATOM     18  C   UNL     1      11.838   3.561  20.065  1.00  0.00     0.041 C 
ATOM     19  O   UNL     1      11.561   3.247  21.254  1.00  0.00    -0.550 OA
ATOM     20  O   UNL     1      12.301   2.590  19.186  1.00  0.00    -0.550 OA
ENDBRANCH  17  18
ENDBRANCH  16  17
ENDBRANCH  15  16
ENDBRANCH  14  15
ENDBRANCH  13  14
ENDBRANCH  12  13
ENDBRANCH  11  12
ENDBRANCH   1  11
TORSDOF 15
ENDMDL
MODEL 2
REMARK VINA RESULT:    -2.089      0.870     10.331
REMARK INTER + INTRA:          -4.611
REMARK INTER:                  -3.892
REMARK INTRA:                  -0.719
REMARK UNBOUND:                -0.690
REMARK SMILES O=C([O-])CCCCCCCCCCCCCCC(=O)[O-]
REMARK SMILES IDX 10 1 9 2 8 3 7 4 6 5 5 6 4 7 2 8 1 9 3 10 11 11 12 12 13 13
REMARK SMILES IDX 14 14 15 15 16 16 17 17 18 18 19 19 20 20
REMARK H PARENT
REMARK Flexibility Score: inf
ROOT
ATOM      1  C   UNL     1      14.167   8.005  15.021  1.00  0.00     0.000 C 
ENDROOT
BRANCH   1   2
ATOM      2  C   UNL     1      13.952   6.545  14.574  1.00  0.00     0.000 C 
BRANCH   2   3
ATOM      3  C   UNL     1      14.303   5.479  15.630  1.00  0.00     0.000 C 
BRANCH   3   4
ATOM      4  C   UNL     1      13.128   5.046  16.527  1.00  0.00     0.000 C 
BRANCH   4   5
ATOM      5  C   UNL     1      12.635   6.116  17.523  1.00  0.00     0.000 C 
BRANCH   5   6
ATOM      6  C   UNL     1      12.591   5.666  18.997  1.00  0.00     0.006 C 
BRANCH   6   7
ATOM      7  C   UNL     1      12.414   4.153  19.196  1.00  0.00     0.053 C 
BRANCH   7   8
ATOM      8  C   UNL     1      11.365   3.840  20.218  1.00  0.00     0.041 C 
ATOM      9  O   UNL     1      10.165   4.166  20.016  1.00  0.00    -0.550 OA
ATOM     10  O   UNL     1      11.707   3.161  21.381  1.00  0.00    -0.550 OA
ENDBRANCH   7   8
ENDBRANCH   6   7
ENDBRANCH   5   6
ENDBRANCH   4   5
ENDBRANCH   3   4
ENDBRANCH   2   3
ENDBRANCH   1   2
BRANCH   1  11
ATOM     11  C   UNL     1      12.881   8.821  15.248  1.00  0.00     0.000 C 
BRANCH  11  12
ATOM     12  C   UNL     1      13.129  10.339  15.257  1.00  0.00     0.000 C 
BRANCH  12  13
ATOM     13  C   UNL     1      12.223  11.101  14.271  1.00  0.00     0.000 C 
BRANCH  13  14
ATOM     14  C   UNL     1      11.531  12.352  14.841  1.00  0.00     0.000 C 
BRANCH  14  15
ATOM     15  C   UNL     1      12.475  13.234  15.678  1.00  0.00     0.000 C 
BRANCH  15  16
ATOM     16  C   UNL     1      13.590  13.872  14.835  1.00  0.00     0.006 C 
BRANCH  16  17
ATOM     17  C   UNL     1      13.180  15.222  14.232  1.00  0.00     0.053 C 
BRANCH  17  18
ATOM     18  C   UNL     1      13.146  15.136  12.739  1.00  0.00     0.041 C 
ATOM     19  O   UNL     1      12.839  14.053  12.173  1.00  0.00    -0.550 OA
ATOM     20  O   UNL     1      13.495  16.240  11.970  1.00  0.00    -0.550 OA
ENDBRANCH  17  18
ENDBRANCH  16  17
ENDBRANCH  15  16
ENDBRANCH  14  15
ENDBRANCH  13  14
ENDBRANCH  12  13
ENDBRANCH  11  12
ENDBRANCH   1  11
TORSDOF 15
ENDMDL
MODEL 3
REMARK VINA RESULT:    -2.071      0.856      1.593
REMARK INTER + INTRA:          -4.578
REMARK INTER:                  -3.854
REMARK INTRA:                  -0.724
REMARK UNBOUND:                -0.690
REMARK SMILES O=C([O-])CCCCCCCCCCCCCCC(=O)[O-]
REMARK SMILES IDX 10 1 9 2 8 3 7 4 6 5 5 6 4 7 2 8 1 9 3 10 11 11 12 12 13 13
REMARK SMILES IDX 14 14 15 15 16 16 17 17 18 18 19 19 20 20
REMARK H PARENT
REMARK Flexibility Score: inf
ROOT
ATOM      1  C   UNL     1      12.802   9.078  15.452  1.00  0.00     0.000 C 
ENDROOT
BRANCH   1   2
ATOM      2  C   UNL     1      13.131  10.485  14.915  1.00  0.00     0.000 C 
BRANCH   2   3
ATOM      3  C   UNL     1      11.909  11.349  14.550  1.00  0.00     0.000 C 
BRANCH   3   4
ATOM      4  C   UNL     1      11.880  12.741  15.210  1.00  0.00     0.000 C 
BRANCH   4   5
ATOM      5  C   UNL     1      13.232  13.226  15.773  1.00  0.00     0.000 C 
BRANCH   5   6
ATOM      6  C   UNL     1      13.847  14.438  15.045  1.00  0.00     0.006 C 
BRANCH   6   7
ATOM      7  C   UNL     1      12.843  15.265  14.226  1.00  0.00     0.053 C 
BRANCH   7   8
ATOM      8  C   UNL     1      13.125  15.194  12.756  1.00  0.00     0.041 C 
ATOM      9  O   UNL     1      12.883  14.138  12.114  1.00  0.00    -0.550 OA
ATOM     10  O   UNL     1      13.625  16.305  12.090  1.00  0.00    -0.550 OA
ENDBRANCH   7   8
ENDBRANCH   6   7
ENDBRANCH   5   6
ENDBRANCH   4   5
ENDBRANCH   3   4
ENDBRANCH   2   3
ENDBRANCH   1   2
BRANCH   1  11
ATOM     11  C   UNL     1      13.789   7.969  15.045  1.00  0.00     0.000 C 
BRANCH  11  12
ATOM     12  C   UNL     1      13.509   6.630  15.748  1.00  0.00     0.000 C 
BRANCH  12  13
ATOM     13  C   UNL     1      12.366   6.718  16.777  1.00  0.00     0.000 C 
BRANCH  13  14
ATOM     14  C   UNL     1      12.807   6.881  18.243  1.00  0.00     0.000 C 
BRANCH  14  15
ATOM     15  C   UNL     1      13.139   5.541  18.923  1.00  0.00     0.000 C 
BRANCH  15  16
ATOM     16  C   UNL     1      12.445   4.347  18.249  1.00  0.00     0.006 C 
BRANCH  16  17
ATOM     17  C   UNL     1      12.229   3.167  19.206  1.00  0.00     0.053 C 
BRANCH  17  18
ATOM     18  C   UNL     1      11.367   3.581  20.356  1.00  0.00     0.041 C 
ATOM     19  O   UNL     1      10.377   4.337  20.167  1.00  0.00    -0.550 OA
ATOM     20  O   UNL     1      11.681   3.167  21.646  1.00  0.00    -0.550 OA
ENDBRANCH  17  18
ENDBRANCH  16  17
ENDBRANCH  15  16
ENDBRANCH  14  15
ENDBRANCH  13  14
ENDBRANCH  12  13
ENDBRANCH  11  12
ENDBRANCH   1  11
TORSDOF 15
ENDMDL
MODEL 4
REMARK VINA RESULT:    -1.896      1.419     10.904
REMARK INTER + INTRA:          -4.250
REMARK INTER:                  -3.549
REMARK INTRA:                  -0.700
REMARK UNBOUND:                -0.690
REMARK SMILES O=C([O-])CCCCCCCCCCCCCCC(=O)[O-]
REMARK SMILES IDX 10 1 9 2 8 3 7 4 6 5 5 6 4 7 2 8 1 9 3 10 11 11 12 12 13 13
REMARK SMILES IDX 14 14 15 15 16 16 17 17 18 18 19 19 20 20
REMARK H PARENT
REMARK Flexibility Score: inf
ROOT
ATOM      1  C   UNL     1      13.863   8.639  15.208  1.00  0.00     0.000 C 
ENDROOT
BRANCH   1   2
ATOM      2  C   UNL     1      13.339   7.197  15.354  1.00  0.00     0.000 C 
BRANCH   2   3
ATOM      3  C   UNL     1      12.564   6.910  16.655  1.00  0.00     0.000 C 
BRANCH   3   4
ATOM      4  C   UNL     1      13.141   5.768  17.514  1.00  0.00     0.000 C 
BRANCH   4   5
ATOM      5  C   UNL     1      12.412   5.522  18.850  1.00  0.00     0.000 C 
BRANCH   5   6
ATOM      6  C   UNL     1      12.283   4.041  19.261  1.00  0.00     0.006 C 
BRANCH   6   7
ATOM      7  C   UNL     1      11.213   3.768  20.330  1.00  0.00     0.053 C 
BRANCH   7   8
ATOM      8  C   UNL     1      11.814   3.270  21.609  1.00  0.00     0.041 C 
ATOM      9  O   UNL     1      12.248   4.085  22.466  1.00  0.00    -0.550 OA
ATOM     10  O   UNL     1      11.864   1.906  21.869  1.00  0.00    -0.550 OA
ENDBRANCH   7   8
ENDBRANCH   6   7
ENDBRANCH   5   6
ENDBRANCH   4   5
ENDBRANCH   3   4
ENDBRANCH   2   3
ENDBRANCH   1   2
BRANCH   1  11
ATOM     11  C   UNL     1      12.781   9.716  15.005  1.00  0.00     0.000 C 
BRANCH  11  12
ATOM     12  C   UNL     1      13.236  11.114  15.456  1.00  0.00     0.000 C 
BRANCH  12  13
ATOM     13  C   UNL     1      12.342  12.243  14.909  1.00  0.00     0.000 C 
BRANCH  13  14
ATOM     14  C   UNL     1      11.283  11.809  13.880  1.00  0.00     0.000 C 
BRANCH  14  15
ATOM     15  C   UNL     1      11.596  12.292  12.453  1.00  0.00     0.000 C 
BRANCH  15  16
ATOM     16  C   UNL     1      12.876  13.139  12.383  1.00  0.00     0.006 C 
BRANCH  16  17
ATOM     17  C   UNL     1      12.615  14.572  11.900  1.00  0.00     0.053 C 
BRANCH  17  18
ATOM     18  C   UNL     1      13.304  15.556  12.792  1.00  0.00     0.041 C 
ATOM     19  O   UNL     1      13.301  15.389  14.041  1.00  0.00    -0.550 OA
ATOM     20  O   UNL     1      13.914  16.680  12.249  1.00  0.00    -0.550 OA
ENDBRANCH  17  18
ENDBRANCH  16  17
ENDBRANCH  15  16
ENDBRANCH  14  15
ENDBRANCH  13  14
ENDBRANCH  12  13
ENDBRANCH  11  12
ENDBRANCH   1  11
TORSDOF 15
ENDMDL
MODEL 5
REMARK VINA RESULT:    -1.893      3.585      4.921
REMARK INTER + INTRA:          -4.243
REMARK INTER:                  -3.882
REMARK INTRA:                  -0.361
REMARK UNBOUND:                -0.690
REMARK SMILES O=C([O-])CCCCCCCCCCCCCCC(=O)[O-]
REMARK SMILES IDX 10 1 9 2 8 3 7 4 6 5 5 6 4 7 2 8 1 9 3 10 11 11 12 12 13 13
REMARK SMILES IDX 14 14 15 15 16 16 17 17 18 18 19 19 20 20
REMARK H PARENT
REMARK Flexibility Score: inf
ROOT
ATOM      1  C   UNL     1      13.266   8.001  15.883  1.00  0.00     0.000 C 
ENDROOT
BRANCH   1   2
ATOM      2  C   UNL     1      12.620   9.058  14.965  1.00  0.00     0.000 C 
BRANCH   2   3
ATOM      3  C   UNL     1      13.152  10.493  15.144  1.00  0.00     0.000 C 
BRANCH   3   4
ATOM      4  C   UNL     1      12.216  11.600  14.622  1.00  0.00     0.000 C 
BRANCH   4   5
ATOM      5  C   UNL     1      12.278  12.930  15.402  1.00  0.00     0.000 C 
BRANCH   5   6
ATOM      6  C   UNL     1      13.184  14.011  14.780  1.00  0.00     0.006 C 
BRANCH   6   7
ATOM      7  C   UNL     1      13.145  14.069  13.245  1.00  0.00     0.053 C 
BRANCH   7   8
ATOM      8  C   UNL     1      13.257  15.473  12.734  1.00  0.00     0.041 C 
ATOM      9  O   UNL     1      12.997  15.732  11.529  1.00  0.00    -0.550 OA
ATOM     10  O   UNL     1      13.616  16.501  13.597  1.00  0.00    -0.550 OA
ENDBRANCH   7   8
ENDBRANCH   6   7
ENDBRANCH   5   6
ENDBRANCH   4   5
ENDBRANCH   3   4
ENDBRANCH   2   3
ENDBRANCH   1   2
BRANCH   1  11
ATOM     11  C   UNL     1      12.289   6.999  16.524  1.00  0.00     0.000 C 
BRANCH  11  12
ATOM     12  C   UNL     1      13.003   5.860  17.271  1.00  0.00     0.000 C 
BRANCH  12  13
ATOM     13  C   UNL     1      13.241   4.619  16.390  1.00  0.00     0.000 C 
BRANCH  13  14
ATOM     14  C   UNL     1      14.613   4.552  15.696  1.00  0.00     0.000 C 
BRANCH  14  15
ATOM     15  C   UNL     1      14.716   5.484  14.476  1.00  0.00     0.000 C 
BRANCH  15  16
ATOM     16  C   UNL     1      15.519   4.863  13.323  1.00  0.00     0.006 C 
BRANCH  16  17
ATOM     17  C   UNL     1      16.925   4.420  13.749  1.00  0.00     0.053 C 
BRANCH  17  18
ATOM     18  C   UNL     1      17.657   3.825  12.588  1.00  0.00     0.041 C 
ATOM     19  O   UNL     1      18.863   3.479  12.708  1.00  0.00    -0.550 OA
ATOM     20  O   UNL     1      17.022   3.693  11.358  1.00  0.00    -0.550 OA
ENDBRANCH  17  18
ENDBRANCH  16  17
ENDBRANCH  15  16
ENDBRANCH  14  15
ENDBRANCH  13  14
ENDBRANCH  12  13
ENDBRANCH  11  12
ENDBRANCH   1  11
TORSDOF 15
ENDMDL
MODEL 6
REMARK VINA RESULT:    -1.848      3.352      9.705
REMARK INTER + INTRA:          -4.158
REMARK INTER:                  -3.349
REMARK INTRA:                  -0.809
REMARK UNBOUND:                -0.690
REMARK SMILES O=C([O-])CCCCCCCCCCCCCCC(=O)[O-]
REMARK SMILES IDX 10 1 9 2 8 3 7 4 6 5 5 6 4 7 2 8 1 9 3 10 11 11 12 12 13 13
REMARK SMILES IDX 14 14 15 15 16 16 17 17 18 18 19 19 20 20
REMARK H PARENT
REMARK Flexibility Score: inf
ROOT
ATOM      1  C   UNL     1      12.478   7.688  16.536  1.00  0.00     0.000 C 
ENDROOT
BRANCH   1   2
ATOM      2  C   UNL     1      12.104   6.218  16.811  1.00  0.00     0.000 C 
BRANCH   2   3
ATOM      3  C   UNL     1      13.260   5.331  17.315  1.00  0.00     0.000 C 
BRANCH   3   4
ATOM      4  C   UNL     1      13.591   4.126  16.413  1.00  0.00     0.000 C 
BRANCH   4   5
ATOM      5  C   UNL     1      14.796   4.327  15.470  1.00  0.00     0.000 C 
BRANCH   5   6
ATOM      6  C   UNL     1      14.455   4.935  14.094  1.00  0.00     0.006 C 
BRANCH   6   7
ATOM      7  C   UNL     1      15.627   4.958  13.101  1.00  0.00     0.053 C 
BRANCH   7   8
ATOM      8  C   UNL     1      15.223   4.467  11.745  1.00  0.00     0.041 C 
ATOM      9  O   UNL     1      14.195   4.930  11.183  1.00  0.00    -0.550 OA
ATOM     10  O   UNL     1      16.000   3.522  11.087  1.00  0.00    -0.550 OA
ENDBRANCH   7   8
ENDBRANCH   6   7
ENDBRANCH   5   6
ENDBRANCH   4   5
ENDBRANCH   3   4
ENDBRANCH   2   3
ENDBRANCH   1   2
BRANCH   1  11
ATOM     11  C   UNL     1      13.455   7.911  15.368  1.00  0.00     0.000 C 
BRANCH  11  12
ATOM     12  C   UNL     1      13.652   9.398  15.027  1.00  0.00     0.000 C 
BRANCH  12  13
ATOM     13  C   UNL     1      12.361  10.226  15.179  1.00  0.00     0.000 C 
BRANCH  13  14
ATOM     14  C   UNL     1      12.352  11.579  14.445  1.00  0.00     0.000 C 
BRANCH  14  15
ATOM     15  C   UNL     1      12.304  12.782  15.402  1.00  0.00     0.000 C 
BRANCH  15  16
ATOM     16  C   UNL     1      13.114  13.982  14.887  1.00  0.00     0.006 C 
BRANCH  16  17
ATOM     17  C   UNL     1      13.194  14.030  13.355  1.00  0.00     0.053 C 
BRANCH  17  18
ATOM     18  C   UNL     1      13.265  15.448  12.882  1.00  0.00     0.041 C 
ATOM     19  O   UNL     1      12.930  15.741  11.703  1.00  0.00    -0.550 OA
ATOM     20  O   UNL     1      13.743  16.441  13.730  1.00  0.00    -0.550 OA
ENDBRANCH  17  18
ENDBRANCH  16  17
ENDBRANCH  15  16
ENDBRANCH  14  15
ENDBRANCH  13  14
ENDBRANCH  12  13
ENDBRANCH  11  12
ENDBRANCH   1  11
TORSDOF 15
ENDMDL
MODEL 7
REMARK VINA RESULT:    -1.602      1.271      2.208
REMARK INTER + INTRA:          -3.696
REMARK INTER:                  -3.081
REMARK INTRA:                  -0.615
REMARK UNBOUND:                -0.690
REMARK SMILES O=C([O-])CCCCCCCCCCCCCCC(=O)[O-]
REMARK SMILES IDX 10 1 9 2 8 3 7 4 6 5 5 6 4 7 2 8 1 9 3 10 11 11 12 12 13 13
REMARK SMILES IDX 14 14 15 15 16 16 17 17 18 18 19 19 20 20
REMARK H PARENT
REMARK Flexibility Score: inf
ROOT
ATOM      1  C   UNL     1      12.151  11.581  15.031  1.00  0.00     0.000 C 
ENDROOT
BRANCH   1   2
ATOM      2  C   UNL     1      12.787  12.779  15.764  1.00  0.00     0.000 C 
BRANCH   2   3
ATOM      3  C   UNL     1      13.554  13.766  14.863  1.00  0.00     0.000 C 
BRANCH   3   4
ATOM      4  C   UNL     1      12.909  15.160  14.735  1.00  0.00     0.000 C 
BRANCH   4   5
ATOM      5  C   UNL     1      13.250  15.922  13.438  1.00  0.00     0.000 C 
BRANCH   5   6
ATOM      6  C   UNL     1      13.313  15.051  12.166  1.00  0.00     0.006 C 
BRANCH   6   7
ATOM      7  C   UNL     1      11.966  14.445  11.744  1.00  0.00     0.053 C 
BRANCH   7   8
ATOM      8  C   UNL     1      12.031  12.952  11.641  1.00  0.00     0.041 C 
ATOM      9  O   UNL     1      12.995  12.398  11.048  1.00  0.00    -0.550 OA
ATOM     10  O   UNL     1      11.044  12.170  12.228  1.00  0.00    -0.550 OA
ENDBRANCH   7   8
ENDBRANCH   6   7
ENDBRANCH   5   6
ENDBRANCH   4   5
ENDBRANCH   3   4
ENDBRANCH   2   3
ENDBRANCH   1   2
BRANCH   1  11
ATOM     11  C   UNL     1      13.136  10.489  14.576  1.00  0.00     0.000 C 
BRANCH  11  12
ATOM     12  C   UNL     1      13.073   9.224  15.449  1.00  0.00     0.000 C 
BRANCH  12  13
ATOM     13  C   UNL     1      13.985   8.093  14.937  1.00  0.00     0.000 C 
BRANCH  13  14
ATOM     14  C   UNL     1      13.626   6.679  15.427  1.00  0.00     0.000 C 
BRANCH  14  15
ATOM     15  C   UNL     1      12.783   6.686  16.714  1.00  0.00     0.000 C 
BRANCH  15  16
ATOM     16  C   UNL     1      12.697   5.300  17.373  1.00  0.00     0.006 C 
BRANCH  16  17
ATOM     17  C   UNL     1      12.306   5.369  18.855  1.00  0.00     0.053 C 
BRANCH  17  18
ATOM     18  C   UNL     1      12.039   3.997  19.388  1.00  0.00     0.041 C 
ATOM     19  O   UNL     1      11.503   3.850  20.519  1.00  0.00    -0.550 OA
ATOM     20  O   UNL     1      12.421   2.880  18.655  1.00  0.00    -0.550 OA
ENDBRANCH  17  18
ENDBRANCH  16  17
ENDBRANCH  15  16
ENDBRANCH  14  15
ENDBRANCH  13  14
ENDBRANCH  12  13
ENDBRANCH  11  12
ENDBRANCH   1  11
TORSDOF 15
ENDMDL
MODEL 8
REMARK VINA RESULT:    -1.569      0.971     10.350
REMARK INTER + INTRA:          -3.634
REMARK INTER:                  -3.066
REMARK INTRA:                  -0.569
REMARK UNBOUND:                -0.690
REMARK SMILES O=C([O-])CCCCCCCCCCCCCCC(=O)[O-]
REMARK SMILES IDX 10 1 9 2 8 3 7 4 6 5 5 6 4 7 2 8 1 9 3 10 11 11 12 12 13 13
REMARK SMILES IDX 14 14 15 15 16 16 17 17 18 18 19 19 20 20
REMARK H PARENT
REMARK Flexibility Score: inf
ROOT
ATOM      1  C   UNL     1      13.976   6.245  14.481  1.00  0.00     0.000 C 
ENDROOT
BRANCH   1   2
ATOM      2  C   UNL     1      14.539   5.070  15.305  1.00  0.00     0.000 C 
BRANCH   2   3
ATOM      3  C   UNL     1      13.613   4.550  16.422  1.00  0.00     0.000 C 
BRANCH   3   4
ATOM      4  C   UNL     1      12.435   5.480  16.771  1.00  0.00     0.000 C 
BRANCH   4   5
ATOM      5  C   UNL     1      12.644   6.358  18.022  1.00  0.00     0.000 C 
BRANCH   5   6
ATOM      6  C   UNL     1      12.711   5.588  19.357  1.00  0.00     0.006 C 
BRANCH   6   7
ATOM      7  C   UNL     1      11.471   4.734  19.662  1.00  0.00     0.053 C 
BRANCH   7   8
ATOM      8  C   UNL     1      11.838   3.387  20.205  1.00  0.00     0.041 C 
ATOM      9  O   UNL     1      12.282   2.493  19.437  1.00  0.00    -0.550 OA
ATOM     10  O   UNL     1      11.719   3.129  21.564  1.00  0.00    -0.550 OA
ENDBRANCH   7   8
ENDBRANCH   6   7
ENDBRANCH   5   6
ENDBRANCH   4   5
ENDBRANCH   3   4
ENDBRANCH   2   3
ENDBRANCH   1   2
BRANCH   1  11
ATOM     11  C   UNL     1      14.349   7.648  14.993  1.00  0.00     0.000 C 
BRANCH  11  12
ATOM     12  C   UNL     1      13.123   8.549  15.218  1.00  0.00     0.000 C 
BRANCH  12  13
ATOM     13  C   UNL     1      13.446  10.049  15.082  1.00  0.00     0.000 C 
BRANCH  13  14
ATOM     14  C   UNL     1      12.226  10.987  15.032  1.00  0.00     0.000 C 
BRANCH  14  15
ATOM     15  C   UNL     1      12.448  12.214  14.130  1.00  0.00     0.000 C 
BRANCH  15  16
ATOM     16  C   UNL     1      12.401  13.538  14.910  1.00  0.00     0.006 C 
BRANCH  16  17
ATOM     17  C   UNL     1      13.601  14.447  14.611  1.00  0.00     0.053 C 
BRANCH  17  18
ATOM     18  C   UNL     1      13.314  15.316  13.428  1.00  0.00     0.041 C 
ATOM     19  O   UNL     1      13.310  16.570  13.549  1.00  0.00    -0.550 OA
ATOM     20  O   UNL     1      13.008  14.741  12.200  1.00  0.00    -0.550 OA
ENDBRANCH  17  18
ENDBRANCH  16  17
ENDBRANCH  15  16
ENDBRANCH  14  15
ENDBRANCH  13  14
ENDBRANCH  12  13
ENDBRANCH  11  12
ENDBRANCH   1  11
TORSDOF 15
ENDMDL
MODEL 9
REMARK VINA RESULT:    -1.544      3.647      9.685
REMARK INTER + INTRA:          -3.588
REMARK INTER:                  -2.758
REMARK INTRA:                  -0.830
REMARK UNBOUND:                -0.690
REMARK SMILES O=C([O-])CCCCCCCCCCCCCCC(=O)[O-]
REMARK SMILES IDX 10 1 9 2 8 3 7 4 6 5 5 6 4 7 2 8 1 9 3 10 11 11 12 12 13 13
REMARK SMILES IDX 14 14 15 15 16 16 17 17 18 18 19 19 20 20
REMARK H PARENT
REMARK Flexibility Score: inf
ROOT
ATOM      1  C   UNL     1      12.853   5.883  17.951  1.00  0.00     0.000 C 
ENDROOT
BRANCH   1   2
ATOM      2  C   UNL     1      12.688   4.873  16.798  1.00  0.00     0.000 C 
BRANCH   2   3
ATOM      3  C   UNL     1      13.725   3.734  16.771  1.00  0.00     0.000 C 
BRANCH   3   4
ATOM      4  C   UNL     1      14.879   3.933  15.769  1.00  0.00     0.000 C 
BRANCH   4   5
ATOM      5  C   UNL     1      14.723   5.142  14.824  1.00  0.00     0.000 C 
BRANCH   5   6
ATOM      6  C   UNL     1      15.581   5.086  13.543  1.00  0.00     0.006 C 
BRANCH   6   7
ATOM      7  C   UNL     1      16.958   4.429  13.728  1.00  0.00     0.053 C 
BRANCH   7   8
ATOM      8  C   UNL     1      17.511   3.913  12.435  1.00  0.00     0.041 C 
ATOM      9  O   UNL     1      18.744   3.683  12.319  1.00  0.00    -0.550 OA
ATOM     10  O   UNL     1      16.659   3.656  11.368  1.00  0.00    -0.550 OA
ENDBRANCH   7   8
ENDBRANCH   6   7
ENDBRANCH   5   6
ENDBRANCH   4   5
ENDBRANCH   3   4
ENDBRANCH   2   3
ENDBRANCH   1   2
BRANCH   1  11
ATOM     11  C   UNL     1      12.823   7.366  17.537  1.00  0.00     0.000 C 
BRANCH  11  12
ATOM     12  C   UNL     1      12.596   7.563  16.029  1.00  0.00     0.000 C 
BRANCH  12  13
ATOM     13  C   UNL     1      13.388   8.751  15.452  1.00  0.00     0.000 C 
BRANCH  13  14
ATOM     14  C   UNL     1      12.536   9.916  14.914  1.00  0.00     0.000 C 
BRANCH  14  15
ATOM     15  C   UNL     1      13.106  11.297  15.284  1.00  0.00     0.000 C 
BRANCH  15  16
ATOM     16  C   UNL     1      12.477  12.435  14.464  1.00  0.00     0.006 C 
BRANCH  16  17
ATOM     17  C   UNL     1      13.159  13.788  14.705  1.00  0.00     0.053 C 
BRANCH  17  18
ATOM     18  C   UNL     1      13.157  14.603  13.451  1.00  0.00     0.041 C 
ATOM     19  O   UNL     1      12.967  14.049  12.335  1.00  0.00    -0.550 OA
ATOM     20  O   UNL     1      13.409  15.969  13.508  1.00  0.00    -0.550 OA
ENDBRANCH  17  18
ENDBRANCH  16  17
ENDBRANCH  15  16
ENDBRANCH  14  15
ENDBRANCH  13  14
ENDBRANCH  12  13
ENDBRANCH  11  12
ENDBRANCH   1  11
TORSDOF 15
ENDMDL
