MODEL 1
REMARK VINA RESULT:    -5.360      0.000      0.000
REMARK INTER + INTRA:          -5.769
REMARK INTER:                  -5.673
REMARK INTRA:                  -0.096
REMARK UNBOUND:                -0.096
REMARK SMILES C=C(C)[C@H]1CC=C(C)C(=O)C1
REMARK SMILES IDX 8 1 7 2 6 3 5 4 4 5 11 6 9 7 10 8 2 9 1 10 3 11
REMARK H PARENT
REMARK Flexibility Score: inf
ROOT
ATOM      1  C   UNL     1      16.036 -34.351  22.483  1.00  0.00     0.048 C 
ATOM      2  C   UNL     1      14.993 -33.274  22.607  1.00  0.00    -0.012 C 
ATOM      3  C   UNL     1      14.678 -32.776  23.816  1.00  0.00    -0.019 C 
ATOM      4  C   UNL     1      13.585 -31.755  23.999  1.00  0.00     0.036 C 
ATOM      5  C   UNL     1      13.446 -30.859  22.753  1.00  0.00     0.025 C 
ATOM      6  C   UNL     1      13.236 -31.720  21.494  1.00  0.00     0.089 C 
ATOM      7  C   UNL     1      14.297 -32.782  21.392  1.00  0.00     0.158 C 
ATOM      8  O   UNL     1      14.559 -33.283  20.267  1.00  0.00    -0.295 OA
ENDROOT
BRANCH   5   9
ATOM      9  C   UNL     1      12.337 -29.830  22.921  1.00  0.00    -0.077 C 
ATOM     10  C   UNL     1      11.216 -29.882  22.179  1.00  0.00     0.008 C 
ATOM     11  C   UNL     1      12.478 -28.723  23.934  1.00  0.00     0.039 C 
ENDBRANCH   5   9
TORSDOF 1
ENDMDL
MODEL 2
REMARK VINA RESULT:    -5.316      1.353      2.247
REMARK INTER + INTRA:          -5.723
REMARK INTER:                  -5.626
REMARK INTRA:                  -0.096
REMARK UNBOUND:                -0.096
REMARK SMILES C=C(C)[C@H]1CC=C(C)C(=O)C1
REMARK SMILES IDX 8 1 7 2 6 3 5 4 4 5 11 6 9 7 10 8 2 9 1 10 3 11
REMARK H PARENT
REMARK Flexibility Score: inf
ROOT
ATOM      1  C   UNL     1      15.381 -34.373  21.372  1.00  0.00     0.048 C 
ATOM      2  C   UNL     1      14.659 -33.116  21.774  1.00  0.00    -0.012 C 
ATOM      3  C   UNL     1      13.881 -32.472  20.888  1.00  0.00    -0.019 C 
ATOM      4  C   UNL     1      13.202 -31.168  21.219  1.00  0.00     0.036 C 
ATOM      5  C   UNL     1      12.868 -31.081  22.721  1.00  0.00     0.025 C 
ATOM      6  C   UNL     1      14.134 -31.312  23.566  1.00  0.00     0.089 C 
ATOM      7  C   UNL     1      14.830 -32.578  23.147  1.00  0.00     0.158 C 
ATOM      8  O   UNL     1      15.597 -33.156  23.962  1.00  0.00    -0.295 OA
ENDROOT
BRANCH   5   9
ATOM      9  C   UNL     1      12.192 -29.762  23.071  1.00  0.00    -0.077 C 
ATOM     10  C   UNL     1      12.743 -28.906  23.949  1.00  0.00     0.008 C 
ATOM     11  C   UNL     1      10.880 -29.390  22.430  1.00  0.00     0.039 C 
ENDBRANCH   5   9
TORSDOF 1
ENDMDL
MODEL 3
REMARK VINA RESULT:    -5.167      1.940      2.391
REMARK INTER + INTRA:          -5.565
REMARK INTER:                  -5.474
REMARK INTRA:                  -0.091
REMARK UNBOUND:                -0.096
REMARK SMILES C=C(C)[C@H]1CC=C(C)C(=O)C1
REMARK SMILES IDX 8 1 7 2 6 3 5 4 4 5 11 6 9 7 10 8 2 9 1 10 3 11
REMARK H PARENT
REMARK Flexibility Score: inf
ROOT
ATOM      1  C   UNL     1      17.372 -31.605  23.126  1.00  0.00     0.048 C 
ATOM      2  C   UNL     1      15.983 -31.029  23.189  1.00  0.00    -0.012 C 
ATOM      3  C   UNL     1      15.774 -29.738  22.879  1.00  0.00    -0.019 C 
ATOM      4  C   UNL     1      14.416 -29.096  23.003  1.00  0.00     0.036 C 
ATOM      5  C   UNL     1      13.292 -30.122  22.763  1.00  0.00     0.025 C 
ATOM      6  C   UNL     1      13.457 -31.329  23.706  1.00  0.00     0.089 C 
ATOM      7  C   UNL     1      14.851 -31.887  23.616  1.00  0.00     0.158 C 
ATOM      8  O   UNL     1      15.056 -33.084  23.952  1.00  0.00    -0.295 OA
ENDROOT
BRANCH   5   9
ATOM      9  C   UNL     1      11.914 -29.489  22.897  1.00  0.00    -0.077 C 
ATOM     10  C   UNL     1      10.891 -29.866  22.110  1.00  0.00     0.008 C 
ATOM     11  C   UNL     1      11.671 -28.416  23.928  1.00  0.00     0.039 C 
ENDBRANCH   5   9
TORSDOF 1
ENDMDL
MODEL 4
REMARK VINA RESULT:    -5.149      1.938      4.384
REMARK INTER + INTRA:          -5.546
REMARK INTER:                  -5.449
REMARK INTRA:                  -0.096
REMARK UNBOUND:                -0.096
REMARK SMILES C=C(C)[C@H]1CC=C(C)C(=O)C1
REMARK SMILES IDX 8 1 7 2 6 3 5 4 4 5 11 6 9 7 10 8 2 9 1 10 3 11
REMARK H PARENT
REMARK Flexibility Score: inf
ROOT
ATOM      1  C   UNL     1      11.606 -28.598  23.824  1.00  0.00     0.048 C 
ATOM      2  C   UNL     1      12.577 -29.528  23.147  1.00  0.00    -0.012 C 
ATOM      3  C   UNL     1      13.881 -29.491  23.469  1.00  0.00    -0.019 C 
ATOM      4  C   UNL     1      14.902 -30.345  22.763  1.00  0.00     0.036 C 
ATOM      5  C   UNL     1      14.281 -31.669  22.278  1.00  0.00     0.025 C 
ATOM      6  C   UNL     1      13.045 -31.392  21.402  1.00  0.00     0.089 C 
ATOM      7  C   UNL     1      12.090 -30.467  22.107  1.00  0.00     0.158 C 
ATOM      8  O   UNL     1      10.876 -30.467  21.772  1.00  0.00    -0.295 OA
ENDROOT
BRANCH   5   9
ATOM      9  C   UNL     1      15.301 -32.537  21.552  1.00  0.00    -0.077 C 
ATOM     10  C   UNL     1      14.956 -33.722  21.020  1.00  0.00     0.008 C 
ATOM     11  C   UNL     1      16.729 -32.074  21.417  1.00  0.00     0.039 C 
ENDBRANCH   5   9
TORSDOF 1
ENDMDL
MODEL 5
REMARK VINA RESULT:    -5.148      2.109      2.524
REMARK INTER + INTRA:          -5.544
REMARK INTER:                  -5.454
REMARK INTRA:                  -0.090
REMARK UNBOUND:                -0.096
REMARK SMILES C=C(C)[C@H]1CC=C(C)C(=O)C1
REMARK SMILES IDX 8 1 7 2 6 3 5 4 4 5 11 6 9 7 10 8 2 9 1 10 3 11
REMARK H PARENT
REMARK Flexibility Score: inf
ROOT
ATOM      1  C   UNL     1      17.300 -32.271  23.894  1.00  0.00     0.048 C 
ATOM      2  C   UNL     1      15.981 -31.611  23.603  1.00  0.00    -0.012 C 
ATOM      3  C   UNL     1      14.831 -32.237  23.907  1.00  0.00    -0.019 C 
ATOM      4  C   UNL     1      13.486 -31.651  23.562  1.00  0.00     0.036 C 
ATOM      5  C   UNL     1      13.532 -30.112  23.570  1.00  0.00     0.025 C 
ATOM      6  C   UNL     1      14.647 -29.603  22.637  1.00  0.00     0.089 C 
ATOM      7  C   UNL     1      15.954 -30.275  22.957  1.00  0.00     0.158 C 
ATOM      8  O   UNL     1      17.031 -29.710  22.628  1.00  0.00    -0.295 OA
ENDROOT
BRANCH   5   9
ATOM      9  C   UNL     1      12.181 -29.507  23.212  1.00  0.00    -0.077 C 
ATOM     10  C   UNL     1      11.709 -28.422  23.851  1.00  0.00     0.008 C 
ATOM     11  C   UNL     1      11.342 -30.121  22.121  1.00  0.00     0.039 C 
ENDBRANCH   5   9
TORSDOF 1
ENDMDL
MODEL 6
REMARK VINA RESULT:    -5.022      1.102      4.470
REMARK INTER + INTRA:          -5.412
REMARK INTER:                  -5.315
REMARK INTRA:                  -0.097
REMARK UNBOUND:                -0.096
REMARK SMILES C=C(C)[C@H]1CC=C(C)C(=O)C1
REMARK SMILES IDX 8 1 7 2 6 3 5 4 4 5 11 6 9 7 10 8 2 9 1 10 3 11
REMARK H PARENT
REMARK Flexibility Score: inf
ROOT
ATOM      1  C   UNL     1      12.343 -30.373  22.510  1.00  0.00     0.048 C 
ATOM      2  C   UNL     1      13.460 -31.379  22.571  1.00  0.00    -0.012 C 
ATOM      3  C   UNL     1      14.142 -31.562  23.716  1.00  0.00    -0.019 C 
ATOM      4  C   UNL     1      15.318 -32.499  23.803  1.00  0.00     0.036 C 
ATOM      5  C   UNL     1      15.169 -33.673  22.817  1.00  0.00     0.025 C 
ATOM      6  C   UNL     1      14.947 -33.148  21.387  1.00  0.00     0.089 C 
ATOM      7  C   UNL     1      13.821 -32.151  21.356  1.00  0.00     0.158 C 
ATOM      8  O   UNL     1      13.213 -31.944  20.272  1.00  0.00    -0.295 OA
ENDROOT
BRANCH   5   9
ATOM      9  C   UNL     1      16.358 -34.622  22.888  1.00  0.00    -0.077 C 
ATOM     10  C   UNL     1      16.923 -35.119  21.774  1.00  0.00     0.008 C 
ATOM     11  C   UNL     1      16.928 -35.023  24.225  1.00  0.00     0.039 C 
ENDBRANCH   5   9
TORSDOF 1
ENDMDL
MODEL 7
REMARK VINA RESULT:    -4.997      2.607      5.420
REMARK INTER + INTRA:          -5.386
REMARK INTER:                  -5.297
REMARK INTRA:                  -0.089
REMARK UNBOUND:                -0.096
REMARK SMILES C=C(C)[C@H]1CC=C(C)C(=O)C1
REMARK SMILES IDX 8 1 7 2 6 3 5 4 4 5 11 6 9 7 10 8 2 9 1 10 3 11
REMARK H PARENT
REMARK Flexibility Score: inf
ROOT
ATOM      1  C   UNL     1      14.188 -32.883  24.244  1.00  0.00     0.048 C 
ATOM      2  C   UNL     1      15.017 -33.485  23.143  1.00  0.00    -0.012 C 
ATOM      3  C   UNL     1      16.037 -34.309  23.440  1.00  0.00    -0.019 C 
ATOM      4  C   UNL     1      16.945 -34.872  22.377  1.00  0.00     0.036 C 
ATOM      5  C   UNL     1      16.196 -35.048  21.042  1.00  0.00     0.025 C 
ATOM      6  C   UNL     1      15.547 -33.720  20.612  1.00  0.00     0.089 C 
ATOM      7  C   UNL     1      14.719 -33.147  21.729  1.00  0.00     0.158 C 
ATOM      8  O   UNL     1      13.794 -32.337  21.454  1.00  0.00    -0.295 OA
ENDROOT
BRANCH   5   9
ATOM      9  C   UNL     1      17.106 -35.607  19.956  1.00  0.00    -0.077 C 
ATOM     10  C   UNL     1      17.186 -36.929  19.723  1.00  0.00     0.008 C 
ATOM     11  C   UNL     1      17.939 -34.676  19.114  1.00  0.00     0.039 C 
ENDBRANCH   5   9
TORSDOF 1
ENDMDL
MODEL 8
REMARK VINA RESULT:    -4.888      1.768      4.539
REMARK INTER + INTRA:          -5.270
REMARK INTER:                  -5.176
REMARK INTRA:                  -0.094
REMARK UNBOUND:                -0.096
REMARK SMILES C=C(C)[C@H]1CC=C(C)C(=O)C1
REMARK SMILES IDX 8 1 7 2 6 3 5 4 4 5 11 6 9 7 10 8 2 9 1 10 3 11
REMARK H PARENT
REMARK Flexibility Score: inf
ROOT
ATOM      1  C   UNL     1      12.975 -29.196  23.839  1.00  0.00     0.048 C 
ATOM      2  C   UNL     1      13.735 -30.430  23.434  1.00  0.00    -0.012 C 
ATOM      3  C   UNL     1      13.490 -31.603  24.043  1.00  0.00    -0.019 C 
ATOM      4  C   UNL     1      14.280 -32.847  23.728  1.00  0.00     0.036 C 
ATOM      5  C   UNL     1      14.766 -32.842  22.266  1.00  0.00     0.025 C 
ATOM      6  C   UNL     1      15.559 -31.556  21.969  1.00  0.00     0.089 C 
ATOM      7  C   UNL     1      14.772 -30.340  22.376  1.00  0.00     0.158 C 
ATOM      8  O   UNL     1      15.035 -29.231  21.840  1.00  0.00    -0.295 OA
ENDROOT
BRANCH   5   9
ATOM      9  C   UNL     1      15.575 -34.089  21.938  1.00  0.00    -0.077 C 
ATOM     10  C   UNL     1      16.477 -34.585  22.804  1.00  0.00     0.008 C 
ATOM     11  C   UNL     1      15.375 -34.798  20.623  1.00  0.00     0.039 C 
ENDBRANCH   5   9
TORSDOF 1
ENDMDL
