MODEL 1
REMARK VINA RESULT:    -6.002      0.000      0.000
REMARK INTER + INTRA:          -6.353
REMARK INTER:                  -6.353
REMARK INTRA:                   0.000
REMARK UNBOUND:                 0.000
REMARK SMILES Cc1cc(O)c(C)c(C)c1O
REMARK SMILES IDX 1 1 2 2 3 3 4 4 6 5 8 6 10 7 9 8 7 9 11 10 5 12
REMARK H PARENT 11 11 5 13
REMARK Flexibility Score: inf
ROOT
ATOM      1  C   UNL     1      12.775   0.874  35.069  1.00  0.00     0.048 C 
ATOM      2  C   UNL     1      11.291   0.847  35.325  1.00  0.00    -0.005 A 
ATOM      3  C   UNL     1      10.775   1.540  36.425  1.00  0.00     0.053 A 
ATOM      4  C   UNL     1       9.410   1.535  36.704  1.00  0.00     0.119 A 
ATOM      5  C   UNL     1       8.520   0.802  35.885  1.00  0.00    -0.003 A 
ATOM      6  C   UNL     1       9.023   0.147  34.727  1.00  0.00    -0.002 A 
ATOM      7  C   UNL     1      10.414   0.151  34.468  1.00  0.00     0.121 A 
ATOM      8  C   UNL     1       8.092  -0.580  33.782  1.00  0.00     0.049 C 
ATOM      9  C   UNL     1       7.051   0.760  36.244  1.00  0.00     0.049 C 
ENDROOT
BRANCH   7  10
ATOM     10  O   UNL     1      10.901  -0.544  33.355  1.00  0.00    -0.507 OA
ATOM     11  H   UNL     1      10.580  -0.380  32.410  1.00  0.00     0.293 HD
ENDBRANCH   7  10
BRANCH   4  12
ATOM     12  O   UNL     1       8.972   2.277  37.805  1.00  0.00    -0.508 OA
ATOM     13  H   UNL     1       8.053   2.180  38.216  1.00  0.00     0.293 HD
ENDBRANCH   4  12
TORSDOF 2
ENDMDL
MODEL 2
REMARK VINA RESULT:    -5.259      1.361      3.273
REMARK INTER + INTRA:          -5.566
REMARK INTER:                  -5.566
REMARK INTRA:                   0.000
REMARK UNBOUND:                 0.000
REMARK SMILES Cc1cc(O)c(C)c(C)c1O
REMARK SMILES IDX 1 1 2 2 3 3 4 4 6 5 8 6 10 7 9 8 7 9 11 10 5 12
REMARK H PARENT 11 11 5 13
REMARK Flexibility Score: inf
ROOT
ATOM      1  C   UNL     1       6.002  -0.467  35.949  1.00  0.00     0.048 C 
ATOM      2  C   UNL     1       7.396   0.095  35.852  1.00  0.00    -0.005 A 
ATOM      3  C   UNL     1       7.801   1.080  36.758  1.00  0.00     0.053 A 
ATOM      4  C   UNL     1       9.078   1.634  36.698  1.00  0.00     0.119 A 
ATOM      5  C   UNL     1       9.985   1.221  35.695  1.00  0.00    -0.003 A 
ATOM      6  C   UNL     1       9.609   0.174  34.809  1.00  0.00    -0.002 A 
ATOM      7  C   UNL     1       8.303  -0.366  34.875  1.00  0.00     0.121 A 
ATOM      8  C   UNL     1      10.580  -0.352  33.774  1.00  0.00     0.049 C 
ATOM      9  C   UNL     1      11.344   1.881  35.611  1.00  0.00     0.049 C 
ENDROOT
BRANCH   7  10
ATOM     10  O   UNL     1       7.929  -1.357  33.961  1.00  0.00    -0.507 OA
ATOM     11  H   UNL     1       7.087  -1.912  34.052  1.00  0.00     0.293 HD
ENDBRANCH   7  10
BRANCH   4  12
ATOM     12  O   UNL     1       9.414   2.592  37.659  1.00  0.00    -0.508 OA
ATOM     13  H   UNL     1      10.021   3.379  37.477  1.00  0.00     0.293 HD
ENDBRANCH   4  12
TORSDOF 2
ENDMDL
MODEL 3
REMARK VINA RESULT:    -5.237      4.175      5.595
REMARK INTER + INTRA:          -5.543
REMARK INTER:                  -5.543
REMARK INTRA:                   0.000
REMARK UNBOUND:                 0.000
REMARK SMILES Cc1cc(O)c(C)c(C)c1O
REMARK SMILES IDX 1 1 2 2 3 3 4 4 6 5 8 6 10 7 9 8 7 9 11 10 5 12
REMARK H PARENT 11 11 5 13
REMARK Flexibility Score: inf
ROOT
ATOM      1  C   UNL     1       7.518  -0.640  35.285  1.00  0.00     0.048 C 
ATOM      2  C   UNL     1       6.266  -1.003  36.039  1.00  0.00    -0.005 A 
ATOM      3  C   UNL     1       5.408   0.015  36.469  1.00  0.00     0.053 A 
ATOM      4  C   UNL     1       4.244  -0.275  37.177  1.00  0.00     0.119 A 
ATOM      5  C   UNL     1       3.920  -1.614  37.496  1.00  0.00    -0.003 A 
ATOM      6  C   UNL     1       4.750  -2.662  37.010  1.00  0.00    -0.002 A 
ATOM      7  C   UNL     1       5.935  -2.348  36.305  1.00  0.00     0.121 A 
ATOM      8  C   UNL     1       4.395  -4.111  37.260  1.00  0.00     0.049 C 
ATOM      9  C   UNL     1       2.684  -1.899  38.320  1.00  0.00     0.049 C 
ENDROOT
BRANCH   7  10
ATOM     10  O   UNL     1       6.771  -3.387  35.879  1.00  0.00    -0.507 OA
ATOM     11  H   UNL     1       7.703  -3.241  35.513  1.00  0.00     0.293 HD
ENDBRANCH   7  10
BRANCH   4  12
ATOM     12  O   UNL     1       3.425   0.798  37.544  1.00  0.00    -0.508 OA
ATOM     13  H   UNL     1       2.833   1.298  36.895  1.00  0.00     0.293 HD
ENDBRANCH   4  12
TORSDOF 2
ENDMDL
MODEL 4
REMARK VINA RESULT:    -5.229     17.341     17.627
REMARK INTER + INTRA:          -5.535
REMARK INTER:                  -5.535
REMARK INTRA:                   0.000
REMARK UNBOUND:                 0.000
REMARK SMILES Cc1cc(O)c(C)c(C)c1O
REMARK SMILES IDX 1 1 2 2 3 3 4 4 6 5 8 6 10 7 9 8 7 9 11 10 5 12
REMARK H PARENT 11 11 5 13
REMARK Flexibility Score: inf
ROOT
ATOM      1  C   UNL     1      14.035 -13.125  46.151  1.00  0.00     0.048 C 
ATOM      2  C   UNL     1      13.497 -12.128  47.143  1.00  0.00    -0.005 A 
ATOM      3  C   UNL     1      13.827 -12.264  48.495  1.00  0.00     0.053 A 
ATOM      4  C   UNL     1      13.343 -11.371  49.448  1.00  0.00     0.119 A 
ATOM      5  C   UNL     1      12.485 -10.315  49.063  1.00  0.00    -0.003 A 
ATOM      6  C   UNL     1      12.195 -10.127  47.683  1.00  0.00    -0.002 A 
ATOM      7  C   UNL     1      12.682 -11.053  46.731  1.00  0.00     0.121 A 
ATOM      8  C   UNL     1      11.346  -8.963  47.221  1.00  0.00     0.049 C 
ATOM      9  C   UNL     1      11.922  -9.395  50.123  1.00  0.00     0.049 C 
ENDROOT
BRANCH   7  10
ATOM     10  O   UNL     1      12.344 -10.887  45.383  1.00  0.00    -0.507 OA
ATOM     11  H   UNL     1      12.651 -10.102  44.823  1.00  0.00     0.293 HD
ENDBRANCH   7  10
BRANCH   4  12
ATOM     12  O   UNL     1      13.744 -11.560  50.775  1.00  0.00    -0.508 OA
ATOM     13  H   UNL     1      13.296 -12.208  51.408  1.00  0.00     0.293 HD
ENDBRANCH   4  12
TORSDOF 2
ENDMDL
MODEL 5
REMARK VINA RESULT:    -5.178      1.485      2.951
REMARK INTER + INTRA:          -5.480
REMARK INTER:                  -5.480
REMARK INTRA:                   0.000
REMARK UNBOUND:                 0.000
REMARK SMILES Cc1cc(O)c(C)c(C)c1O
REMARK SMILES IDX 1 1 2 2 3 3 4 4 6 5 8 6 10 7 9 8 7 9 11 10 5 12
REMARK H PARENT 11 11 5 13
REMARK Flexibility Score: inf
ROOT
ATOM      1  C   UNL     1      12.858   0.440  34.117  1.00  0.00     0.048 C 
ATOM      2  C   UNL     1      11.438   0.448  34.618  1.00  0.00    -0.005 A 
ATOM      3  C   UNL     1      10.475  -0.319  33.953  1.00  0.00     0.053 A 
ATOM      4  C   UNL     1       9.148  -0.334  34.376  1.00  0.00     0.119 A 
ATOM      5  C   UNL     1       8.745   0.452  35.481  1.00  0.00    -0.003 A 
ATOM      6  C   UNL     1       9.726   1.185  36.205  1.00  0.00    -0.002 A 
ATOM      7  C   UNL     1      11.066   1.200  35.752  1.00  0.00     0.121 A 
ATOM      8  C   UNL     1       9.350   1.973  37.440  1.00  0.00     0.049 C 
ATOM      9  C   UNL     1       7.287   0.469  35.884  1.00  0.00     0.049 C 
ENDROOT
BRANCH   7  10
ATOM     10  O   UNL     1      12.010   1.969  36.442  1.00  0.00    -0.507 OA
ATOM     11  H   UNL     1      13.008   1.806  36.391  1.00  0.00     0.293 HD
ENDBRANCH   7  10
BRANCH   4  12
ATOM     12  O   UNL     1       8.254  -1.149  33.675  1.00  0.00    -0.508 OA
ATOM     13  H   UNL     1       7.514  -0.792  33.086  1.00  0.00     0.293 HD
ENDBRANCH   4  12
TORSDOF 2
ENDMDL
MODEL 6
REMARK VINA RESULT:    -5.123      1.405      4.047
REMARK INTER + INTRA:          -5.422
REMARK INTER:                  -5.422
REMARK INTRA:                   0.000
REMARK UNBOUND:                 0.000
REMARK SMILES Cc1cc(O)c(C)c(C)c1O
REMARK SMILES IDX 1 1 2 2 3 3 4 4 6 5 8 6 10 7 9 8 7 9 11 10 5 12
REMARK H PARENT 11 11 5 13
REMARK Flexibility Score: inf
ROOT
ATOM      1  C   UNL     1       7.986  -0.556  33.363  1.00  0.00     0.048 C 
ATOM      2  C   UNL     1       9.145  -0.004  34.150  1.00  0.00    -0.005 A 
ATOM      3  C   UNL     1      10.450  -0.269  33.721  1.00  0.00     0.053 A 
ATOM      4  C   UNL     1      11.552   0.213  34.424  1.00  0.00     0.119 A 
ATOM      5  C   UNL     1      11.367   0.965  35.607  1.00  0.00    -0.003 A 
ATOM      6  C   UNL     1      10.046   1.296  36.018  1.00  0.00    -0.002 A 
ATOM      7  C   UNL     1       8.939   0.786  35.300  1.00  0.00     0.121 A 
ATOM      8  C   UNL     1       9.807   2.166  37.233  1.00  0.00     0.049 C 
ATOM      9  C   UNL     1      12.578   1.425  36.388  1.00  0.00     0.049 C 
ENDROOT
BRANCH   7  10
ATOM     10  O   UNL     1       7.645   1.074  35.748  1.00  0.00    -0.507 OA
ATOM     11  H   UNL     1       6.820   0.981  35.169  1.00  0.00     0.293 HD
ENDBRANCH   7  10
BRANCH   4  12
ATOM     12  O   UNL     1      12.822  -0.071  33.912  1.00  0.00    -0.508 OA
ATOM     13  H   UNL     1      13.034  -0.096  32.924  1.00  0.00     0.293 HD
ENDBRANCH   4  12
TORSDOF 2
ENDMDL
MODEL 7
REMARK VINA RESULT:    -5.022      4.715      6.566
REMARK INTER + INTRA:          -5.315
REMARK INTER:                  -5.315
REMARK INTRA:                   0.000
REMARK UNBOUND:                 0.000
REMARK SMILES Cc1cc(O)c(C)c(C)c1O
REMARK SMILES IDX 1 1 2 2 3 3 4 4 6 5 8 6 10 7 9 8 7 9 11 10 5 12
REMARK H PARENT 11 11 5 13
REMARK Flexibility Score: inf
ROOT
ATOM      1  C   UNL     1       7.105  -1.407  35.539  1.00  0.00     0.048 C 
ATOM      2  C   UNL     1       5.843  -1.647  36.325  1.00  0.00    -0.005 A 
ATOM      3  C   UNL     1       5.523  -2.950  36.721  1.00  0.00     0.053 A 
ATOM      4  C   UNL     1       4.361  -3.219  37.441  1.00  0.00     0.119 A 
ATOM      5  C   UNL     1       3.467  -2.173  37.766  1.00  0.00    -0.003 A 
ATOM      6  C   UNL     1       3.814  -0.836  37.426  1.00  0.00    -0.002 A 
ATOM      7  C   UNL     1       4.990  -0.583  36.682  1.00  0.00     0.121 A 
ATOM      8  C   UNL     1       2.924   0.321  37.827  1.00  0.00     0.049 C 
ATOM      9  C   UNL     1       2.182  -2.498  38.494  1.00  0.00     0.049 C 
ENDROOT
BRANCH   7  10
ATOM     10  O   UNL     1       5.290   0.732  36.307  1.00  0.00    -0.507 OA
ATOM     11  H   UNL     1       5.435   1.482  36.970  1.00  0.00     0.293 HD
ENDBRANCH   7  10
BRANCH   4  12
ATOM     12  O   UNL     1       4.130  -4.544  37.824  1.00  0.00    -0.508 OA
ATOM     13  H   UNL     1       4.203  -5.331  37.193  1.00  0.00     0.293 HD
ENDBRANCH   4  12
TORSDOF 2
ENDMDL
MODEL 8
REMARK VINA RESULT:    -4.998      4.814      7.099
REMARK INTER + INTRA:          -5.290
REMARK INTER:                  -5.290
REMARK INTRA:                   0.000
REMARK UNBOUND:                 0.000
REMARK SMILES Cc1cc(O)c(C)c(C)c1O
REMARK SMILES IDX 1 1 2 2 3 3 4 4 6 5 8 6 10 7 9 8 7 9 11 10 5 12
REMARK H PARENT 11 11 5 13
REMARK Flexibility Score: inf
ROOT
ATOM      1  C   UNL     1       1.736  -1.108  38.629  1.00  0.00     0.048 C 
ATOM      2  C   UNL     1       3.031  -1.308  37.888  1.00  0.00    -0.005 A 
ATOM      3  C   UNL     1       3.768  -0.190  37.486  1.00  0.00     0.053 A 
ATOM      4  C   UNL     1       4.967  -0.329  36.790  1.00  0.00     0.119 A 
ATOM      5  C   UNL     1       5.451  -1.615  36.456  1.00  0.00    -0.003 A 
ATOM      6  C   UNL     1       4.744  -2.761  36.915  1.00  0.00    -0.002 A 
ATOM      7  C   UNL     1       3.522  -2.601  37.608  1.00  0.00     0.121 A 
ATOM      8  C   UNL     1       5.271  -4.154  36.649  1.00  0.00     0.049 C 
ATOM      9  C   UNL     1       6.722  -1.739  35.645  1.00  0.00     0.049 C 
ENDROOT
BRANCH   7  10
ATOM     10  O   UNL     1       2.810  -3.738  38.006  1.00  0.00    -0.507 OA
ATOM     11  H   UNL     1       3.040  -4.676  37.703  1.00  0.00     0.293 HD
ENDBRANCH   7  10
BRANCH   4  12
ATOM     12  O   UNL     1       5.657   0.839  36.450  1.00  0.00    -0.508 OA
ATOM     13  H   UNL     1       5.835   1.593  37.100  1.00  0.00     0.293 HD
ENDBRANCH   4  12
TORSDOF 2
ENDMDL
MODEL 9
REMARK VINA RESULT:    -4.921      5.195      6.720
REMARK INTER + INTRA:          -5.209
REMARK INTER:                  -5.209
REMARK INTRA:                   0.000
REMARK UNBOUND:                 0.000
REMARK SMILES Cc1cc(O)c(C)c(C)c1O
REMARK SMILES IDX 1 1 2 2 3 3 4 4 6 5 8 6 10 7 9 8 7 9 11 10 5 12
REMARK H PARENT 11 11 5 13
REMARK Flexibility Score: inf
ROOT
ATOM      1  C   UNL     1       6.123  -4.007  35.901  1.00  0.00     0.048 C 
ATOM      2  C   UNL     1       5.293  -2.896  36.488  1.00  0.00    -0.005 A 
ATOM      3  C   UNL     1       5.629  -1.569  36.203  1.00  0.00     0.053 A 
ATOM      4  C   UNL     1       4.894  -0.510  36.732  1.00  0.00     0.119 A 
ATOM      5  C   UNL     1       3.801  -0.763  37.592  1.00  0.00    -0.003 A 
ATOM      6  C   UNL     1       3.410  -2.109  37.838  1.00  0.00    -0.002 A 
ATOM      7  C   UNL     1       4.176  -3.171  37.304  1.00  0.00     0.121 A 
ATOM      8  C   UNL     1       2.197  -2.420  38.688  1.00  0.00     0.049 C 
ATOM      9  C   UNL     1       3.057   0.403  38.205  1.00  0.00     0.049 C 
ENDROOT
BRANCH   7  10
ATOM     10  O   UNL     1       3.812  -4.489  37.599  1.00  0.00    -0.507 OA
ATOM     11  H   UNL     1       2.855  -4.786  37.742  1.00  0.00     0.293 HD
ENDBRANCH   7  10
BRANCH   4  12
ATOM     12  O   UNL     1       5.277   0.786  36.374  1.00  0.00    -0.508 OA
ATOM     13  H   UNL     1       6.228   1.049  36.155  1.00  0.00     0.293 HD
ENDBRANCH   4  12
TORSDOF 2
ENDMDL
