MODEL 1
REMARK VINA RESULT:    -6.175      0.000      0.000
REMARK INTER + INTRA:          -7.744
REMARK INTER:                  -7.439
REMARK INTRA:                  -0.305
REMARK UNBOUND:                -0.305
REMARK SMILES O=c1c(O)c(-c2ccc(O)c(O)c2)oc2cc(O)cc(O)c12
REMARK SMILES IDX 5 1 3 2 2 3 1 4 22 5 20 6 19 7 17 8 16 9 15 10 14 11 6 12
REMARK SMILES IDX 7 13 8 14 9 15 13 16 11 17 10 18 12 20 4 22 21 24 18 26
REMARK H PARENT 10 19 12 21 4 23 21 25 18 27
REMARK Flexibility Score: inf
ROOT
ATOM      1  C   UNL     1      14.490  56.024  34.005  1.00  0.00     0.180 A 
ATOM      2  C   UNL     1      14.316  55.797  32.625  1.00  0.00     0.208 A 
ATOM      3  C   UNL     1      14.879  56.702  31.713  1.00  0.00     0.238 A 
ATOM      4  O   UNL     1      14.739  56.503  30.475  1.00  0.00    -0.285 OA
ATOM      5  C   UNL     1      15.586  57.826  32.191  1.00  0.00     0.111 A 
ATOM      6  C   UNL     1      16.180  58.786  31.337  1.00  0.00     0.134 A 
ATOM      7  C   UNL     1      16.859  59.882  31.891  1.00  0.00     0.093 A 
ATOM      8  C   UNL     1      16.954  60.035  33.279  1.00  0.00     0.123 A 
ATOM      9  C   UNL     1      16.370  59.089  34.123  1.00  0.00     0.094 A 
ATOM     10  C   UNL     1      15.690  57.989  33.591  1.00  0.00     0.146 A 
ATOM     11  O   UNL     1      15.149  57.102  34.419  1.00  0.00    -0.452 OA
ENDROOT
BRANCH   1  12
ATOM     12  C   UNL     1      13.942  55.105  35.029  1.00  0.00     0.025 A 
ATOM     13  C   UNL     1      12.708  55.358  35.654  1.00  0.00     0.016 A 
ATOM     14  C   UNL     1      12.201  54.464  36.600  1.00  0.00     0.051 A 
ATOM     15  C   UNL     1      12.906  53.302  36.926  1.00  0.00     0.157 A 
ATOM     16  C   UNL     1      14.639  53.927  35.344  1.00  0.00     0.062 A 
ATOM     17  C   UNL     1      14.131  53.030  36.293  1.00  0.00     0.158 A 
BRANCH  15  18
ATOM     18  O   UNL     1      12.375  52.430  37.876  1.00  0.00    -0.504 OA
ATOM     19  H   UNL     1      12.429  52.620  38.870  1.00  0.00     0.293 HD
ENDBRANCH  15  18
BRANCH  17  20
ATOM     20  O   UNL     1      14.837  51.869  36.609  1.00  0.00    -0.504 OA
ATOM     21  H   UNL     1      15.676  51.896  37.176  1.00  0.00     0.293 HD
ENDBRANCH  17  20
ENDBRANCH   1  12
BRANCH   2  22
ATOM     22  O   UNL     1      13.570  54.703  32.179  1.00  0.00    -0.502 OA
ATOM     23  H   UNL     1      12.746  54.809  31.599  1.00  0.00     0.293 HD
ENDBRANCH   2  22
BRANCH   6  24
ATOM     24  O   UNL     1      16.101  58.662  29.949  1.00  0.00    -0.507 OA
ATOM     25  H   UNL     1      16.700  58.026  29.436  1.00  0.00     0.293 HD
ENDBRANCH   6  24
BRANCH   8  26
ATOM     26  O   UNL     1      17.627  61.124  33.828  1.00  0.00    -0.508 OA
ATOM     27  H   UNL     1      18.076  61.820  33.244  1.00  0.00     0.293 HD
ENDBRANCH   8  26
TORSDOF 6
ENDMDL
MODEL 2
REMARK VINA RESULT:    -5.835      0.643      1.454
REMARK INTER + INTRA:          -7.335
REMARK INTER:                  -7.006
REMARK INTRA:                  -0.328
REMARK UNBOUND:                -0.305
REMARK SMILES O=c1c(O)c(-c2ccc(O)c(O)c2)oc2cc(O)cc(O)c12
REMARK SMILES IDX 5 1 3 2 2 3 1 4 22 5 20 6 19 7 17 8 16 9 15 10 14 11 6 12
REMARK SMILES IDX 7 13 8 14 9 15 13 16 11 17 10 18 12 20 4 22 21 24 18 26
REMARK H PARENT 10 19 12 21 4 23 21 25 18 27
REMARK Flexibility Score: inf
ROOT
ATOM      1  C   UNL     1      14.618  55.995  33.748  1.00  0.00     0.180 A 
ATOM      2  C   UNL     1      14.383  55.794  32.374  1.00  0.00     0.208 A 
ATOM      3  C   UNL     1      14.897  56.720  31.455  1.00  0.00     0.238 A 
ATOM      4  O   UNL     1      14.701  56.545  30.221  1.00  0.00    -0.285 OA
ATOM      5  C   UNL     1      15.617  57.840  31.921  1.00  0.00     0.111 A 
ATOM      6  C   UNL     1      16.164  58.822  31.061  1.00  0.00     0.134 A 
ATOM      7  C   UNL     1      16.860  59.912  31.604  1.00  0.00     0.093 A 
ATOM      8  C   UNL     1      17.019  60.039  32.988  1.00  0.00     0.123 A 
ATOM      9  C   UNL     1      16.481  59.072  33.840  1.00  0.00     0.094 A 
ATOM     10  C   UNL     1      15.785  57.978  33.318  1.00  0.00     0.146 A 
ATOM     11  O   UNL     1      15.289  57.070  34.152  1.00  0.00    -0.452 OA
ENDROOT
BRANCH   1  12
ATOM     12  C   UNL     1      14.126  55.052  34.778  1.00  0.00     0.025 A 
ATOM     13  C   UNL     1      14.927  53.996  35.247  1.00  0.00     0.016 A 
ATOM     14  C   UNL     1      14.449  53.134  36.236  1.00  0.00     0.051 A 
ATOM     15  C   UNL     1      13.176  53.318  36.782  1.00  0.00     0.157 A 
ATOM     16  C   UNL     1      12.855  55.248  35.343  1.00  0.00     0.062 A 
ATOM     17  C   UNL     1      12.374  54.383  36.336  1.00  0.00     0.158 A 
BRANCH  15  18
ATOM     18  O   UNL     1      12.726  52.440  37.767  1.00  0.00    -0.504 OA
ATOM     19  H   UNL     1      13.012  52.524  38.735  1.00  0.00     0.293 HD
ENDBRANCH  15  18
BRANCH  17  20
ATOM     20  O   UNL     1      11.105  54.577  36.881  1.00  0.00    -0.504 OA
ATOM     21  H   UNL     1      10.307  54.802  36.299  1.00  0.00     0.293 HD
ENDBRANCH  17  20
ENDBRANCH   1  12
BRANCH   2  22
ATOM     22  O   UNL     1      13.624  54.703  31.941  1.00  0.00    -0.502 OA
ATOM     23  H   UNL     1      12.614  54.738  31.873  1.00  0.00     0.293 HD
ENDBRANCH   2  22
BRANCH   6  24
ATOM     24  O   UNL     1      16.022  58.724  29.676  1.00  0.00    -0.507 OA
ATOM     25  H   UNL     1      16.801  58.479  29.076  1.00  0.00     0.293 HD
ENDBRANCH   6  24
BRANCH   8  26
ATOM     26  O   UNL     1      17.709  61.121  33.528  1.00  0.00    -0.508 OA
ATOM     27  H   UNL     1      18.283  61.725  32.951  1.00  0.00     0.293 HD
ENDBRANCH   8  26
TORSDOF 6
ENDMDL
MODEL 3
REMARK VINA RESULT:    -5.195      2.793      3.989
REMARK INTER + INTRA:          -6.564
REMARK INTER:                  -6.239
REMARK INTRA:                  -0.324
REMARK UNBOUND:                -0.305
REMARK SMILES O=c1c(O)c(-c2ccc(O)c(O)c2)oc2cc(O)cc(O)c12
REMARK SMILES IDX 5 1 3 2 2 3 1 4 22 5 20 6 19 7 17 8 16 9 15 10 14 11 6 12
REMARK SMILES IDX 7 13 8 14 9 15 13 16 11 17 10 18 12 20 4 22 21 24 18 26
REMARK H PARENT 10 19 12 21 4 23 21 25 18 27
REMARK Flexibility Score: inf
ROOT
ATOM      1  C   UNL     1      15.318  56.206  33.029  1.00  0.00     0.180 A 
ATOM      2  C   UNL     1      16.521  56.887  32.759  1.00  0.00     0.208 A 
ATOM      3  C   UNL     1      16.587  58.268  32.993  1.00  0.00     0.238 A 
ATOM      4  O   UNL     1      17.662  58.887  32.764  1.00  0.00    -0.285 OA
ATOM      5  C   UNL     1      15.448  58.950  33.471  1.00  0.00     0.111 A 
ATOM      6  C   UNL     1      15.430  60.341  33.729  1.00  0.00     0.134 A 
ATOM      7  C   UNL     1      14.253  60.947  34.196  1.00  0.00     0.093 A 
ATOM      8  C   UNL     1      13.097  60.188  34.408  1.00  0.00     0.123 A 
ATOM      9  C   UNL     1      13.111  58.815  34.156  1.00  0.00     0.094 A 
ATOM     10  C   UNL     1      14.274  58.193  33.692  1.00  0.00     0.146 A 
ATOM     11  O   UNL     1      14.260  56.884  33.466  1.00  0.00    -0.452 OA
ENDROOT
BRANCH   1  12
ATOM     12  C   UNL     1      15.176  54.746  32.826  1.00  0.00     0.025 A 
ATOM     13  C   UNL     1      15.377  53.838  33.881  1.00  0.00     0.016 A 
ATOM     14  C   UNL     1      15.214  52.466  33.671  1.00  0.00     0.051 A 
ATOM     15  C   UNL     1      14.836  51.982  32.416  1.00  0.00     0.157 A 
ATOM     16  C   UNL     1      14.776  54.258  31.572  1.00  0.00     0.062 A 
ATOM     17  C   UNL     1      14.613  52.882  31.360  1.00  0.00     0.158 A 
BRANCH  15  18
ATOM     18  O   UNL     1      14.684  50.608  32.237  1.00  0.00    -0.504 OA
ATOM     19  H   UNL     1      15.117  49.933  32.857  1.00  0.00     0.293 HD
ENDBRANCH  15  18
BRANCH  17  20
ATOM     20  O   UNL     1      14.229  52.406  30.107  1.00  0.00    -0.504 OA
ATOM     21  H   UNL     1      14.166  51.414  29.913  1.00  0.00     0.293 HD
ENDBRANCH  17  20
ENDBRANCH   1  12
BRANCH   2  22
ATOM     22  O   UNL     1      17.620  56.198  32.239  1.00  0.00    -0.502 OA
ATOM     23  H   UNL     1      17.739  56.037  31.246  1.00  0.00     0.293 HD
ENDBRANCH   2  22
BRANCH   6  24
ATOM     24  O   UNL     1      16.567  61.125  33.525  1.00  0.00    -0.507 OA
ATOM     25  H   UNL     1      16.522  62.137  33.520  1.00  0.00     0.293 HD
ENDBRANCH   6  24
BRANCH   8  26
ATOM     26  O   UNL     1      11.928  60.789  34.871  1.00  0.00    -0.508 OA
ATOM     27  H   UNL     1      11.052  60.701  34.369  1.00  0.00     0.293 HD
ENDBRANCH   8  26
TORSDOF 6
ENDMDL
MODEL 4
REMARK VINA RESULT:    -5.067      3.219      6.859
REMARK INTER + INTRA:          -6.409
REMARK INTER:                  -6.184
REMARK INTRA:                  -0.225
REMARK UNBOUND:                -0.305
REMARK SMILES O=c1c(O)c(-c2ccc(O)c(O)c2)oc2cc(O)cc(O)c12
REMARK SMILES IDX 5 1 3 2 2 3 1 4 22 5 20 6 19 7 17 8 16 9 15 10 14 11 6 12
REMARK SMILES IDX 7 13 8 14 9 15 13 16 11 17 10 18 12 20 4 22 21 24 18 26
REMARK H PARENT 10 19 12 21 4 23 21 25 18 27
REMARK Flexibility Score: inf
ROOT
ATOM      1  C   UNL     1      15.333  54.889  32.592  1.00  0.00     0.180 A 
ATOM      2  C   UNL     1      15.104  53.927  33.596  1.00  0.00     0.208 A 
ATOM      3  C   UNL     1      14.734  52.628  33.218  1.00  0.00     0.238 A 
ATOM      4  O   UNL     1      14.536  51.755  34.108  1.00  0.00    -0.285 OA
ATOM      5  C   UNL     1      14.577  52.317  31.851  1.00  0.00     0.111 A 
ATOM      6  C   UNL     1      14.202  51.033  31.388  1.00  0.00     0.134 A 
ATOM      7  C   UNL     1      14.059  50.806  30.010  1.00  0.00     0.093 A 
ATOM      8  C   UNL     1      14.282  51.836  29.091  1.00  0.00     0.123 A 
ATOM      9  C   UNL     1      14.653  53.103  29.544  1.00  0.00     0.094 A 
ATOM     10  C   UNL     1      14.803  53.350  30.912  1.00  0.00     0.146 A 
ATOM     11  O   UNL     1      15.162  54.564  31.315  1.00  0.00    -0.452 OA
ENDROOT
BRANCH   1  12
ATOM     12  C   UNL     1      15.745  56.276  32.910  1.00  0.00     0.025 A 
ATOM     13  C   UNL     1      14.857  57.183  33.513  1.00  0.00     0.016 A 
ATOM     14  C   UNL     1      15.276  58.479  33.826  1.00  0.00     0.051 A 
ATOM     15  C   UNL     1      16.586  58.884  33.555  1.00  0.00     0.157 A 
ATOM     16  C   UNL     1      17.066  56.679  32.659  1.00  0.00     0.062 A 
ATOM     17  C   UNL     1      17.488  57.979  32.971  1.00  0.00     0.158 A 
BRANCH  15  18
ATOM     18  O   UNL     1      16.974  60.184  33.876  1.00  0.00    -0.504 OA
ATOM     19  H   UNL     1      16.581  60.993  33.409  1.00  0.00     0.293 HD
ENDBRANCH  15  18
BRANCH  17  20
ATOM     20  O   UNL     1      18.799  58.373  32.705  1.00  0.00    -0.504 OA
ATOM     21  H   UNL     1      19.542  58.237  33.381  1.00  0.00     0.293 HD
ENDBRANCH  17  20
ENDBRANCH   1  12
BRANCH   2  22
ATOM     22  O   UNL     1      15.218  54.274  34.945  1.00  0.00    -0.502 OA
ATOM     23  H   UNL     1      16.111  54.463  35.383  1.00  0.00     0.293 HD
ENDBRANCH   2  22
BRANCH   6  24
ATOM     24  O   UNL     1      13.971  49.985  32.281  1.00  0.00    -0.507 OA
ATOM     25  H   UNL     1      14.486  49.114  32.225  1.00  0.00     0.293 HD
ENDBRANCH   6  24
BRANCH   8  26
ATOM     26  O   UNL     1      14.139  51.611  27.723  1.00  0.00    -0.508 OA
ATOM     27  H   UNL     1      13.292  51.209  27.338  1.00  0.00     0.293 HD
ENDBRANCH   8  26
TORSDOF 6
ENDMDL
MODEL 5
REMARK VINA RESULT:    -4.983      1.976      3.896
REMARK INTER + INTRA:          -6.308
REMARK INTER:                  -5.987
REMARK INTRA:                  -0.321
REMARK UNBOUND:                -0.305
REMARK SMILES O=c1c(O)c(-c2ccc(O)c(O)c2)oc2cc(O)cc(O)c12
REMARK SMILES IDX 5 1 3 2 2 3 1 4 22 5 20 6 19 7 17 8 16 9 15 10 14 11 6 12
REMARK SMILES IDX 7 13 8 14 9 15 13 16 11 17 10 18 12 20 4 22 21 24 18 26
REMARK H PARENT 10 19 12 21 4 23 21 25 18 27
REMARK Flexibility Score: inf
ROOT
ATOM      1  C   UNL     1      14.541  55.130  33.120  1.00  0.00     0.180 A 
ATOM      2  C   UNL     1      14.892  56.495  33.143  1.00  0.00     0.208 A 
ATOM      3  C   UNL     1      15.317  57.107  31.955  1.00  0.00     0.238 A 
ATOM      4  O   UNL     1      15.624  58.330  31.961  1.00  0.00    -0.285 OA
ATOM      5  C   UNL     1      15.404  56.345  30.770  1.00  0.00     0.111 A 
ATOM      6  C   UNL     1      15.826  56.885  29.532  1.00  0.00     0.134 A 
ATOM      7  C   UNL     1      15.895  56.058  28.400  1.00  0.00     0.093 A 
ATOM      8  C   UNL     1      15.550  54.705  28.484  1.00  0.00     0.123 A 
ATOM      9  C   UNL     1      15.132  54.169  29.704  1.00  0.00     0.094 A 
ATOM     10  C   UNL     1      15.056  54.976  30.842  1.00  0.00     0.146 A 
ATOM     11  O   UNL     1      14.650  54.440  31.988  1.00  0.00    -0.452 OA
ENDROOT
BRANCH   1  12
ATOM     12  C   UNL     1      14.066  54.419  34.328  1.00  0.00     0.025 A 
ATOM     13  C   UNL     1      14.958  53.730  35.170  1.00  0.00     0.016 A 
ATOM     14  C   UNL     1      14.490  53.087  36.318  1.00  0.00     0.051 A 
ATOM     15  C   UNL     1      13.133  53.129  36.651  1.00  0.00     0.157 A 
ATOM     16  C   UNL     1      12.707  54.478  34.676  1.00  0.00     0.062 A 
ATOM     17  C   UNL     1      12.236  53.831  35.827  1.00  0.00     0.158 A 
BRANCH  15  18
ATOM     18  O   UNL     1      12.696  52.475  37.801  1.00  0.00    -0.504 OA
ATOM     19  H   UNL     1      11.771  52.627  38.188  1.00  0.00     0.293 HD
ENDBRANCH  15  18
BRANCH  17  20
ATOM     20  O   UNL     1      10.882  53.885  36.157  1.00  0.00    -0.504 OA
ATOM     21  H   UNL     1      10.446  53.170  36.728  1.00  0.00     0.293 HD
ENDBRANCH  17  20
ENDBRANCH   1  12
BRANCH   2  22
ATOM     22  O   UNL     1      14.845  57.215  34.340  1.00  0.00    -0.502 OA
ATOM     23  H   UNL     1      14.077  57.128  34.995  1.00  0.00     0.293 HD
ENDBRANCH   2  22
BRANCH   6  24
ATOM     24  O   UNL     1      16.177  58.231  29.417  1.00  0.00    -0.507 OA
ATOM     25  H   UNL     1      15.572  58.970  29.753  1.00  0.00     0.293 HD
ENDBRANCH   6  24
BRANCH   8  26
ATOM     26  O   UNL     1      15.619  53.884  27.361  1.00  0.00    -0.508 OA
ATOM     27  H   UNL     1      15.617  54.268  26.423  1.00  0.00     0.293 HD
ENDBRANCH   8  26
TORSDOF 6
ENDMDL
MODEL 6
REMARK VINA RESULT:    -4.972      3.342      6.780
REMARK INTER + INTRA:          -6.294
REMARK INTER:                  -6.047
REMARK INTRA:                  -0.247
REMARK UNBOUND:                -0.305
REMARK SMILES O=c1c(O)c(-c2ccc(O)c(O)c2)oc2cc(O)cc(O)c12
REMARK SMILES IDX 5 1 3 2 2 3 1 4 22 5 20 6 19 7 17 8 16 9 15 10 14 11 6 12
REMARK SMILES IDX 7 13 8 14 9 15 13 16 11 17 10 18 12 20 4 22 21 24 18 26
REMARK H PARENT 10 19 12 21 4 23 21 25 18 27
REMARK Flexibility Score: inf
ROOT
ATOM      1  C   UNL     1      15.326  54.977  31.478  1.00  0.00     0.180 A 
ATOM      2  C   UNL     1      15.164  54.986  30.079  1.00  0.00     0.208 A 
ATOM      3  C   UNL     1      14.762  53.806  29.435  1.00  0.00     0.238 A 
ATOM      4  O   UNL     1      14.603  53.805  28.183  1.00  0.00    -0.285 OA
ATOM      5  C   UNL     1      14.550  52.635  30.193  1.00  0.00     0.111 A 
ATOM      6  C   UNL     1      14.147  51.405  29.620  1.00  0.00     0.134 A 
ATOM      7  C   UNL     1      13.966  50.282  30.442  1.00  0.00     0.093 A 
ATOM      8  C   UNL     1      14.179  50.367  31.823  1.00  0.00     0.123 A 
ATOM      9  C   UNL     1      14.575  51.579  32.391  1.00  0.00     0.094 A 
ATOM     10  C   UNL     1      14.760  52.710  31.589  1.00  0.00     0.146 A 
ATOM     11  O   UNL     1      15.132  53.851  32.158  1.00  0.00    -0.452 OA
ENDROOT
BRANCH   1  12
ATOM     12  C   UNL     1      15.729  56.187  32.232  1.00  0.00     0.025 A 
ATOM     13  C   UNL     1      14.818  56.876  33.052  1.00  0.00     0.016 A 
ATOM     14  C   UNL     1      15.228  58.000  33.772  1.00  0.00     0.051 A 
ATOM     15  C   UNL     1      16.550  58.446  33.697  1.00  0.00     0.157 A 
ATOM     16  C   UNL     1      17.062  56.624  32.174  1.00  0.00     0.062 A 
ATOM     17  C   UNL     1      17.475  57.753  32.896  1.00  0.00     0.158 A 
BRANCH  15  18
ATOM     18  O   UNL     1      16.929  59.573  34.426  1.00  0.00    -0.504 OA
ATOM     19  H   UNL     1      16.471  60.469  34.307  1.00  0.00     0.293 HD
ENDBRANCH  15  18
BRANCH  17  20
ATOM     20  O   UNL     1      18.798  58.188  32.822  1.00  0.00    -0.504 OA
ATOM     21  H   UNL     1      19.323  58.434  33.653  1.00  0.00     0.293 HD
ENDBRANCH  17  20
ENDBRANCH   1  12
BRANCH   2  22
ATOM     22  O   UNL     1      15.428  56.146  29.345  1.00  0.00    -0.502 OA
ATOM     23  H   UNL     1      16.038  56.877  29.689  1.00  0.00     0.293 HD
ENDBRANCH   2  22
BRANCH   6  24
ATOM     24  O   UNL     1      13.928  51.289  28.247  1.00  0.00    -0.507 OA
ATOM     25  H   UNL     1      14.501  50.689  27.665  1.00  0.00     0.293 HD
ENDBRANCH   6  24
BRANCH   8  26
ATOM     26  O   UNL     1      14.000  49.252  32.639  1.00  0.00    -0.508 OA
ATOM     27  H   UNL     1      14.546  49.119  33.482  1.00  0.00     0.293 HD
ENDBRANCH   8  26
TORSDOF 6
ENDMDL
MODEL 7
REMARK VINA RESULT:    -4.918      4.707      6.166
REMARK INTER + INTRA:          -6.229
REMARK INTER:                  -5.910
REMARK INTRA:                  -0.319
REMARK UNBOUND:                -0.305
REMARK SMILES O=c1c(O)c(-c2ccc(O)c(O)c2)oc2cc(O)cc(O)c12
REMARK SMILES IDX 5 1 3 2 2 3 1 4 22 5 20 6 19 7 17 8 16 9 15 10 14 11 6 12
REMARK SMILES IDX 7 13 8 14 9 15 13 16 11 17 10 18 12 20 4 22 21 24 18 26
REMARK H PARENT 10 19 12 21 4 23 21 25 18 27
REMARK Flexibility Score: inf
ROOT
ATOM      1  C   UNL     1      14.774  51.342  32.165  1.00  0.00     0.180 A 
ATOM      2  C   UNL     1      14.642  52.336  31.176  1.00  0.00     0.208 A 
ATOM      3  C   UNL     1      14.615  53.683  31.567  1.00  0.00     0.238 A 
ATOM      4  O   UNL     1      14.506  54.582  30.688  1.00  0.00    -0.285 OA
ATOM      5  C   UNL     1      14.699  54.014  32.936  1.00  0.00     0.111 A 
ATOM      6  C   UNL     1      14.675  55.347  33.412  1.00  0.00     0.134 A 
ATOM      7  C   UNL     1      14.754  55.593  34.791  1.00  0.00     0.093 A 
ATOM      8  C   UNL     1      14.857  54.534  35.700  1.00  0.00     0.123 A 
ATOM      9  C   UNL     1      14.882  53.218  35.233  1.00  0.00     0.094 A 
ATOM     10  C   UNL     1      14.805  52.952  33.863  1.00  0.00     0.146 A 
ATOM     11  O   UNL     1      14.837  51.691  33.447  1.00  0.00    -0.452 OA
ENDROOT
BRANCH   1  12
ATOM     12  C   UNL     1      14.830  49.900  31.831  1.00  0.00     0.025 A 
ATOM     13  C   UNL     1      13.669  49.107  31.817  1.00  0.00     0.016 A 
ATOM     14  C   UNL     1      13.743  47.755  31.475  1.00  0.00     0.051 A 
ATOM     15  C   UNL     1      14.968  47.177  31.130  1.00  0.00     0.157 A 
ATOM     16  C   UNL     1      16.056  49.323  31.464  1.00  0.00     0.062 A 
ATOM     17  C   UNL     1      16.132  47.965  31.121  1.00  0.00     0.158 A 
BRANCH  15  18
ATOM     18  O   UNL     1      15.010  45.824  30.796  1.00  0.00    -0.504 OA
ATOM     19  H   UNL     1      14.870  45.500  29.846  1.00  0.00     0.293 HD
ENDBRANCH  15  18
BRANCH  17  20
ATOM     20  O   UNL     1      17.357  47.398  30.771  1.00  0.00    -0.504 OA
ATOM     21  H   UNL     1      17.722  46.585  31.254  1.00  0.00     0.293 HD
ENDBRANCH  17  20
ENDBRANCH   1  12
BRANCH   2  22
ATOM     22  O   UNL     1      14.510  51.979  29.831  1.00  0.00    -0.502 OA
ATOM     23  H   UNL     1      13.655  51.587  29.455  1.00  0.00     0.293 HD
ENDBRANCH   2  22
BRANCH   6  24
ATOM     24  O   UNL     1      14.572  56.424  32.531  1.00  0.00    -0.507 OA
ATOM     25  H   UNL     1      13.725  56.975  32.460  1.00  0.00     0.293 HD
ENDBRANCH   6  24
BRANCH   8  26
ATOM     26  O   UNL     1      14.935  54.778  37.069  1.00  0.00    -0.508 OA
ATOM     27  H   UNL     1      14.156  55.172  37.583  1.00  0.00     0.293 HD
ENDBRANCH   8  26
TORSDOF 6
ENDMDL
MODEL 8
REMARK VINA RESULT:    -4.896      2.483      3.643
REMARK INTER + INTRA:          -6.203
REMARK INTER:                  -5.880
REMARK INTRA:                  -0.323
REMARK UNBOUND:                -0.305
REMARK SMILES O=c1c(O)c(-c2ccc(O)c(O)c2)oc2cc(O)cc(O)c12
REMARK SMILES IDX 5 1 3 2 2 3 1 4 22 5 20 6 19 7 17 8 16 9 15 10 14 11 6 12
REMARK SMILES IDX 7 13 8 14 9 15 13 16 11 17 10 18 12 20 4 22 21 24 18 26
REMARK H PARENT 10 19 12 21 4 23 21 25 18 27
REMARK Flexibility Score: inf
ROOT
ATOM      1  C   UNL     1      14.680  56.133  33.362  1.00  0.00     0.180 A 
ATOM      2  C   UNL     1      13.489  56.669  33.890  1.00  0.00     0.208 A 
ATOM      3  C   UNL     1      13.408  58.051  34.116  1.00  0.00     0.238 A 
ATOM      4  O   UNL     1      12.343  58.544  34.579  1.00  0.00    -0.285 OA
ATOM      5  C   UNL     1      14.522  58.870  33.833  1.00  0.00     0.111 A 
ATOM      6  C   UNL     1      14.523  60.271  34.037  1.00  0.00     0.134 A 
ATOM      7  C   UNL     1      15.675  61.015  33.739  1.00  0.00     0.093 A 
ATOM      8  C   UNL     1      16.822  60.386  33.242  1.00  0.00     0.123 A 
ATOM      9  C   UNL     1      16.823  59.005  33.039  1.00  0.00     0.094 A 
ATOM     10  C   UNL     1      15.686  58.246  33.329  1.00  0.00     0.146 A 
ATOM     11  O   UNL     1      15.714  56.934  33.121  1.00  0.00    -0.452 OA
ENDROOT
BRANCH   1  12
ATOM     12  C   UNL     1      14.835  54.689  33.077  1.00  0.00     0.025 A 
ATOM     13  C   UNL     1      15.260  53.788  34.070  1.00  0.00     0.016 A 
ATOM     14  C   UNL     1      15.376  52.426  33.785  1.00  0.00     0.051 A 
ATOM     15  C   UNL     1      15.058  51.939  32.514  1.00  0.00     0.157 A 
ATOM     16  C   UNL     1      14.497  54.194  31.807  1.00  0.00     0.062 A 
ATOM     17  C   UNL     1      14.614  52.827  31.519  1.00  0.00     0.158 A 
BRANCH  15  18
ATOM     18  O   UNL     1      15.187  50.575  32.259  1.00  0.00    -0.504 OA
ATOM     19  H   UNL     1      14.578  49.887  32.688  1.00  0.00     0.293 HD
ENDBRANCH  15  18
BRANCH  17  20
ATOM     20  O   UNL     1      14.289  52.347  30.250  1.00  0.00    -0.504 OA
ATOM     21  H   UNL     1      14.092  51.367  30.089  1.00  0.00     0.293 HD
ENDBRANCH  17  20
ENDBRANCH   1  12
BRANCH   2  22
ATOM     22  O   UNL     1      12.418  55.830  34.208  1.00  0.00    -0.502 OA
ATOM     23  H   UNL     1      12.534  54.988  34.759  1.00  0.00     0.293 HD
ENDBRANCH   2  22
BRANCH   6  24
ATOM     24  O   UNL     1      13.395  60.927  34.532  1.00  0.00    -0.507 OA
ATOM     25  H   UNL     1      13.357  61.278  35.482  1.00  0.00     0.293 HD
ENDBRANCH   6  24
BRANCH   8  26
ATOM     26  O   UNL     1      17.965  61.125  32.947  1.00  0.00    -0.508 OA
ATOM     27  H   UNL     1      18.422  61.057  32.045  1.00  0.00     0.293 HD
ENDBRANCH   8  26
TORSDOF 6
ENDMDL
MODEL 9
REMARK VINA RESULT:    -4.814      3.367      4.575
REMARK INTER + INTRA:          -6.104
REMARK INTER:                  -5.781
REMARK INTRA:                  -0.324
REMARK UNBOUND:                -0.305
REMARK SMILES O=c1c(O)c(-c2ccc(O)c(O)c2)oc2cc(O)cc(O)c12
REMARK SMILES IDX 5 1 3 2 2 3 1 4 22 5 20 6 19 7 17 8 16 9 15 10 14 11 6 12
REMARK SMILES IDX 7 13 8 14 9 15 13 16 11 17 10 18 12 20 4 22 21 24 18 26
REMARK H PARENT 10 19 12 21 4 23 21 25 18 27
REMARK Flexibility Score: inf
ROOT
ATOM      1  C   UNL     1      14.297  53.932  32.329  1.00  0.00     0.180 A 
ATOM      2  C   UNL     1      13.226  54.619  32.933  1.00  0.00     0.208 A 
ATOM      3  C   UNL     1      13.419  55.946  33.347  1.00  0.00     0.238 A 
ATOM      4  O   UNL     1      12.464  56.575  33.881  1.00  0.00    -0.285 OA
ATOM      5  C   UNL     1      14.679  56.556  33.171  1.00  0.00     0.111 A 
ATOM      6  C   UNL     1      14.956  57.887  33.564  1.00  0.00     0.134 A 
ATOM      7  C   UNL     1      16.239  58.418  33.363  1.00  0.00     0.093 A 
ATOM      8  C   UNL     1      17.247  57.645  32.777  1.00  0.00     0.123 A 
ATOM      9  C   UNL     1      16.977  56.332  32.387  1.00  0.00     0.094 A 
ATOM     10  C   UNL     1      15.705  55.784  32.578  1.00  0.00     0.146 A 
ATOM     11  O   UNL     1      15.475  54.534  32.192  1.00  0.00    -0.452 OA
ENDROOT
BRANCH   1  12
ATOM     12  C   UNL     1      14.166  52.538  31.848  1.00  0.00     0.025 A 
ATOM     13  C   UNL     1      14.387  51.445  32.704  1.00  0.00     0.016 A 
ATOM     14  C   UNL     1      14.234  50.138  32.235  1.00  0.00     0.051 A 
ATOM     15  C   UNL     1      13.847  49.901  30.913  1.00  0.00     0.157 A 
ATOM     16  C   UNL     1      13.758  52.297  30.526  1.00  0.00     0.062 A 
ATOM     17  C   UNL     1      13.605  50.986  30.053  1.00  0.00     0.158 A 
BRANCH  15  18
ATOM     18  O   UNL     1      13.706  48.586  30.472  1.00  0.00    -0.504 OA
ATOM     19  H   UNL     1      12.897  48.280  29.944  1.00  0.00     0.293 HD
ENDBRANCH  15  18
BRANCH  17  20
ATOM     20  O   UNL     1      13.211  50.758  28.735  1.00  0.00    -0.504 OA
ATOM     21  H   UNL     1      13.822  50.970  27.955  1.00  0.00     0.293 HD
ENDBRANCH  17  20
ENDBRANCH   1  12
BRANCH   2  22
ATOM     22  O   UNL     1      12.003  53.977  33.141  1.00  0.00    -0.502 OA
ATOM     23  H   UNL     1      11.780  53.502  34.008  1.00  0.00     0.293 HD
ENDBRANCH   2  22
BRANCH   6  24
ATOM     24  O   UNL     1      13.972  58.683  34.153  1.00  0.00    -0.507 OA
ATOM     25  H   UNL     1      14.051  59.008  35.109  1.00  0.00     0.293 HD
ENDBRANCH   6  24
BRANCH   8  26
ATOM     26  O   UNL     1      18.521  58.172  32.577  1.00  0.00    -0.508 OA
ATOM     27  H   UNL     1      19.288  57.596  32.249  1.00  0.00     0.293 HD
ENDBRANCH   8  26
TORSDOF 6
ENDMDL
