MODEL 1
REMARK VINA RESULT:    -5.923      0.000      0.000
REMARK INTER + INTRA:          -5.923
REMARK INTER:                  -5.923
REMARK INTRA:                   0.000
REMARK UNBOUND:                 0.000
REMARK SMILES CC1=CC(=O)[C@H]2C[C@@H]1C2(C)C
REMARK SMILES IDX 1 1 2 2 3 3 4 4 5 5 6 6 7 7 8 8 9 9 10 10 11 11
REMARK H PARENT
REMARK Flexibility Score: inf
ROOT
ATOM      1  C   UNL     1      -7.169  33.566  20.034  1.00  0.00     0.040 C 
ATOM      2  C   UNL     1      -7.937  32.996  21.184  1.00  0.00    -0.066 C 
ATOM      3  C   UNL     1      -7.950  33.609  22.401  1.00  0.00     0.047 C 
ATOM      4  C   UNL     1      -8.733  32.922  23.480  1.00  0.00     0.159 C 
ATOM      5  O   UNL     1      -8.789  33.367  24.656  1.00  0.00    -0.295 OA
ATOM      6  C   UNL     1      -9.455  31.644  23.052  1.00  0.00     0.067 C 
ATOM      7  C   UNL     1     -10.124  32.019  21.711  1.00  0.00     0.021 C 
ATOM      8  C   UNL     1      -8.766  31.702  21.046  1.00  0.00     0.022 C 
ATOM      9  C   UNL     1      -8.462  30.761  22.246  1.00  0.00    -0.019 C 
ATOM     10  C   UNL     1      -8.999  29.324  22.021  1.00  0.00     0.012 C 
ATOM     11  C   UNL     1      -6.992  30.657  22.745  1.00  0.00     0.012 C 
ENDROOT
TORSDOF 0
ENDMDL
MODEL 2
REMARK VINA RESULT:    -5.909      1.282      3.426
REMARK INTER + INTRA:          -5.909
REMARK INTER:                  -5.909
REMARK INTRA:                   0.000
REMARK UNBOUND:                 0.000
REMARK SMILES CC1=CC(=O)[C@H]2C[C@@H]1C2(C)C
REMARK SMILES IDX 1 1 2 2 3 3 4 4 5 5 6 6 7 7 8 8 9 9 10 10 11 11
REMARK H PARENT
REMARK Flexibility Score: inf
ROOT
ATOM      1  C   UNL     1      -8.395  27.895  22.645  1.00  0.00     0.040 C 
ATOM      2  C   UNL     1      -8.455  29.347  23.001  1.00  0.00    -0.066 C 
ATOM      3  C   UNL     1      -9.344  29.814  23.923  1.00  0.00     0.047 C 
ATOM      4  C   UNL     1      -9.326  31.292  24.170  1.00  0.00     0.159 C 
ATOM      5  O   UNL     1     -10.124  31.850  24.967  1.00  0.00    -0.295 OA
ATOM      6  C   UNL     1      -8.272  32.074  23.384  1.00  0.00     0.067 C 
ATOM      7  C   UNL     1      -6.984  31.234  23.539  1.00  0.00     0.021 C 
ATOM      8  C   UNL     1      -7.505  30.380  22.361  1.00  0.00     0.022 C 
ATOM      9  C   UNL     1      -8.324  31.620  21.898  1.00  0.00    -0.019 C 
ATOM     10  C   UNL     1      -7.508  32.552  20.967  1.00  0.00     0.012 C 
ATOM     11  C   UNL     1      -9.716  31.379  21.247  1.00  0.00     0.012 C 
ENDROOT
TORSDOF 0
ENDMDL
MODEL 3
REMARK VINA RESULT:    -5.775      2.374      3.560
REMARK INTER + INTRA:          -5.775
REMARK INTER:                  -5.775
REMARK INTRA:                   0.000
REMARK UNBOUND:                 0.000
REMARK SMILES CC1=CC(=O)[C@H]2C[C@@H]1C2(C)C
REMARK SMILES IDX 1 1 2 2 3 3 4 4 5 5 6 6 7 7 8 8 9 9 10 10 11 11
REMARK H PARENT
REMARK Flexibility Score: inf
ROOT
ATOM      1  C   UNL     1      -8.093  33.285  22.198  1.00  0.00     0.040 C 
ATOM      2  C   UNL     1      -8.031  31.860  22.650  1.00  0.00    -0.066 C 
ATOM      3  C   UNL     1      -8.636  30.865  21.943  1.00  0.00     0.047 C 
ATOM      4  C   UNL     1      -8.527  29.485  22.517  1.00  0.00     0.159 C 
ATOM      5  O   UNL     1      -9.077  28.489  21.979  1.00  0.00    -0.295 OA
ATOM      6  C   UNL     1      -7.704  29.372  23.801  1.00  0.00     0.067 C 
ATOM      7  C   UNL     1      -6.437  30.207  23.511  1.00  0.00     0.021 C 
ATOM      8  C   UNL     1      -7.265  31.445  23.924  1.00  0.00     0.022 C 
ATOM      9  C   UNL     1      -8.154  30.496  24.777  1.00  0.00    -0.019 C 
ATOM     10  C   UNL     1      -7.596  30.292  26.209  1.00  0.00     0.012 C 
ATOM     11  C   UNL     1      -9.673  30.814  24.888  1.00  0.00     0.012 C 
ENDROOT
TORSDOF 0
ENDMDL
MODEL 4
REMARK VINA RESULT:    -5.555      1.984      3.010
REMARK INTER + INTRA:          -5.555
REMARK INTER:                  -5.555
REMARK INTRA:                   0.000
REMARK UNBOUND:                 0.000
REMARK SMILES CC1=CC(=O)[C@H]2C[C@@H]1C2(C)C
REMARK SMILES IDX 1 1 2 2 3 3 4 4 5 5 6 6 7 7 8 8 9 9 10 10 11 11
REMARK H PARENT
REMARK Flexibility Score: inf
ROOT
ATOM      1  C   UNL     1      -7.207  34.242  23.881  1.00  0.00     0.040 C 
ATOM      2  C   UNL     1      -7.773  32.951  23.379  1.00  0.00    -0.066 C 
ATOM      3  C   UNL     1      -8.534  32.902  22.250  1.00  0.00     0.047 C 
ATOM      4  C   UNL     1      -9.067  31.554  21.869  1.00  0.00     0.159 C 
ATOM      5  O   UNL     1      -9.814  31.385  20.871  1.00  0.00    -0.295 OA
ATOM      6  C   UNL     1      -8.640  30.400  22.778  1.00  0.00     0.067 C 
ATOM      7  C   UNL     1      -7.124  30.620  22.980  1.00  0.00     0.021 C 
ATOM      8  C   UNL     1      -7.507  31.613  24.101  1.00  0.00     0.022 C 
ATOM      9  C   UNL     1      -8.844  30.834  24.257  1.00  0.00    -0.019 C 
ATOM     10  C   UNL     1      -8.723  29.644  25.243  1.00  0.00     0.012 C 
ATOM     11  C   UNL     1     -10.125  31.638  24.621  1.00  0.00     0.012 C 
ENDROOT
TORSDOF 0
ENDMDL
MODEL 5
REMARK VINA RESULT:    -5.526      1.979      3.616
REMARK INTER + INTRA:          -5.526
REMARK INTER:                  -5.526
REMARK INTRA:                   0.000
REMARK UNBOUND:                 0.000
REMARK SMILES CC1=CC(=O)[C@H]2C[C@@H]1C2(C)C
REMARK SMILES IDX 1 1 2 2 3 3 4 4 5 5 6 6 7 7 8 8 9 9 10 10 11 11
REMARK H PARENT
REMARK Flexibility Score: inf
ROOT
ATOM      1  C   UNL     1      -6.419  30.065  23.629  1.00  0.00     0.040 C 
ATOM      2  C   UNL     1      -7.583  31.005  23.639  1.00  0.00    -0.066 C 
ATOM      3  C   UNL     1      -8.221  31.354  22.487  1.00  0.00     0.047 C 
ATOM      4  C   UNL     1      -9.354  32.327  22.626  1.00  0.00     0.159 C 
ATOM      5  O   UNL     1      -9.995  32.757  21.633  1.00  0.00    -0.295 OA
ATOM      6  C   UNL     1      -9.672  32.760  24.058  1.00  0.00     0.067 C 
ATOM      7  C   UNL     1      -9.663  31.441  24.863  1.00  0.00     0.021 C 
ATOM      8  C   UNL     1      -8.129  31.608  24.951  1.00  0.00     0.022 C 
ATOM      9  C   UNL     1      -8.341  33.138  24.768  1.00  0.00    -0.019 C 
ATOM     10  C   UNL     1      -8.579  33.866  26.116  1.00  0.00     0.012 C 
ATOM     11  C   UNL     1      -7.276  33.938  23.965  1.00  0.00     0.012 C 
ENDROOT
TORSDOF 0
ENDMDL
MODEL 6
REMARK VINA RESULT:    -5.364      2.129      3.552
REMARK INTER + INTRA:          -5.364
REMARK INTER:                  -5.364
REMARK INTRA:                   0.000
REMARK UNBOUND:                 0.000
REMARK SMILES CC1=CC(=O)[C@H]2C[C@@H]1C2(C)C
REMARK SMILES IDX 1 1 2 2 3 3 4 4 5 5 6 6 7 7 8 8 9 9 10 10 11 11
REMARK H PARENT
REMARK Flexibility Score: inf
ROOT
ATOM      1  C   UNL     1      -7.168  30.912  26.547  1.00  0.00     0.040 C 
ATOM      2  C   UNL     1      -7.762  30.859  25.175  1.00  0.00    -0.066 C 
ATOM      3  C   UNL     1      -8.691  31.769  24.769  1.00  0.00     0.047 C 
ATOM      4  C   UNL     1      -9.231  31.591  23.382  1.00  0.00     0.159 C 
ATOM      5  O   UNL     1     -10.122  32.342  22.906  1.00  0.00    -0.295 OA
ATOM      6  C   UNL     1      -8.626  30.432  22.588  1.00  0.00     0.067 C 
ATOM      7  C   UNL     1      -7.106  30.561  22.830  1.00  0.00     0.021 C 
ATOM      8  C   UNL     1      -7.339  29.787  24.148  1.00  0.00     0.022 C 
ATOM      9  C   UNL     1      -8.607  29.168  23.493  1.00  0.00    -0.019 C 
ATOM     10  C   UNL     1      -8.290  27.877  22.697  1.00  0.00     0.012 C 
ATOM     11  C   UNL     1      -9.841  28.890  24.400  1.00  0.00     0.012 C 
ENDROOT
TORSDOF 0
ENDMDL
MODEL 7
REMARK VINA RESULT:    -5.332      1.290      1.467
REMARK INTER + INTRA:          -5.332
REMARK INTER:                  -5.332
REMARK INTRA:                   0.000
REMARK UNBOUND:                 0.000
REMARK SMILES CC1=CC(=O)[C@H]2C[C@@H]1C2(C)C
REMARK SMILES IDX 1 1 2 2 3 3 4 4 5 5 6 6 7 7 8 8 9 9 10 10 11 11
REMARK H PARENT
REMARK Flexibility Score: inf
ROOT
ATOM      1  C   UNL     1      -7.500  34.625  21.889  1.00  0.00     0.040 C 
ATOM      2  C   UNL     1      -8.056  33.586  22.811  1.00  0.00    -0.066 C 
ATOM      3  C   UNL     1      -7.841  33.644  24.155  1.00  0.00     0.047 C 
ATOM      4  C   UNL     1      -8.425  32.527  24.967  1.00  0.00     0.159 C 
ATOM      5  O   UNL     1      -8.262  32.446  26.212  1.00  0.00    -0.295 OA
ATOM      6  C   UNL     1      -9.230  31.494  24.177  1.00  0.00     0.067 C 
ATOM      7  C   UNL     1     -10.125  32.344  23.247  1.00  0.00     0.021 C 
ATOM      8  C   UNL     1      -8.913  32.413  22.290  1.00  0.00     0.022 C 
ATOM      9  C   UNL     1      -8.410  31.084  22.921  1.00  0.00    -0.019 C 
ATOM     10  C   UNL     1      -8.998  29.835  22.215  1.00  0.00     0.012 C 
ATOM     11  C   UNL     1      -6.875  30.878  23.075  1.00  0.00     0.012 C 
ENDROOT
TORSDOF 0
ENDMDL
MODEL 8
REMARK VINA RESULT:    -5.282      1.636      2.673
REMARK INTER + INTRA:          -5.282
REMARK INTER:                  -5.282
REMARK INTRA:                   0.000
REMARK UNBOUND:                 0.000
REMARK SMILES CC1=CC(=O)[C@H]2C[C@@H]1C2(C)C
REMARK SMILES IDX 1 1 2 2 3 3 4 4 5 5 6 6 7 7 8 8 9 9 10 10 11 11
REMARK H PARENT
REMARK Flexibility Score: inf
ROOT
ATOM      1  C   UNL     1      -8.083  34.777  24.083  1.00  0.00     0.040 C 
ATOM      2  C   UNL     1      -8.116  33.332  23.697  1.00  0.00    -0.066 C 
ATOM      3  C   UNL     1      -7.096  32.488  24.021  1.00  0.00     0.047 C 
ATOM      4  C   UNL     1      -7.234  31.072  23.552  1.00  0.00     0.159 C 
ATOM      5  O   UNL     1      -6.342  30.208  23.753  1.00  0.00    -0.295 OA
ATOM      6  C   UNL     1      -8.532  30.751  22.809  1.00  0.00     0.067 C 
ATOM      7  C   UNL     1      -9.633  31.405  23.675  1.00  0.00     0.021 C 
ATOM      8  C   UNL     1      -9.310  32.722  22.933  1.00  0.00     0.022 C 
ATOM      9  C   UNL     1      -8.783  31.861  21.750  1.00  0.00    -0.019 C 
ATOM     10  C   UNL     1      -9.906  31.480  20.751  1.00  0.00     0.012 C 
ATOM     11  C   UNL     1      -7.569  32.395  20.936  1.00  0.00     0.012 C 
ENDROOT
TORSDOF 0
ENDMDL
