MODEL 1
REMARK VINA RESULT:    -3.695      0.000      0.000
REMARK INTER + INTRA:          -9.609
REMARK INTER:                  -6.935
REMARK INTRA:                  -2.673
REMARK UNBOUND:                -2.673
REMARK SMILES O=C([O-])CCCCCCCCCCCCCCC(=O)[O-]
REMARK SMILES IDX 10 1 9 2 8 3 7 4 6 5 5 6 4 7 2 8 1 9 3 10 11 11 12 12 13 13
REMARK SMILES IDX 14 14 15 15 16 16 17 17 18 18 19 19 20 20
REMARK H PARENT
REMARK Flexibility Score: inf
ROOT
ATOM      1  C   UNL     1      10.625  -8.373  33.970  1.00  0.00     0.000 C 
ENDROOT
BRANCH   1   2
ATOM      2  C   UNL     1       9.415  -8.317  33.024  1.00  0.00     0.000 C 
BRANCH   2   3
ATOM      3  C   UNL     1       8.425  -7.199  33.396  1.00  0.00     0.000 C 
BRANCH   3   4
ATOM      4  C   UNL     1       8.962  -5.800  33.062  1.00  0.00     0.000 C 
BRANCH   4   5
ATOM      5  C   UNL     1       8.394  -4.712  33.986  1.00  0.00     0.000 C 
BRANCH   5   6
ATOM      6  C   UNL     1       9.420  -4.301  35.048  1.00  0.00     0.006 C 
BRANCH   6   7
ATOM      7  C   UNL     1      10.850  -4.521  34.547  1.00  0.00     0.053 C 
BRANCH   7   8
ATOM      8  C   UNL     1      11.840  -4.034  35.558  1.00  0.00     0.041 C 
ATOM      9  O   UNL     1      13.043  -3.858  35.234  1.00  0.00    -0.550 OA
ATOM     10  O   UNL     1      11.422  -3.727  36.847  1.00  0.00    -0.550 OA
ENDBRANCH   7   8
ENDBRANCH   6   7
ENDBRANCH   5   6
ENDBRANCH   4   5
ENDBRANCH   3   4
ENDBRANCH   2   3
ENDBRANCH   1   2
BRANCH   1  11
ATOM     11  C   UNL     1      10.226  -8.688  35.420  1.00  0.00     0.000 C 
BRANCH  11  12
ATOM     12  C   UNL     1      10.871  -7.694  36.394  1.00  0.00     0.000 C 
BRANCH  12  13
ATOM     13  C   UNL     1       9.825  -7.112  37.356  1.00  0.00     0.000 C 
BRANCH  13  14
ATOM     14  C   UNL     1       8.384  -7.451  36.941  1.00  0.00     0.000 C 
BRANCH  14  15
ATOM     15  C   UNL     1       7.410  -6.289  37.185  1.00  0.00     0.000 C 
BRANCH  15  16
ATOM     16  C   UNL     1       6.021  -6.607  36.610  1.00  0.00     0.006 C 
BRANCH  16  17
ATOM     17  C   UNL     1       5.943  -8.026  36.032  1.00  0.00     0.053 C 
BRANCH  17  18
ATOM     18  C   UNL     1       5.010  -8.097  34.861  1.00  0.00     0.041 C 
ATOM     19  O   UNL     1       5.333  -8.745  33.831  1.00  0.00    -0.550 OA
ATOM     20  O   UNL     1       3.767  -7.479  34.924  1.00  0.00    -0.550 OA
ENDBRANCH  17  18
ENDBRANCH  16  17
ENDBRANCH  15  16
ENDBRANCH  14  15
ENDBRANCH  13  14
ENDBRANCH  12  13
ENDBRANCH  11  12
ENDBRANCH   1  11
TORSDOF 15
ENDMDL
MODEL 2
REMARK VINA RESULT:    -3.688      1.822      6.464
REMARK INTER + INTRA:          -9.596
REMARK INTER:                  -7.455
REMARK INTRA:                  -2.140
REMARK UNBOUND:                -2.673
REMARK SMILES O=C([O-])CCCCCCCCCCCCCCC(=O)[O-]
REMARK SMILES IDX 10 1 9 2 8 3 7 4 6 5 5 6 4 7 2 8 1 9 3 10 11 11 12 12 13 13
REMARK SMILES IDX 14 14 15 15 16 16 17 17 18 18 19 19 20 20
REMARK H PARENT
REMARK Flexibility Score: inf
ROOT
ATOM      1  C   UNL     1       9.020  -6.459  34.070  1.00  0.00     0.000 C 
ENDROOT
BRANCH   1   2
ATOM      2  C   UNL     1       8.286  -7.722  33.593  1.00  0.00     0.000 C 
BRANCH   2   3
ATOM      3  C   UNL     1       7.382  -8.327  34.682  1.00  0.00     0.000 C 
BRANCH   3   4
ATOM      4  C   UNL     1       7.349  -7.477  35.961  1.00  0.00     0.000 C 
BRANCH   4   5
ATOM      5  C   UNL     1       5.953  -7.420  36.598  1.00  0.00     0.000 C 
BRANCH   5   6
ATOM      6  C   UNL     1       5.029  -6.479  35.816  1.00  0.00     0.006 C 
BRANCH   6   7
ATOM      7  C   UNL     1       3.992  -7.268  35.012  1.00  0.00     0.053 C 
BRANCH   7   8
ATOM      8  C   UNL     1       3.087  -8.029  35.929  1.00  0.00     0.041 C 
ATOM      9  O   UNL     1       2.960  -9.276  35.806  1.00  0.00    -0.550 OA
ATOM     10  O   UNL     1       2.421  -7.367  36.953  1.00  0.00    -0.550 OA
ENDBRANCH   7   8
ENDBRANCH   6   7
ENDBRANCH   5   6
ENDBRANCH   4   5
ENDBRANCH   3   4
ENDBRANCH   2   3
ENDBRANCH   1   2
BRANCH   1  11
ATOM     11  C   UNL     1       8.670  -5.221  33.232  1.00  0.00     0.000 C 
BRANCH  11  12
ATOM     12  C   UNL     1       8.672  -3.955  34.097  1.00  0.00     0.000 C 
BRANCH  12  13
ATOM     13  C   UNL     1       7.488  -3.957  35.076  1.00  0.00     0.000 C 
BRANCH  13  14
ATOM     14  C   UNL     1       7.861  -3.395  36.458  1.00  0.00     0.000 C 
BRANCH  14  15
ATOM     15  C   UNL     1       8.724  -4.365  37.277  1.00  0.00     0.000 C 
BRANCH  15  16
ATOM     16  C   UNL     1      10.147  -3.815  37.457  1.00  0.00     0.006 C 
BRANCH  16  17
ATOM     17  C   UNL     1      11.197  -4.676  36.742  1.00  0.00     0.053 C 
BRANCH  17  18
ATOM     18  C   UNL     1      11.988  -3.876  35.752  1.00  0.00     0.041 C 
ATOM     19  O   UNL     1      12.439  -2.744  36.066  1.00  0.00    -0.550 OA
ATOM     20  O   UNL     1      12.261  -4.401  34.494  1.00  0.00    -0.550 OA
ENDBRANCH  17  18
ENDBRANCH  16  17
ENDBRANCH  15  16
ENDBRANCH  14  15
ENDBRANCH  13  14
ENDBRANCH  12  13
ENDBRANCH  11  12
ENDBRANCH   1  11
TORSDOF 15
ENDMDL
MODEL 3
REMARK VINA RESULT:    -3.688      1.338      6.032
REMARK INTER + INTRA:          -9.595
REMARK INTER:                  -7.257
REMARK INTRA:                  -2.338
REMARK UNBOUND:                -2.673
REMARK SMILES O=C([O-])CCCCCCCCCCCCCCC(=O)[O-]
REMARK SMILES IDX 10 1 9 2 8 3 7 4 6 5 5 6 4 7 2 8 1 9 3 10 11 11 12 12 13 13
REMARK SMILES IDX 14 14 15 15 16 16 17 17 18 18 19 19 20 20
REMARK H PARENT
REMARK Flexibility Score: inf
ROOT
ATOM      1  C   UNL     1      10.568  -8.596  33.932  1.00  0.00     0.000 C 
ENDROOT
BRANCH   1   2
ATOM      2  C   UNL     1      10.080  -9.390  35.154  1.00  0.00     0.000 C 
BRANCH   2   3
ATOM      3  C   UNL     1      10.343  -8.655  36.480  1.00  0.00     0.000 C 
BRANCH   3   4
ATOM      4  C   UNL     1       9.062  -8.079  37.100  1.00  0.00     0.000 C 
BRANCH   4   5
ATOM      5  C   UNL     1       7.859  -9.023  36.956  1.00  0.00     0.000 C 
BRANCH   5   6
ATOM      6  C   UNL     1       6.583  -8.241  36.622  1.00  0.00     0.006 C 
BRANCH   6   7
ATOM      7  C   UNL     1       6.799  -6.735  36.791  1.00  0.00     0.053 C 
BRANCH   7   8
ATOM      8  C   UNL     1       5.853  -5.969  35.921  1.00  0.00     0.041 C 
ATOM      9  O   UNL     1       4.852  -6.541  35.415  1.00  0.00    -0.550 OA
ATOM     10  O   UNL     1       6.048  -4.610  35.712  1.00  0.00    -0.550 OA
ENDBRANCH   7   8
ENDBRANCH   6   7
ENDBRANCH   5   6
ENDBRANCH   4   5
ENDBRANCH   3   4
ENDBRANCH   2   3
ENDBRANCH   1   2
BRANCH   1  11
ATOM     11  C   UNL     1       9.425  -8.221  32.977  1.00  0.00     0.000 C 
BRANCH  11  12
ATOM     12  C   UNL     1       8.536  -7.131  33.588  1.00  0.00     0.000 C 
BRANCH  12  13
ATOM     13  C   UNL     1       8.791  -5.773  32.916  1.00  0.00     0.000 C 
BRANCH  13  14
ATOM     14  C   UNL     1       9.043  -4.647  33.933  1.00  0.00     0.000 C 
BRANCH  14  15
ATOM     15  C   UNL     1       9.767  -5.141  35.193  1.00  0.00     0.000 C 
BRANCH  15  16
ATOM     16  C   UNL     1      11.269  -4.820  35.125  1.00  0.00     0.006 C 
BRANCH  16  17
ATOM     17  C   UNL     1      11.831  -4.380  36.482  1.00  0.00     0.053 C 
BRANCH  17  18
ATOM     18  C   UNL     1      12.991  -3.444  36.325  1.00  0.00     0.041 C 
ATOM     19  O   UNL     1      14.170  -3.877  36.409  1.00  0.00    -0.550 OA
ATOM     20  O   UNL     1      12.769  -2.101  36.048  1.00  0.00    -0.550 OA
ENDBRANCH  17  18
ENDBRANCH  16  17
ENDBRANCH  15  16
ENDBRANCH  14  15
ENDBRANCH  13  14
ENDBRANCH  12  13
ENDBRANCH  11  12
ENDBRANCH   1  11
TORSDOF 15
ENDMDL
MODEL 4
REMARK VINA RESULT:    -3.619      3.042      5.147
REMARK INTER + INTRA:          -9.465
REMARK INTER:                  -7.438
REMARK INTRA:                  -2.027
REMARK UNBOUND:                -2.673
REMARK SMILES O=C([O-])CCCCCCCCCCCCCCC(=O)[O-]
REMARK SMILES IDX 10 1 9 2 8 3 7 4 6 5 5 6 4 7 2 8 1 9 3 10 11 11 12 12 13 13
REMARK SMILES IDX 14 14 15 15 16 16 17 17 18 18 19 19 20 20
REMARK H PARENT
REMARK Flexibility Score: inf
ROOT
ATOM      1  C   UNL     1       9.737  -8.337  33.115  1.00  0.00     0.000 C 
ENDROOT
BRANCH   1   2
ATOM      2  C   UNL     1      10.671  -8.473  34.328  1.00  0.00     0.000 C 
BRANCH   2   3
ATOM      3  C   UNL     1      10.051  -9.308  35.462  1.00  0.00     0.000 C 
BRANCH   3   4
ATOM      4  C   UNL     1      10.253  -8.669  36.844  1.00  0.00     0.000 C 
BRANCH   4   5
ATOM      5  C   UNL     1      11.181  -7.446  36.800  1.00  0.00     0.000 C 
BRANCH   5   6
ATOM      6  C   UNL     1      11.668  -7.075  38.206  1.00  0.00     0.006 C 
BRANCH   6   7
ATOM      7  C   UNL     1      12.740  -8.053  38.695  1.00  0.00     0.053 C 
BRANCH   7   8
ATOM      8  C   UNL     1      14.070  -7.373  38.777  1.00  0.00     0.041 C 
ATOM      9  O   UNL     1      14.137  -6.123  38.920  1.00  0.00    -0.550 OA
ATOM     10  O   UNL     1      15.237  -8.126  38.748  1.00  0.00    -0.550 OA
ENDBRANCH   7   8
ENDBRANCH   6   7
ENDBRANCH   5   6
ENDBRANCH   4   5
ENDBRANCH   3   4
ENDBRANCH   2   3
ENDBRANCH   1   2
BRANCH   1  11
ATOM     11  C   UNL     1       8.394  -7.682  33.475  1.00  0.00     0.000 C 
BRANCH  11  12
ATOM     12  C   UNL     1       8.586  -6.206  33.844  1.00  0.00     0.000 C 
BRANCH  12  13
ATOM     13  C   UNL     1       8.075  -5.925  35.265  1.00  0.00     0.000 C 
BRANCH  13  14
ATOM     14  C   UNL     1       7.361  -4.568  35.380  1.00  0.00     0.000 C 
BRANCH  14  15
ATOM     15  C   UNL     1       8.014  -3.642  36.415  1.00  0.00     0.000 C 
BRANCH  15  16
ATOM     16  C   UNL     1       9.170  -4.354  37.136  1.00  0.00     0.006 C 
BRANCH  16  17
ATOM     17  C   UNL     1      10.405  -3.455  37.281  1.00  0.00     0.053 C 
BRANCH  17  18
ATOM     18  C   UNL     1      11.478  -3.824  36.303  1.00  0.00     0.041 C 
ATOM     19  O   UNL     1      11.200  -3.975  35.084  1.00  0.00    -0.550 OA
ATOM     20  O   UNL     1      12.792  -3.964  36.731  1.00  0.00    -0.550 OA
ENDBRANCH  17  18
ENDBRANCH  16  17
ENDBRANCH  15  16
ENDBRANCH  14  15
ENDBRANCH  13  14
ENDBRANCH  12  13
ENDBRANCH  11  12
ENDBRANCH   1  11
TORSDOF 15
ENDMDL
MODEL 5
REMARK VINA RESULT:    -3.618      1.946      3.598
REMARK INTER + INTRA:          -9.463
REMARK INTER:                  -7.100
REMARK INTRA:                  -2.363
REMARK UNBOUND:                -2.673
REMARK SMILES O=C([O-])CCCCCCCCCCCCCCC(=O)[O-]
REMARK SMILES IDX 10 1 9 2 8 3 7 4 6 5 5 6 4 7 2 8 1 9 3 10 11 11 12 12 13 13
REMARK SMILES IDX 14 14 15 15 16 16 17 17 18 18 19 19 20 20
REMARK H PARENT
REMARK Flexibility Score: inf
ROOT
ATOM      1  C   UNL     1       9.005  -8.869  36.847  1.00  0.00     0.000 C 
ENDROOT
BRANCH   1   2
ATOM      2  C   UNL     1       8.861  -7.880  38.014  1.00  0.00     0.000 C 
BRANCH   2   3
ATOM      3  C   UNL     1      10.054  -6.914  38.121  1.00  0.00     0.000 C 
BRANCH   3   4
ATOM      4  C   UNL     1       9.616  -5.449  38.266  1.00  0.00     0.000 C 
BRANCH   4   5
ATOM      5  C   UNL     1      10.277  -4.528  37.230  1.00  0.00     0.000 C 
BRANCH   5   6
ATOM      6  C   UNL     1      11.515  -5.190  36.615  1.00  0.00     0.006 C 
BRANCH   6   7
ATOM      7  C   UNL     1      12.066  -4.358  35.454  1.00  0.00     0.053 C 
BRANCH   7   8
ATOM      8  C   UNL     1      13.079  -3.374  35.949  1.00  0.00     0.041 C 
ATOM      9  O   UNL     1      14.297  -3.689  36.002  1.00  0.00    -0.550 OA
ATOM     10  O   UNL     1      12.684  -2.090  36.304  1.00  0.00    -0.550 OA
ENDBRANCH   7   8
ENDBRANCH   6   7
ENDBRANCH   5   6
ENDBRANCH   4   5
ENDBRANCH   3   4
ENDBRANCH   2   3
ENDBRANCH   1   2
BRANCH   1  11
ATOM     11  C   UNL     1      10.296  -8.650  36.042  1.00  0.00     0.000 C 
BRANCH  11  12
ATOM     12  C   UNL     1      10.207  -9.327  34.670  1.00  0.00     0.000 C 
BRANCH  12  13
ATOM     13  C   UNL     1      10.175  -8.283  33.543  1.00  0.00     0.000 C 
BRANCH  13  14
ATOM     14  C   UNL     1       8.749  -7.828  33.197  1.00  0.00     0.000 C 
BRANCH  14  15
ATOM     15  C   UNL     1       8.664  -6.325  32.896  1.00  0.00     0.000 C 
BRANCH  15  16
ATOM     16  C   UNL     1       8.667  -5.504  34.196  1.00  0.00     0.006 C 
BRANCH  16  17
ATOM     17  C   UNL     1       7.523  -5.902  35.137  1.00  0.00     0.053 C 
BRANCH  17  18
ATOM     18  C   UNL     1       6.692  -4.719  35.530  1.00  0.00     0.041 C 
ATOM     19  O   UNL     1       7.216  -3.579  35.624  1.00  0.00    -0.550 OA
ATOM     20  O   UNL     1       5.329  -4.871  35.756  1.00  0.00    -0.550 OA
ENDBRANCH  17  18
ENDBRANCH  16  17
ENDBRANCH  15  16
ENDBRANCH  14  15
ENDBRANCH  13  14
ENDBRANCH  12  13
ENDBRANCH  11  12
ENDBRANCH   1  11
TORSDOF 15
ENDMDL
MODEL 6
REMARK VINA RESULT:    -3.616      2.081      3.457
REMARK INTER + INTRA:          -9.460
REMARK INTER:                  -6.920
REMARK INTRA:                  -2.539
REMARK UNBOUND:                -2.673
REMARK SMILES O=C([O-])CCCCCCCCCCCCCCC(=O)[O-]
REMARK SMILES IDX 10 1 9 2 8 3 7 4 6 5 5 6 4 7 2 8 1 9 3 10 11 11 12 12 13 13
REMARK SMILES IDX 14 14 15 15 16 16 17 17 18 18 19 19 20 20
REMARK H PARENT
REMARK Flexibility Score: inf
ROOT
ATOM      1  C   UNL     1      10.707  -8.859  34.022  1.00  0.00     0.000 C 
ENDROOT
BRANCH   1   2
ATOM      2  C   UNL     1      10.099  -9.573  35.239  1.00  0.00     0.000 C 
BRANCH   2   3
ATOM      3  C   UNL     1      10.567  -8.968  36.574  1.00  0.00     0.000 C 
BRANCH   3   4
ATOM      4  C   UNL     1       9.472  -8.140  37.263  1.00  0.00     0.000 C 
BRANCH   4   5
ATOM      5  C   UNL     1       9.768  -6.633  37.242  1.00  0.00     0.000 C 
BRANCH   5   6
ATOM      6  C   UNL     1      11.181  -6.357  36.717  1.00  0.00     0.006 C 
BRANCH   6   7
ATOM      7  C   UNL     1      11.150  -5.389  35.531  1.00  0.00     0.053 C 
BRANCH   7   8
ATOM      8  C   UNL     1      11.785  -4.086  35.901  1.00  0.00     0.041 C 
ATOM      9  O   UNL     1      12.852  -3.718  35.341  1.00  0.00    -0.550 OA
ATOM     10  O   UNL     1      11.172  -3.253  36.828  1.00  0.00    -0.550 OA
ENDBRANCH   7   8
ENDBRANCH   6   7
ENDBRANCH   5   6
ENDBRANCH   4   5
ENDBRANCH   3   4
ENDBRANCH   2   3
ENDBRANCH   1   2
BRANCH   1  11
ATOM     11  C   UNL     1       9.640  -8.368  33.031  1.00  0.00     0.000 C 
BRANCH  11  12
ATOM     12  C   UNL     1       8.669  -7.395  33.710  1.00  0.00     0.000 C 
BRANCH  12  13
ATOM     13  C   UNL     1       7.221  -7.897  33.599  1.00  0.00     0.000 C 
BRANCH  13  14
ATOM     14  C   UNL     1       6.642  -8.336  34.954  1.00  0.00     0.000 C 
BRANCH  14  15
ATOM     15  C   UNL     1       5.633  -7.327  35.520  1.00  0.00     0.000 C 
BRANCH  15  16
ATOM     16  C   UNL     1       6.350  -6.203  36.284  1.00  0.00     0.006 C 
BRANCH  16  17
ATOM     17  C   UNL     1       6.129  -4.829  35.638  1.00  0.00     0.053 C 
BRANCH  17  18
ATOM     18  C   UNL     1       7.393  -4.024  35.600  1.00  0.00     0.041 C 
ATOM     19  O   UNL     1       7.814  -3.455  36.642  1.00  0.00    -0.550 OA
ATOM     20  O   UNL     1       8.125  -3.935  34.423  1.00  0.00    -0.550 OA
ENDBRANCH  17  18
ENDBRANCH  16  17
ENDBRANCH  15  16
ENDBRANCH  14  15
ENDBRANCH  13  14
ENDBRANCH  12  13
ENDBRANCH  11  12
ENDBRANCH   1  11
TORSDOF 15
ENDMDL
MODEL 7
REMARK VINA RESULT:    -3.612      1.203      2.787
REMARK INTER + INTRA:          -9.453
REMARK INTER:                  -7.066
REMARK INTRA:                  -2.387
REMARK UNBOUND:                -2.673
REMARK SMILES O=C([O-])CCCCCCCCCCCCCCC(=O)[O-]
REMARK SMILES IDX 10 1 9 2 8 3 7 4 6 5 5 6 4 7 2 8 1 9 3 10 11 11 12 12 13 13
REMARK SMILES IDX 14 14 15 15 16 16 17 17 18 18 19 19 20 20
REMARK H PARENT
REMARK Flexibility Score: inf
ROOT
ATOM      1  C   UNL     1       9.773  -7.541  34.160  1.00  0.00     0.000 C 
ENDROOT
BRANCH   1   2
ATOM      2  C   UNL     1       9.335  -8.534  35.248  1.00  0.00     0.000 C 
BRANCH   2   3
ATOM      3  C   UNL     1      10.109  -8.348  36.565  1.00  0.00     0.000 C 
BRANCH   3   4
ATOM      4  C   UNL     1      11.012  -7.105  36.548  1.00  0.00     0.000 C 
BRANCH   4   5
ATOM      5  C   UNL     1      10.481  -5.976  37.443  1.00  0.00     0.000 C 
BRANCH   5   6
ATOM      6  C   UNL     1      11.597  -4.989  37.803  1.00  0.00     0.006 C 
BRANCH   6   7
ATOM      7  C   UNL     1      11.582  -3.775  36.869  1.00  0.00     0.053 C 
BRANCH   7   8
ATOM      8  C   UNL     1      12.732  -3.834  35.915  1.00  0.00     0.041 C 
ATOM      9  O   UNL     1      13.887  -3.502  36.292  1.00  0.00    -0.550 OA
ATOM     10  O   UNL     1      12.539  -4.305  34.623  1.00  0.00    -0.550 OA
ENDBRANCH   7   8
ENDBRANCH   6   7
ENDBRANCH   5   6
ENDBRANCH   4   5
ENDBRANCH   3   4
ENDBRANCH   2   3
ENDBRANCH   1   2
BRANCH   1  11
ATOM     11  C   UNL     1       8.597  -7.042  33.307  1.00  0.00     0.000 C 
BRANCH  11  12
ATOM     12  C   UNL     1       8.769  -5.561  32.949  1.00  0.00     0.000 C 
BRANCH  12  13
ATOM     13  C   UNL     1       9.149  -4.737  34.189  1.00  0.00     0.000 C 
BRANCH  13  14
ATOM     14  C   UNL     1       7.935  -4.058  34.844  1.00  0.00     0.000 C 
BRANCH  14  15
ATOM     15  C   UNL     1       7.406  -4.838  36.056  1.00  0.00     0.000 C 
BRANCH  15  16
ATOM     16  C   UNL     1       6.045  -5.481  35.743  1.00  0.00     0.006 C 
BRANCH  16  17
ATOM     17  C   UNL     1       6.038  -6.989  36.024  1.00  0.00     0.053 C 
BRANCH  17  18
ATOM     18  C   UNL     1       5.148  -7.726  35.070  1.00  0.00     0.041 C 
ATOM     19  O   UNL     1       5.615  -8.650  34.354  1.00  0.00    -0.550 OA
ATOM     20  O   UNL     1       3.796  -7.418  35.000  1.00  0.00    -0.550 OA
ENDBRANCH  17  18
ENDBRANCH  16  17
ENDBRANCH  15  16
ENDBRANCH  14  15
ENDBRANCH  13  14
ENDBRANCH  12  13
ENDBRANCH  11  12
ENDBRANCH   1  11
TORSDOF 15
ENDMDL
MODEL 8
REMARK VINA RESULT:    -3.602      1.285      6.166
REMARK INTER + INTRA:          -9.433
REMARK INTER:                  -6.758
REMARK INTRA:                  -2.675
REMARK UNBOUND:                -2.673
REMARK SMILES O=C([O-])CCCCCCCCCCCCCCC(=O)[O-]
REMARK SMILES IDX 10 1 9 2 8 3 7 4 6 5 5 6 4 7 2 8 1 9 3 10 11 11 12 12 13 13
REMARK SMILES IDX 14 14 15 15 16 16 17 17 18 18 19 19 20 20
REMARK H PARENT
REMARK Flexibility Score: inf
ROOT
ATOM      1  C   UNL     1       8.597  -6.689  33.351  1.00  0.00     0.000 C 
ENDROOT
BRANCH   1   2
ATOM      2  C   UNL     1       8.818  -5.169  33.314  1.00  0.00     0.000 C 
BRANCH   2   3
ATOM      3  C   UNL     1       8.467  -4.488  34.649  1.00  0.00     0.000 C 
BRANCH   3   4
ATOM      4  C   UNL     1       7.192  -5.061  35.286  1.00  0.00     0.000 C 
BRANCH   4   5
ATOM      5  C   UNL     1       7.402  -5.490  36.746  1.00  0.00     0.000 C 
BRANCH   5   6
ATOM      6  C   UNL     1       6.559  -6.725  37.083  1.00  0.00     0.006 C 
BRANCH   6   7
ATOM      7  C   UNL     1       6.041  -7.402  35.811  1.00  0.00     0.053 C 
BRANCH   7   8
ATOM      8  C   UNL     1       4.570  -7.658  35.915  1.00  0.00     0.041 C 
ATOM      9  O   UNL     1       4.092  -8.199  36.946  1.00  0.00    -0.550 OA
ATOM     10  O   UNL     1       3.721  -7.252  34.893  1.00  0.00    -0.550 OA
ENDBRANCH   7   8
ENDBRANCH   6   7
ENDBRANCH   5   6
ENDBRANCH   4   5
ENDBRANCH   3   4
ENDBRANCH   2   3
ENDBRANCH   1   2
BRANCH   1  11
ATOM     11  C   UNL     1       9.849  -7.457  33.802  1.00  0.00     0.000 C 
BRANCH  11  12
ATOM     12  C   UNL     1       9.489  -8.538  34.828  1.00  0.00     0.000 C 
BRANCH  12  13
ATOM     13  C   UNL     1       9.921  -8.121  36.241  1.00  0.00     0.000 C 
BRANCH  13  14
ATOM     14  C   UNL     1      10.871  -6.912  36.237  1.00  0.00     0.000 C 
BRANCH  14  15
ATOM     15  C   UNL     1      10.862  -6.149  37.569  1.00  0.00     0.000 C 
BRANCH  15  16
ATOM     16  C   UNL     1      11.250  -4.676  37.360  1.00  0.00     0.006 C 
BRANCH  16  17
ATOM     17  C   UNL     1      11.960  -4.447  36.020  1.00  0.00     0.053 C 
BRANCH  17  18
ATOM     18  C   UNL     1      13.068  -3.446  36.144  1.00  0.00     0.041 C 
ATOM     19  O   UNL     1      14.261  -3.832  36.253  1.00  0.00    -0.550 OA
ATOM     20  O   UNL     1      12.786  -2.086  36.100  1.00  0.00    -0.550 OA
ENDBRANCH  17  18
ENDBRANCH  16  17
ENDBRANCH  15  16
ENDBRANCH  14  15
ENDBRANCH  13  14
ENDBRANCH  12  13
ENDBRANCH  11  12
ENDBRANCH   1  11
TORSDOF 15
ENDMDL
MODEL 9
REMARK VINA RESULT:    -3.597      1.318      5.905
REMARK INTER + INTRA:          -9.424
REMARK INTER:                  -7.127
REMARK INTRA:                  -2.296
REMARK UNBOUND:                -2.673
REMARK SMILES O=C([O-])CCCCCCCCCCCCCCC(=O)[O-]
REMARK SMILES IDX 10 1 9 2 8 3 7 4 6 5 5 6 4 7 2 8 1 9 3 10 11 11 12 12 13 13
REMARK SMILES IDX 14 14 15 15 16 16 17 17 18 18 19 19 20 20
REMARK H PARENT
REMARK Flexibility Score: inf
ROOT
ATOM      1  C   UNL     1      10.114  -9.483  35.160  1.00  0.00     0.000 C 
ENDROOT
BRANCH   1   2
ATOM      2  C   UNL     1      10.479  -8.661  33.914  1.00  0.00     0.000 C 
BRANCH   2   3
ATOM      3  C   UNL     1       9.243  -8.238  33.102  1.00  0.00     0.000 C 
BRANCH   3   4
ATOM      4  C   UNL     1       8.963  -6.730  33.196  1.00  0.00     0.000 C 
BRANCH   4   5
ATOM      5  C   UNL     1       8.170  -6.353  34.456  1.00  0.00     0.000 C 
BRANCH   5   6
ATOM      6  C   UNL     1       7.121  -7.420  34.786  1.00  0.00     0.006 C 
BRANCH   6   7
ATOM      7  C   UNL     1       6.347  -7.058  36.057  1.00  0.00     0.053 C 
BRANCH   7   8
ATOM      8  C   UNL     1       4.890  -6.905  35.757  1.00  0.00     0.041 C 
ATOM      9  O   UNL     1       4.366  -7.550  34.811  1.00  0.00    -0.550 OA
ATOM     10  O   UNL     1       4.098  -6.089  36.556  1.00  0.00    -0.550 OA
ENDBRANCH   7   8
ENDBRANCH   6   7
ENDBRANCH   5   6
ENDBRANCH   4   5
ENDBRANCH   3   4
ENDBRANCH   2   3
ENDBRANCH   1   2
BRANCH   1  11
ATOM     11  C   UNL     1      10.733  -8.912  36.446  1.00  0.00     0.000 C 
BRANCH  11  12
ATOM     12  C   UNL     1       9.649  -8.344  37.370  1.00  0.00     0.000 C 
BRANCH  12  13
ATOM     13  C   UNL     1       9.973  -6.896  37.770  1.00  0.00     0.000 C 
BRANCH  13  14
ATOM     14  C   UNL     1      10.978  -6.229  36.817  1.00  0.00     0.000 C 
BRANCH  14  15
ATOM     15  C   UNL     1      10.769  -4.712  36.705  1.00  0.00     0.000 C 
BRANCH  15  16
ATOM     16  C   UNL     1      11.032  -4.226  35.271  1.00  0.00     0.006 C 
BRANCH  16  17
ATOM     17  C   UNL     1      12.531  -4.134  34.955  1.00  0.00     0.053 C 
BRANCH  17  18
ATOM     18  C   UNL     1      13.265  -3.326  35.982  1.00  0.00     0.041 C 
ATOM     19  O   UNL     1      14.199  -3.846  36.648  1.00  0.00    -0.550 OA
ATOM     20  O   UNL     1      12.944  -1.989  36.175  1.00  0.00    -0.550 OA
ENDBRANCH  17  18
ENDBRANCH  16  17
ENDBRANCH  15  16
ENDBRANCH  14  15
ENDBRANCH  13  14
ENDBRANCH  12  13
ENDBRANCH  11  12
ENDBRANCH   1  11
TORSDOF 15
ENDMDL
