MODEL 1
REMARK VINA RESULT:    -4.046      0.000      0.000
REMARK INTER + INTRA:          -8.946
REMARK INTER:                  -7.830
REMARK INTRA:                  -1.116
REMARK UNBOUND:                -1.116
REMARK SMILES CCCCCCCCCCCCCCCCCC(=O)[O-]
REMARK SMILES IDX 10 1 11 2 12 3 13 4 14 5 15 6 16 7 17 8 18 9 19 10 20 11
REMARK SMILES IDX 9 12 8 13 7 14 6 15 5 16 4 17 3 18 2 19 1 20
REMARK H PARENT
REMARK Flexibility Score: inf
ROOT
ATOM      1  C   UNL     1     -43.356 -28.709  -0.354  1.00  0.00     0.000 C 
ENDROOT
BRANCH   1   2
ATOM      2  C   UNL     1     -44.606 -29.591  -0.491  1.00  0.00     0.000 C 
BRANCH   2   3
ATOM      3  C   UNL     1     -44.867 -30.045  -1.939  1.00  0.00     0.000 C 
BRANCH   3   4
ATOM      4  C   UNL     1     -45.950 -29.246  -2.687  1.00  0.00     0.000 C 
BRANCH   4   5
ATOM      5  C   UNL     1     -45.383 -28.045  -3.460  1.00  0.00     0.000 C 
BRANCH   5   6
ATOM      6  C   UNL     1     -46.015 -27.939  -4.852  1.00  0.00     0.000 C 
BRANCH   6   7
ATOM      7  C   UNL     1     -45.056 -28.457  -5.933  1.00  0.00     0.006 C 
BRANCH   7   8
ATOM      8  C   UNL     1     -44.470 -27.322  -6.782  1.00  0.00     0.053 C 
BRANCH   8   9
ATOM      9  C   UNL     1     -43.468 -27.827  -7.774  1.00  0.00     0.041 C 
ATOM     10  O   UNL     1     -43.753 -27.862  -9.000  1.00  0.00    -0.550 OA
ATOM     11  O   UNL     1     -42.232 -28.291  -7.342  1.00  0.00    -0.550 OA
ENDBRANCH   8   9
ENDBRANCH   7   8
ENDBRANCH   6   7
ENDBRANCH   5   6
ENDBRANCH   4   5
ENDBRANCH   3   4
ENDBRANCH   2   3
ENDBRANCH   1   2
BRANCH   1  12
ATOM     12  C   UNL     1     -43.739 -27.267   0.014  1.00  0.00     0.000 C 
BRANCH  12  13
ATOM     13  C   UNL     1     -45.172 -27.155   0.559  1.00  0.00    -0.000 C 
BRANCH  13  14
ATOM     14  C   UNL     1     -45.350 -25.959   1.511  1.00  0.00    -0.000 C 
BRANCH  14  15
ATOM     15  C   UNL     1     -46.493 -26.178   2.521  1.00  0.00    -0.000 C 
BRANCH  15  16
ATOM     16  C   UNL     1     -46.386 -27.495   3.312  1.00  0.00    -0.000 C 
BRANCH  16  17
ATOM     17  C   UNL     1     -46.915 -27.361   4.750  1.00  0.00    -0.000 C 
BRANCH  17  18
ATOM     18  C   UNL     1     -45.907 -26.688   5.699  1.00  0.00    -0.000 C 
BRANCH  18  19
ATOM     19  C   UNL     1     -45.518 -27.524   6.931  1.00  0.00    -0.003 C 
ATOM     20  C   UNL     1     -45.086 -28.945   6.578  1.00  0.00     0.004 C 
ENDBRANCH  18  19
ENDBRANCH  17  18
ENDBRANCH  16  17
ENDBRANCH  15  16
ENDBRANCH  14  15
ENDBRANCH  13  14
ENDBRANCH  12  13
ENDBRANCH   1  12
TORSDOF 16
ENDMDL
MODEL 2
REMARK VINA RESULT:    -4.030      0.912      1.231
REMARK INTER + INTRA:          -8.916
REMARK INTER:                  -7.995
REMARK INTRA:                  -0.921
REMARK UNBOUND:                -1.116
REMARK SMILES CCCCCCCCCCCCCCCCCC(=O)[O-]
REMARK SMILES IDX 10 1 11 2 12 3 13 4 14 5 15 6 16 7 17 8 18 9 19 10 20 11
REMARK SMILES IDX 9 12 8 13 7 14 6 15 5 16 4 17 3 18 2 19 1 20
REMARK H PARENT
REMARK Flexibility Score: inf
ROOT
ATOM      1  C   UNL     1     -43.837 -28.386  -0.658  1.00  0.00     0.000 C 
ENDROOT
BRANCH   1   2
ATOM      2  C   UNL     1     -45.156 -28.952  -1.204  1.00  0.00     0.000 C 
BRANCH   2   3
ATOM      3  C   UNL     1     -45.547 -28.356  -2.569  1.00  0.00     0.000 C 
BRANCH   3   4
ATOM      4  C   UNL     1     -46.012 -29.382  -3.619  1.00  0.00     0.000 C 
BRANCH   4   5
ATOM      5  C   UNL     1     -46.227 -28.762  -5.008  1.00  0.00     0.000 C 
BRANCH   5   6
ATOM      6  C   UNL     1     -45.491 -27.424  -5.133  1.00  0.00     0.000 C 
BRANCH   6   7
ATOM      7  C   UNL     1     -44.771 -27.315  -6.485  1.00  0.00     0.006 C 
BRANCH   7   8
ATOM      8  C   UNL     1     -44.113 -28.638  -6.901  1.00  0.00     0.053 C 
BRANCH   8   9
ATOM      9  C   UNL     1     -43.164 -28.453  -8.044  1.00  0.00     0.041 C 
ATOM     10  O   UNL     1     -43.600 -28.152  -9.187  1.00  0.00    -0.550 OA
ATOM     11  O   UNL     1     -41.801 -28.643  -7.857  1.00  0.00    -0.550 OA
ENDBRANCH   8   9
ENDBRANCH   7   8
ENDBRANCH   6   7
ENDBRANCH   5   6
ENDBRANCH   4   5
ENDBRANCH   3   4
ENDBRANCH   2   3
ENDBRANCH   1   2
BRANCH   1  12
ATOM     12  C   UNL     1     -44.092 -27.162   0.236  1.00  0.00     0.000 C 
BRANCH  12  13
ATOM     13  C   UNL     1     -45.533 -27.109   0.770  1.00  0.00    -0.000 C 
BRANCH  13  14
ATOM     14  C   UNL     1     -45.741 -25.982   1.799  1.00  0.00    -0.000 C 
BRANCH  14  15
ATOM     15  C   UNL     1     -46.649 -26.413   2.966  1.00  0.00    -0.000 C 
BRANCH  15  16
ATOM     16  C   UNL     1     -46.483 -27.888   3.378  1.00  0.00    -0.000 C 
BRANCH  16  17
ATOM     17  C   UNL     1     -45.982 -28.041   4.824  1.00  0.00    -0.000 C 
BRANCH  17  18
ATOM     18  C   UNL     1     -45.941 -26.705   5.589  1.00  0.00    -0.000 C 
BRANCH  18  19
ATOM     19  C   UNL     1     -45.593 -26.824   7.083  1.00  0.00    -0.003 C 
ATOM     20  C   UNL     1     -46.636 -26.179   7.993  1.00  0.00     0.004 C 
ENDBRANCH  18  19
ENDBRANCH  17  18
ENDBRANCH  16  17
ENDBRANCH  15  16
ENDBRANCH  14  15
ENDBRANCH  13  14
ENDBRANCH  12  13
ENDBRANCH   1  12
TORSDOF 16
ENDMDL
MODEL 3
REMARK VINA RESULT:    -3.862      1.075      1.775
REMARK INTER + INTRA:          -8.591
REMARK INTER:                  -7.691
REMARK INTRA:                  -0.900
REMARK UNBOUND:                -1.116
REMARK SMILES CCCCCCCCCCCCCCCCCC(=O)[O-]
REMARK SMILES IDX 10 1 11 2 12 3 13 4 14 5 15 6 16 7 17 8 18 9 19 10 20 11
REMARK SMILES IDX 9 12 8 13 7 14 6 15 5 16 4 17 3 18 2 19 1 20
REMARK H PARENT
REMARK Flexibility Score: inf
ROOT
ATOM      1  C   UNL     1     -44.529 -28.925  -1.067  1.00  0.00     0.000 C 
ENDROOT
BRANCH   1   2
ATOM      2  C   UNL     1     -44.910 -27.825  -2.069  1.00  0.00     0.000 C 
BRANCH   2   3
ATOM      3  C   UNL     1     -45.642 -28.369  -3.310  1.00  0.00     0.000 C 
BRANCH   3   4
ATOM      4  C   UNL     1     -45.417 -27.566  -4.604  1.00  0.00     0.000 C 
BRANCH   4   5
ATOM      5  C   UNL     1     -45.837 -28.333  -5.867  1.00  0.00     0.000 C 
BRANCH   5   6
ATOM      6  C   UNL     1     -46.048 -27.377  -7.046  1.00  0.00     0.000 C 
BRANCH   6   7
ATOM      7  C   UNL     1     -45.264 -27.843  -8.281  1.00  0.00     0.006 C 
BRANCH   7   8
ATOM      8  C   UNL     1     -43.800 -27.385  -8.246  1.00  0.00     0.053 C 
BRANCH   8   9
ATOM      9  C   UNL     1     -42.853 -28.545  -8.264  1.00  0.00     0.041 C 
ATOM     10  O   UNL     1     -41.869 -28.572  -7.477  1.00  0.00    -0.550 OA
ATOM     11  O   UNL     1     -43.036 -29.582  -9.170  1.00  0.00    -0.550 OA
ENDBRANCH   8   9
ENDBRANCH   7   8
ENDBRANCH   6   7
ENDBRANCH   5   6
ENDBRANCH   4   5
ENDBRANCH   3   4
ENDBRANCH   2   3
ENDBRANCH   1   2
BRANCH   1  12
ATOM     12  C   UNL     1     -44.514 -28.378   0.369  1.00  0.00     0.000 C 
BRANCH  12  13
ATOM     13  C   UNL     1     -44.380 -26.847   0.419  1.00  0.00    -0.000 C 
BRANCH  13  14
ATOM     14  C   UNL     1     -45.129 -26.226   1.611  1.00  0.00    -0.000 C 
BRANCH  14  15
ATOM     15  C   UNL     1     -46.510 -26.870   1.837  1.00  0.00    -0.000 C 
BRANCH  15  16
ATOM     16  C   UNL     1     -46.657 -27.577   3.197  1.00  0.00    -0.000 C 
BRANCH  16  17
ATOM     17  C   UNL     1     -46.260 -26.673   4.376  1.00  0.00    -0.000 C 
BRANCH  17  18
ATOM     18  C   UNL     1     -45.914 -27.466   5.650  1.00  0.00    -0.000 C 
BRANCH  18  19
ATOM     19  C   UNL     1     -45.647 -28.965   5.428  1.00  0.00    -0.003 C 
ATOM     20  C   UNL     1     -44.949 -29.630   6.612  1.00  0.00     0.004 C 
ENDBRANCH  18  19
ENDBRANCH  17  18
ENDBRANCH  16  17
ENDBRANCH  15  16
ENDBRANCH  14  15
ENDBRANCH  13  14
ENDBRANCH  12  13
ENDBRANCH   1  12
TORSDOF 16
ENDMDL
MODEL 4
REMARK VINA RESULT:    -3.852      1.150      1.983
REMARK INTER + INTRA:          -8.571
REMARK INTER:                  -7.252
REMARK INTRA:                  -1.320
REMARK UNBOUND:                -1.116
REMARK SMILES CCCCCCCCCCCCCCCCCC(=O)[O-]
REMARK SMILES IDX 10 1 11 2 12 3 13 4 14 5 15 6 16 7 17 8 18 9 19 10 20 11
REMARK SMILES IDX 9 12 8 13 7 14 6 15 5 16 4 17 3 18 2 19 1 20
REMARK H PARENT
REMARK Flexibility Score: inf
ROOT
ATOM      1  C   UNL     1     -43.968 -27.147   0.121  1.00  0.00     0.000 C 
ENDROOT
BRANCH   1   2
ATOM      2  C   UNL     1     -43.634 -28.557  -0.389  1.00  0.00     0.000 C 
BRANCH   2   3
ATOM      3  C   UNL     1     -44.886 -29.384  -0.733  1.00  0.00     0.000 C 
BRANCH   3   4
ATOM      4  C   UNL     1     -45.274 -29.390  -2.223  1.00  0.00     0.000 C 
BRANCH   4   5
ATOM      5  C   UNL     1     -46.566 -28.610  -2.510  1.00  0.00     0.000 C 
BRANCH   5   6
ATOM      6  C   UNL     1     -46.892 -28.619  -4.008  1.00  0.00     0.000 C 
BRANCH   6   7
ATOM      7  C   UNL     1     -45.858 -27.809  -4.802  1.00  0.00     0.006 C 
BRANCH   7   8
ATOM      8  C   UNL     1     -46.386 -27.383  -6.178  1.00  0.00     0.053 C 
BRANCH   8   9
ATOM      9  C   UNL     1     -45.377 -27.619  -7.259  1.00  0.00     0.041 C 
ATOM     10  O   UNL     1     -44.168 -27.319  -7.073  1.00  0.00    -0.550 OA
ATOM     11  O   UNL     1     -45.776 -28.140  -8.484  1.00  0.00    -0.550 OA
ENDBRANCH   8   9
ENDBRANCH   7   8
ENDBRANCH   6   7
ENDBRANCH   5   6
ENDBRANCH   4   5
ENDBRANCH   3   4
ENDBRANCH   2   3
ENDBRANCH   1   2
BRANCH   1  12
ATOM     12  C   UNL     1     -45.401 -27.088   0.673  1.00  0.00     0.000 C 
BRANCH  12  13
ATOM     13  C   UNL     1     -45.538 -26.125   1.864  1.00  0.00    -0.000 C 
BRANCH  13  14
ATOM     14  C   UNL     1     -46.306 -26.748   3.043  1.00  0.00    -0.000 C 
BRANCH  14  15
ATOM     15  C   UNL     1     -46.366 -28.285   2.959  1.00  0.00    -0.000 C 
BRANCH  15  16
ATOM     16  C   UNL     1     -46.738 -28.972   4.286  1.00  0.00    -0.000 C 
BRANCH  16  17
ATOM     17  C   UNL     1     -45.530 -29.647   4.956  1.00  0.00    -0.000 C 
BRANCH  17  18
ATOM     18  C   UNL     1     -45.123 -28.972   6.279  1.00  0.00    -0.000 C 
BRANCH  18  19
ATOM     19  C   UNL     1     -46.090 -27.881   6.774  1.00  0.00    -0.003 C 
ATOM     20  C   UNL     1     -45.488 -26.479   6.717  1.00  0.00     0.004 C 
ENDBRANCH  18  19
ENDBRANCH  17  18
ENDBRANCH  16  17
ENDBRANCH  15  16
ENDBRANCH  14  15
ENDBRANCH  13  14
ENDBRANCH  12  13
ENDBRANCH   1  12
TORSDOF 16
ENDMDL
MODEL 5
REMARK VINA RESULT:    -3.820      4.819      9.539
REMARK INTER + INTRA:          -8.509
REMARK INTER:                  -6.699
REMARK INTRA:                  -1.810
REMARK UNBOUND:                -1.116
REMARK SMILES CCCCCCCCCCCCCCCCCC(=O)[O-]
REMARK SMILES IDX 10 1 11 2 12 3 13 4 14 5 15 6 16 7 17 8 18 9 19 10 20 11
REMARK SMILES IDX 9 12 8 13 7 14 6 15 5 16 4 17 3 18 2 19 1 20
REMARK H PARENT
REMARK Flexibility Score: inf
ROOT
ATOM      1  C   UNL     1     -43.190 -28.407  -0.307  1.00  0.00     0.000 C 
ENDROOT
BRANCH   1   2
ATOM      2  C   UNL     1     -43.956 -27.076  -0.331  1.00  0.00     0.000 C 
BRANCH   2   3
ATOM      3  C   UNL     1     -44.748 -26.814   0.963  1.00  0.00     0.000 C 
BRANCH   3   4
ATOM      4  C   UNL     1     -46.272 -26.690   0.781  1.00  0.00     0.000 C 
BRANCH   4   5
ATOM      5  C   UNL     1     -47.066 -27.562   1.766  1.00  0.00     0.000 C 
BRANCH   5   6
ATOM      6  C   UNL     1     -46.126 -28.343   2.690  1.00  0.00     0.000 C 
BRANCH   6   7
ATOM      7  C   UNL     1     -46.575 -28.233   4.154  1.00  0.00     0.006 C 
BRANCH   7   8
ATOM      8  C   UNL     1     -46.161 -26.900   4.791  1.00  0.00     0.053 C 
BRANCH   8   9
ATOM      9  C   UNL     1     -45.629 -27.086   6.178  1.00  0.00     0.041 C 
ATOM     10  O   UNL     1     -45.543 -26.103   6.960  1.00  0.00    -0.550 OA
ATOM     11  O   UNL     1     -45.197 -28.338   6.597  1.00  0.00    -0.550 OA
ENDBRANCH   8   9
ENDBRANCH   7   8
ENDBRANCH   6   7
ENDBRANCH   5   6
ENDBRANCH   4   5
ENDBRANCH   3   4
ENDBRANCH   2   3
ENDBRANCH   1   2
BRANCH   1  12
ATOM     12  C   UNL     1     -44.154 -29.592  -0.136  1.00  0.00     0.000 C 
BRANCH  12  13
ATOM     13  C   UNL     1     -44.812 -30.016  -1.460  1.00  0.00    -0.000 C 
BRANCH  13  14
ATOM     14  C   UNL     1     -46.295 -29.610  -1.540  1.00  0.00    -0.000 C 
BRANCH  14  15
ATOM     15  C   UNL     1     -46.555 -28.553  -2.630  1.00  0.00    -0.000 C 
BRANCH  15  16
ATOM     16  C   UNL     1     -45.663 -28.703  -3.876  1.00  0.00    -0.000 C 
BRANCH  16  17
ATOM     17  C   UNL     1     -45.786 -27.506  -4.834  1.00  0.00    -0.000 C 
BRANCH  17  18
ATOM     18  C   UNL     1     -45.577 -27.896  -6.309  1.00  0.00    -0.000 C 
BRANCH  18  19
ATOM     19  C   UNL     1     -44.292 -27.342  -6.950  1.00  0.00    -0.003 C 
ATOM     20  C   UNL     1     -43.929 -28.038  -8.260  1.00  0.00     0.004 C 
ENDBRANCH  18  19
ENDBRANCH  17  18
ENDBRANCH  16  17
ENDBRANCH  15  16
ENDBRANCH  14  15
ENDBRANCH  13  14
ENDBRANCH  12  13
ENDBRANCH   1  12
TORSDOF 16
ENDMDL
MODEL 6
REMARK VINA RESULT:    -3.769      4.836     10.269
REMARK INTER + INTRA:          -8.410
REMARK INTER:                  -7.602
REMARK INTRA:                  -0.808
REMARK UNBOUND:                -1.116
REMARK SMILES CCCCCCCCCCCCCCCCCC(=O)[O-]
REMARK SMILES IDX 10 1 11 2 12 3 13 4 14 5 15 6 16 7 17 8 18 9 19 10 20 11
REMARK SMILES IDX 9 12 8 13 7 14 6 15 5 16 4 17 3 18 2 19 1 20
REMARK H PARENT
REMARK Flexibility Score: inf
ROOT
ATOM      1  C   UNL     1     -44.624 -28.751  -1.119  1.00  0.00     0.000 C 
ENDROOT
BRANCH   1   2
ATOM      2  C   UNL     1     -43.543 -27.906  -0.429  1.00  0.00     0.000 C 
BRANCH   2   3
ATOM      3  C   UNL     1     -44.126 -26.778   0.443  1.00  0.00     0.000 C 
BRANCH   3   4
ATOM      4  C   UNL     1     -45.464 -27.111   1.129  1.00  0.00     0.000 C 
BRANCH   4   5
ATOM      5  C   UNL     1     -46.077 -25.908   1.861  1.00  0.00     0.000 C 
BRANCH   5   6
ATOM      6  C   UNL     1     -46.889 -26.362   3.079  1.00  0.00     0.000 C 
BRANCH   6   7
ATOM      7  C   UNL     1     -46.234 -27.574   3.757  1.00  0.00     0.006 C 
BRANCH   7   8
ATOM      8  C   UNL     1     -46.732 -27.776   5.194  1.00  0.00     0.053 C 
BRANCH   8   9
ATOM      9  C   UNL     1     -45.649 -27.534   6.199  1.00  0.00     0.041 C 
ATOM     10  O   UNL     1     -45.038 -28.505   6.718  1.00  0.00    -0.550 OA
ATOM     11  O   UNL     1     -45.334 -26.238   6.587  1.00  0.00    -0.550 OA
ENDBRANCH   8   9
ENDBRANCH   7   8
ENDBRANCH   6   7
ENDBRANCH   5   6
ENDBRANCH   4   5
ENDBRANCH   3   4
ENDBRANCH   2   3
ENDBRANCH   1   2
BRANCH   1  12
ATOM     12  C   UNL     1     -45.220 -28.004  -2.322  1.00  0.00     0.000 C 
BRANCH  12  13
ATOM     13  C   UNL     1     -46.544 -28.619  -2.804  1.00  0.00    -0.000 C 
BRANCH  13  14
ATOM     14  C   UNL     1     -46.787 -28.396  -4.308  1.00  0.00    -0.000 C 
BRANCH  14  15
ATOM     15  C   UNL     1     -45.624 -27.648  -4.986  1.00  0.00    -0.000 C 
BRANCH  15  16
ATOM     16  C   UNL     1     -45.070 -28.352  -6.238  1.00  0.00    -0.000 C 
BRANCH  16  17
ATOM     17  C   UNL     1     -44.351 -27.380  -7.189  1.00  0.00    -0.000 C 
BRANCH  17  18
ATOM     18  C   UNL     1     -43.653 -28.095  -8.361  1.00  0.00    -0.000 C 
BRANCH  18  19
ATOM     19  C   UNL     1     -42.253 -28.649  -8.042  1.00  0.00    -0.003 C 
ATOM     20  C   UNL     1     -41.759 -29.657  -9.078  1.00  0.00     0.004 C 
ENDBRANCH  18  19
ENDBRANCH  17  18
ENDBRANCH  16  17
ENDBRANCH  15  16
ENDBRANCH  14  15
ENDBRANCH  13  14
ENDBRANCH  12  13
ENDBRANCH   1  12
TORSDOF 16
ENDMDL
MODEL 7
REMARK VINA RESULT:    -3.723      4.962     10.441
REMARK INTER + INTRA:          -8.321
REMARK INTER:                  -7.450
REMARK INTRA:                  -0.872
REMARK UNBOUND:                -1.116
REMARK SMILES CCCCCCCCCCCCCCCCCC(=O)[O-]
REMARK SMILES IDX 10 1 11 2 12 3 13 4 14 5 15 6 16 7 17 8 18 9 19 10 20 11
REMARK SMILES IDX 9 12 8 13 7 14 6 15 5 16 4 17 3 18 2 19 1 20
REMARK H PARENT
REMARK Flexibility Score: inf
ROOT
ATOM      1  C   UNL     1     -44.234 -27.106   0.362  1.00  0.00     0.000 C 
ENDROOT
BRANCH   1   2
ATOM      2  C   UNL     1     -45.682 -27.132   0.876  1.00  0.00     0.000 C 
BRANCH   2   3
ATOM      3  C   UNL     1     -45.865 -26.363   2.196  1.00  0.00     0.000 C 
BRANCH   3   4
ATOM      4  C   UNL     1     -46.492 -27.176   3.344  1.00  0.00     0.000 C 
BRANCH   4   5
ATOM      5  C   UNL     1     -46.392 -28.694   3.127  1.00  0.00     0.000 C 
BRANCH   5   6
ATOM      6  C   UNL     1     -45.732 -29.379   4.329  1.00  0.00     0.000 C 
BRANCH   6   7
ATOM      7  C   UNL     1     -46.392 -28.939   5.644  1.00  0.00     0.006 C 
BRANCH   7   8
ATOM      8  C   UNL     1     -45.367 -28.437   6.668  1.00  0.00     0.053 C 
BRANCH   8   9
ATOM      9  C   UNL     1     -45.701 -27.064   7.164  1.00  0.00     0.041 C 
ATOM     10  O   UNL     1     -45.147 -26.055   6.654  1.00  0.00    -0.550 OA
ATOM     11  O   UNL     1     -46.600 -26.900   8.210  1.00  0.00    -0.550 OA
ENDBRANCH   8   9
ENDBRANCH   7   8
ENDBRANCH   6   7
ENDBRANCH   5   6
ENDBRANCH   4   5
ENDBRANCH   3   4
ENDBRANCH   2   3
ENDBRANCH   1   2
BRANCH   1  12
ATOM     12  C   UNL     1     -44.156 -27.618  -1.085  1.00  0.00     0.000 C 
BRANCH  12  13
ATOM     13  C   UNL     1     -45.219 -28.685  -1.394  1.00  0.00    -0.000 C 
BRANCH  13  14
ATOM     14  C   UNL     1     -46.180 -28.256  -2.517  1.00  0.00    -0.000 C 
BRANCH  14  15
ATOM     15  C   UNL     1     -45.709 -28.728  -3.905  1.00  0.00    -0.000 C 
BRANCH  15  16
ATOM     16  C   UNL     1     -45.550 -27.592  -4.933  1.00  0.00    -0.000 C 
BRANCH  16  17
ATOM     17  C   UNL     1     -45.277 -28.118  -6.353  1.00  0.00    -0.000 C 
BRANCH  17  18
ATOM     18  C   UNL     1     -44.174 -27.330  -7.082  1.00  0.00    -0.000 C 
BRANCH  18  19
ATOM     19  C   UNL     1     -43.661 -27.981  -8.379  1.00  0.00    -0.003 C 
ATOM     20  C   UNL     1     -42.440 -28.871  -8.159  1.00  0.00     0.004 C 
ENDBRANCH  18  19
ENDBRANCH  17  18
ENDBRANCH  16  17
ENDBRANCH  15  16
ENDBRANCH  14  15
ENDBRANCH  13  14
ENDBRANCH  12  13
ENDBRANCH   1  12
TORSDOF 16
ENDMDL
MODEL 8
REMARK VINA RESULT:    -3.425      2.052      3.357
REMARK INTER + INTRA:          -7.745
REMARK INTER:                  -5.990
REMARK INTRA:                  -1.755
REMARK UNBOUND:                -1.116
REMARK SMILES CCCCCCCCCCCCCCCCCC(=O)[O-]
REMARK SMILES IDX 10 1 11 2 12 3 13 4 14 5 15 6 16 7 17 8 18 9 19 10 20 11
REMARK SMILES IDX 9 12 8 13 7 14 6 15 5 16 4 17 3 18 2 19 1 20
REMARK H PARENT
REMARK Flexibility Score: inf
ROOT
ATOM      1  C   UNL     1     -45.671 -28.184  -1.924  1.00  0.00     0.000 C 
ENDROOT
BRANCH   1   2
ATOM      2  C   UNL     1     -45.549 -29.044  -3.191  1.00  0.00     0.000 C 
BRANCH   2   3
ATOM      3  C   UNL     1     -46.222 -28.404  -4.419  1.00  0.00     0.000 C 
BRANCH   3   4
ATOM      4  C   UNL     1     -45.382 -27.332  -5.138  1.00  0.00     0.000 C 
BRANCH   4   5
ATOM      5  C   UNL     1     -45.499 -27.405  -6.668  1.00  0.00     0.000 C 
BRANCH   5   6
ATOM      6  C   UNL     1     -46.069 -28.757  -7.112  1.00  0.00     0.000 C 
BRANCH   6   7
ATOM      7  C   UNL     1     -45.084 -29.494  -8.031  1.00  0.00     0.006 C 
BRANCH   7   8
ATOM      8  C   UNL     1     -43.733 -29.748  -7.349  1.00  0.00     0.053 C 
BRANCH   8   9
ATOM      9  C   UNL     1     -42.597 -29.159  -8.127  1.00  0.00     0.041 C 
ATOM     10  O   UNL     1     -41.746 -28.430  -7.551  1.00  0.00    -0.550 OA
ATOM     11  O   UNL     1     -42.495 -29.387  -9.493  1.00  0.00    -0.550 OA
ENDBRANCH   8   9
ENDBRANCH   7   8
ENDBRANCH   6   7
ENDBRANCH   5   6
ENDBRANCH   4   5
ENDBRANCH   3   4
ENDBRANCH   2   3
ENDBRANCH   1   2
BRANCH   1  12
ATOM     12  C   UNL     1     -44.299 -27.636  -1.499  1.00  0.00     0.000 C 
BRANCH  12  13
ATOM     13  C   UNL     1     -43.610 -28.518  -0.445  1.00  0.00    -0.000 C 
BRANCH  13  14
ATOM     14  C   UNL     1     -44.388 -29.814  -0.157  1.00  0.00    -0.000 C 
BRANCH  14  15
ATOM     15  C   UNL     1     -44.822 -29.923   1.317  1.00  0.00    -0.000 C 
BRANCH  15  16
ATOM     16  C   UNL     1     -46.337 -30.121   1.511  1.00  0.00    -0.000 C 
BRANCH  16  17
ATOM     17  C   UNL     1     -47.123 -28.805   1.381  1.00  0.00    -0.000 C 
BRANCH  17  18
ATOM     18  C   UNL     1     -46.645 -27.721   2.364  1.00  0.00    -0.000 C 
BRANCH  18  19
ATOM     19  C   UNL     1     -46.499 -26.314   1.757  1.00  0.00    -0.003 C 
ATOM     20  C   UNL     1     -45.045 -25.864   1.634  1.00  0.00     0.004 C 
ENDBRANCH  18  19
ENDBRANCH  17  18
ENDBRANCH  16  17
ENDBRANCH  15  16
ENDBRANCH  14  15
ENDBRANCH  13  14
ENDBRANCH  12  13
ENDBRANCH   1  12
TORSDOF 16
ENDMDL
MODEL 9
REMARK VINA RESULT:    -3.127      1.592      2.525
REMARK INTER + INTRA:          -7.168
REMARK INTER:                  -5.864
REMARK INTRA:                  -1.304
REMARK UNBOUND:                -1.116
REMARK SMILES CCCCCCCCCCCCCCCCCC(=O)[O-]
REMARK SMILES IDX 10 1 11 2 12 3 13 4 14 5 15 6 16 7 17 8 18 9 19 10 20 11
REMARK SMILES IDX 9 12 8 13 7 14 6 15 5 16 4 17 3 18 2 19 1 20
REMARK H PARENT
REMARK Flexibility Score: inf
ROOT
ATOM      1  C   UNL     1     -44.618 -29.600   1.163  1.00  0.00     0.000 C 
ENDROOT
BRANCH   1   2
ATOM      2  C   UNL     1     -43.617 -30.062   0.093  1.00  0.00     0.000 C 
BRANCH   2   3
ATOM      3  C   UNL     1     -42.716 -28.923  -0.419  1.00  0.00     0.000 C 
BRANCH   3   4
ATOM      4  C   UNL     1     -43.375 -27.531  -0.443  1.00  0.00     0.000 C 
BRANCH   4   5
ATOM      5  C   UNL     1     -44.009 -27.191  -1.801  1.00  0.00     0.000 C 
BRANCH   5   6
ATOM      6  C   UNL     1     -45.357 -27.901  -1.971  1.00  0.00     0.000 C 
BRANCH   6   7
ATOM      7  C   UNL     1     -45.521 -28.435  -3.402  1.00  0.00     0.006 C 
BRANCH   7   8
ATOM      8  C   UNL     1     -45.423 -27.322  -4.452  1.00  0.00     0.053 C 
BRANCH   8   9
ATOM      9  C   UNL     1     -45.572 -27.854  -5.844  1.00  0.00     0.041 C 
ATOM     10  O   UNL     1     -46.701 -28.224  -6.263  1.00  0.00    -0.550 OA
ATOM     11  O   UNL     1     -44.460 -27.973  -6.668  1.00  0.00    -0.550 OA
ENDBRANCH   8   9
ENDBRANCH   7   8
ENDBRANCH   6   7
ENDBRANCH   5   6
ENDBRANCH   4   5
ENDBRANCH   3   4
ENDBRANCH   2   3
ENDBRANCH   1   2
BRANCH   1  12
ATOM     12  C   UNL     1     -46.035 -30.099   0.840  1.00  0.00     0.000 C 
BRANCH  12  13
ATOM     13  C   UNL     1     -47.125 -29.312   1.587  1.00  0.00    -0.000 C 
BRANCH  13  14
ATOM     14  C   UNL     1     -46.624 -27.952   2.104  1.00  0.00    -0.000 C 
BRANCH  14  15
ATOM     15  C   UNL     1     -47.011 -27.703   3.574  1.00  0.00    -0.000 C 
BRANCH  15  16
ATOM     16  C   UNL     1     -45.991 -26.857   4.357  1.00  0.00    -0.000 C 
BRANCH  16  17
ATOM     17  C   UNL     1     -46.494 -26.481   5.761  1.00  0.00    -0.000 C 
BRANCH  17  18
ATOM     18  C   UNL     1     -45.799 -27.277   6.880  1.00  0.00    -0.000 C 
BRANCH  18  19
ATOM     19  C   UNL     1     -45.107 -28.572   6.421  1.00  0.00    -0.003 C 
ATOM     20  C   UNL     1     -45.486 -29.786   7.267  1.00  0.00     0.004 C 
ENDBRANCH  18  19
ENDBRANCH  17  18
ENDBRANCH  16  17
ENDBRANCH  15  16
ENDBRANCH  14  15
ENDBRANCH  13  14
ENDBRANCH  12  13
ENDBRANCH   1  12
TORSDOF 16
ENDMDL
