MODEL 1
REMARK VINA RESULT:    -2.100      0.000      0.000
REMARK INTER + INTRA:          -2.100
REMARK INTER:                  -2.100
REMARK INTRA:                   0.000
REMARK UNBOUND:                 0.000
REMARK SMILES CC(=O)[O-]
REMARK SMILES IDX 1 1 2 2 3 3 4 4
REMARK H PARENT
REMARK Flexibility Score: inf
ROOT
ATOM      1  C   UNL     1      15.377 -10.125   9.756  1.00  0.00     0.063 C 
ATOM      2  C   UNL     1      16.448  -9.490  10.577  1.00  0.00     0.038 C 
ATOM      3  O   UNL     1      16.144  -8.767  11.562  1.00  0.00    -0.550 OA
ATOM      4  O   UNL     1      17.785  -9.737  10.290  1.00  0.00    -0.550 OA
ENDROOT
TORSDOF 0
ENDMDL
MODEL 2
REMARK VINA RESULT:    -2.099      0.118      1.621
REMARK INTER + INTRA:          -2.099
REMARK INTER:                  -2.099
REMARK INTRA:                   0.000
REMARK UNBOUND:                 0.000
REMARK SMILES CC(=O)[O-]
REMARK SMILES IDX 1 1 2 2 3 3 4 4
REMARK H PARENT
REMARK Flexibility Score: inf
ROOT
ATOM      1  C   UNL     1      15.461 -10.125   9.742  1.00  0.00     0.063 C 
ATOM      2  C   UNL     1      16.568  -9.534  10.546  1.00  0.00     0.038 C 
ATOM      3  O   UNL     1      17.766  -9.747  10.225  1.00  0.00    -0.550 OA
ATOM      4  O   UNL     1      16.281  -8.702  11.621  1.00  0.00    -0.550 OA
ENDROOT
TORSDOF 0
ENDMDL
MODEL 3
REMARK VINA RESULT:    -1.893     25.093     25.431
REMARK INTER + INTRA:          -1.893
REMARK INTER:                  -1.893
REMARK INTRA:                   0.000
REMARK UNBOUND:                 0.000
REMARK SMILES CC(=O)[O-]
REMARK SMILES IDX 1 1 2 2 3 3 4 4
REMARK H PARENT
REMARK Flexibility Score: inf
ROOT
ATOM      1  C   UNL     1       1.909   6.482  21.706  1.00  0.00     0.063 C 
ATOM      2  C   UNL     1       1.005   7.577  21.253  1.00  0.00     0.038 C 
ATOM      3  O   UNL     1       1.364   8.779  21.366  1.00  0.00    -0.550 OA
ATOM      4  O   UNL     1      -0.212   7.275  20.657  1.00  0.00    -0.550 OA
ENDROOT
TORSDOF 0
ENDMDL
MODEL 4
REMARK VINA RESULT:    -1.890     25.087     25.429
REMARK INTER + INTRA:          -1.890
REMARK INTER:                  -1.890
REMARK INTRA:                   0.000
REMARK UNBOUND:                 0.000
REMARK SMILES CC(=O)[O-]
REMARK SMILES IDX 1 1 2 2 3 3 4 4
REMARK H PARENT
REMARK Flexibility Score: inf
ROOT
ATOM      1  C   UNL     1       1.903   6.439  21.730  1.00  0.00     0.063 C 
ATOM      2  C   UNL     1       1.005   7.535  21.263  1.00  0.00     0.038 C 
ATOM      3  O   UNL     1      -0.137   7.265  20.808  1.00  0.00    -0.550 OA
ATOM      4  O   UNL     1       1.405   8.860  21.380  1.00  0.00    -0.550 OA
ENDROOT
TORSDOF 0
ENDMDL
MODEL 5
REMARK VINA RESULT:    -1.823      1.876      2.546
REMARK INTER + INTRA:          -1.823
REMARK INTER:                  -1.823
REMARK INTRA:                   0.000
REMARK UNBOUND:                 0.000
REMARK SMILES CC(=O)[O-]
REMARK SMILES IDX 1 1 2 2 3 3 4 4
REMARK H PARENT
REMARK Flexibility Score: inf
ROOT
ATOM      1  C   UNL     1      17.977  -8.637  11.636  1.00  0.00     0.063 C 
ATOM      2  C   UNL     1      16.537  -8.987  11.795  1.00  0.00     0.038 C 
ATOM      3  O   UNL     1      15.785  -9.041  10.787  1.00  0.00    -0.550 OA
ATOM      4  O   UNL     1      16.032  -9.307  13.049  1.00  0.00    -0.550 OA
ENDROOT
TORSDOF 0
ENDMDL
MODEL 6
REMARK VINA RESULT:    -1.807     25.744     26.360
REMARK INTER + INTRA:          -1.807
REMARK INTER:                  -1.807
REMARK INTRA:                   0.000
REMARK UNBOUND:                 0.000
REMARK SMILES CC(=O)[O-]
REMARK SMILES IDX 1 1 2 2 3 3 4 4
REMARK H PARENT
REMARK Flexibility Score: inf
ROOT
ATOM      1  C   UNL     1       0.711   7.148  21.461  1.00  0.00     0.063 C 
ATOM      2  C   UNL     1      -0.522   7.695  20.826  1.00  0.00     0.038 C 
ATOM      3  O   UNL     1      -1.053   7.095  19.856  1.00  0.00    -0.550 OA
ATOM      4  O   UNL     1      -1.119   8.841  21.337  1.00  0.00    -0.550 OA
ENDROOT
TORSDOF 0
ENDMDL
MODEL 7
REMARK VINA RESULT:    -1.798      1.816      2.270
REMARK INTER + INTRA:          -1.798
REMARK INTER:                  -1.798
REMARK INTRA:                   0.000
REMARK UNBOUND:                 0.000
REMARK SMILES CC(=O)[O-]
REMARK SMILES IDX 1 1 2 2 3 3 4 4
REMARK H PARENT
REMARK Flexibility Score: inf
ROOT
ATOM      1  C   UNL     1      16.069  -9.446  13.105  1.00  0.00     0.063 C 
ATOM      2  C   UNL     1      16.543  -8.992  11.766  1.00  0.00     0.038 C 
ATOM      3  O   UNL     1      17.658  -8.419  11.653  1.00  0.00    -0.550 OA
ATOM      4  O   UNL     1      15.782  -9.248  10.633  1.00  0.00    -0.550 OA
ENDROOT
TORSDOF 0
ENDMDL
MODEL 8
REMARK VINA RESULT:    -1.772      4.380      4.773
REMARK INTER + INTRA:          -1.772
REMARK INTER:                  -1.772
REMARK INTRA:                   0.000
REMARK UNBOUND:                 0.000
REMARK SMILES CC(=O)[O-]
REMARK SMILES IDX 1 1 2 2 3 3 4 4
REMARK H PARENT
REMARK Flexibility Score: inf
ROOT
ATOM      1  C   UNL     1      15.805  -9.445  13.779  1.00  0.00     0.063 C 
ATOM      2  C   UNL     1      16.026  -9.313  15.247  1.00  0.00     0.038 C 
ATOM      3  O   UNL     1      15.081  -9.525  16.051  1.00  0.00    -0.550 OA
ATOM      4  O   UNL     1      17.290  -9.007  15.737  1.00  0.00    -0.550 OA
ENDROOT
TORSDOF 0
ENDMDL
MODEL 9
REMARK VINA RESULT:    -1.650     25.632     26.158
REMARK INTER + INTRA:          -1.650
REMARK INTER:                  -1.650
REMARK INTRA:                   0.000
REMARK UNBOUND:                 0.000
REMARK SMILES CC(=O)[O-]
REMARK SMILES IDX 1 1 2 2 3 3 4 4
REMARK H PARENT
REMARK Flexibility Score: inf
ROOT
ATOM      1  C   UNL     1      -1.125   7.120  20.243  1.00  0.00     0.063 C 
ATOM      2  C   UNL     1      -0.088   7.858  21.019  1.00  0.00     0.038 C 
ATOM      3  O   UNL     1      -0.282   9.057  21.351  1.00  0.00    -0.550 OA
ATOM      4  O   UNL     1       1.071   7.210  21.425  1.00  0.00    -0.550 OA
ENDROOT
TORSDOF 0
ENDMDL
