MODEL 1
REMARK VINA RESULT:    -2.741      0.000      0.000
REMARK INTER + INTRA:          -3.066
REMARK INTER:                  -2.901
REMARK INTRA:                  -0.165
REMARK UNBOUND:                -0.165
REMARK SMILES CC1=CCC(C(C)C)=CC1
REMARK SMILES IDX 1 1 2 2 3 3 4 4 5 5 9 6 10 7 6 8 7 9 8 10
REMARK H PARENT
REMARK Flexibility Score: inf
ROOT
ATOM      1  C   UNL     1     -14.408  -0.927  23.488  1.00  0.00     0.039 C 
ATOM      2  C   UNL     1     -14.339  -1.619  22.155  1.00  0.00    -0.073 C 
ATOM      3  C   UNL     1     -13.320  -1.360  21.314  1.00  0.00    -0.023 C 
ATOM      4  C   UNL     1     -13.215  -2.076  19.991  1.00  0.00     0.058 C 
ATOM      5  C   UNL     1     -14.589  -2.386  19.420  1.00  0.00    -0.068 C 
ATOM      6  C   UNL     1     -15.608  -2.642  20.270  1.00  0.00    -0.023 C 
ATOM      7  C   UNL     1     -15.392  -2.634  21.764  1.00  0.00     0.057 C 
ENDROOT
BRANCH   5   8
ATOM      8  C   UNL     1     -14.831  -2.382  17.918  1.00  0.00     0.009 C 
ATOM      9  C   UNL     1     -13.514  -2.509  17.143  1.00  0.00     0.012 C 
ATOM     10  C   UNL     1     -15.600  -1.126  17.496  1.00  0.00     0.012 C 
ENDBRANCH   5   8
TORSDOF 1
ENDMDL
MODEL 2
REMARK VINA RESULT:    -2.494      3.059      4.412
REMARK INTER + INTRA:          -2.805
REMARK INTER:                  -2.647
REMARK INTRA:                  -0.158
REMARK UNBOUND:                -0.165
REMARK SMILES CC1=CCC(C(C)C)=CC1
REMARK SMILES IDX 1 1 2 2 3 3 4 4 5 5 9 6 10 7 6 8 7 9 8 10
REMARK H PARENT
REMARK Flexibility Score: inf
ROOT
ATOM      1  C   UNL     1     -16.861   0.955  17.323  1.00  0.00     0.039 C 
ATOM      2  C   UNL     1     -16.372  -0.464  17.221  1.00  0.00    -0.073 C 
ATOM      3  C   UNL     1     -15.496  -0.941  18.126  1.00  0.00    -0.023 C 
ATOM      4  C   UNL     1     -15.028  -2.373  18.061  1.00  0.00     0.058 C 
ATOM      5  C   UNL     1     -14.955  -2.865  16.625  1.00  0.00    -0.068 C 
ATOM      6  C   UNL     1     -15.834  -2.380  15.721  1.00  0.00    -0.023 C 
ATOM      7  C   UNL     1     -16.884  -1.374  16.125  1.00  0.00     0.057 C 
ENDROOT
BRANCH   5   8
ATOM      8  C   UNL     1     -13.893  -3.867  16.196  1.00  0.00     0.009 C 
ATOM      9  C   UNL     1     -12.727  -3.171  15.484  1.00  0.00     0.012 C 
ATOM     10  C   UNL     1     -14.504  -4.960  15.313  1.00  0.00     0.012 C 
ENDBRANCH   5   8
TORSDOF 1
ENDMDL
MODEL 3
REMARK VINA RESULT:    -2.408      0.673      1.281
REMARK INTER + INTRA:          -2.714
REMARK INTER:                  -2.574
REMARK INTRA:                  -0.140
REMARK UNBOUND:                -0.165
REMARK SMILES CC1=CCC(C(C)C)=CC1
REMARK SMILES IDX 1 1 2 2 3 3 4 4 5 5 9 6 10 7 6 8 7 9 8 10
REMARK H PARENT
REMARK Flexibility Score: inf
ROOT
ATOM      1  C   UNL     1     -14.103  -1.272  23.196  1.00  0.00     0.039 C 
ATOM      2  C   UNL     1     -14.174  -1.800  21.789  1.00  0.00    -0.073 C 
ATOM      3  C   UNL     1     -13.129  -1.635  20.955  1.00  0.00    -0.023 C 
ATOM      4  C   UNL     1     -13.169  -2.193  19.555  1.00  0.00     0.058 C 
ATOM      5  C   UNL     1     -14.580  -2.172  18.992  1.00  0.00    -0.068 C 
ATOM      6  C   UNL     1     -15.624  -2.334  19.834  1.00  0.00    -0.023 C 
ATOM      7  C   UNL     1     -15.401  -2.547  21.312  1.00  0.00     0.057 C 
ENDROOT
BRANCH   5   8
ATOM      8  C   UNL     1     -14.826  -1.942  17.508  1.00  0.00     0.009 C 
ATOM      9  C   UNL     1     -16.123  -1.158  17.273  1.00  0.00     0.012 C 
ATOM     10  C   UNL     1     -14.841  -3.273  16.749  1.00  0.00     0.012 C 
ENDBRANCH   5   8
TORSDOF 1
ENDMDL
MODEL 4
REMARK VINA RESULT:    -2.307      1.250      4.639
REMARK INTER + INTRA:          -2.608
REMARK INTER:                  -2.466
REMARK INTRA:                  -0.141
REMARK UNBOUND:                -0.165
REMARK SMILES CC1=CCC(C(C)C)=CC1
REMARK SMILES IDX 1 1 2 2 3 3 4 4 5 5 9 6 10 7 6 8 7 9 8 10
REMARK H PARENT
REMARK Flexibility Score: inf
ROOT
ATOM      1  C   UNL     1     -16.822  -2.121  15.269  1.00  0.00     0.039 C 
ATOM      2  C   UNL     1     -15.870  -1.955  16.422  1.00  0.00    -0.073 C 
ATOM      3  C   UNL     1     -14.840  -2.809  16.572  1.00  0.00    -0.023 C 
ATOM      4  C   UNL     1     -13.855  -2.633  17.700  1.00  0.00     0.058 C 
ATOM      5  C   UNL     1     -14.526  -2.053  18.934  1.00  0.00    -0.068 C 
ATOM      6  C   UNL     1     -15.561  -1.200  18.777  1.00  0.00    -0.023 C 
ATOM      7  C   UNL     1     -16.043  -0.812  17.400  1.00  0.00     0.057 C 
ENDROOT
BRANCH   5   8
ATOM      8  C   UNL     1     -14.065  -2.445  20.330  1.00  0.00     0.009 C 
ATOM      9  C   UNL     1     -15.249  -2.543  21.300  1.00  0.00     0.012 C 
ATOM     10  C   UNL     1     -13.009  -1.462  20.848  1.00  0.00     0.012 C 
ENDBRANCH   5   8
TORSDOF 1
ENDMDL
MODEL 5
REMARK VINA RESULT:    -1.689      2.622      5.567
REMARK INTER + INTRA:          -1.953
REMARK INTER:                  -1.785
REMARK INTRA:                  -0.169
REMARK UNBOUND:                -0.165
REMARK SMILES CC1=CCC(C(C)C)=CC1
REMARK SMILES IDX 1 1 2 2 3 3 4 4 5 5 9 6 10 7 6 8 7 9 8 10
REMARK H PARENT
REMARK Flexibility Score: inf
ROOT
ATOM      1  C   UNL     1     -15.003  -6.621  14.933  1.00  0.00     0.039 C 
ATOM      2  C   UNL     1     -14.943  -5.155  15.261  1.00  0.00    -0.073 C 
ATOM      3  C   UNL     1     -13.821  -4.628  15.786  1.00  0.00    -0.023 C 
ATOM      4  C   UNL     1     -13.732  -3.152  16.084  1.00  0.00     0.058 C 
ATOM      5  C   UNL     1     -15.081  -2.590  16.500  1.00  0.00    -0.068 C 
ATOM      6  C   UNL     1     -16.204  -3.126  15.973  1.00  0.00    -0.023 C 
ATOM      7  C   UNL     1     -16.128  -4.257  14.976  1.00  0.00     0.057 C 
ENDROOT
BRANCH   5   8
ATOM      8  C   UNL     1     -15.178  -1.462  17.515  1.00  0.00     0.009 C 
ATOM      9  C   UNL     1     -15.121  -1.998  18.950  1.00  0.00     0.012 C 
ATOM     10  C   UNL     1     -16.447  -0.634  17.286  1.00  0.00     0.012 C 
ENDBRANCH   5   8
TORSDOF 1
ENDMDL
MODEL 6
REMARK VINA RESULT:    -1.200      1.306      2.771
REMARK INTER + INTRA:          -1.435
REMARK INTER:                  -1.269
REMARK INTRA:                  -0.166
REMARK UNBOUND:                -0.165
REMARK SMILES CC1=CCC(C(C)C)=CC1
REMARK SMILES IDX 1 1 2 2 3 3 4 4 5 5 9 6 10 7 6 8 7 9 8 10
REMARK H PARENT
REMARK Flexibility Score: inf
ROOT
ATOM      1  C   UNL     1     -15.009  -2.429  21.743  1.00  0.00     0.039 C 
ATOM      2  C   UNL     1     -14.773  -2.194  20.276  1.00  0.00    -0.073 C 
ATOM      3  C   UNL     1     -15.815  -1.971  19.454  1.00  0.00    -0.023 C 
ATOM      4  C   UNL     1     -15.592  -1.695  17.988  1.00  0.00     0.058 C 
ATOM      5  C   UNL     1     -14.380  -2.446  17.463  1.00  0.00    -0.068 C 
ATOM      6  C   UNL     1     -13.339  -2.670  18.294  1.00  0.00    -0.023 C 
ATOM      7  C   UNL     1     -13.365  -2.175  19.720  1.00  0.00     0.057 C 
ENDROOT
BRANCH   5   8
ATOM      8  C   UNL     1     -14.341  -2.966  16.034  1.00  0.00     0.009 C 
ATOM      9  C   UNL     1     -14.970  -4.361  15.933  1.00  0.00     0.012 C 
ATOM     10  C   UNL     1     -12.907  -2.969  15.496  1.00  0.00     0.012 C 
ENDBRANCH   5   8
TORSDOF 1
ENDMDL
MODEL 7
REMARK VINA RESULT:    -1.064      3.061      4.884
REMARK INTER + INTRA:          -1.292
REMARK INTER:                  -1.151
REMARK INTRA:                  -0.141
REMARK UNBOUND:                -0.165
REMARK SMILES CC1=CCC(C(C)C)=CC1
REMARK SMILES IDX 1 1 2 2 3 3 4 4 5 5 9 6 10 7 6 8 7 9 8 10
REMARK H PARENT
REMARK Flexibility Score: inf
ROOT
ATOM      1  C   UNL     1     -13.218  -3.879  16.281  1.00  0.00     0.039 C 
ATOM      2  C   UNL     1     -14.384  -2.981  16.591  1.00  0.00    -0.073 C 
ATOM      3  C   UNL     1     -15.252  -2.646  15.619  1.00  0.00    -0.023 C 
ATOM      4  C   UNL     1     -16.448  -1.779  15.923  1.00  0.00     0.058 C 
ATOM      5  C   UNL     1     -16.138  -0.775  17.021  1.00  0.00    -0.068 C 
ATOM      6  C   UNL     1     -15.262  -1.116  17.991  1.00  0.00    -0.023 C 
ATOM      7  C   UNL     1     -14.607  -2.476  18.001  1.00  0.00     0.057 C 
ENDROOT
BRANCH   5   8
ATOM      8  C   UNL     1     -16.775   0.606  17.019  1.00  0.00     0.009 C 
ATOM      9  C   UNL     1     -15.792   1.674  17.514  1.00  0.00     0.012 C 
ATOM     10  C   UNL     1     -18.060   0.611  17.853  1.00  0.00     0.012 C 
ENDBRANCH   5   8
TORSDOF 1
ENDMDL
MODEL 8
REMARK VINA RESULT:    -0.888      1.027      4.417
REMARK INTER + INTRA:          -1.105
REMARK INTER:                  -0.962
REMARK INTRA:                  -0.142
REMARK UNBOUND:                -0.165
REMARK SMILES CC1=CCC(C(C)C)=CC1
REMARK SMILES IDX 1 1 2 2 3 3 4 4 5 5 9 6 10 7 6 8 7 9 8 10
REMARK H PARENT
REMARK Flexibility Score: inf
ROOT
ATOM      1  C   UNL     1     -15.452  -1.823  15.967  1.00  0.00     0.039 C 
ATOM      2  C   UNL     1     -15.062  -2.177  17.376  1.00  0.00    -0.073 C 
ATOM      3  C   UNL     1     -15.942  -2.005  18.381  1.00  0.00    -0.023 C 
ATOM      4  C   UNL     1     -15.580  -2.393  19.792  1.00  0.00     0.058 C 
ATOM      5  C   UNL     1     -14.098  -2.188  20.059  1.00  0.00    -0.068 C 
ATOM      6  C   UNL     1     -13.221  -2.358  19.046  1.00  0.00    -0.023 C 
ATOM      7  C   UNL     1     -13.696  -2.758  17.670  1.00  0.00     0.057 C 
ENDROOT
BRANCH   5   8
ATOM      8  C   UNL     1     -13.602  -1.769  21.435  1.00  0.00     0.009 C 
ATOM      9  C   UNL     1     -12.495  -2.704  21.936  1.00  0.00     0.012 C 
ATOM     10  C   UNL     1     -14.762  -1.706  22.434  1.00  0.00     0.012 C 
ENDBRANCH   5   8
TORSDOF 1
ENDMDL
MODEL 9
REMARK VINA RESULT:    -0.066      3.582      5.164
REMARK INTER + INTRA:          -0.235
REMARK INTER:                  -0.097
REMARK INTRA:                  -0.138
REMARK UNBOUND:                -0.165
REMARK SMILES CC1=CCC(C(C)C)=CC1
REMARK SMILES IDX 1 1 2 2 3 3 4 4 5 5 9 6 10 7 6 8 7 9 8 10
REMARK H PARENT
REMARK Flexibility Score: inf
ROOT
ATOM      1  C   UNL     1     -15.112  -5.203  15.759  1.00  0.00     0.039 C 
ATOM      2  C   UNL     1     -15.165  -3.725  16.033  1.00  0.00    -0.073 C 
ATOM      3  C   UNL     1     -14.413  -3.195  17.016  1.00  0.00    -0.023 C 
ATOM      4  C   UNL     1     -14.425  -1.711  17.278  1.00  0.00     0.058 C 
ATOM      5  C   UNL     1     -15.788  -1.108  16.979  1.00  0.00    -0.068 C 
ATOM      6  C   UNL     1     -16.539  -1.646  15.994  1.00  0.00    -0.023 C 
ATOM      7  C   UNL     1     -16.036  -2.820  15.189  1.00  0.00     0.057 C 
ENDROOT
BRANCH   5   8
ATOM      8  C   UNL     1     -16.319   0.064  17.790  1.00  0.00     0.009 C 
ATOM      9  C   UNL     1     -17.804   0.313  17.502  1.00  0.00     0.012 C 
ATOM     10  C   UNL     1     -15.488   1.325  17.528  1.00  0.00     0.012 C 
ENDBRANCH   5   8
TORSDOF 1
ENDMDL
