MODEL 1
REMARK VINA RESULT:    45.231      0.000      0.000
REMARK INTER + INTRA:          58.884
REMARK INTER:                  57.130
REMARK INTRA:                   1.754
REMARK UNBOUND:                 1.754
REMARK SMILES CC(C)[C@H](C)C=C[C@@H](C)[C@@H]1CC[C@@H]2C3=CC=C4C[C@H](O)CC[C@@]4(C)[C@@H]3CC[C@]21C
REMARK SMILES IDX 8 1 9 2 7 3 6 4 4 5 5 6 2 7 1 8 3 9 10 10 11 11 28 12 12 13
REMARK SMILES IDX 13 14 27 15 29 16 14 17 26 18 25 19 15 20 23 21 16 22 17 23
REMARK SMILES IDX 22 24 24 25 18 26 21 27 19 28 20 29
REMARK H PARENT 20 30
REMARK Flexibility Score: inf
ROOT
ATOM      1  C   UNL     1      -0.306  44.904  49.963  1.00  0.00     0.012 C 
ATOM      2  C   UNL     1      -0.876  43.785  49.076  1.00  0.00     0.012 C 
ENDROOT
BRANCH   1   3
ATOM      3  C   UNL     1       0.026  46.114  49.114  1.00  0.00    -0.028 C 
ATOM      4  C   UNL     1       0.968  46.093  48.152  1.00  0.00    -0.028 C 
BRANCH   4   5
ATOM      5  C   UNL     1       1.257  47.303  47.292  1.00  0.00     0.011 C 
ATOM      6  C   UNL     1      -0.038  48.125  47.176  1.00  0.00     0.012 C 
BRANCH   5   7
ATOM      7  C   UNL     1       2.438  48.124  47.894  1.00  0.00    -0.011 C 
ATOM      8  C   UNL     1       2.617  47.816  49.393  1.00  0.00     0.008 C 
ATOM      9  C   UNL     1       3.768  47.857  47.163  1.00  0.00     0.008 C 
ENDBRANCH   5   7
ENDBRANCH   4   5
ENDBRANCH   1   3
BRANCH   1  10
ATOM     10  C   UNL     1       0.928  44.422  50.792  1.00  0.00     0.002 C 
ATOM     11  C   UNL     1       1.932  45.563  51.113  1.00  0.00     0.005 C 
ATOM     12  C   UNL     1       1.817  43.307  50.158  1.00  0.00    -0.023 C 
ATOM     13  C   UNL     1       3.340  44.949  51.092  1.00  0.00     0.009 C 
ATOM     14  C   UNL     1       3.091  43.449  50.995  1.00  0.00     0.021 C 
ATOM     15  C   UNL     1       1.299  41.858  50.369  1.00  0.00     0.008 C 
ATOM     16  C   UNL     1       2.078  43.587  48.642  1.00  0.00     0.012 C 
ATOM     17  C   UNL     1       4.173  42.500  50.534  1.00  0.00    -0.063 C 
ATOM     18  C   UNL     1       2.351  40.806  49.938  1.00  0.00     0.009 C 
ATOM     19  C   UNL     1       3.784  41.023  50.538  1.00  0.00     0.025 C 
ATOM     20  C   UNL     1       5.458  42.872  50.495  1.00  0.00    -0.000 C 
ATOM     21  C   UNL     1       4.888  40.063  49.926  1.00  0.00    -0.005 C 
ATOM     22  C   UNL     1       6.538  41.889  50.384  1.00  0.00    -0.000 C 
ATOM     23  C   UNL     1       6.302  40.580  50.226  1.00  0.00    -0.061 C 
ATOM     24  C   UNL     1       4.717  38.649  50.569  1.00  0.00     0.014 C 
ATOM     25  C   UNL     1       4.757  39.949  48.382  1.00  0.00     0.017 C 
ATOM     26  C   UNL     1       7.485  39.643  50.108  1.00  0.00     0.063 C 
ATOM     27  C   UNL     1       5.900  37.700  50.332  1.00  0.00     0.033 C 
ATOM     28  C   UNL     1       7.212  38.317  50.826  1.00  0.00     0.118 C 
BRANCH  28  29
ATOM     29  O   UNL     1       8.259  37.417  50.583  1.00  0.00    -0.393 OA
ATOM     30  H   UNL     1       8.586  37.108  51.468  1.00  0.00     0.210 HD
ENDBRANCH  28  29
ENDBRANCH   1  10
TORSDOF 5
ENDMDL
MODEL 2
REMARK VINA RESULT:    45.578      1.232      1.868
REMARK INTER + INTRA:          59.322
REMARK INTER:                  59.290
REMARK INTRA:                   0.032
REMARK UNBOUND:                 1.754
REMARK SMILES CC(C)[C@H](C)C=C[C@@H](C)[C@@H]1CC[C@@H]2C3=CC=C4C[C@H](O)CC[C@@]4(C)[C@@H]3CC[C@]21C
REMARK SMILES IDX 8 1 9 2 7 3 6 4 4 5 5 6 2 7 1 8 3 9 10 10 11 11 28 12 12 13
REMARK SMILES IDX 13 14 27 15 29 16 14 17 26 18 25 19 15 20 23 21 16 22 17 23
REMARK SMILES IDX 22 24 24 25 18 26 21 27 19 28 20 29
REMARK H PARENT 20 30
REMARK Flexibility Score: inf
ROOT
ATOM      1  C   UNL     1      -0.076  45.284  48.638  1.00  0.00     0.012 C 
ATOM      2  C   UNL     1      -0.234  44.934  47.149  1.00  0.00     0.012 C 
ENDROOT
BRANCH   1   3
ATOM      3  C   UNL     1       0.961  46.376  48.801  1.00  0.00    -0.028 C 
ATOM      4  C   UNL     1       1.522  47.011  47.755  1.00  0.00    -0.028 C 
BRANCH   4   5
ATOM      5  C   UNL     1       2.529  48.123  47.943  1.00  0.00     0.011 C 
ATOM      6  C   UNL     1       2.969  48.123  49.417  1.00  0.00     0.012 C 
BRANCH   5   7
ATOM      7  C   UNL     1       3.725  47.941  46.959  1.00  0.00    -0.011 C 
ATOM      8  C   UNL     1       5.068  47.950  47.714  1.00  0.00     0.008 C 
ATOM      9  C   UNL     1       3.615  46.639  46.141  1.00  0.00     0.008 C 
ENDBRANCH   5   7
ENDBRANCH   4   5
ENDBRANCH   1   3
BRANCH   1  10
ATOM     10  C   UNL     1       0.264  44.027  49.501  1.00  0.00     0.002 C 
ATOM     11  C   UNL     1       0.138  44.283  51.028  1.00  0.00     0.005 C 
ATOM     12  C   UNL     1       1.693  43.421  49.339  1.00  0.00    -0.023 C 
ATOM     13  C   UNL     1       1.228  43.450  51.720  1.00  0.00     0.009 C 
ATOM     14  C   UNL     1       1.787  42.570  50.609  1.00  0.00     0.021 C 
ATOM     15  C   UNL     1       1.860  42.453  48.136  1.00  0.00     0.008 C 
ATOM     16  C   UNL     1       2.782  44.541  49.304  1.00  0.00     0.012 C 
ATOM     17  C   UNL     1       3.136  41.902  50.738  1.00  0.00    -0.063 C 
ATOM     18  C   UNL     1       3.215  41.703  48.188  1.00  0.00     0.009 C 
ATOM     19  C   UNL     1       3.534  41.014  49.561  1.00  0.00     0.025 C 
ATOM     20  C   UNL     1       3.749  41.789  51.922  1.00  0.00    -0.000 C 
ATOM     21  C   UNL     1       5.006  40.432  49.659  1.00  0.00    -0.005 C 
ATOM     22  C   UNL     1       4.868  40.865  52.121  1.00  0.00    -0.000 C 
ATOM     23  C   UNL     1       5.395  40.152  51.117  1.00  0.00    -0.061 C 
ATOM     24  C   UNL     1       5.058  39.094  48.854  1.00  0.00     0.014 C 
ATOM     25  C   UNL     1       6.055  41.424  49.084  1.00  0.00     0.017 C 
ATOM     26  C   UNL     1       6.560  39.232  51.421  1.00  0.00     0.063 C 
ATOM     27  C   UNL     1       6.310  38.245  49.118  1.00  0.00     0.033 C 
ATOM     28  C   UNL     1       6.463  37.935  50.610  1.00  0.00     0.118 C 
BRANCH  28  29
ATOM     29  O   UNL     1       7.620  37.166  50.799  1.00  0.00    -0.393 OA
ATOM     30  H   UNL     1       7.388  36.231  50.557  1.00  0.00     0.210 HD
ENDBRANCH  28  29
ENDBRANCH   1  10
TORSDOF 5
ENDMDL
