MODEL 1
REMARK VINA RESULT:    -6.601      0.000      0.000
REMARK INTER + INTRA:          -9.141
REMARK INTER:                  -8.338
REMARK INTRA:                  -0.804
REMARK UNBOUND:                -0.804
REMARK SMILES CC(C)[C@H](C)C=C[C@H](C)[C@@H]1CC[C@@H]2C3=CC=C4C[C@H](O)CC[C@]4(C)[C@H]3CC[C@]21C
REMARK SMILES IDX 8 1 9 2 7 3 6 4 4 5 5 6 2 7 1 8 3 9 10 10 11 11 28 12 12 13
REMARK SMILES IDX 13 14 27 15 29 16 14 17 26 18 25 19 15 20 23 21 16 22 17 23
REMARK SMILES IDX 22 24 24 25 18 26 21 27 19 28 20 29
REMARK H PARENT 20 30
REMARK Flexibility Score: inf
ROOT
ATOM      1  C   UNL     1     134.676 129.241 140.768  1.00  0.00     0.012 C 
ATOM      2  C   UNL     1     133.587 129.212 141.851  1.00  0.00     0.012 C 
ENDROOT
BRANCH   1   3
ATOM      3  C   UNL     1     134.230 128.358 139.623  1.00  0.00    -0.028 C 
ATOM      4  C   UNL     1     132.961 128.353 139.183  1.00  0.00    -0.028 C 
BRANCH   4   5
ATOM      5  C   UNL     1     132.478 127.320 138.187  1.00  0.00     0.011 C 
ATOM      6  C   UNL     1     131.016 127.615 137.811  1.00  0.00     0.012 C 
BRANCH   5   7
ATOM      7  C   UNL     1     133.435 127.213 136.957  1.00  0.00    -0.011 C 
ATOM      8  C   UNL     1     133.189 125.920 136.164  1.00  0.00     0.008 C 
ATOM      9  C   UNL     1     133.384 128.425 136.006  1.00  0.00     0.008 C 
ENDBRANCH   5   7
ENDBRANCH   4   5
ENDBRANCH   1   3
BRANCH   1  10
ATOM     10  C   UNL     1     134.936 130.695 140.251  1.00  0.00     0.002 C 
ATOM     11  C   UNL     1     135.739 130.744 138.925  1.00  0.00     0.005 C 
ATOM     12  C   UNL     1     135.714 131.665 141.189  1.00  0.00    -0.023 C 
ATOM     13  C   UNL     1     136.550 132.045 138.939  1.00  0.00     0.009 C 
ATOM     14  C   UNL     1     136.070 132.776 140.187  1.00  0.00     0.021 C 
ATOM     15  C   UNL     1     134.877 132.279 142.356  1.00  0.00     0.008 C 
ATOM     16  C   UNL     1     136.990 130.970 141.764  1.00  0.00     0.012 C 
ATOM     17  C   UNL     1     136.939 133.834 140.819  1.00  0.00    -0.063 C 
ATOM     18  C   UNL     1     135.154 133.788 142.623  1.00  0.00     0.009 C 
ATOM     19  C   UNL     1     136.586 134.268 142.234  1.00  0.00     0.025 C 
ATOM     20  C   UNL     1     137.939 134.436 140.163  1.00  0.00    -0.000 C 
ATOM     21  C   UNL     1     136.839 135.809 142.456  1.00  0.00    -0.005 C 
ATOM     22  C   UNL     1     138.672 135.554 140.778  1.00  0.00    -0.000 C 
ATOM     23  C   UNL     1     138.213 136.178 141.877  1.00  0.00    -0.061 C 
ATOM     24  C   UNL     1     136.797 136.115 143.988  1.00  0.00     0.014 C 
ATOM     25  C   UNL     1     135.774 136.668 141.726  1.00  0.00     0.017 C 
ATOM     26  C   UNL     1     138.923 137.431 142.336  1.00  0.00     0.063 C 
ATOM     27  C   UNL     1     137.415 137.462 144.385  1.00  0.00     0.033 C 
ATOM     28  C   UNL     1     138.850 137.624 143.857  1.00  0.00     0.118 C 
BRANCH  28  29
ATOM     29  O   UNL     1     139.748 136.773 144.529  1.00  0.00    -0.393 OA
ATOM     30  H   UNL     1     139.909 137.142 145.435  1.00  0.00     0.210 HD
ENDBRANCH  28  29
ENDBRANCH   1  10
TORSDOF 5
ENDMDL
MODEL 2
REMARK VINA RESULT:    -6.400     10.941     13.941
REMARK INTER + INTRA:          -8.887
REMARK INTER:                  -7.763
REMARK INTRA:                  -1.125
REMARK UNBOUND:                -0.804
REMARK SMILES CC(C)[C@H](C)C=C[C@H](C)[C@@H]1CC[C@@H]2C3=CC=C4C[C@H](O)CC[C@]4(C)[C@H]3CC[C@]21C
REMARK SMILES IDX 8 1 9 2 7 3 6 4 4 5 5 6 2 7 1 8 3 9 10 10 11 11 28 12 12 13
REMARK SMILES IDX 13 14 27 15 29 16 14 17 26 18 25 19 15 20 23 21 16 22 17 23
REMARK SMILES IDX 22 24 24 25 18 26 21 27 19 28 20 29
REMARK H PARENT 20 30
REMARK Flexibility Score: inf
ROOT
ATOM      1  C   UNL     1     126.962 122.979 143.729  1.00  0.00     0.012 C 
ATOM      2  C   UNL     1     125.441 123.035 143.935  1.00  0.00     0.012 C 
ENDROOT
BRANCH   1   3
ATOM      3  C   UNL     1     127.603 122.578 145.041  1.00  0.00    -0.028 C 
ATOM      4  C   UNL     1     128.467 123.381 145.682  1.00  0.00    -0.028 C 
BRANCH   4   5
ATOM      5  C   UNL     1     129.261 122.889 146.874  1.00  0.00     0.011 C 
ATOM      6  C   UNL     1     129.459 121.368 146.766  1.00  0.00     0.012 C 
BRANCH   5   7
ATOM      7  C   UNL     1     130.592 123.686 147.049  1.00  0.00    -0.011 C 
ATOM      8  C   UNL     1     130.837 124.641 145.870  1.00  0.00     0.008 C 
ATOM      9  C   UNL     1     130.696 124.463 148.378  1.00  0.00     0.008 C 
ENDBRANCH   5   7
ENDBRANCH   4   5
ENDBRANCH   1   3
BRANCH   1  10
ATOM     10  C   UNL     1     127.355 121.958 142.609  1.00  0.00     0.002 C 
ATOM     11  C   UNL     1     127.928 120.627 143.161  1.00  0.00     0.005 C 
ATOM     12  C   UNL     1     128.415 122.410 141.562  1.00  0.00    -0.023 C 
ATOM     13  C   UNL     1     128.920 120.100 142.119  1.00  0.00     0.009 C 
ATOM     14  C   UNL     1     128.768 121.051 140.937  1.00  0.00     0.021 C 
ATOM     15  C   UNL     1     127.883 123.363 140.444  1.00  0.00     0.008 C 
ATOM     16  C   UNL     1     129.645 123.063 142.270  1.00  0.00     0.012 C 
ATOM     17  C   UNL     1     129.880 121.178 139.928  1.00  0.00    -0.063 C 
ATOM     18  C   UNL     1     128.428 123.051 139.019  1.00  0.00     0.009 C 
ATOM     19  C   UNL     1     129.835 122.376 138.991  1.00  0.00     0.025 C 
ATOM     20  C   UNL     1     130.841 120.255 139.788  1.00  0.00    -0.000 C 
ATOM     21  C   UNL     1     130.353 122.013 137.546  1.00  0.00    -0.005 C 
ATOM     22  C   UNL     1     131.827 120.358 138.701  1.00  0.00    -0.000 C 
ATOM     23  C   UNL     1     131.655 121.206 137.672  1.00  0.00    -0.061 C 
ATOM     24  C   UNL     1     130.610 123.334 136.752  1.00  0.00     0.014 C 
ATOM     25  C   UNL     1     129.328 121.137 136.781  1.00  0.00     0.017 C 
ATOM     26  C   UNL     1     132.614 121.120 136.506  1.00  0.00     0.063 C 
ATOM     27  C   UNL     1     131.484 123.165 135.502  1.00  0.00     0.033 C 
ATOM     28  C   UNL     1     132.821 122.474 135.814  1.00  0.00     0.118 C 
BRANCH  28  29
ATOM     29  O   UNL     1     133.675 123.310 136.558  1.00  0.00    -0.393 OA
ATOM     30  H   UNL     1     133.184 124.144 136.775  1.00  0.00     0.210 HD
ENDBRANCH  28  29
ENDBRANCH   1  10
TORSDOF 5
ENDMDL
MODEL 3
REMARK VINA RESULT:    -6.278      3.385      9.777
REMARK INTER + INTRA:          -8.733
REMARK INTER:                  -8.076
REMARK INTRA:                  -0.657
REMARK UNBOUND:                -0.804
REMARK SMILES CC(C)[C@H](C)C=C[C@H](C)[C@@H]1CC[C@@H]2C3=CC=C4C[C@H](O)CC[C@]4(C)[C@H]3CC[C@]21C
REMARK SMILES IDX 8 1 9 2 7 3 6 4 4 5 5 6 2 7 1 8 3 9 10 10 11 11 28 12 12 13
REMARK SMILES IDX 13 14 27 15 29 16 14 17 26 18 25 19 15 20 23 21 16 22 17 23
REMARK SMILES IDX 22 24 24 25 18 26 21 27 19 28 20 29
REMARK H PARENT 20 30
REMARK Flexibility Score: inf
ROOT
ATOM      1  C   UNL     1     136.712 131.428 141.831  1.00  0.00     0.012 C 
ATOM      2  C   UNL     1     137.557 131.818 140.610  1.00  0.00     0.012 C 
ENDROOT
BRANCH   1   3
ATOM      3  C   UNL     1     136.720 132.588 142.803  1.00  0.00    -0.028 C 
ATOM      4  C   UNL     1     136.496 133.850 142.404  1.00  0.00    -0.028 C 
BRANCH   4   5
ATOM      5  C   UNL     1     136.715 135.021 143.338  1.00  0.00     0.011 C 
ATOM      6  C   UNL     1     138.217 135.168 143.634  1.00  0.00     0.012 C 
BRANCH   5   7
ATOM      7  C   UNL     1     136.050 136.325 142.794  1.00  0.00    -0.011 C 
ATOM      8  C   UNL     1     136.925 137.559 143.067  1.00  0.00     0.008 C 
ATOM      9  C   UNL     1     135.678 136.272 141.298  1.00  0.00     0.008 C 
ENDBRANCH   5   7
ENDBRANCH   4   5
ENDBRANCH   1   3
BRANCH   1  10
ATOM     10  C   UNL     1     135.241 131.080 141.426  1.00  0.00     0.002 C 
ATOM     11  C   UNL     1     134.303 130.857 142.641  1.00  0.00     0.005 C 
ATOM     12  C   UNL     1     135.015 129.813 140.549  1.00  0.00    -0.023 C 
ATOM     13  C   UNL     1     133.238 129.844 142.206  1.00  0.00     0.009 C 
ATOM     14  C   UNL     1     133.497 129.639 140.718  1.00  0.00     0.021 C 
ATOM     15  C   UNL     1     135.344 129.986 139.032  1.00  0.00     0.008 C 
ATOM     16  C   UNL     1     135.808 128.596 141.125  1.00  0.00     0.012 C 
ATOM     17  C   UNL     1     133.004 128.389 140.035  1.00  0.00    -0.063 C 
ATOM     18  C   UNL     1     134.321 129.310 138.071  1.00  0.00     0.009 C 
ATOM     19  C   UNL     1     133.586 128.070 138.666  1.00  0.00     0.025 C 
ATOM     20  C   UNL     1     132.043 127.612 140.552  1.00  0.00    -0.000 C 
ATOM     21  C   UNL     1     132.512 127.427 137.706  1.00  0.00    -0.005 C 
ATOM     22  C   UNL     1     131.503 126.478 139.785  1.00  0.00    -0.000 C 
ATOM     23  C   UNL     1     131.749 126.334 138.471  1.00  0.00    -0.061 C 
ATOM     24  C   UNL     1     133.242 126.810 136.469  1.00  0.00     0.014 C 
ATOM     25  C   UNL     1     131.478 128.479 137.229  1.00  0.00     0.017 C 
ATOM     26  C   UNL     1     131.009 125.251 137.719  1.00  0.00     0.063 C 
ATOM     27  C   UNL     1     132.398 125.814 135.664  1.00  0.00     0.033 C 
ATOM     28  C   UNL     1     131.822 124.693 136.544  1.00  0.00     0.118 C 
BRANCH  28  29
ATOM     29  O   UNL     1     132.828 123.811 136.984  1.00  0.00    -0.393 OA
ATOM     30  H   UNL     1     133.659 124.333 137.130  1.00  0.00     0.210 HD
ENDBRANCH  28  29
ENDBRANCH   1  10
TORSDOF 5
ENDMDL
MODEL 4
REMARK VINA RESULT:    -6.271      3.981      9.341
REMARK INTER + INTRA:          -8.725
REMARK INTER:                  -7.685
REMARK INTRA:                  -1.040
REMARK UNBOUND:                -0.804
REMARK SMILES CC(C)[C@H](C)C=C[C@H](C)[C@@H]1CC[C@@H]2C3=CC=C4C[C@H](O)CC[C@]4(C)[C@H]3CC[C@]21C
REMARK SMILES IDX 8 1 9 2 7 3 6 4 4 5 5 6 2 7 1 8 3 9 10 10 11 11 28 12 12 13
REMARK SMILES IDX 13 14 27 15 29 16 14 17 26 18 25 19 15 20 23 21 16 22 17 23
REMARK SMILES IDX 22 24 24 25 18 26 21 27 19 28 20 29
REMARK H PARENT 20 30
REMARK Flexibility Score: inf
ROOT
ATOM      1  C   UNL     1     138.802 133.768 141.798  1.00  0.00     0.012 C 
ATOM      2  C   UNL     1     139.555 132.948 142.857  1.00  0.00     0.012 C 
ENDROOT
BRANCH   1   3
ATOM      3  C   UNL     1     139.031 135.236 142.084  1.00  0.00    -0.028 C 
ATOM      4  C   UNL     1     139.395 135.674 143.300  1.00  0.00    -0.028 C 
BRANCH   4   5
ATOM      5  C   UNL     1     139.414 137.151 143.631  1.00  0.00     0.011 C 
ATOM      6  C   UNL     1     139.777 137.954 142.370  1.00  0.00     0.012 C 
BRANCH   5   7
ATOM      7  C   UNL     1     138.082 137.608 144.306  1.00  0.00    -0.011 C 
ATOM      8  C   UNL     1     137.061 138.095 143.266  1.00  0.00     0.008 C 
ATOM      9  C   UNL     1     137.433 136.544 145.214  1.00  0.00     0.008 C 
ENDBRANCH   5   7
ENDBRANCH   4   5
ENDBRANCH   1   3
BRANCH   1  10
ATOM     10  C   UNL     1     139.288 133.424 140.350  1.00  0.00     0.002 C 
ATOM     11  C   UNL     1     139.954 134.620 139.623  1.00  0.00     0.005 C 
ATOM     12  C   UNL     1     138.222 132.921 139.333  1.00  0.00    -0.023 C 
ATOM     13  C   UNL     1     139.680 134.444 138.125  1.00  0.00     0.009 C 
ATOM     14  C   UNL     1     139.010 133.078 138.022  1.00  0.00     0.021 C 
ATOM     15  C   UNL     1     137.797 131.426 139.496  1.00  0.00     0.008 C 
ATOM     16  C   UNL     1     136.956 133.835 139.364  1.00  0.00     0.012 C 
ATOM     17  C   UNL     1     138.159 132.748 136.822  1.00  0.00    -0.063 C 
ATOM     18  C   UNL     1     137.633 130.653 138.155  1.00  0.00     0.009 C 
ATOM     19  C   UNL     1     137.240 131.541 136.933  1.00  0.00     0.025 C 
ATOM     20  C   UNL     1     138.239 133.425 135.669  1.00  0.00    -0.000 C 
ATOM     21  C   UNL     1     137.132 130.757 135.568  1.00  0.00    -0.005 C 
ATOM     22  C   UNL     1     137.486 132.981 134.486  1.00  0.00    -0.000 C 
ATOM     23  C   UNL     1     136.912 131.766 134.430  1.00  0.00    -0.061 C 
ATOM     24  C   UNL     1     135.929 129.763 135.648  1.00  0.00     0.014 C 
ATOM     25  C   UNL     1     138.434 129.975 135.260  1.00  0.00     0.017 C 
ATOM     26  C   UNL     1     136.318 131.316 133.115  1.00  0.00     0.063 C 
ATOM     27  C   UNL     1     135.449 129.234 134.290  1.00  0.00     0.033 C 
ATOM     28  C   UNL     1     135.127 130.368 133.303  1.00  0.00     0.118 C 
BRANCH  28  29
ATOM     29  O   UNL     1     133.964 131.067 133.681  1.00  0.00    -0.393 OA
ATOM     30  H   UNL     1     133.420 131.229 132.868  1.00  0.00     0.210 HD
ENDBRANCH  28  29
ENDBRANCH   1  10
TORSDOF 5
ENDMDL
MODEL 5
REMARK VINA RESULT:    -6.241      3.993      9.462
REMARK INTER + INTRA:          -8.687
REMARK INTER:                  -7.608
REMARK INTRA:                  -1.079
REMARK UNBOUND:                -0.804
REMARK SMILES CC(C)[C@H](C)C=C[C@H](C)[C@@H]1CC[C@@H]2C3=CC=C4C[C@H](O)CC[C@]4(C)[C@H]3CC[C@]21C
REMARK SMILES IDX 8 1 9 2 7 3 6 4 4 5 5 6 2 7 1 8 3 9 10 10 11 11 28 12 12 13
REMARK SMILES IDX 13 14 27 15 29 16 14 17 26 18 25 19 15 20 23 21 16 22 17 23
REMARK SMILES IDX 22 24 24 25 18 26 21 27 19 28 20 29
REMARK H PARENT 20 30
REMARK Flexibility Score: inf
ROOT
ATOM      1  C   UNL     1     136.694 131.333 141.805  1.00  0.00     0.012 C 
ATOM      2  C   UNL     1     136.917 132.853 141.822  1.00  0.00     0.012 C 
ENDROOT
BRANCH   1   3
ATOM      3  C   UNL     1     137.035 130.789 143.176  1.00  0.00    -0.028 C 
ATOM      4  C   UNL     1     138.110 130.012 143.383  1.00  0.00    -0.028 C 
BRANCH   4   5
ATOM      5  C   UNL     1     138.325 129.303 144.703  1.00  0.00     0.011 C 
ATOM      6  C   UNL     1     136.977 129.151 145.429  1.00  0.00     0.012 C 
BRANCH   5   7
ATOM      7  C   UNL     1     139.095 127.957 144.516  1.00  0.00    -0.011 C 
ATOM      8  C   UNL     1     139.140 127.535 143.039  1.00  0.00     0.008 C 
ATOM      9  C   UNL     1     140.522 127.956 145.102  1.00  0.00     0.008 C 
ENDBRANCH   5   7
ENDBRANCH   4   5
ENDBRANCH   1   3
BRANCH   1  10
ATOM     10  C   UNL     1     135.215 130.972 141.440  1.00  0.00     0.002 C 
ATOM     11  C   UNL     1     134.337 130.645 142.675  1.00  0.00     0.005 C 
ATOM     12  C   UNL     1     134.984 129.759 140.491  1.00  0.00    -0.023 C 
ATOM     13  C   UNL     1     133.280 129.633 142.219  1.00  0.00     0.009 C 
ATOM     14  C   UNL     1     133.479 129.533 140.711  1.00  0.00     0.021 C 
ATOM     15  C   UNL     1     135.241 130.039 138.976  1.00  0.00     0.008 C 
ATOM     16  C   UNL     1     135.830 128.530 140.951  1.00  0.00     0.012 C 
ATOM     17  C   UNL     1     132.987 128.317 139.968  1.00  0.00    -0.063 C 
ATOM     18  C   UNL     1     134.195 129.400 138.016  1.00  0.00     0.009 C 
ATOM     19  C   UNL     1     133.518 128.103 138.558  1.00  0.00     0.025 C 
ATOM     20  C   UNL     1     132.069 127.482 140.472  1.00  0.00    -0.000 C 
ATOM     21  C   UNL     1     132.419 127.495 137.603  1.00  0.00    -0.005 C 
ATOM     22  C   UNL     1     131.525 126.386 139.655  1.00  0.00    -0.000 C 
ATOM     23  C   UNL     1     131.717 126.335 138.325  1.00  0.00    -0.061 C 
ATOM     24  C   UNL     1     133.110 126.981 136.298  1.00  0.00     0.014 C 
ATOM     25  C   UNL     1     131.340 128.547 137.240  1.00  0.00     0.017 C 
ATOM     26  C   UNL     1     130.972 125.283 137.535  1.00  0.00     0.063 C 
ATOM     27  C   UNL     1     132.256 126.015 135.465  1.00  0.00     0.033 C 
ATOM     28  C   UNL     1     131.747 124.824 136.292  1.00  0.00     0.118 C 
BRANCH  28  29
ATOM     29  O   UNL     1     132.793 123.944 136.630  1.00  0.00    -0.393 OA
ATOM     30  H   UNL     1     133.625 124.269 136.201  1.00  0.00     0.210 HD
ENDBRANCH  28  29
ENDBRANCH   1  10
TORSDOF 5
ENDMDL
MODEL 6
REMARK VINA RESULT:    -6.152      4.876      9.610
REMARK INTER + INTRA:          -8.574
REMARK INTER:                  -7.658
REMARK INTRA:                  -0.915
REMARK UNBOUND:                -0.804
REMARK SMILES CC(C)[C@H](C)C=C[C@H](C)[C@@H]1CC[C@@H]2C3=CC=C4C[C@H](O)CC[C@]4(C)[C@H]3CC[C@]21C
REMARK SMILES IDX 8 1 9 2 7 3 6 4 4 5 5 6 2 7 1 8 3 9 10 10 11 11 28 12 12 13
REMARK SMILES IDX 13 14 27 15 29 16 14 17 26 18 25 19 15 20 23 21 16 22 17 23
REMARK SMILES IDX 22 24 24 25 18 26 21 27 19 28 20 29
REMARK H PARENT 20 30
REMARK Flexibility Score: inf
ROOT
ATOM      1  C   UNL     1     138.038 132.909 140.123  1.00  0.00     0.012 C 
ATOM      2  C   UNL     1     138.883 132.118 141.133  1.00  0.00     0.012 C 
ENDROOT
BRANCH   1   3
ATOM      3  C   UNL     1     137.834 134.307 140.667  1.00  0.00    -0.028 C 
ATOM      4  C   UNL     1     136.636 134.732 141.099  1.00  0.00    -0.028 C 
BRANCH   4   5
ATOM      5  C   UNL     1     136.394 136.187 141.440  1.00  0.00     0.011 C 
ATOM      6  C   UNL     1     134.967 136.582 141.022  1.00  0.00     0.012 C 
BRANCH   5   7
ATOM      7  C   UNL     1     136.718 136.490 142.937  1.00  0.00    -0.011 C 
ATOM      8  C   UNL     1     137.085 137.968 143.145  1.00  0.00     0.008 C 
ATOM      9  C   UNL     1     135.603 136.087 143.922  1.00  0.00     0.008 C 
ENDBRANCH   5   7
ENDBRANCH   4   5
ENDBRANCH   1   3
BRANCH   1  10
ATOM     10  C   UNL     1     138.731 132.978 138.721  1.00  0.00     0.002 C 
ATOM     11  C   UNL     1     139.074 134.422 138.272  1.00  0.00     0.005 C 
ATOM     12  C   UNL     1     137.956 132.389 137.505  1.00  0.00    -0.023 C 
ATOM     13  C   UNL     1     138.999 134.447 136.742  1.00  0.00     0.009 C 
ATOM     14  C   UNL     1     138.775 132.990 136.351  1.00  0.00     0.021 C 
ATOM     15  C   UNL     1     137.980 130.831 137.390  1.00  0.00     0.008 C 
ATOM     16  C   UNL     1     136.478 132.895 137.495  1.00  0.00     0.012 C 
ATOM     17  C   UNL     1     138.170 132.657 135.011  1.00  0.00    -0.063 C 
ATOM     18  C   UNL     1     138.172 130.295 135.940  1.00  0.00     0.009 C 
ATOM     19  C   UNL     1     137.644 131.243 134.818  1.00  0.00     0.025 C 
ATOM     20  C   UNL     1     138.148 133.524 133.990  1.00  0.00    -0.000 C 
ATOM     21  C   UNL     1     137.894 130.717 133.352  1.00  0.00    -0.005 C 
ATOM     22  C   UNL     1     137.668 133.108 132.663  1.00  0.00    -0.000 C 
ATOM     23  C   UNL     1     137.487 131.812 132.354  1.00  0.00    -0.061 C 
ATOM     24  C   UNL     1     137.037 129.430 133.122  1.00  0.00     0.014 C 
ATOM     25  C   UNL     1     139.391 130.394 133.114  1.00  0.00     0.017 C 
ATOM     26  C   UNL     1     137.172 131.457 130.918  1.00  0.00     0.063 C 
ATOM     27  C   UNL     1     136.858 129.040 131.648  1.00  0.00     0.033 C 
ATOM     28  C   UNL     1     136.303 130.197 130.802  1.00  0.00     0.118 C 
BRANCH  28  29
ATOM     29  O   UNL     1     134.957 130.468 131.115  1.00  0.00    -0.393 OA
ATOM     30  H   UNL     1     134.456 129.613 131.101  1.00  0.00     0.210 HD
ENDBRANCH  28  29
ENDBRANCH   1  10
TORSDOF 5
ENDMDL
MODEL 7
REMARK VINA RESULT:    -6.033      3.514      8.682
REMARK INTER + INTRA:          -8.424
REMARK INTER:                  -7.211
REMARK INTRA:                  -1.212
REMARK UNBOUND:                -0.804
REMARK SMILES CC(C)[C@H](C)C=C[C@H](C)[C@@H]1CC[C@@H]2C3=CC=C4C[C@H](O)CC[C@]4(C)[C@H]3CC[C@]21C
REMARK SMILES IDX 8 1 9 2 7 3 6 4 4 5 5 6 2 7 1 8 3 9 10 10 11 11 28 12 12 13
REMARK SMILES IDX 13 14 27 15 29 16 14 17 26 18 25 19 15 20 23 21 16 22 17 23
REMARK SMILES IDX 22 24 24 25 18 26 21 27 19 28 20 29
REMARK H PARENT 20 30
REMARK Flexibility Score: inf
ROOT
ATOM      1  C   UNL     1     136.865 133.358 143.300  1.00  0.00     0.012 C 
ATOM      2  C   UNL     1     136.906 132.069 144.135  1.00  0.00     0.012 C 
ENDROOT
BRANCH   1   3
ATOM      3  C   UNL     1     137.421 134.486 144.143  1.00  0.00    -0.028 C 
ATOM      4  C   UNL     1     136.666 135.530 144.518  1.00  0.00    -0.028 C 
BRANCH   4   5
ATOM      5  C   UNL     1     137.279 136.749 145.175  1.00  0.00     0.011 C 
ATOM      6  C   UNL     1     138.380 136.304 146.153  1.00  0.00     0.012 C 
BRANCH   5   7
ATOM      7  C   UNL     1     137.760 137.793 144.118  1.00  0.00    -0.011 C 
ATOM      8  C   UNL     1     139.208 137.524 143.679  1.00  0.00     0.008 C 
ATOM      9  C   UNL     1     136.852 137.905 142.877  1.00  0.00     0.008 C 
ENDBRANCH   5   7
ENDBRANCH   4   5
ENDBRANCH   1   3
BRANCH   1  10
ATOM     10  C   UNL     1     137.696 133.217 141.981  1.00  0.00     0.002 C 
ATOM     11  C   UNL     1     138.419 134.524 141.565  1.00  0.00     0.005 C 
ATOM     12  C   UNL     1     136.934 132.791 140.692  1.00  0.00    -0.023 C 
ATOM     13  C   UNL     1     138.511 134.518 140.035  1.00  0.00     0.009 C 
ATOM     14  C   UNL     1     137.988 133.145 139.630  1.00  0.00     0.021 C 
ATOM     15  C   UNL     1     136.597 131.268 140.589  1.00  0.00     0.008 C 
ATOM     16  C   UNL     1     135.629 133.631 140.520  1.00  0.00     0.012 C 
ATOM     17  C   UNL     1     137.463 132.923 138.234  1.00  0.00    -0.063 C 
ATOM     18  C   UNL     1     136.806 130.658 139.171  1.00  0.00     0.009 C 
ATOM     19  C   UNL     1     136.638 131.667 137.994  1.00  0.00     0.025 C 
ATOM     20  C   UNL     1     137.755 133.738 137.212  1.00  0.00    -0.000 C 
ATOM     21  C   UNL     1     136.906 131.052 136.566  1.00  0.00    -0.005 C 
ATOM     22  C   UNL     1     137.330 133.406 135.844  1.00  0.00    -0.000 C 
ATOM     23  C   UNL     1     136.878 132.181 135.524  1.00  0.00    -0.061 C 
ATOM     24  C   UNL     1     135.796 129.998 136.252  1.00  0.00     0.014 C 
ATOM     25  C   UNL     1     138.300 130.377 136.494  1.00  0.00     0.017 C 
ATOM     26  C   UNL     1     136.639 131.865 134.065  1.00  0.00     0.063 C 
ATOM     27  C   UNL     1     135.684 129.616 134.769  1.00  0.00     0.033 C 
ATOM     28  C   UNL     1     135.512 130.844 133.862  1.00  0.00     0.118 C 
BRANCH  28  29
ATOM     29  O   UNL     1     134.243 131.435 134.025  1.00  0.00    -0.393 OA
ATOM     30  H   UNL     1     134.354 132.273 134.544  1.00  0.00     0.210 HD
ENDBRANCH  28  29
ENDBRANCH   1  10
TORSDOF 5
ENDMDL
MODEL 8
REMARK VINA RESULT:    -5.983      5.669      8.363
REMARK INTER + INTRA:          -8.361
REMARK INTER:                  -7.339
REMARK INTRA:                  -1.022
REMARK UNBOUND:                -0.804
REMARK SMILES CC(C)[C@H](C)C=C[C@H](C)[C@@H]1CC[C@@H]2C3=CC=C4C[C@H](O)CC[C@]4(C)[C@H]3CC[C@]21C
REMARK SMILES IDX 8 1 9 2 7 3 6 4 4 5 5 6 2 7 1 8 3 9 10 10 11 11 28 12 12 13
REMARK SMILES IDX 13 14 27 15 29 16 14 17 26 18 25 19 15 20 23 21 16 22 17 23
REMARK SMILES IDX 22 24 24 25 18 26 21 27 19 28 20 29
REMARK H PARENT 20 30
REMARK Flexibility Score: inf
ROOT
ATOM      1  C   UNL     1     138.253 131.373 132.953  1.00  0.00     0.012 C 
ATOM      2  C   UNL     1     136.832 131.380 132.368  1.00  0.00     0.012 C 
ENDROOT
BRANCH   1   3
ATOM      3  C   UNL     1     139.152 132.162 132.025  1.00  0.00    -0.028 C 
ATOM      4  C   UNL     1     140.115 131.572 131.299  1.00  0.00    -0.028 C 
BRANCH   4   5
ATOM      5  C   UNL     1     141.141 132.389 130.542  1.00  0.00     0.011 C 
ATOM      6  C   UNL     1     140.714 133.867 130.535  1.00  0.00     0.012 C 
BRANCH   5   7
ATOM      7  C   UNL     1     142.584 132.153 131.089  1.00  0.00    -0.011 C 
ATOM      8  C   UNL     1     142.722 132.637 132.541  1.00  0.00     0.008 C 
ATOM      9  C   UNL     1     143.074 130.695 130.977  1.00  0.00     0.008 C 
ENDBRANCH   5   7
ENDBRANCH   4   5
ENDBRANCH   1   3
BRANCH   1  10
ATOM     10  C   UNL     1     138.288 131.996 134.388  1.00  0.00     0.002 C 
ATOM     11  C   UNL     1     139.664 132.604 134.763  1.00  0.00     0.005 C 
ATOM     12  C   UNL     1     137.960 131.059 135.588  1.00  0.00    -0.023 C 
ATOM     13  C   UNL     1     139.820 132.461 136.281  1.00  0.00     0.009 C 
ATOM     14  C   UNL     1     138.472 131.926 136.750  1.00  0.00     0.021 C 
ATOM     15  C   UNL     1     136.442 130.759 135.805  1.00  0.00     0.008 C 
ATOM     16  C   UNL     1     138.751 129.717 135.472  1.00  0.00     0.012 C 
ATOM     17  C   UNL     1     138.369 131.201 138.068  1.00  0.00    -0.063 C 
ATOM     18  C   UNL     1     135.991 130.767 137.295  1.00  0.00     0.009 C 
ATOM     19  C   UNL     1     137.107 130.389 138.318  1.00  0.00     0.025 C 
ATOM     20  C   UNL     1     139.298 131.307 139.027  1.00  0.00    -0.000 C 
ATOM     21  C   UNL     1     136.655 130.455 139.828  1.00  0.00    -0.005 C 
ATOM     22  C   UNL     1     139.088 130.688 140.345  1.00  0.00    -0.000 C 
ATOM     23  C   UNL     1     137.882 130.232 140.726  1.00  0.00    -0.061 C 
ATOM     24  C   UNL     1     135.587 129.343 140.086  1.00  0.00     0.014 C 
ATOM     25  C   UNL     1     136.059 131.842 140.180  1.00  0.00     0.017 C 
ATOM     26  C   UNL     1     137.707 129.781 142.159  1.00  0.00     0.063 C 
ATOM     27  C   UNL     1     135.354 129.017 141.568  1.00  0.00     0.033 C 
ATOM     28  C   UNL     1     136.660 128.669 142.301  1.00  0.00     0.118 C 
BRANCH  28  29
ATOM     29  O   UNL     1     137.169 127.423 141.887  1.00  0.00    -0.393 OA
ATOM     30  H   UNL     1     136.692 127.149 141.063  1.00  0.00     0.210 HD
ENDBRANCH  28  29
ENDBRANCH   1  10
TORSDOF 5
ENDMDL
MODEL 9
REMARK VINA RESULT:    -5.959      6.958     10.600
REMARK INTER + INTRA:          -8.331
REMARK INTER:                  -7.373
REMARK INTRA:                  -0.958
REMARK UNBOUND:                -0.804
REMARK SMILES CC(C)[C@H](C)C=C[C@H](C)[C@@H]1CC[C@@H]2C3=CC=C4C[C@H](O)CC[C@]4(C)[C@H]3CC[C@]21C
REMARK SMILES IDX 8 1 9 2 7 3 6 4 4 5 5 6 2 7 1 8 3 9 10 10 11 11 28 12 12 13
REMARK SMILES IDX 13 14 27 15 29 16 14 17 26 18 25 19 15 20 23 21 16 22 17 23
REMARK SMILES IDX 22 24 24 25 18 26 21 27 19 28 20 29
REMARK H PARENT 20 30
REMARK Flexibility Score: inf
ROOT
ATOM      1  C   UNL     1     134.661 129.184 134.727  1.00  0.00     0.012 C 
ATOM      2  C   UNL     1     134.118 130.101 133.620  1.00  0.00     0.012 C 
ENDROOT
BRANCH   1   3
ATOM      3  C   UNL     1     136.081 129.606 135.038  1.00  0.00    -0.028 C 
ATOM      4  C   UNL     1     136.806 130.344 134.182  1.00  0.00    -0.028 C 
BRANCH   4   5
ATOM      5  C   UNL     1     138.285 130.579 134.405  1.00  0.00     0.011 C 
ATOM      6  C   UNL     1     138.820 129.556 135.421  1.00  0.00     0.012 C 
BRANCH   5   7
ATOM      7  C   UNL     1     139.074 130.600 133.058  1.00  0.00    -0.011 C 
ATOM      8  C   UNL     1     138.202 130.123 131.886  1.00  0.00     0.008 C 
ATOM      9  C   UNL     1     139.706 131.964 132.714  1.00  0.00     0.008 C 
ENDBRANCH   5   7
ENDBRANCH   4   5
ENDBRANCH   1   3
BRANCH   1  10
ATOM     10  C   UNL     1     133.784 129.264 136.022  1.00  0.00     0.002 C 
ATOM     11  C   UNL     1     134.612 129.484 137.314  1.00  0.00     0.005 C 
ATOM     12  C   UNL     1     132.889 128.036 136.362  1.00  0.00    -0.023 C 
ATOM     13  C   UNL     1     133.848 128.807 138.457  1.00  0.00     0.009 C 
ATOM     14  C   UNL     1     132.535 128.361 137.823  1.00  0.00     0.021 C 
ATOM     15  C   UNL     1     131.571 127.921 135.531  1.00  0.00     0.008 C 
ATOM     16  C   UNL     1     133.705 126.709 136.242  1.00  0.00     0.012 C 
ATOM     17  C   UNL     1     131.733 127.254 138.457  1.00  0.00    -0.063 C 
ATOM     18  C   UNL     1     130.324 127.488 136.359  1.00  0.00     0.009 C 
ATOM     19  C   UNL     1     130.643 126.613 137.610  1.00  0.00     0.025 C 
ATOM     20  C   UNL     1     131.898 126.878 139.732  1.00  0.00    -0.000 C 
ATOM     21  C   UNL     1     129.379 126.227 138.473  1.00  0.00    -0.005 C 
ATOM     22  C   UNL     1     131.000 125.886 140.343  1.00  0.00    -0.000 C 
ATOM     23  C   UNL     1     129.848 125.521 139.755  1.00  0.00    -0.061 C 
ATOM     24  C   UNL     1     128.465 125.276 137.635  1.00  0.00     0.014 C 
ATOM     25  C   UNL     1     128.575 127.484 138.893  1.00  0.00     0.017 C 
ATOM     26  C   UNL     1     128.895 124.640 140.531  1.00  0.00     0.063 C 
ATOM     27  C   UNL     1     127.427 124.502 138.459  1.00  0.00     0.033 C 
ATOM     28  C   UNL     1     128.067 123.725 139.621  1.00  0.00     0.118 C 
BRANCH  28  29
ATOM     29  O   UNL     1     128.826 122.633 139.157  1.00  0.00    -0.393 OA
ATOM     30  H   UNL     1     128.252 122.084 138.563  1.00  0.00     0.210 HD
ENDBRANCH  28  29
ENDBRANCH   1  10
TORSDOF 5
ENDMDL
