MODEL 1
REMARK VINA RESULT:    -5.384      0.000      0.000
REMARK INTER + INTRA:          -5.989
REMARK INTER:                  -5.699
REMARK INTRA:                  -0.291
REMARK UNBOUND:                -0.291
REMARK SMILES CC1=C[C@@H]2C(=C(C)CC[C@H]2C(C)C)CC1
REMARK SMILES IDX 1 1 2 2 3 3 4 4 10 5 9 6 8 7 6 8 5 9 14 10 15 11 7 12 11 13
REMARK SMILES IDX 12 14 13 15
REMARK H PARENT
REMARK Flexibility Score: inf
ROOT
ATOM      1  C   UNL     1      10.149  14.311  39.876  1.00  0.00     0.039 C 
ATOM      2  C   UNL     1      11.022  14.557  38.676  1.00  0.00    -0.076 C 
ATOM      3  C   UNL     1      11.888  15.586  38.669  1.00  0.00    -0.020 C 
ATOM      4  C   UNL     1      12.796  15.801  37.474  1.00  0.00     0.041 C 
ATOM      5  C   UNL     1      13.878  16.879  37.759  1.00  0.00     0.003 C 
ATOM      6  C   UNL     1      14.964  16.808  36.672  1.00  0.00     0.009 C 
ATOM      7  C   UNL     1      15.647  15.445  36.702  1.00  0.00     0.031 C 
ATOM      8  C   UNL     1      14.662  14.297  36.643  1.00  0.00    -0.073 C 
ATOM      9  C   UNL     1      13.369  14.443  37.053  1.00  0.00    -0.064 C 
ATOM     10  C   UNL     1      12.417  13.247  37.058  1.00  0.00     0.036 C 
ATOM     11  C   UNL     1      10.988  13.629  37.483  1.00  0.00     0.035 C 
ATOM     12  C   UNL     1      15.205  12.949  36.229  1.00  0.00     0.039 C 
ENDROOT
BRANCH   5  13
ATOM     13  C   UNL     1      13.274  18.318  37.913  1.00  0.00    -0.013 C 
ATOM     14  C   UNL     1      12.364  18.746  36.747  1.00  0.00     0.007 C 
ATOM     15  C   UNL     1      14.374  19.369  38.129  1.00  0.00     0.007 C 
ENDBRANCH   5  13
TORSDOF 1
ENDMDL
MODEL 2
REMARK VINA RESULT:    -5.266     11.177     12.635
REMARK INTER + INTRA:          -5.865
REMARK INTER:                  -5.672
REMARK INTRA:                  -0.193
REMARK UNBOUND:                -0.291
REMARK SMILES CC1=C[C@@H]2C(=C(C)CC[C@H]2C(C)C)CC1
REMARK SMILES IDX 1 1 2 2 3 3 4 4 10 5 9 6 8 7 6 8 5 9 14 10 15 11 7 12 11 13
REMARK SMILES IDX 12 14 13 15
REMARK H PARENT
REMARK Flexibility Score: inf
ROOT
ATOM      1  C   UNL     1       7.011  17.647  28.080  1.00  0.00     0.039 C 
ATOM      2  C   UNL     1       7.816  18.617  27.260  1.00  0.00    -0.076 C 
ATOM      3  C   UNL     1       9.158  18.628  27.350  1.00  0.00    -0.020 C 
ATOM      4  C   UNL     1       9.965  19.579  26.487  1.00  0.00     0.041 C 
ATOM      5  C   UNL     1      11.486  19.272  26.558  1.00  0.00     0.003 C 
ATOM      6  C   UNL     1      12.208  20.015  25.421  1.00  0.00     0.009 C 
ATOM      7  C   UNL     1      11.698  19.526  24.069  1.00  0.00     0.031 C 
ATOM      8  C   UNL     1      10.189  19.581  23.960  1.00  0.00    -0.073 C 
ATOM      9  C   UNL     1       9.391  19.545  25.065  1.00  0.00    -0.064 C 
ATOM     10  C   UNL     1       7.869  19.521  24.923  1.00  0.00     0.036 C 
ATOM     11  C   UNL     1       7.146  19.555  26.282  1.00  0.00     0.035 C 
ATOM     12  C   UNL     1       9.601  19.550  22.568  1.00  0.00     0.039 C 
ENDROOT
BRANCH   5  13
ATOM     13  C   UNL     1      12.101  19.583  27.966  1.00  0.00    -0.013 C 
ATOM     14  C   UNL     1      11.465  20.791  28.678  1.00  0.00     0.007 C 
ATOM     15  C   UNL     1      13.625  19.769  27.884  1.00  0.00     0.007 C 
ENDBRANCH   5  13
TORSDOF 1
ENDMDL
MODEL 3
REMARK VINA RESULT:    -5.055     13.709     15.365
REMARK INTER + INTRA:          -5.641
REMARK INTER:                  -5.372
REMARK INTRA:                  -0.269
REMARK UNBOUND:                -0.291
REMARK SMILES CC1=C[C@@H]2C(=C(C)CC[C@H]2C(C)C)CC1
REMARK SMILES IDX 1 1 2 2 3 3 4 4 10 5 9 6 8 7 6 8 5 9 14 10 15 11 7 12 11 13
REMARK SMILES IDX 12 14 13 15
REMARK H PARENT
REMARK Flexibility Score: inf
ROOT
ATOM      1  C   UNL     1       6.407  21.773  27.518  1.00  0.00     0.039 C 
ATOM      2  C   UNL     1       6.971  20.694  26.636  1.00  0.00    -0.076 C 
ATOM      3  C   UNL     1       6.639  20.642  25.334  1.00  0.00    -0.020 C 
ATOM      4  C   UNL     1       7.247  19.577  24.441  1.00  0.00     0.041 C 
ATOM      5  C   UNL     1       6.931  19.834  22.941  1.00  0.00     0.003 C 
ATOM      6  C   UNL     1       7.843  18.950  22.072  1.00  0.00     0.009 C 
ATOM      7  C   UNL     1       9.305  19.315  22.308  1.00  0.00     0.031 C 
ATOM      8  C   UNL     1       9.679  19.304  23.774  1.00  0.00    -0.073 C 
ATOM      9  C   UNL     1       8.746  19.484  24.752  1.00  0.00    -0.064 C 
ATOM     10  C   UNL     1       9.163  19.551  26.221  1.00  0.00     0.036 C 
ATOM     11  C   UNL     1       7.960  19.684  27.173  1.00  0.00     0.035 C 
ATOM     12  C   UNL     1      11.152  19.212  24.105  1.00  0.00     0.039 C 
ENDROOT
BRANCH   5  13
ATOM     13  C   UNL     1       5.412  19.648  22.602  1.00  0.00    -0.013 C 
ATOM     14  C   UNL     1       5.033  18.218  22.173  1.00  0.00     0.007 C 
ATOM     15  C   UNL     1       4.948  20.653  21.536  1.00  0.00     0.007 C 
ENDBRANCH   5  13
TORSDOF 1
ENDMDL
MODEL 4
REMARK VINA RESULT:    -4.977     13.463     15.195
REMARK INTER + INTRA:          -5.559
REMARK INTER:                  -5.338
REMARK INTRA:                  -0.221
REMARK UNBOUND:                -0.291
REMARK SMILES CC1=C[C@@H]2C(=C(C)CC[C@H]2C(C)C)CC1
REMARK SMILES IDX 1 1 2 2 3 3 4 4 10 5 9 6 8 7 6 8 5 9 14 10 15 11 7 12 11 13
REMARK SMILES IDX 12 14 13 15
REMARK H PARENT
REMARK Flexibility Score: inf
ROOT
ATOM      1  C   UNL     1       6.287  21.495  27.721  1.00  0.00     0.039 C 
ATOM      2  C   UNL     1       6.646  21.320  26.272  1.00  0.00    -0.076 C 
ATOM      3  C   UNL     1       7.713  20.579  25.924  1.00  0.00    -0.020 C 
ATOM      4  C   UNL     1       8.043  20.371  24.458  1.00  0.00     0.041 C 
ATOM      5  C   UNL     1       9.151  19.299  24.263  1.00  0.00     0.003 C 
ATOM      6  C   UNL     1       9.197  18.879  22.784  1.00  0.00     0.009 C 
ATOM      7  C   UNL     1       7.868  18.252  22.376  1.00  0.00     0.031 C 
ATOM      8  C   UNL     1       6.681  19.128  22.715  1.00  0.00    -0.073 C 
ATOM      9  C   UNL     1       6.740  20.059  23.710  1.00  0.00    -0.064 C 
ATOM     10  C   UNL     1       5.503  20.874  24.086  1.00  0.00     0.036 C 
ATOM     11  C   UNL     1       5.791  21.920  25.178  1.00  0.00     0.035 C 
ATOM     12  C   UNL     1       5.387  18.840  21.989  1.00  0.00     0.039 C 
ENDROOT
BRANCH   5  13
ATOM     13  C   UNL     1      10.548  19.769  24.799  1.00  0.00    -0.013 C 
ATOM     14  C   UNL     1      11.685  19.667  23.766  1.00  0.00     0.007 C 
ATOM     15  C   UNL     1      10.938  19.017  26.082  1.00  0.00     0.007 C 
ENDBRANCH   5  13
TORSDOF 1
ENDMDL
MODEL 5
REMARK VINA RESULT:    -4.823     14.336     16.189
REMARK INTER + INTRA:          -5.396
REMARK INTER:                  -5.130
REMARK INTRA:                  -0.266
REMARK UNBOUND:                -0.291
REMARK SMILES CC1=C[C@@H]2C(=C(C)CC[C@H]2C(C)C)CC1
REMARK SMILES IDX 1 1 2 2 3 3 4 4 10 5 9 6 8 7 6 8 5 9 14 10 15 11 7 12 11 13
REMARK SMILES IDX 12 14 13 15
REMARK H PARENT
REMARK Flexibility Score: inf
ROOT
ATOM      1  C   UNL     1       4.270  22.976  26.420  1.00  0.00     0.039 C 
ATOM      2  C   UNL     1       4.978  22.393  25.229  1.00  0.00    -0.076 C 
ATOM      3  C   UNL     1       5.888  21.416  25.393  1.00  0.00    -0.020 C 
ATOM      4  C   UNL     1       6.565  20.803  24.183  1.00  0.00     0.041 C 
ATOM      5  C   UNL     1       7.389  19.541  24.561  1.00  0.00     0.003 C 
ATOM      6  C   UNL     1       7.756  18.771  23.280  1.00  0.00     0.009 C 
ATOM      7  C   UNL     1       6.490  18.304  22.569  1.00  0.00     0.031 C 
ATOM      8  C   UNL     1       5.505  19.428  22.332  1.00  0.00    -0.073 C 
ATOM      9  C   UNL     1       5.499  20.549  23.110  1.00  0.00    -0.064 C 
ATOM     10  C   UNL     1       4.441  21.633  22.901  1.00  0.00     0.036 C 
ATOM     11  C   UNL     1       4.647  22.847  23.825  1.00  0.00     0.035 C 
ATOM     12  C   UNL     1       4.446  19.201  21.278  1.00  0.00     0.039 C 
ENDROOT
BRANCH   5  13
ATOM     13  C   UNL     1       8.642  19.877  25.441  1.00  0.00    -0.013 C 
ATOM     14  C   UNL     1       9.990  19.594  24.752  1.00  0.00     0.007 C 
ATOM     15  C   UNL     1       8.586  19.154  26.796  1.00  0.00     0.007 C 
ENDBRANCH   5  13
TORSDOF 1
ENDMDL
MODEL 6
REMARK VINA RESULT:    -4.821      1.221      4.145
REMARK INTER + INTRA:          -5.393
REMARK INTER:                  -5.163
REMARK INTRA:                  -0.231
REMARK UNBOUND:                -0.291
REMARK SMILES CC1=C[C@@H]2C(=C(C)CC[C@H]2C(C)C)CC1
REMARK SMILES IDX 1 1 2 2 3 3 4 4 10 5 9 6 8 7 6 8 5 9 14 10 15 11 7 12 11 13
REMARK SMILES IDX 12 14 13 15
REMARK H PARENT
REMARK Flexibility Score: inf
ROOT
ATOM      1  C   UNL     1      14.459  19.698  36.573  1.00  0.00     0.039 C 
ATOM      2  C   UNL     1      14.368  18.333  37.194  1.00  0.00    -0.076 C 
ATOM      3  C   UNL     1      13.171  17.744  37.364  1.00  0.00    -0.020 C 
ATOM      4  C   UNL     1      13.091  16.348  37.951  1.00  0.00     0.041 C 
ATOM      5  C   UNL     1      11.659  15.757  37.839  1.00  0.00     0.003 C 
ATOM      6  C   UNL     1      11.710  14.245  38.118  1.00  0.00     0.009 C 
ATOM      7  C   UNL     1      12.582  13.550  37.077  1.00  0.00     0.031 C 
ATOM      8  C   UNL     1      13.950  14.183  36.945  1.00  0.00    -0.073 C 
ATOM      9  C   UNL     1      14.172  15.484  37.289  1.00  0.00    -0.064 C 
ATOM     10  C   UNL     1      15.544  16.122  37.070  1.00  0.00     0.036 C 
ATOM     11  C   UNL     1      15.613  17.570  37.588  1.00  0.00     0.035 C 
ATOM     12  C   UNL     1      15.032  13.349  36.297  1.00  0.00     0.039 C 
ENDROOT
BRANCH   5  13
ATOM     13  C   UNL     1      10.624  16.502  38.752  1.00  0.00    -0.013 C 
ATOM     14  C   UNL     1      11.182  16.921  40.124  1.00  0.00     0.007 C 
ATOM     15  C   UNL     1       9.343  15.673  38.940  1.00  0.00     0.007 C 
ENDBRANCH   5  13
TORSDOF 1
ENDMDL
MODEL 7
REMARK VINA RESULT:    -4.760      2.494      4.077
REMARK INTER + INTRA:          -5.329
REMARK INTER:                  -5.063
REMARK INTRA:                  -0.266
REMARK UNBOUND:                -0.291
REMARK SMILES CC1=C[C@@H]2C(=C(C)CC[C@H]2C(C)C)CC1
REMARK SMILES IDX 1 1 2 2 3 3 4 4 10 5 9 6 8 7 6 8 5 9 14 10 15 11 7 12 11 13
REMARK SMILES IDX 12 14 13 15
REMARK H PARENT
REMARK Flexibility Score: inf
ROOT
ATOM      1  C   UNL     1      14.531  12.876  36.366  1.00  0.00     0.039 C 
ATOM      2  C   UNL     1      15.251  14.195  36.408  1.00  0.00    -0.076 C 
ATOM      3  C   UNL     1      14.557  15.340  36.531  1.00  0.00    -0.020 C 
ATOM      4  C   UNL     1      15.294  16.664  36.618  1.00  0.00     0.041 C 
ATOM      5  C   UNL     1      14.340  17.830  36.999  1.00  0.00     0.003 C 
ATOM      6  C   UNL     1      15.175  19.054  37.411  1.00  0.00     0.009 C 
ATOM      7  C   UNL     1      16.018  18.724  38.638  1.00  0.00     0.031 C 
ATOM      8  C   UNL     1      16.843  17.468  38.458  1.00  0.00    -0.073 C 
ATOM      9  C   UNL     1      16.480  16.494  37.575  1.00  0.00    -0.064 C 
ATOM     10  C   UNL     1      17.286  15.199  37.472  1.00  0.00     0.036 C 
ATOM     11  C   UNL     1      16.761  14.261  36.370  1.00  0.00     0.035 C 
ATOM     12  C   UNL     1      18.019  17.281  39.390  1.00  0.00     0.039 C 
ENDROOT
BRANCH   5  13
ATOM     13  C   UNL     1      13.305  18.160  35.868  1.00  0.00    -0.013 C 
ATOM     14  C   UNL     1      13.573  19.489  35.138  1.00  0.00     0.007 C 
ATOM     15  C   UNL     1      11.864  18.138  36.402  1.00  0.00     0.007 C 
ENDBRANCH   5  13
TORSDOF 1
ENDMDL
MODEL 8
REMARK VINA RESULT:    -4.700     12.235     14.248
REMARK INTER + INTRA:          -5.265
REMARK INTER:                  -4.999
REMARK INTRA:                  -0.266
REMARK UNBOUND:                -0.291
REMARK SMILES CC1=C[C@@H]2C(=C(C)CC[C@H]2C(C)C)CC1
REMARK SMILES IDX 1 1 2 2 3 3 4 4 10 5 9 6 8 7 6 8 5 9 14 10 15 11 7 12 11 13
REMARK SMILES IDX 12 14 13 15
REMARK H PARENT
REMARK Flexibility Score: inf
ROOT
ATOM      1  C   UNL     1      13.033  20.198  21.912  1.00  0.00     0.039 C 
ATOM      2  C   UNL     1      12.349  20.475  23.222  1.00  0.00    -0.076 C 
ATOM      3  C   UNL     1      11.125  19.973  23.466  1.00  0.00    -0.020 C 
ATOM      4  C   UNL     1      10.461  20.220  24.807  1.00  0.00     0.041 C 
ATOM      5  C   UNL     1       9.176  19.363  24.980  1.00  0.00     0.003 C 
ATOM      6  C   UNL     1       8.747  19.383  26.457  1.00  0.00     0.009 C 
ATOM      7  C   UNL     1       9.838  18.767  27.328  1.00  0.00     0.031 C 
ATOM      8  C   UNL     1      11.196  19.389  27.088  1.00  0.00    -0.073 C 
ATOM      9  C   UNL     1      11.504  20.004  25.910  1.00  0.00    -0.064 C 
ATOM     10  C   UNL     1      12.910  20.552  25.664  1.00  0.00     0.036 C 
ATOM     11  C   UNL     1      13.036  21.271  24.309  1.00  0.00     0.035 C 
ATOM     12  C   UNL     1      12.241  19.190  28.163  1.00  0.00     0.039 C 
ENDROOT
BRANCH   5  13
ATOM     13  C   UNL     1       8.022  19.799  24.012  1.00  0.00    -0.013 C 
ATOM     14  C   UNL     1       6.799  20.405  24.725  1.00  0.00     0.007 C 
ATOM     15  C   UNL     1       7.578  18.638  23.109  1.00  0.00     0.007 C 
ENDBRANCH   5  13
TORSDOF 1
ENDMDL
