MODEL 1
REMARK VINA RESULT:    15.472      0.000      0.000
REMARK INTER + INTRA:          17.207
REMARK INTER:                  16.828
REMARK INTRA:                   0.379
REMARK UNBOUND:                 0.379
REMARK SMILES CC1(C)CC[C@]2(C(=O)[O-])CC[C@]3(C)C(=CC[C@H]4[C@]5(C)CC[C@H](O)C(C)(C)[C@@H]5CC[C@]43C)[C@@H]2C1
REMARK SMILES IDX 6 1 5 2 10 3 32 4 4 5 11 6 14 7 33 8 2 9 12 10 15 11 1 12
REMARK SMILES IDX 3 13 13 14 30 15 16 16 17 17 29 18 31 19 18 20 28 21 27 22
REMARK SMILES IDX 20 23 19 24 24 25 21 26 22 27 25 28 26 29 7 30 8 31 9 32
REMARK SMILES IDX 23 33
REMARK H PARENT 23 34
REMARK Flexibility Score: inf
ROOT
ATOM      1  C   UNL     1      20.141   1.847  49.272  1.00  0.00     0.017 C 
ATOM      2  C   UNL     1      21.125   3.067  49.191  1.00  0.00     0.014 C 
ATOM      3  C   UNL     1      20.966   0.538  49.070  1.00  0.00     0.014 C 
ATOM      4  C   UNL     1      19.030   1.960  48.175  1.00  0.00     0.028 C 
ATOM      5  C   UNL     1      20.475   4.323  48.583  1.00  0.00     0.007 C 
ATOM      6  C   UNL     1      20.114  -0.742  48.886  1.00  0.00     0.013 C 
ATOM      7  C   UNL     1      18.280   0.628  47.994  1.00  0.00    -0.064 C 
ATOM      8  C   UNL     1      19.562   2.605  46.878  1.00  0.00     0.015 C 
ATOM      9  C   UNL     1      19.988   4.093  47.113  1.00  0.00    -0.035 C 
ATOM     10  C   UNL     1      19.050  -0.677  47.731  1.00  0.00    -0.006 C 
ATOM     11  C   UNL     1      17.012   0.616  48.434  1.00  0.00    -0.027 C 
ATOM     12  C   UNL     1      21.124   4.456  46.131  1.00  0.00     0.011 C 
ATOM     13  C   UNL     1      18.793   5.028  46.826  1.00  0.00     0.011 C 
ATOM     14  C   UNL     1      19.785  -0.562  46.354  1.00  0.00     0.017 C 
ATOM     15  C   UNL     1      18.104  -2.005  47.713  1.00  0.00    -0.020 C 
ATOM     16  C   UNL     1      16.212  -0.600  48.720  1.00  0.00     0.032 C 
ATOM     17  C   UNL     1      16.998  -1.946  48.844  1.00  0.00     0.006 C 
ATOM     18  C   UNL     1      17.325  -2.147  46.370  1.00  0.00     0.008 C 
ATOM     19  C   UNL     1      19.050  -3.245  47.875  1.00  0.00     0.012 C 
ATOM     20  C   UNL     1      15.939  -3.164  48.904  1.00  0.00    -0.025 C 
ATOM     21  C   UNL     1      16.344  -3.334  46.323  1.00  0.00     0.005 C 
ATOM     22  C   UNL     1      15.293  -3.418  47.475  1.00  0.00     0.003 C 
ATOM     23  C   UNL     1      16.568  -4.481  49.468  1.00  0.00     0.010 C 
ATOM     24  C   UNL     1      14.839  -2.754  49.948  1.00  0.00     0.012 C 
ATOM     25  C   UNL     1      14.399  -4.741  47.365  1.00  0.00    -0.006 C 
ATOM     26  C   UNL     1      15.638  -5.706  49.420  1.00  0.00     0.033 C 
ATOM     27  C   UNL     1      15.112  -5.979  48.001  1.00  0.00     0.120 C 
ATOM     28  C   UNL     1      14.062  -5.078  45.880  1.00  0.00     0.014 C 
ATOM     29  C   UNL     1      13.008  -4.536  48.038  1.00  0.00     0.014 C 
ENDROOT
BRANCH   1  30
ATOM     30  C   UNL     1      19.484   1.858  50.653  1.00  0.00     0.048 C 
ATOM     31  O   UNL     1      18.860   0.853  51.088  1.00  0.00    -0.550 OA
ATOM     32  O   UNL     1      19.629   2.961  51.486  1.00  0.00    -0.550 OA
ENDBRANCH   1  30
BRANCH  27  33
ATOM     33  O   UNL     1      16.177  -6.412  47.190  1.00  0.00    -0.393 OA
ATOM     34  H   UNL     1      16.699  -7.071  47.720  1.00  0.00     0.210 HD
ENDBRANCH  27  33
TORSDOF 2
ENDMDL
