MODEL 1
REMARK VINA RESULT:    -3.589      0.000      0.000
REMARK INTER + INTRA:          -5.230
REMARK INTER:                  -4.848
REMARK INTRA:                  -0.382
REMARK UNBOUND:                -0.382
REMARK SMILES CCCCCCCC(=O)[O-]
REMARK SMILES IDX 5 1 6 2 7 3 8 4 9 5 10 6 4 7 3 8 2 9 1 10
REMARK H PARENT
REMARK Flexibility Score: inf
ROOT
ATOM      1  C   UNL     1      -6.658 -65.494  -0.985  1.00  0.00     0.000 C 
ENDROOT
BRANCH   1   2
ATOM      2  C   UNL     1      -5.217 -65.952  -1.271  1.00  0.00     0.006 C 
BRANCH   2   3
ATOM      3  C   UNL     1      -5.173 -67.203  -2.160  1.00  0.00     0.053 C 
BRANCH   3   4
ATOM      4  C   UNL     1      -4.407 -66.962  -3.425  1.00  0.00     0.041 C 
ATOM      5  O   UNL     1      -3.603 -65.996  -3.504  1.00  0.00    -0.550 OA
ATOM      6  O   UNL     1      -4.559 -67.821  -4.506  1.00  0.00    -0.550 OA
ENDBRANCH   3   4
ENDBRANCH   2   3
ENDBRANCH   1   2
BRANCH   1   7
ATOM      7  C   UNL     1      -7.081 -65.745   0.472  1.00  0.00     0.000 C 
BRANCH   7   8
ATOM      8  C   UNL     1      -8.340 -66.622   0.579  1.00  0.00    -0.000 C 
BRANCH   8   9
ATOM      9  C   UNL     1      -8.951 -66.945  -0.794  1.00  0.00    -0.003 C 
ATOM     10  C   UNL     1      -9.333 -68.418  -0.941  1.00  0.00     0.004 C 
ENDBRANCH   8   9
ENDBRANCH   7   8
ENDBRANCH   1   7
TORSDOF 6
ENDMDL
MODEL 2
REMARK VINA RESULT:    -3.560      0.377      1.083
REMARK INTER + INTRA:          -5.192
REMARK INTER:                  -4.767
REMARK INTRA:                  -0.425
REMARK UNBOUND:                -0.382
REMARK SMILES CCCCCCCC(=O)[O-]
REMARK SMILES IDX 5 1 6 2 7 3 8 4 9 5 10 6 4 7 3 8 2 9 1 10
REMARK H PARENT
REMARK Flexibility Score: inf
ROOT
ATOM      1  C   UNL     1      -6.260 -65.404  -1.061  1.00  0.00     0.000 C 
ENDROOT
BRANCH   1   2
ATOM      2  C   UNL     1      -5.015 -66.283  -1.281  1.00  0.00     0.006 C 
BRANCH   2   3
ATOM      3  C   UNL     1      -5.241 -67.344  -2.366  1.00  0.00     0.053 C 
BRANCH   3   4
ATOM      4  C   UNL     1      -4.369 -67.114  -3.562  1.00  0.00     0.041 C 
ATOM      5  O   UNL     1      -4.306 -67.979  -4.475  1.00  0.00    -0.550 OA
ATOM      6  O   UNL     1      -3.651 -65.931  -3.683  1.00  0.00    -0.550 OA
ENDBRANCH   3   4
ENDBRANCH   2   3
ENDBRANCH   1   2
BRANCH   1   7
ATOM      7  C   UNL     1      -6.743 -65.416   0.398  1.00  0.00     0.000 C 
BRANCH   7   8
ATOM      8  C   UNL     1      -7.997 -66.285   0.598  1.00  0.00    -0.000 C 
BRANCH   8   9
ATOM      9  C   UNL     1      -8.741 -66.556  -0.719  1.00  0.00    -0.003 C 
ATOM     10  C   UNL     1      -9.240 -67.997  -0.832  1.00  0.00     0.004 C 
ENDBRANCH   8   9
ENDBRANCH   7   8
ENDBRANCH   1   7
TORSDOF 6
ENDMDL
MODEL 3
REMARK VINA RESULT:    -3.492      0.973      1.202
REMARK INTER + INTRA:          -5.099
REMARK INTER:                  -4.872
REMARK INTRA:                  -0.227
REMARK UNBOUND:                -0.382
REMARK SMILES CCCCCCCC(=O)[O-]
REMARK SMILES IDX 5 1 6 2 7 3 8 4 9 5 10 6 4 7 3 8 2 9 1 10
REMARK H PARENT
REMARK Flexibility Score: inf
ROOT
ATOM      1  C   UNL     1      -5.564 -65.684  -0.996  1.00  0.00     0.000 C 
ENDROOT
BRANCH   1   2
ATOM      2  C   UNL     1      -5.350 -66.899  -1.917  1.00  0.00     0.006 C 
BRANCH   2   3
ATOM      3  C   UNL     1      -4.355 -66.600  -3.047  1.00  0.00     0.053 C 
BRANCH   3   4
ATOM      4  C   UNL     1      -4.386 -67.655  -4.111  1.00  0.00     0.041 C 
ATOM      5  O   UNL     1      -3.720 -67.506  -5.169  1.00  0.00    -0.550 OA
ATOM      6  O   UNL     1      -5.125 -68.815  -3.920  1.00  0.00    -0.550 OA
ENDBRANCH   3   4
ENDBRANCH   2   3
ENDBRANCH   1   2
BRANCH   1   7
ATOM      7  C   UNL     1      -7.051 -65.384  -0.747  1.00  0.00     0.000 C 
BRANCH   7   8
ATOM      8  C   UNL     1      -7.784 -66.552  -0.066  1.00  0.00    -0.000 C 
BRANCH   8   9
ATOM      9  C   UNL     1      -9.117 -66.890  -0.752  1.00  0.00    -0.003 C 
ATOM     10  C   UNL     1      -9.376 -68.394  -0.840  1.00  0.00     0.004 C 
ENDBRANCH   8   9
ENDBRANCH   7   8
ENDBRANCH   1   7
TORSDOF 6
ENDMDL
MODEL 4
REMARK VINA RESULT:    -3.288     10.755     11.798
REMARK INTER + INTRA:          -4.823
REMARK INTER:                  -4.546
REMARK INTRA:                  -0.278
REMARK UNBOUND:                -0.382
REMARK SMILES CCCCCCCC(=O)[O-]
REMARK SMILES IDX 5 1 6 2 7 3 8 4 9 5 10 6 4 7 3 8 2 9 1 10
REMARK H PARENT
REMARK Flexibility Score: inf
ROOT
ATOM      1  C   UNL     1      -8.740 -73.231   5.633  1.00  0.00     0.000 C 
ENDROOT
BRANCH   1   2
ATOM      2  C   UNL     1     -10.004 -72.367   5.791  1.00  0.00     0.006 C 
BRANCH   2   3
ATOM      3  C   UNL     1     -11.255 -73.068   5.244  1.00  0.00     0.053 C 
BRANCH   3   4
ATOM      4  C   UNL     1     -12.482 -72.712   6.027  1.00  0.00     0.041 C 
ATOM      5  O   UNL     1     -12.647 -71.535   6.443  1.00  0.00    -0.550 OA
ATOM      6  O   UNL     1     -13.456 -73.671   6.270  1.00  0.00    -0.550 OA
ENDBRANCH   3   4
ENDBRANCH   2   3
ENDBRANCH   1   2
BRANCH   1   7
ATOM      7  C   UNL     1      -8.854 -74.585   6.352  1.00  0.00     0.000 C 
BRANCH   7   8
ATOM      8  C   UNL     1      -7.829 -75.613   5.844  1.00  0.00    -0.000 C 
BRANCH   8   9
ATOM      9  C   UNL     1      -7.432 -75.372   4.378  1.00  0.00    -0.003 C 
ATOM     10  C   UNL     1      -7.559 -76.627   3.515  1.00  0.00     0.004 C 
ENDBRANCH   8   9
ENDBRANCH   7   8
ENDBRANCH   1   7
TORSDOF 6
ENDMDL
MODEL 5
REMARK VINA RESULT:    -3.272      3.053      5.111
REMARK INTER + INTRA:          -4.801
REMARK INTER:                  -4.597
REMARK INTRA:                  -0.205
REMARK UNBOUND:                -0.382
REMARK SMILES CCCCCCCC(=O)[O-]
REMARK SMILES IDX 5 1 6 2 7 3 8 4 9 5 10 6 4 7 3 8 2 9 1 10
REMARK H PARENT
REMARK Flexibility Score: inf
ROOT
ATOM      1  C   UNL     1      -4.957 -65.862  -0.862  1.00  0.00     0.000 C 
ENDROOT
BRANCH   1   2
ATOM      2  C   UNL     1      -6.247 -65.556  -0.079  1.00  0.00     0.006 C 
BRANCH   2   3
ATOM      3  C   UNL     1      -7.508 -65.876  -0.894  1.00  0.00     0.053 C 
BRANCH   3   4
ATOM      4  C   UNL     1      -8.475 -66.717  -0.119  1.00  0.00     0.041 C 
ATOM      5  O   UNL     1      -9.318 -67.431  -0.723  1.00  0.00    -0.550 OA
ATOM      6  O   UNL     1      -8.424 -66.737   1.269  1.00  0.00    -0.550 OA
ENDBRANCH   3   4
ENDBRANCH   2   3
ENDBRANCH   1   2
BRANCH   1   7
ATOM      7  C   UNL     1      -5.161 -66.935  -1.944  1.00  0.00     0.000 C 
BRANCH   7   8
ATOM      8  C   UNL     1      -4.408 -66.612  -3.246  1.00  0.00    -0.000 C 
BRANCH   8   9
ATOM      9  C   UNL     1      -4.427 -67.783  -4.241  1.00  0.00    -0.003 C 
ATOM     10  C   UNL     1      -3.798 -67.427  -5.588  1.00  0.00     0.004 C 
ENDBRANCH   8   9
ENDBRANCH   7   8
ENDBRANCH   1   7
TORSDOF 6
ENDMDL
MODEL 6
REMARK VINA RESULT:    -3.137      1.533      2.380
REMARK INTER + INTRA:          -4.620
REMARK INTER:                  -4.426
REMARK INTRA:                  -0.194
REMARK UNBOUND:                -0.382
REMARK SMILES CCCCCCCC(=O)[O-]
REMARK SMILES IDX 5 1 6 2 7 3 8 4 9 5 10 6 4 7 3 8 2 9 1 10
REMARK H PARENT
REMARK Flexibility Score: inf
ROOT
ATOM      1  C   UNL     1      -5.115 -67.115  -2.230  1.00  0.00     0.000 C 
ENDROOT
BRANCH   1   2
ATOM      2  C   UNL     1      -4.278 -66.663  -3.440  1.00  0.00     0.006 C 
BRANCH   2   3
ATOM      3  C   UNL     1      -4.126 -67.775  -4.487  1.00  0.00     0.053 C 
BRANCH   3   4
ATOM      4  C   UNL     1      -3.919 -67.221  -5.864  1.00  0.00     0.041 C 
ATOM      5  O   UNL     1      -3.418 -66.076  -6.016  1.00  0.00    -0.550 OA
ATOM      6  O   UNL     1      -4.249 -67.981  -6.978  1.00  0.00    -0.550 OA
ENDBRANCH   3   4
ENDBRANCH   2   3
ENDBRANCH   1   2
BRANCH   1   7
ATOM      7  C   UNL     1      -5.107 -66.087  -1.087  1.00  0.00     0.000 C 
BRANCH   7   8
ATOM      8  C   UNL     1      -6.524 -65.704  -0.626  1.00  0.00    -0.000 C 
BRANCH   8   9
ATOM      9  C   UNL     1      -7.537 -66.841  -0.832  1.00  0.00    -0.003 C 
ATOM     10  C   UNL     1      -8.948 -66.468  -0.381  1.00  0.00     0.004 C 
ENDBRANCH   8   9
ENDBRANCH   7   8
ENDBRANCH   1   7
TORSDOF 6
ENDMDL
MODEL 7
REMARK VINA RESULT:    -3.097      3.452      5.307
REMARK INTER + INTRA:          -4.566
REMARK INTER:                  -4.214
REMARK INTRA:                  -0.352
REMARK UNBOUND:                -0.382
REMARK SMILES CCCCCCCC(=O)[O-]
REMARK SMILES IDX 5 1 6 2 7 3 8 4 9 5 10 6 4 7 3 8 2 9 1 10
REMARK H PARENT
REMARK Flexibility Score: inf
ROOT
ATOM      1  C   UNL     1      -6.129 -65.629  -0.527  1.00  0.00     0.000 C 
ENDROOT
BRANCH   1   2
ATOM      2  C   UNL     1      -7.395 -66.376  -0.984  1.00  0.00     0.006 C 
BRANCH   2   3
ATOM      3  C   UNL     1      -8.315 -66.729   0.193  1.00  0.00     0.053 C 
BRANCH   3   4
ATOM      4  C   UNL     1      -8.881 -65.505   0.846  1.00  0.00     0.041 C 
ATOM      5  O   UNL     1      -9.666 -64.754   0.209  1.00  0.00    -0.550 OA
ATOM      6  O   UNL     1      -8.566 -65.211   2.166  1.00  0.00    -0.550 OA
ENDBRANCH   3   4
ENDBRANCH   2   3
ENDBRANCH   1   2
BRANCH   1   7
ATOM      7  C   UNL     1      -4.877 -66.049  -1.314  1.00  0.00     0.000 C 
BRANCH   7   8
ATOM      8  C   UNL     1      -5.140 -67.239  -2.252  1.00  0.00    -0.000 C 
BRANCH   8   9
ATOM      9  C   UNL     1      -4.365 -67.127  -3.575  1.00  0.00    -0.003 C 
ATOM     10  C   UNL     1      -3.959 -65.691  -3.906  1.00  0.00     0.004 C 
ENDBRANCH   8   9
ENDBRANCH   7   8
ENDBRANCH   1   7
TORSDOF 6
ENDMDL
MODEL 8
REMARK VINA RESULT:    -3.059      1.629      2.272
REMARK INTER + INTRA:          -4.514
REMARK INTER:                  -4.189
REMARK INTRA:                  -0.324
REMARK UNBOUND:                -0.382
REMARK SMILES CCCCCCCC(=O)[O-]
REMARK SMILES IDX 5 1 6 2 7 3 8 4 9 5 10 6 4 7 3 8 2 9 1 10
REMARK H PARENT
REMARK Flexibility Score: inf
ROOT
ATOM      1  C   UNL     1      -6.949 -65.370   0.413  1.00  0.00     0.000 C 
ENDROOT
BRANCH   1   2
ATOM      2  C   UNL     1      -6.480 -65.320  -1.053  1.00  0.00     0.006 C 
BRANCH   2   3
ATOM      3  C   UNL     1      -5.119 -66.004  -1.249  1.00  0.00     0.053 C 
BRANCH   3   4
ATOM      4  C   UNL     1      -4.028 -65.011  -1.508  1.00  0.00     0.041 C 
ATOM      5  O   UNL     1      -3.854 -64.551  -2.667  1.00  0.00    -0.550 OA
ATOM      6  O   UNL     1      -3.224 -64.571  -0.464  1.00  0.00    -0.550 OA
ENDBRANCH   3   4
ENDBRANCH   2   3
ENDBRANCH   1   2
BRANCH   1   7
ATOM      7  C   UNL     1      -8.133 -66.327   0.623  1.00  0.00     0.000 C 
BRANCH   7   8
ATOM      8  C   UNL     1      -8.860 -66.666  -0.689  1.00  0.00    -0.000 C 
BRANCH   8   9
ATOM      9  C   UNL     1      -9.477 -68.074  -0.673  1.00  0.00    -0.003 C 
ATOM     10  C   UNL     1      -8.750 -69.051  -1.598  1.00  0.00     0.004 C 
ENDBRANCH   8   9
ENDBRANCH   7   8
ENDBRANCH   1   7
TORSDOF 6
ENDMDL
MODEL 9
REMARK VINA RESULT:    -3.056     10.040     10.815
REMARK INTER + INTRA:          -4.511
REMARK INTER:                  -4.089
REMARK INTRA:                  -0.421
REMARK UNBOUND:                -0.382
REMARK SMILES CCCCCCCC(=O)[O-]
REMARK SMILES IDX 5 1 6 2 7 3 8 4 9 5 10 6 4 7 3 8 2 9 1 10
REMARK H PARENT
REMARK Flexibility Score: inf
ROOT
ATOM      1  C   UNL     1      -8.639 -74.833   6.539  1.00  0.00     0.000 C 
ENDROOT
BRANCH   1   2
ATOM      2  C   UNL     1      -7.759 -75.993   6.039  1.00  0.00     0.006 C 
BRANCH   2   3
ATOM      3  C   UNL     1      -6.762 -75.541   4.963  1.00  0.00     0.053 C 
BRANCH   3   4
ATOM      4  C   UNL     1      -7.104 -76.097   3.615  1.00  0.00     0.041 C 
ATOM      5  O   UNL     1      -8.093 -75.647   2.977  1.00  0.00    -0.550 OA
ATOM      6  O   UNL     1      -6.315 -77.090   3.050  1.00  0.00    -0.550 OA
ENDBRANCH   3   4
ENDBRANCH   2   3
ENDBRANCH   1   2
BRANCH   1   7
ATOM      7  C   UNL     1      -8.112 -73.458   6.098  1.00  0.00     0.000 C 
BRANCH   7   8
ATOM      8  C   UNL     1      -9.243 -72.481   5.732  1.00  0.00    -0.000 C 
BRANCH   8   9
ATOM      9  C   UNL     1     -10.356 -73.151   4.911  1.00  0.00    -0.003 C 
ATOM     10  C   UNL     1     -11.726 -73.060   5.583  1.00  0.00     0.004 C 
ENDBRANCH   8   9
ENDBRANCH   7   8
ENDBRANCH   1   7
TORSDOF 6
ENDMDL
