MODEL 1
REMARK VINA RESULT:    -3.332      0.000      0.000
REMARK INTER + INTRA:          -5.412
REMARK INTER:                  -4.501
REMARK INTRA:                  -0.912
REMARK UNBOUND:                -0.912
REMARK SMILES O=C[C@@H](O)[C@H](O)[C@@H](O)CO
REMARK SMILES IDX 7 1 9 2 10 3 5 5 3 6 2 7 1 8 4 9 6 11 8 13
REMARK H PARENT 10 4 4 10 6 12 8 14
REMARK Flexibility Score: inf
ROOT
ATOM      1  C   UNL     1       4.369 -10.826  -6.450  1.00  0.00     0.171 C 
ENDROOT
BRANCH   1   2
ATOM      2  C   UNL     1       3.029 -11.540  -6.687  1.00  0.00     0.190 C 
BRANCH   2   3
ATOM      3  O   UNL     1       2.014 -10.610  -6.950  1.00  0.00    -0.394 OA
ATOM      4  H   UNL     1       1.164 -11.121  -6.945  1.00  0.00     0.210 HD
ENDBRANCH   2   3
ENDBRANCH   1   2
BRANCH   1   5
ATOM      5  C   UNL     1       4.816  -9.896  -7.620  1.00  0.00     0.181 C 
BRANCH   5   6
ATOM      6  C   UNL     1       4.645  -8.380  -7.344  1.00  0.00     0.209 C 
BRANCH   6   7
ATOM      7  C   UNL     1       4.968  -7.543  -8.554  1.00  0.00     0.258 C 
ATOM      8  O   UNL     1       4.105  -7.280  -9.376  1.00  0.00    -0.300 OA
ENDBRANCH   6   7
BRANCH   6   9
ATOM      9  O   UNL     1       3.333  -8.104  -6.921  1.00  0.00    -0.383 OA
ATOM     10  H   UNL     1       2.729  -8.763  -7.357  1.00  0.00     0.211 HD
ENDBRANCH   6   9
ENDBRANCH   5   6
BRANCH   5  11
ATOM     11  O   UNL     1       4.105 -10.224  -8.787  1.00  0.00    -0.387 OA
ATOM     12  H   UNL     1       3.931 -11.201  -8.757  1.00  0.00     0.211 HD
ENDBRANCH   5  11
ENDBRANCH   1   5
BRANCH   1  13
ATOM     13  O   UNL     1       4.290 -10.105  -5.248  1.00  0.00    -0.388 OA
ATOM     14  H   UNL     1       4.154  -9.151  -5.492  1.00  0.00     0.211 HD
ENDBRANCH   1  13
TORSDOF 8
ENDMDL
MODEL 2
REMARK VINA RESULT:    -3.237      2.587      4.123
REMARK INTER + INTRA:          -5.284
REMARK INTER:                  -4.747
REMARK INTRA:                  -0.537
REMARK UNBOUND:                -0.912
REMARK SMILES O=C[C@@H](O)[C@H](O)[C@@H](O)CO
REMARK SMILES IDX 7 1 9 2 10 3 5 5 3 6 2 7 1 8 4 9 6 11 8 13
REMARK H PARENT 10 4 4 10 6 12 8 14
REMARK Flexibility Score: inf
ROOT
ATOM      1  C   UNL     1       4.980 -12.000  -3.646  1.00  0.00     0.171 C 
ENDROOT
BRANCH   1   2
ATOM      2  C   UNL     1       4.751 -11.435  -2.234  1.00  0.00     0.190 C 
BRANCH   2   3
ATOM      3  O   UNL     1       5.614 -10.361  -1.986  1.00  0.00    -0.394 OA
ATOM      4  H   UNL     1       6.529 -10.690  -2.187  1.00  0.00     0.210 HD
ENDBRANCH   2   3
ENDBRANCH   1   2
BRANCH   1   5
ATOM      5  C   UNL     1       3.785 -11.783  -4.625  1.00  0.00     0.181 C 
BRANCH   5   6
ATOM      6  C   UNL     1       4.158 -11.089  -5.959  1.00  0.00     0.209 C 
BRANCH   6   7
ATOM      7  C   UNL     1       3.056 -11.193  -6.981  1.00  0.00     0.258 C 
ATOM      8  O   UNL     1       2.084 -10.457  -6.921  1.00  0.00    -0.300 OA
ENDBRANCH   6   7
BRANCH   6   9
ATOM      9  O   UNL     1       4.467  -9.736  -5.739  1.00  0.00    -0.383 OA
ATOM     10  H   UNL     1       5.381  -9.692  -5.353  1.00  0.00     0.211 HD
ENDBRANCH   6   9
ENDBRANCH   5   6
BRANCH   5  11
ATOM     11  O   UNL     1       2.782 -11.029  -3.991  1.00  0.00    -0.387 OA
ATOM     12  H   UNL     1       2.021 -10.966  -4.626  1.00  0.00     0.211 HD
ENDBRANCH   5  11
ENDBRANCH   1   5
BRANCH   1  13
ATOM     13  O   UNL     1       6.156 -11.439  -4.170  1.00  0.00    -0.388 OA
ATOM     14  H   UNL     1       6.782 -11.315  -3.409  1.00  0.00     0.211 HD
ENDBRANCH   1  13
TORSDOF 8
ENDMDL
MODEL 3
REMARK VINA RESULT:    -3.155      7.623      8.393
REMARK INTER + INTRA:          -5.173
REMARK INTER:                  -4.480
REMARK INTRA:                  -0.694
REMARK UNBOUND:                -0.912
REMARK SMILES O=C[C@@H](O)[C@H](O)[C@@H](O)CO
REMARK SMILES IDX 7 1 9 2 10 3 5 5 3 6 2 7 1 8 4 9 6 11 8 13
REMARK H PARENT 10 4 4 10 6 12 8 14
REMARK Flexibility Score: inf
ROOT
ATOM      1  C   UNL     1      -4.537 -10.466  -9.754  1.00  0.00     0.171 C 
ENDROOT
BRANCH   1   2
ATOM      2  C   UNL     1      -4.050 -11.785  -9.132  1.00  0.00     0.190 C 
BRANCH   2   3
ATOM      3  O   UNL     1      -2.883 -11.578  -8.385  1.00  0.00    -0.394 OA
ATOM      4  H   UNL     1      -2.348 -12.408  -8.475  1.00  0.00     0.210 HD
ENDBRANCH   2   3
ENDBRANCH   1   2
BRANCH   1   5
ATOM      5  C   UNL     1      -3.637  -9.234  -9.428  1.00  0.00     0.181 C 
BRANCH   5   6
ATOM      6  C   UNL     1      -4.330  -7.859  -9.610  1.00  0.00     0.209 C 
BRANCH   6   7
ATOM      7  C   UNL     1      -3.336  -6.738  -9.768  1.00  0.00     0.258 C 
ATOM      8  O   UNL     1      -2.791  -6.540 -10.842  1.00  0.00    -0.300 OA
ENDBRANCH   6   7
BRANCH   6   9
ATOM      9  O   UNL     1      -5.187  -7.886 -10.724  1.00  0.00    -0.383 OA
ATOM     10  H   UNL     1      -5.135  -6.998 -11.168  1.00  0.00     0.211 HD
ENDBRANCH   6   9
ENDBRANCH   5   6
BRANCH   5  11
ATOM     11  O   UNL     1      -2.481  -9.264 -10.227  1.00  0.00    -0.387 OA
ATOM     12  H   UNL     1      -2.781  -9.304 -11.173  1.00  0.00     0.211 HD
ENDBRANCH   5  11
ENDBRANCH   1   5
BRANCH   1  13
ATOM     13  O   UNL     1      -4.654 -10.638 -11.143  1.00  0.00    -0.388 OA
ATOM     14  H   UNL     1      -5.543 -11.048 -11.309  1.00  0.00     0.211 HD
ENDBRANCH   1  13
TORSDOF 8
ENDMDL
MODEL 4
REMARK VINA RESULT:    -3.146      1.605      2.309
REMARK INTER + INTRA:          -5.162
REMARK INTER:                  -4.499
REMARK INTRA:                  -0.662
REMARK UNBOUND:                -0.912
REMARK SMILES O=C[C@@H](O)[C@H](O)[C@@H](O)CO
REMARK SMILES IDX 7 1 9 2 10 3 5 5 3 6 2 7 1 8 4 9 6 11 8 13
REMARK H PARENT 10 4 4 10 6 12 8 14
REMARK Flexibility Score: inf
ROOT
ATOM      1  C   UNL     1       4.031 -11.306  -5.183  1.00  0.00     0.171 C 
ENDROOT
BRANCH   1   2
ATOM      2  C   UNL     1       2.899 -12.002  -4.411  1.00  0.00     0.190 C 
BRANCH   2   3
ATOM      3  O   UNL     1       2.382 -11.155  -3.423  1.00  0.00    -0.394 OA
ATOM      4  H   UNL     1       2.921 -10.323  -3.463  1.00  0.00     0.210 HD
ENDBRANCH   2   3
ENDBRANCH   1   2
BRANCH   1   5
ATOM      5  C   UNL     1       3.562 -10.548  -6.464  1.00  0.00     0.181 C 
BRANCH   5   6
ATOM      6  C   UNL     1       4.696  -9.847  -7.254  1.00  0.00     0.209 C 
BRANCH   6   7
ATOM      7  C   UNL     1       4.572  -8.346  -7.214  1.00  0.00     0.258 C 
ATOM      8  O   UNL     1       3.722  -7.776  -7.881  1.00  0.00    -0.300 OA
ENDBRANCH   6   7
BRANCH   6   9
ATOM      9  O   UNL     1       5.952 -10.226  -6.750  1.00  0.00    -0.383 OA
ATOM     10  H   UNL     1       6.647  -9.827  -7.337  1.00  0.00     0.211 HD
ENDBRANCH   6   9
ENDBRANCH   5   6
BRANCH   5  11
ATOM     11  O   UNL     1       2.592  -9.590  -6.121  1.00  0.00    -0.387 OA
ATOM     12  H   UNL     1       3.066  -8.845  -5.667  1.00  0.00     0.211 HD
ENDBRANCH   5  11
ENDBRANCH   1   5
BRANCH   1  13
ATOM     13  O   UNL     1       4.702 -10.433  -4.311  1.00  0.00    -0.388 OA
ATOM     14  H   UNL     1       5.610 -10.290  -4.688  1.00  0.00     0.211 HD
ENDBRANCH   1  13
TORSDOF 8
ENDMDL
MODEL 5
REMARK VINA RESULT:    -3.127      2.806      3.965
REMARK INTER + INTRA:          -5.136
REMARK INTER:                  -4.672
REMARK INTRA:                  -0.464
REMARK UNBOUND:                -0.912
REMARK SMILES O=C[C@@H](O)[C@H](O)[C@@H](O)CO
REMARK SMILES IDX 7 1 9 2 10 3 5 5 3 6 2 7 1 8 4 9 6 11 8 13
REMARK H PARENT 10 4 4 10 6 12 8 14
REMARK Flexibility Score: inf
ROOT
ATOM      1  C   UNL     1       4.611 -11.561  -4.967  1.00  0.00     0.171 C 
ENDROOT
BRANCH   1   2
ATOM      2  C   UNL     1       4.766 -11.620  -3.439  1.00  0.00     0.190 C 
BRANCH   2   3
ATOM      3  O   UNL     1       4.474 -10.377  -2.864  1.00  0.00    -0.394 OA
ATOM      4  H   UNL     1       3.648 -10.507  -2.331  1.00  0.00     0.210 HD
ENDBRANCH   2   3
ENDBRANCH   1   2
BRANCH   1   5
ATOM      5  C   UNL     1       3.221 -12.041  -5.489  1.00  0.00     0.181 C 
BRANCH   5   6
ATOM      6  C   UNL     1       2.744 -11.352  -6.792  1.00  0.00     0.209 C 
BRANCH   6   7
ATOM      7  C   UNL     1       1.645 -12.124  -7.474  1.00  0.00     0.258 C 
ATOM      8  O   UNL     1       0.811 -11.547  -8.154  1.00  0.00    -0.300 OA
ENDBRANCH   6   7
BRANCH   6   9
ATOM      9  O   UNL     1       2.301 -10.046  -6.522  1.00  0.00    -0.383 OA
ATOM     10  H   UNL     1       1.407  -9.936  -6.942  1.00  0.00     0.211 HD
ENDBRANCH   6   9
ENDBRANCH   5   6
BRANCH   5  11
ATOM     11  O   UNL     1       2.247 -11.846  -4.495  1.00  0.00    -0.387 OA
ATOM     12  H   UNL     1       2.407 -10.949  -4.101  1.00  0.00     0.211 HD
ENDBRANCH   5  11
ENDBRANCH   1   5
BRANCH   1  13
ATOM     13  O   UNL     1       4.873 -10.250  -5.397  1.00  0.00    -0.388 OA
ATOM     14  H   UNL     1       5.160  -9.735  -4.597  1.00  0.00     0.211 HD
ENDBRANCH   1  13
TORSDOF 8
ENDMDL
MODEL 6
REMARK VINA RESULT:    -3.088      2.490      4.771
REMARK INTER + INTRA:          -5.082
REMARK INTER:                  -4.233
REMARK INTRA:                  -0.850
REMARK UNBOUND:                -0.912
REMARK SMILES O=C[C@@H](O)[C@H](O)[C@@H](O)CO
REMARK SMILES IDX 7 1 9 2 10 3 5 5 3 6 2 7 1 8 4 9 6 11 8 13
REMARK H PARENT 10 4 4 10 6 12 8 14
REMARK Flexibility Score: inf
ROOT
ATOM      1  C   UNL     1       3.213 -11.847  -6.061  1.00  0.00     0.171 C 
ENDROOT
BRANCH   1   2
ATOM      2  C   UNL     1       3.283 -10.608  -6.969  1.00  0.00     0.190 C 
BRANCH   2   3
ATOM      3  O   UNL     1       2.595  -9.534  -6.392  1.00  0.00    -0.394 OA
ATOM      4  H   UNL     1       1.904  -9.263  -7.052  1.00  0.00     0.210 HD
ENDBRANCH   2   3
ENDBRANCH   1   2
BRANCH   1   5
ATOM      5  C   UNL     1       4.034 -11.721  -4.741  1.00  0.00     0.181 C 
BRANCH   5   6
ATOM      6  C   UNL     1       3.196 -11.835  -3.443  1.00  0.00     0.209 C 
BRANCH   6   7
ATOM      7  C   UNL     1       4.061 -11.976  -2.218  1.00  0.00     0.258 C 
ATOM      8  O   UNL     1       5.269 -11.813  -2.289  1.00  0.00    -0.300 OA
ENDBRANCH   6   7
BRANCH   6   9
ATOM      9  O   UNL     1       2.360 -10.713  -3.299  1.00  0.00    -0.383 OA
ATOM     10  H   UNL     1       2.375 -10.212  -4.156  1.00  0.00     0.211 HD
ENDBRANCH   6   9
ENDBRANCH   5   6
BRANCH   5  11
ATOM     11  O   UNL     1       4.724 -10.497  -4.725  1.00  0.00    -0.387 OA
ATOM     12  H   UNL     1       4.473 -10.010  -5.553  1.00  0.00     0.211 HD
ENDBRANCH   5  11
ENDBRANCH   1   5
BRANCH   1  13
ATOM     13  O   UNL     1       1.865 -12.124  -5.780  1.00  0.00    -0.388 OA
ATOM     14  H   UNL     1       1.760 -12.076  -4.793  1.00  0.00     0.211 HD
ENDBRANCH   1  13
TORSDOF 8
ENDMDL
MODEL 7
REMARK VINA RESULT:    -3.034      1.436      3.825
REMARK INTER + INTRA:          -5.010
REMARK INTER:                  -4.164
REMARK INTRA:                  -0.846
REMARK UNBOUND:                -0.912
REMARK SMILES O=C[C@@H](O)[C@H](O)[C@@H](O)CO
REMARK SMILES IDX 7 1 9 2 10 3 5 5 3 6 2 7 1 8 4 9 6 11 8 13
REMARK H PARENT 10 4 4 10 6 12 8 14
REMARK Flexibility Score: inf
ROOT
ATOM      1  C   UNL     1       4.903  -8.843  -7.935  1.00  0.00     0.171 C 
ENDROOT
BRANCH   1   2
ATOM      2  C   UNL     1       6.140  -7.946  -7.763  1.00  0.00     0.190 C 
BRANCH   2   3
ATOM      3  O   UNL     1       7.141  -8.617  -7.050  1.00  0.00    -0.394 OA
ATOM      4  H   UNL     1       7.998  -8.386  -7.494  1.00  0.00     0.210 HD
ENDBRANCH   2   3
ENDBRANCH   1   2
BRANCH   1   5
ATOM      5  C   UNL     1       4.942 -10.156  -7.094  1.00  0.00     0.181 C 
BRANCH   5   6
ATOM      6  C   UNL     1       4.019 -11.287  -7.614  1.00  0.00     0.209 C 
BRANCH   6   7
ATOM      7  C   UNL     1       2.733 -11.374  -6.835  1.00  0.00     0.258 C 
ATOM      8  O   UNL     1       1.941 -10.444  -6.837  1.00  0.00    -0.300 OA
ENDBRANCH   6   7
BRANCH   6   9
ATOM      9  O   UNL     1       3.728 -11.095  -8.976  1.00  0.00    -0.383 OA
ATOM     10  H   UNL     1       4.576 -11.197  -9.485  1.00  0.00     0.211 HD
ENDBRANCH   6   9
ENDBRANCH   5   6
BRANCH   5  11
ATOM     11  O   UNL     1       4.604  -9.877  -5.759  1.00  0.00    -0.387 OA
ATOM     12  H   UNL     1       5.437  -9.589  -5.302  1.00  0.00     0.211 HD
ENDBRANCH   5  11
ENDBRANCH   1   5
BRANCH   1  13
ATOM     13  O   UNL     1       3.756  -8.094  -7.626  1.00  0.00    -0.388 OA
ATOM     14  H   UNL     1       3.969  -7.144  -7.826  1.00  0.00     0.211 HD
ENDBRANCH   1  13
TORSDOF 8
ENDMDL
MODEL 8
REMARK VINA RESULT:    -3.024      7.404      8.868
REMARK INTER + INTRA:          -4.996
REMARK INTER:                  -4.073
REMARK INTRA:                  -0.923
REMARK UNBOUND:                -0.912
REMARK SMILES O=C[C@@H](O)[C@H](O)[C@@H](O)CO
REMARK SMILES IDX 7 1 9 2 10 3 5 5 3 6 2 7 1 8 4 9 6 11 8 13
REMARK H PARENT 10 4 4 10 6 12 8 14
REMARK Flexibility Score: inf
ROOT
ATOM      1  C   UNL     1      -3.181  -8.928  -9.063  1.00  0.00     0.171 C 
ENDROOT
BRANCH   1   2
ATOM      2  C   UNL     1      -3.482  -7.429  -9.227  1.00  0.00     0.190 C 
BRANCH   2   3
ATOM      3  O   UNL     1      -3.882  -7.146 -10.539  1.00  0.00    -0.394 OA
ATOM      4  H   UNL     1      -4.849  -6.928 -10.491  1.00  0.00     0.210 HD
ENDBRANCH   2   3
ENDBRANCH   1   2
BRANCH   1   5
ATOM      5  C   UNL     1      -4.438  -9.807  -8.782  1.00  0.00     0.181 C 
BRANCH   5   6
ATOM      6  C   UNL     1      -4.148 -11.322  -8.626  1.00  0.00     0.209 C 
BRANCH   6   7
ATOM      7  C   UNL     1      -4.575 -12.110  -9.836  1.00  0.00     0.258 C 
ATOM      8  O   UNL     1      -4.156 -11.820 -10.946  1.00  0.00    -0.300 OA
ENDBRANCH   6   7
BRANCH   6   9
ATOM      9  O   UNL     1      -2.780 -11.537  -8.386  1.00  0.00    -0.383 OA
ATOM     10  H   UNL     1      -2.290 -11.340  -9.228  1.00  0.00     0.211 HD
ENDBRANCH   6   9
ENDBRANCH   5   6
BRANCH   5  11
ATOM     11  O   UNL     1      -5.380  -9.633  -9.810  1.00  0.00    -0.387 OA
ATOM     12  H   UNL     1      -6.263  -9.907  -9.446  1.00  0.00     0.211 HD
ENDBRANCH   5  11
ENDBRANCH   1   5
BRANCH   1  13
ATOM     13  O   UNL     1      -2.509  -9.381 -10.210  1.00  0.00    -0.388 OA
ATOM     14  H   UNL     1      -1.538  -9.368 -10.000  1.00  0.00     0.211 HD
ENDBRANCH   1  13
TORSDOF 8
ENDMDL
MODEL 9
REMARK VINA RESULT:    -2.843      7.973      9.142
REMARK INTER + INTRA:          -4.752
REMARK INTER:                  -3.839
REMARK INTRA:                  -0.913
REMARK UNBOUND:                -0.912
REMARK SMILES O=C[C@@H](O)[C@H](O)[C@@H](O)CO
REMARK SMILES IDX 7 1 9 2 10 3 5 5 3 6 2 7 1 8 4 9 6 11 8 13
REMARK H PARENT 10 4 4 10 6 12 8 14
REMARK Flexibility Score: inf
ROOT
ATOM      1  C   UNL     1      -5.745  -8.404  -9.290  1.00  0.00     0.171 C 
ENDROOT
BRANCH   1   2
ATOM      2  C   UNL     1      -6.253  -7.923 -10.659  1.00  0.00     0.190 C 
BRANCH   2   3
ATOM      3  O   UNL     1      -5.239  -7.255 -11.355  1.00  0.00    -0.394 OA
ATOM      4  H   UNL     1      -4.861  -6.591 -10.721  1.00  0.00     0.210 HD
ENDBRANCH   2   3
ENDBRANCH   1   2
BRANCH   1   5
ATOM      5  C   UNL     1      -4.681  -9.542  -9.365  1.00  0.00     0.181 C 
BRANCH   5   6
ATOM      6  C   UNL     1      -3.235  -9.101  -9.026  1.00  0.00     0.209 C 
BRANCH   6   7
ATOM      7  C   UNL     1      -2.324 -10.276  -8.784  1.00  0.00     0.258 C 
ATOM      8  O   UNL     1      -2.776 -11.344  -8.403  1.00  0.00    -0.300 OA
ENDBRANCH   6   7
BRANCH   6   9
ATOM      9  O   UNL     1      -2.710  -8.307 -10.061  1.00  0.00    -0.383 OA
ATOM     10  H   UNL     1      -3.304  -8.406 -10.851  1.00  0.00     0.211 HD
ENDBRANCH   6   9
ENDBRANCH   5   6
BRANCH   5  11
ATOM     11  O   UNL     1      -4.688 -10.116 -10.647  1.00  0.00    -0.387 OA
ATOM     12  H   UNL     1      -5.535 -10.627 -10.734  1.00  0.00     0.211 HD
ENDBRANCH   5  11
ENDBRANCH   1   5
BRANCH   1  13
ATOM     13  O   UNL     1      -5.238  -7.301  -8.584  1.00  0.00    -0.388 OA
ATOM     14  H   UNL     1      -4.787  -7.658  -7.774  1.00  0.00     0.211 HD
ENDBRANCH   1  13
TORSDOF 8
ENDMDL
