MODEL 1
REMARK VINA RESULT:    -4.498      0.000      0.000
REMARK INTER + INTRA:          -6.869
REMARK INTER:                  -6.864
REMARK INTRA:                  -0.004
REMARK UNBOUND:                -0.004
REMARK SMILES CC1=CCC[C@H](C)C(=O)C[C@@H](C(C)C)C(=O)C1
REMARK SMILES IDX 8 1 9 2 6 3 7 4 5 5 4 6 3 7 2 8 1 9 10 11 11 12 15 13 16 14
REMARK SMILES IDX 17 15 12 17 13 18 14 19
REMARK H PARENT
REMARK Flexibility Score: 70.00
ROOT
ATOM      1  C   UNL     1      15.591 -34.188  20.822  1.00  0.00     0.136 C 
ATOM      2  O   UNL     1      14.772 -34.218  19.914  1.00  0.00    -0.299 OA
ENDROOT
BRANCH   1   3
ATOM      3  C   UNL     1      16.736 -35.179  20.831  1.00  0.00     0.053 C 
ATOM      4  C   UNL     1      16.790 -35.933  19.497  1.00  0.00     0.016 C 
BRANCH   3   5
ATOM      5  C   UNL     1      18.098 -34.504  21.127  1.00  0.00     0.015 C 
BRANCH   5   6
ATOM      6  C   UNL     1      18.580 -33.522  20.042  1.00  0.00     0.028 C 
BRANCH   6   7
ATOM      7  C   UNL     1      19.487 -32.454  20.608  1.00  0.00    -0.028 C 
ATOM      8  C   UNL     1      19.096 -31.209  20.974  1.00  0.00    -0.070 CG0
ATOM      9  C   UNL     1      20.142 -30.287  21.547  1.00  0.00     0.039 C 
ATOM     10  G   UNL     1      17.692 -30.679  20.744  1.00  0.00     0.000 G0
ENDBRANCH   6   7
ENDBRANCH   5   6
ENDBRANCH   3   5
ENDBRANCH   1   3
BRANCH   1  11
ATOM     11  C   UNL     1      15.414 -33.204  21.959  1.00  0.00     0.087 C 
BRANCH  11  12
ATOM     12  C   UNL     1      15.369 -31.723  21.500  1.00  0.00     0.066 C 
BRANCH  12  13
ATOM     13  C   UNL     1      16.681 -31.001  21.793  1.00  0.00     0.140 C 
ATOM     14  O   UNL     1      16.941 -30.731  22.957  1.00  0.00    -0.299 OA
BRANCH  13  15
ATOM     15  C   UNL     1      17.709 -30.650  20.734  1.00  0.00     0.106 CG0
ATOM     16  G   UNL     1      19.103 -31.190  21.001  1.00  0.00     0.000 G0
ENDBRANCH  13  15
ENDBRANCH  12  13
BRANCH  12  17
ATOM     17  C   UNL     1      14.139 -30.945  22.068  1.00  0.00    -0.006 C 
ATOM     18  C   UNL     1      12.920 -31.084  21.137  1.00  0.00     0.008 C 
ATOM     19  C   UNL     1      13.742 -31.422  23.476  1.00  0.00     0.008 C 
ENDBRANCH  12  17
ENDBRANCH  11  12
ENDBRANCH   1  11
TORSDOF 1
ENDMDL
MODEL 2
REMARK VINA RESULT:    -4.436      2.507      3.403
REMARK INTER + INTRA:          -6.774
REMARK INTER:                  -6.402
REMARK INTRA:                  -0.373
REMARK UNBOUND:                -0.004
REMARK SMILES CC1=CCC[C@H](C)C(=O)C[C@@H](C(C)C)C(=O)C1
REMARK SMILES IDX 8 1 9 2 6 3 7 4 5 5 4 6 3 7 2 8 1 9 10 11 11 12 15 13 16 14
REMARK SMILES IDX 17 15 12 17 13 18 14 19
REMARK H PARENT
REMARK Flexibility Score: 70.00
ROOT
ATOM      1  C   UNL     1      15.069 -33.927  20.374  1.00  0.00     0.136 C 
ATOM      2  O   UNL     1      14.182 -33.294  19.819  1.00  0.00    -0.299 OA
ENDROOT
BRANCH   1   3
ATOM      3  C   UNL     1      16.093 -34.669  19.541  1.00  0.00     0.053 C 
ATOM      4  C   UNL     1      17.189 -33.704  19.073  1.00  0.00     0.016 C 
BRANCH   3   5
ATOM      5  C   UNL     1      16.715 -35.866  20.300  1.00  0.00     0.015 C 
BRANCH   5   6
ATOM      6  C   UNL     1      18.156 -35.638  20.797  1.00  0.00     0.028 C 
BRANCH   6   7
ATOM      7  C   UNL     1      18.411 -36.314  22.123  1.00  0.00    -0.028 C 
ATOM      8  C   UNL     1      18.422 -35.695  23.328  1.00  0.00    -0.070 CG0
ATOM      9  C   UNL     1      18.668 -36.544  24.550  1.00  0.00     0.039 C 
ATOM     10  G   UNL     1      18.294 -34.191  23.489  1.00  0.00     0.000 G0
ENDBRANCH   6   7
ENDBRANCH   5   6
ENDBRANCH   3   5
ENDBRANCH   1   3
BRANCH   1  11
ATOM     11  C   UNL     1      15.094 -34.015  21.885  1.00  0.00     0.087 C 
BRANCH  11  12
ATOM     12  C   UNL     1      16.077 -33.017  22.551  1.00  0.00     0.066 C 
BRANCH  12  13
ATOM     13  C   UNL     1      16.880 -33.674  23.669  1.00  0.00     0.140 C 
ATOM     14  O   UNL     1      16.328 -33.848  24.746  1.00  0.00    -0.299 OA
BRANCH  13  15
ATOM     15  C   UNL     1      18.302 -34.179  23.507  1.00  0.00     0.106 CG0
ATOM     16  G   UNL     1      18.423 -35.681  23.319  1.00  0.00     0.000 G0
ENDBRANCH  13  15
ENDBRANCH  12  13
BRANCH  12  17
ATOM     17  C   UNL     1      15.381 -31.703  23.031  1.00  0.00    -0.006 C 
ATOM     18  C   UNL     1      15.569 -30.571  22.004  1.00  0.00     0.008 C 
ATOM     19  C   UNL     1      13.876 -31.896  23.284  1.00  0.00     0.008 C 
ENDBRANCH  12  17
ENDBRANCH  11  12
ENDBRANCH   1  11
TORSDOF 1
ENDMDL
MODEL 3
REMARK VINA RESULT:    -4.365      1.952      4.982
REMARK INTER + INTRA:          -6.666
REMARK INTER:                  -6.578
REMARK INTRA:                  -0.088
REMARK UNBOUND:                -0.004
REMARK SMILES CC1=CCC[C@H](C)C(=O)C[C@@H](C(C)C)C(=O)C1
REMARK SMILES IDX 8 1 9 2 6 3 7 4 5 5 4 6 3 7 2 8 1 9 10 11 11 12 15 13 16 14
REMARK SMILES IDX 17 15 12 17 13 18 14 19
REMARK H PARENT
REMARK Flexibility Score: 70.00
ROOT
ATOM      1  C   UNL     1      15.583 -29.806  22.276  1.00  0.00     0.136 C 
ATOM      2  O   UNL     1      15.419 -28.864  21.513  1.00  0.00    -0.299 OA
ENDROOT
BRANCH   1   3
ATOM      3  C   UNL     1      14.404 -30.359  23.050  1.00  0.00     0.053 C 
ATOM      4  C   UNL     1      13.280 -29.318  23.109  1.00  0.00     0.016 C 
BRANCH   3   5
ATOM      5  C   UNL     1      13.880 -31.689  22.455  1.00  0.00     0.015 C 
BRANCH   5   6
ATOM      6  C   UNL     1      14.509 -32.958  23.059  1.00  0.00     0.028 C 
BRANCH   6   7
ATOM      7  C   UNL     1      14.935 -33.941  21.994  1.00  0.00    -0.028 C 
ATOM      8  C   UNL     1      16.205 -34.120  21.558  1.00  0.00    -0.070 CG0
ATOM      9  C   UNL     1      16.442 -35.172  20.504  1.00  0.00     0.039 C 
ATOM     10  G   UNL     1      17.368 -33.254  22.009  1.00  0.00     0.000 G0
ENDBRANCH   6   7
ENDBRANCH   5   6
ENDBRANCH   3   5
ENDBRANCH   1   3
BRANCH   1  11
ATOM     11  C   UNL     1      16.974 -30.366  22.487  1.00  0.00     0.087 C 
BRANCH  11  12
ATOM     12  C   UNL     1      17.712 -30.715  21.168  1.00  0.00     0.066 C 
BRANCH  12  13
ATOM     13  C   UNL     1      17.840 -32.222  20.974  1.00  0.00     0.140 C 
ATOM     14  O   UNL     1      18.386 -32.626  19.958  1.00  0.00    -0.299 OA
BRANCH  13  15
ATOM     15  C   UNL     1      17.383 -33.250  21.993  1.00  0.00     0.106 CG0
ATOM     16  G   UNL     1      16.207 -34.101  21.550  1.00  0.00     0.000 G0
ENDBRANCH  13  15
ENDBRANCH  12  13
BRANCH  12  17
ATOM     17  C   UNL     1      19.090 -29.993  21.031  1.00  0.00    -0.006 C 
ATOM     18  C   UNL     1      18.915 -28.462  21.031  1.00  0.00     0.008 C 
ATOM     19  C   UNL     1      20.069 -30.377  22.154  1.00  0.00     0.008 C 
ENDBRANCH  12  17
ENDBRANCH  11  12
ENDBRANCH   1  11
TORSDOF 1
ENDMDL
MODEL 4
REMARK VINA RESULT:    -4.358      1.696      4.136
REMARK INTER + INTRA:          -6.656
REMARK INTER:                  -6.722
REMARK INTRA:                   0.066
REMARK UNBOUND:                -0.004
REMARK SMILES CC1=CCC[C@H](C)C(=O)C[C@@H](C(C)C)C(=O)C1
REMARK SMILES IDX 8 1 9 2 6 3 7 4 5 5 4 6 3 7 2 8 1 9 10 11 11 12 15 13 16 14
REMARK SMILES IDX 17 15 12 17 13 18 14 19
REMARK H PARENT
REMARK Flexibility Score: 70.00
ROOT
ATOM      1  C   UNL     1      17.548 -33.693  20.311  1.00  0.00     0.136 C 
ATOM      2  O   UNL     1      18.440 -34.386  20.778  1.00  0.00    -0.299 OA
ENDROOT
BRANCH   1   3
ATOM      3  C   UNL     1      16.349 -34.352  19.660  1.00  0.00     0.053 C 
ATOM      4  C   UNL     1      16.634 -35.838  19.416  1.00  0.00     0.016 C 
BRANCH   3   5
ATOM      5  C   UNL     1      15.056 -34.178  20.493  1.00  0.00     0.015 C 
BRANCH   5   6
ATOM      6  C   UNL     1      14.274 -32.882  20.209  1.00  0.00     0.028 C 
BRANCH   6   7
ATOM      7  C   UNL     1      13.767 -32.237  21.478  1.00  0.00    -0.028 C 
ATOM      8  C   UNL     1      14.310 -31.147  22.072  1.00  0.00    -0.070 CG0
ATOM      9  C   UNL     1      13.647 -30.627  23.322  1.00  0.00     0.039 C 
ATOM     10  G   UNL     1      15.595 -30.494  21.594  1.00  0.00     0.000 G0
ENDBRANCH   6   7
ENDBRANCH   5   6
ENDBRANCH   3   5
ENDBRANCH   1   3
BRANCH   1  11
ATOM     11  C   UNL     1      17.682 -32.185  20.331  1.00  0.00     0.087 C 
BRANCH  11  12
ATOM     12  C   UNL     1      18.033 -31.609  21.727  1.00  0.00     0.066 C 
BRANCH  12  13
ATOM     13  C   UNL     1      16.840 -30.903  22.363  1.00  0.00     0.140 C 
ATOM     14  O   UNL     1      16.913 -30.603  23.546  1.00  0.00    -0.299 OA
BRANCH  13  15
ATOM     15  C   UNL     1      15.591 -30.498  21.602  1.00  0.00     0.106 CG0
ATOM     16  G   UNL     1      14.309 -31.139  22.103  1.00  0.00     0.000 G0
ENDBRANCH  13  15
ENDBRANCH  12  13
BRANCH  12  17
ATOM     17  C   UNL     1      19.304 -30.701  21.711  1.00  0.00    -0.006 C 
ATOM     18  C   UNL     1      20.428 -31.337  20.872  1.00  0.00     0.008 C 
ATOM     19  C   UNL     1      19.013 -29.294  21.160  1.00  0.00     0.008 C 
ENDBRANCH  12  17
ENDBRANCH  11  12
ENDBRANCH   1  11
TORSDOF 1
ENDMDL
MODEL 5
REMARK VINA RESULT:    -4.350      2.811      4.626
REMARK INTER + INTRA:          -6.643
REMARK INTER:                  -6.407
REMARK INTRA:                  -0.237
REMARK UNBOUND:                -0.004
REMARK SMILES CC1=CCC[C@H](C)C(=O)C[C@@H](C(C)C)C(=O)C1
REMARK SMILES IDX 8 1 9 2 6 3 7 4 5 5 4 6 3 7 2 8 1 9 10 11 11 12 15 13 16 14
REMARK SMILES IDX 17 15 12 17 13 18 14 19
REMARK H PARENT
REMARK Flexibility Score: 70.00
ROOT
ATOM      1  C   UNL     1      17.695 -35.496  21.126  1.00  0.00     0.136 C 
ATOM      2  O   UNL     1      17.640 -36.668  20.784  1.00  0.00    -0.299 OA
ENDROOT
BRANCH   1   3
ATOM      3  C   UNL     1      17.250 -34.412  20.164  1.00  0.00     0.053 C 
ATOM      4  C   UNL     1      18.247 -34.296  19.005  1.00  0.00     0.016 C 
BRANCH   3   5
ATOM      5  C   UNL     1      15.819 -34.654  19.625  1.00  0.00     0.015 C 
BRANCH   5   6
ATOM      6  C   UNL     1      14.688 -34.219  20.576  1.00  0.00     0.028 C 
BRANCH   6   7
ATOM      7  C   UNL     1      14.900 -32.821  21.106  1.00  0.00    -0.028 C 
ATOM      8  C   UNL     1      15.181 -32.506  22.393  1.00  0.00    -0.070 CG0
ATOM      9  C   UNL     1      15.388 -31.051  22.730  1.00  0.00     0.039 C 
ATOM     10  G   UNL     1      15.202 -33.531  23.513  1.00  0.00     0.000 G0
ENDBRANCH   6   7
ENDBRANCH   5   6
ENDBRANCH   3   5
ENDBRANCH   1   3
BRANCH   1  11
ATOM     11  C   UNL     1      18.266 -35.136  22.481  1.00  0.00     0.087 C 
BRANCH  11  12
ATOM     12  C   UNL     1      17.251 -35.280  23.644  1.00  0.00     0.066 C 
BRANCH  12  13
ATOM     13  C   UNL     1      16.600 -33.946  23.995  1.00  0.00     0.140 C 
ATOM     14  O   UNL     1      17.251 -33.144  24.648  1.00  0.00    -0.299 OA
BRANCH  13  15
ATOM     15  C   UNL     1      15.216 -33.531  23.532  1.00  0.00     0.106 CG0
ATOM     16  G   UNL     1      15.203 -32.518  22.401  1.00  0.00     0.000 G0
ENDBRANCH  13  15
ENDBRANCH  12  13
BRANCH  12  17
ATOM     17  C   UNL     1      17.859 -35.978  24.902  1.00  0.00    -0.006 C 
ATOM     18  C   UNL     1      16.753 -36.418  25.880  1.00  0.00     0.008 C 
ATOM     19  C   UNL     1      18.712 -37.206  24.537  1.00  0.00     0.008 C 
ENDBRANCH  12  17
ENDBRANCH  11  12
ENDBRANCH   1  11
TORSDOF 1
ENDMDL
MODEL 6
REMARK VINA RESULT:    -4.316      1.635      4.008
REMARK INTER + INTRA:          -6.591
REMARK INTER:                  -6.554
REMARK INTRA:                  -0.036
REMARK UNBOUND:                -0.004
REMARK SMILES CC1=CCC[C@H](C)C(=O)C[C@@H](C(C)C)C(=O)C1
REMARK SMILES IDX 8 1 9 2 6 3 7 4 5 5 4 6 3 7 2 8 1 9 10 11 11 12 15 13 16 14
REMARK SMILES IDX 17 15 12 17 13 18 14 19
REMARK H PARENT
REMARK Flexibility Score: 70.00
ROOT
ATOM      1  C   UNL     1      17.755 -31.148  21.777  1.00  0.00     0.136 C 
ATOM      2  O   UNL     1      17.833 -31.010  22.989  1.00  0.00    -0.299 OA
ENDROOT
BRANCH   1   3
ATOM      3  C   UNL     1      18.999 -31.007  20.924  1.00  0.00     0.053 C 
ATOM      4  C   UNL     1      20.097 -30.283  21.711  1.00  0.00     0.016 C 
BRANCH   3   5
ATOM      5  C   UNL     1      19.516 -32.371  20.405  1.00  0.00     0.015 C 
BRANCH   5   6
ATOM      6  C   UNL     1      19.405 -33.530  21.414  1.00  0.00     0.028 C 
BRANCH   6   7
ATOM      7  C   UNL     1      18.844 -34.781  20.780  1.00  0.00    -0.028 C 
ATOM      8  C   UNL     1      17.614 -35.296  21.019  1.00  0.00    -0.070 CG0
ATOM      9  C   UNL     1      17.217 -36.542  20.268  1.00  0.00     0.039 C 
ATOM     10  G   UNL     1      16.669 -34.735  22.067  1.00  0.00     0.000 G0
ENDBRANCH   6   7
ENDBRANCH   5   6
ENDBRANCH   3   5
ENDBRANCH   1   3
BRANCH   1  11
ATOM     11  C   UNL     1      16.405 -31.394  21.136  1.00  0.00     0.087 C 
BRANCH  11  12
ATOM     12  C   UNL     1      15.482 -32.325  21.964  1.00  0.00     0.066 C 
BRANCH  12  13
ATOM     13  C   UNL     1      15.607 -33.780  21.525  1.00  0.00     0.140 C 
ATOM     14  O   UNL     1      14.854 -34.182  20.649  1.00  0.00    -0.299 OA
BRANCH  13  15
ATOM     15  C   UNL     1      16.647 -34.743  22.067  1.00  0.00     0.106 CG0
ATOM     16  G   UNL     1      17.607 -35.290  21.026  1.00  0.00     0.000 G0
ENDBRANCH  13  15
ENDBRANCH  12  13
BRANCH  12  17
ATOM     17  C   UNL     1      13.994 -31.850  21.983  1.00  0.00    -0.006 C 
ATOM     18  C   UNL     1      13.598 -31.329  23.378  1.00  0.00     0.008 C 
ATOM     19  C   UNL     1      13.718 -30.745  20.948  1.00  0.00     0.008 C 
ENDBRANCH  12  17
ENDBRANCH  11  12
ENDBRANCH   1  11
TORSDOF 1
ENDMDL
MODEL 7
REMARK VINA RESULT:    -4.302      1.841      2.242
REMARK INTER + INTRA:          -6.569
REMARK INTER:                  -6.324
REMARK INTRA:                  -0.245
REMARK UNBOUND:                -0.004
REMARK SMILES CC1=CCC[C@H](C)C(=O)C[C@@H](C(C)C)C(=O)C1
REMARK SMILES IDX 8 1 9 2 6 3 7 4 5 5 4 6 3 7 2 8 1 9 10 11 11 12 15 13 16 14
REMARK SMILES IDX 17 15 12 17 13 18 14 19
REMARK H PARENT
REMARK Flexibility Score: 70.00
ROOT
ATOM      1  C   UNL     1      15.655 -34.273  20.616  1.00  0.00     0.136 C 
ATOM      2  O   UNL     1      14.783 -34.022  19.796  1.00  0.00    -0.299 OA
ENDROOT
BRANCH   1   3
ATOM      3  C   UNL     1      16.899 -35.020  20.182  1.00  0.00     0.053 C 
ATOM      4  C   UNL     1      16.511 -36.258  19.364  1.00  0.00     0.016 C 
BRANCH   3   5
ATOM      5  C   UNL     1      17.875 -34.125  19.379  1.00  0.00     0.015 C 
BRANCH   5   6
ATOM      6  C   UNL     1      18.787 -33.230  20.239  1.00  0.00     0.028 C 
BRANCH   6   7
ATOM      7  C   UNL     1      19.511 -34.018  21.305  1.00  0.00    -0.028 C 
ATOM      8  C   UNL     1      19.441 -33.781  22.637  1.00  0.00    -0.070 CG0
ATOM      9  C   UNL     1      20.216 -34.695  23.553  1.00  0.00     0.039 C 
ATOM     10  G   UNL     1      18.705 -32.594  23.231  1.00  0.00     0.000 G0
ENDBRANCH   6   7
ENDBRANCH   5   6
ENDBRANCH   3   5
ENDBRANCH   1   3
BRANCH   1  11
ATOM     11  C   UNL     1      15.452 -33.893  22.067  1.00  0.00     0.087 C 
BRANCH  11  12
ATOM     12  C   UNL     1      16.142 -32.562  22.465  1.00  0.00     0.066 C 
BRANCH  12  13
ATOM     13  C   UNL     1      17.236 -32.782  23.505  1.00  0.00     0.140 C 
ATOM     14  O   UNL     1      16.906 -33.197  24.607  1.00  0.00    -0.299 OA
BRANCH  13  15
ATOM     15  C   UNL     1      18.714 -32.572  23.237  1.00  0.00     0.106 CG0
ATOM     16  G   UNL     1      19.426 -33.773  22.640  1.00  0.00     0.000 G0
ENDBRANCH  13  15
ENDBRANCH  12  13
BRANCH  12  17
ATOM     17  C   UNL     1      15.129 -31.459  22.911  1.00  0.00    -0.006 C 
ATOM     18  C   UNL     1      14.713 -30.576  21.720  1.00  0.00     0.008 C 
ATOM     19  C   UNL     1      13.862 -32.051  23.553  1.00  0.00     0.008 C 
ENDBRANCH  12  17
ENDBRANCH  11  12
ENDBRANCH   1  11
TORSDOF 1
ENDMDL
MODEL 8
REMARK VINA RESULT:    -4.290      2.270      4.612
REMARK INTER + INTRA:          -6.551
REMARK INTER:                  -6.208
REMARK INTRA:                  -0.343
REMARK UNBOUND:                -0.004
REMARK SMILES CC1=CCC[C@H](C)C(=O)C[C@@H](C(C)C)C(=O)C1
REMARK SMILES IDX 8 1 9 2 6 3 7 4 5 5 4 6 3 7 2 8 1 9 10 11 11 12 15 13 16 14
REMARK SMILES IDX 17 15 12 17 13 18 14 19
REMARK H PARENT
REMARK Flexibility Score: 70.00
ROOT
ATOM      1  C   UNL     1      17.832 -34.412  22.881  1.00  0.00     0.136 C 
ATOM      2  O   UNL     1      18.986 -34.741  22.644  1.00  0.00    -0.299 OA
ENDROOT
BRANCH   1   3
ATOM      3  C   UNL     1      17.505 -33.707  24.181  1.00  0.00     0.053 C 
ATOM      4  C   UNL     1      17.964 -34.558  25.371  1.00  0.00     0.016 C 
BRANCH   3   5
ATOM      5  C   UNL     1      18.127 -32.291  24.257  1.00  0.00     0.015 C 
BRANCH   5   6
ATOM      6  C   UNL     1      17.387 -31.216  23.439  1.00  0.00     0.028 C 
BRANCH   6   7
ATOM      7  C   UNL     1      15.894 -31.262  23.663  1.00  0.00    -0.028 C 
ATOM      8  C   UNL     1      14.965 -31.478  22.702  1.00  0.00    -0.070 CG0
ATOM      9  C   UNL     1      13.517 -31.518  23.123  1.00  0.00     0.039 C 
ATOM     10  G   UNL     1      15.306 -31.585  21.226  1.00  0.00     0.000 G0
ENDBRANCH   6   7
ENDBRANCH   5   6
ENDBRANCH   3   5
ENDBRANCH   1   3
BRANCH   1  11
ATOM     11  C   UNL     1      16.734 -34.772  21.902  1.00  0.00     0.087 C 
BRANCH  11  12
ATOM     12  C   UNL     1      16.659 -33.828  20.675  1.00  0.00     0.066 C 
BRANCH  12  13
ATOM     13  C   UNL     1      15.381 -32.996  20.678  1.00  0.00     0.140 C 
ATOM     14  O   UNL     1      14.355 -33.518  20.263  1.00  0.00    -0.299 OA
BRANCH  13  15
ATOM     15  C   UNL     1      15.291 -31.582  21.220  1.00  0.00     0.106 CG0
ATOM     16  G   UNL     1      14.969 -31.490  22.701  1.00  0.00     0.000 G0
ENDBRANCH  13  15
ENDBRANCH  12  13
BRANCH  12  17
ATOM     17  C   UNL     1      16.863 -34.574  19.317  1.00  0.00    -0.006 C 
ATOM     18  C   UNL     1      18.309 -34.415  18.810  1.00  0.00     0.008 C 
ATOM     19  C   UNL     1      16.538 -36.075  19.419  1.00  0.00     0.008 C 
ENDBRANCH  12  17
ENDBRANCH  11  12
ENDBRANCH   1  11
TORSDOF 1
ENDMDL
MODEL 9
REMARK VINA RESULT:    -4.269      1.615      3.886
REMARK INTER + INTRA:          -6.519
REMARK INTER:                  -6.144
REMARK INTRA:                  -0.375
REMARK UNBOUND:                -0.004
REMARK SMILES CC1=CCC[C@H](C)C(=O)C[C@@H](C(C)C)C(=O)C1
REMARK SMILES IDX 8 1 9 2 6 3 7 4 5 5 4 6 3 7 2 8 1 9 10 11 11 12 15 13 16 14
REMARK SMILES IDX 17 15 12 17 13 18 14 19
REMARK H PARENT
REMARK Flexibility Score: 70.00
ROOT
ATOM      1  C   UNL     1      16.974 -30.048  21.451  1.00  0.00     0.136 C 
ATOM      2  O   UNL     1      16.578 -29.320  22.350  1.00  0.00    -0.299 OA
ENDROOT
BRANCH   1   3
ATOM      3  C   UNL     1      18.373 -29.863  20.898  1.00  0.00     0.053 C 
ATOM      4  C   UNL     1      18.731 -28.373  20.862  1.00  0.00     0.016 C 
BRANCH   3   5
ATOM      5  C   UNL     1      19.434 -30.656  21.699  1.00  0.00     0.015 C 
BRANCH   5   6
ATOM      6  C   UNL     1      19.696 -32.084  21.187  1.00  0.00     0.028 C 
BRANCH   6   7
ATOM      7  C   UNL     1      19.362 -33.129  22.225  1.00  0.00    -0.028 C 
ATOM      8  C   UNL     1      18.310 -33.981  22.167  1.00  0.00    -0.070 CG0
ATOM      9  C   UNL     1      18.154 -34.978  23.288  1.00  0.00     0.039 C 
ATOM     10  G   UNL     1      17.244 -33.912  21.089  1.00  0.00     0.000 G0
ENDBRANCH   6   7
ENDBRANCH   5   6
ENDBRANCH   3   5
ENDBRANCH   1   3
BRANCH   1  11
ATOM     11  C   UNL     1      16.042 -31.083  20.859  1.00  0.00     0.087 C 
BRANCH  11  12
ATOM     12  C   UNL     1      15.465 -32.074  21.903  1.00  0.00     0.066 C 
BRANCH  12  13
ATOM     13  C   UNL     1      15.852 -33.515  21.588  1.00  0.00     0.140 C 
ATOM     14  O   UNL     1      14.991 -34.377  21.695  1.00  0.00    -0.299 OA
BRANCH  13  15
ATOM     15  C   UNL     1      17.224 -33.936  21.095  1.00  0.00     0.106 CG0
ATOM     16  G   UNL     1      18.299 -33.969  22.166  1.00  0.00     0.000 G0
ENDBRANCH  13  15
ENDBRANCH  12  13
BRANCH  12  17
ATOM     17  C   UNL     1      13.925 -31.917  22.108  1.00  0.00    -0.006 C 
ATOM     18  C   UNL     1      13.616 -31.070  23.356  1.00  0.00     0.008 C 
ATOM     19  C   UNL     1      13.234 -31.274  20.892  1.00  0.00     0.008 C 
ENDBRANCH  12  17
ENDBRANCH  11  12
ENDBRANCH   1  11
TORSDOF 1
ENDMDL
