MODEL 1
REMARK VINA RESULT:    -4.215      0.000      0.000
REMARK INTER + INTRA:          -5.527
REMARK INTER:                  -5.939
REMARK INTRA:                   0.413
REMARK UNBOUND:                 0.413
REMARK SMILES CC1=CCC(=C(C)C)C(=O)CC(C)=CCC1
REMARK SMILES IDX 12 1 14 2 13 3 15 4 16 5 2 6 1 7 3 8 11 10 9 11 10 12 5 13
REMARK SMILES IDX 6 14 7 15 8 16 4 17
REMARK H PARENT
REMARK Flexibility Score: 60.00
ROOT
ATOM      1  C   UNL     1     -13.481  12.670 -28.134  1.00  0.00    -0.070 C 
ATOM      2  C   UNL     1     -14.659  12.556 -27.481  1.00  0.00    -0.027 C 
ATOM      3  C   UNL     1     -12.363  13.419 -27.453  1.00  0.00     0.039 C 
ENDROOT
BRANCH   2   4
ATOM      4  C   UNL     1     -15.827  11.721 -27.946  1.00  0.00     0.032 C 
BRANCH   4   5
ATOM      5  C   UNL     1     -17.106  12.565 -27.936  1.00  0.00     0.034 C 
BRANCH   5   6
ATOM      6  C   UNL     1     -17.623  12.849 -29.331  1.00  0.00    -0.077 C 
ATOM      7  C   UNL     1     -18.840  12.100 -29.817  1.00  0.00     0.039 C 
ATOM      8  C   UNL     1     -17.012  13.690 -30.203  1.00  0.00    -0.023 CG0
ATOM      9  G   UNL     1     -15.821  14.591 -29.933  1.00  0.00     0.000 G0
ENDBRANCH   5   6
ENDBRANCH   4   5
ENDBRANCH   2   4
BRANCH   1  10
ATOM     10  C   UNL     1     -13.235  12.104 -29.519  1.00  0.00     0.111 C 
BRANCH  10  11
ATOM     11  C   UNL     1     -14.131  12.740 -30.554  1.00  0.00     0.163 C 
ATOM     12  O   UNL     1     -14.576  11.989 -31.466  1.00  0.00    -0.294 OA
BRANCH  11  13
ATOM     13  C   UNL     1     -14.494  14.196 -30.566  1.00  0.00    -0.002 C 
ATOM     14  C   UNL     1     -13.588  15.136 -30.977  1.00  0.00    -0.069 C 
ATOM     15  C   UNL     1     -13.828  16.617 -30.787  1.00  0.00     0.039 C 
ATOM     16  C   UNL     1     -12.315  14.745 -31.694  1.00  0.00     0.039 C 
BRANCH  13  17
ATOM     17  C   UNL     1     -15.824  14.602 -29.939  1.00  0.00     0.066 CG0
ATOM     18  G   UNL     1     -17.003  13.683 -30.201  1.00  0.00     0.000 G0
ENDBRANCH  13  17
ENDBRANCH  11  13
ENDBRANCH  10  11
ENDBRANCH   1  10
TORSDOF 0
ENDMDL
MODEL 2
REMARK VINA RESULT:    -3.987      1.944      4.759
REMARK INTER + INTRA:          -5.207
REMARK INTER:                  -5.690
REMARK INTRA:                   0.484
REMARK UNBOUND:                 0.413
REMARK SMILES CC1=CCC(=C(C)C)C(=O)CC(C)=CCC1
REMARK SMILES IDX 12 1 14 2 13 3 15 4 16 5 2 6 1 7 3 8 11 10 9 11 10 12 5 13
REMARK SMILES IDX 6 14 7 15 8 16 4 17
REMARK H PARENT
REMARK Flexibility Score: 60.00
ROOT
ATOM      1  C   UNL     1     -15.852  13.712 -30.132  1.00  0.00    -0.070 C 
ATOM      2  C   UNL     1     -15.590  14.829 -30.849  1.00  0.00    -0.027 C 
ATOM      3  C   UNL     1     -16.859  13.808 -29.014  1.00  0.00     0.039 C 
ENDROOT
BRANCH   2   4
ATOM      4  C   UNL     1     -14.729  14.879 -32.086  1.00  0.00     0.032 C 
BRANCH   4   5
ATOM      5  C   UNL     1     -13.687  15.994 -31.949  1.00  0.00     0.034 C 
BRANCH   5   6
ATOM      6  C   UNL     1     -12.271  15.458 -31.878  1.00  0.00    -0.077 C 
ATOM      7  C   UNL     1     -11.392  15.572 -33.100  1.00  0.00     0.039 C 
ATOM      8  C   UNL     1     -11.766  14.813 -30.797  1.00  0.00    -0.023 CG0
ATOM      9  G   UNL     1     -12.425  14.625 -29.443  1.00  0.00     0.000 G0
ENDBRANCH   5   6
ENDBRANCH   4   5
ENDBRANCH   2   4
BRANCH   1  10
ATOM     10  C   UNL     1     -15.171  12.381 -30.381  1.00  0.00     0.111 C 
BRANCH  10  11
ATOM     11  C   UNL     1     -13.670  12.484 -30.258  1.00  0.00     0.163 C 
ATOM     12  O   UNL     1     -12.981  11.907 -31.144  1.00  0.00    -0.294 OA
BRANCH  11  13
ATOM     13  C   UNL     1     -12.970  13.207 -29.145  1.00  0.00    -0.002 C 
ATOM     14  C   UNL     1     -12.964  12.694 -27.877  1.00  0.00    -0.069 C 
ATOM     15  C   UNL     1     -12.476  13.494 -26.690  1.00  0.00     0.039 C 
ATOM     16  C   UNL     1     -13.399  11.272 -27.598  1.00  0.00     0.039 C 
BRANCH  13  17
ATOM     17  C   UNL     1     -12.431  14.605 -29.433  1.00  0.00     0.066 CG0
ATOM     18  G   UNL     1     -11.784  14.813 -30.790  1.00  0.00     0.000 G0
ENDBRANCH  13  17
ENDBRANCH  11  13
ENDBRANCH  10  11
ENDBRANCH   1  10
TORSDOF 0
ENDMDL
MODEL 3
REMARK VINA RESULT:    -3.947      1.824      5.090
REMARK INTER + INTRA:          -5.150
REMARK INTER:                  -5.536
REMARK INTRA:                   0.386
REMARK UNBOUND:                 0.413
REMARK SMILES CC1=CCC(=C(C)C)C(=O)CC(C)=CCC1
REMARK SMILES IDX 12 1 14 2 13 3 15 4 16 5 2 6 1 7 3 8 11 10 9 11 10 12 5 13
REMARK SMILES IDX 6 14 7 15 8 16 4 17
REMARK H PARENT
REMARK Flexibility Score: 60.00
ROOT
ATOM      1  C   UNL     1     -14.417  15.356 -31.685  1.00  0.00    -0.070 C 
ATOM      2  C   UNL     1     -13.174  15.813 -31.412  1.00  0.00    -0.027 C 
ATOM      3  C   UNL     1     -14.885  15.386 -33.118  1.00  0.00     0.039 C 
ENDROOT
BRANCH   2   4
ATOM      4  C   UNL     1     -12.495  15.720 -30.069  1.00  0.00     0.032 C 
BRANCH   4   5
ATOM      5  C   UNL     1     -11.214  14.888 -30.190  1.00  0.00     0.034 C 
BRANCH   5   6
ATOM      6  C   UNL     1     -11.454  13.546 -30.852  1.00  0.00    -0.077 C 
ATOM      7  C   UNL     1     -10.763  13.251 -32.161  1.00  0.00     0.039 C 
ATOM      8  C   UNL     1     -12.316  12.616 -30.371  1.00  0.00    -0.023 CG0
ATOM      9  G   UNL     1     -13.078  12.654 -29.059  1.00  0.00     0.000 G0
ENDBRANCH   5   6
ENDBRANCH   4   5
ENDBRANCH   2   4
BRANCH   1  10
ATOM     10  C   UNL     1     -15.367  14.836 -30.625  1.00  0.00     0.111 C 
BRANCH  10  11
ATOM     11  C   UNL     1     -15.194  13.355 -30.390  1.00  0.00     0.163 C 
ATOM     12  O   UNL     1     -15.587  12.580 -31.305  1.00  0.00    -0.294 OA
BRANCH  11  13
ATOM     13  C   UNL     1     -14.609  12.769 -29.138  1.00  0.00    -0.002 C 
ATOM     14  C   UNL     1     -15.402  12.512 -28.053  1.00  0.00    -0.069 C 
ATOM     15  C   UNL     1     -14.822  12.144 -26.706  1.00  0.00     0.039 C 
ATOM     16  C   UNL     1     -16.910  12.532 -28.155  1.00  0.00     0.039 C 
BRANCH  13  17
ATOM     17  C   UNL     1     -13.091  12.644 -29.054  1.00  0.00     0.066 CG0
ATOM     18  G   UNL     1     -12.341  12.621 -30.373  1.00  0.00     0.000 G0
ENDBRANCH  13  17
ENDBRANCH  11  13
ENDBRANCH  10  11
ENDBRANCH   1  10
TORSDOF 0
ENDMDL
MODEL 4
REMARK VINA RESULT:    -3.780      1.616      3.173
REMARK INTER + INTRA:          -4.914
REMARK INTER:                  -5.247
REMARK INTRA:                   0.333
REMARK UNBOUND:                 0.413
REMARK SMILES CC1=CCC(=C(C)C)C(=O)CC(C)=CCC1
REMARK SMILES IDX 12 1 14 2 13 3 15 4 16 5 2 6 1 7 3 8 11 10 9 11 10 12 5 13
REMARK SMILES IDX 6 14 7 15 8 16 4 17
REMARK H PARENT
REMARK Flexibility Score: 60.00
ROOT
ATOM      1  C   UNL     1     -14.540  15.112 -31.514  1.00  0.00    -0.070 C 
ATOM      2  C   UNL     1     -15.870  14.867 -31.537  1.00  0.00    -0.027 C 
ATOM      3  C   UNL     1     -14.066  16.388 -30.865  1.00  0.00     0.039 C 
ENDROOT
BRANCH   2   4
ATOM      4  C   UNL     1     -16.503  13.582 -32.009  1.00  0.00     0.032 C 
BRANCH   4   5
ATOM      5  C   UNL     1     -16.510  12.557 -30.870  1.00  0.00     0.034 C 
BRANCH   5   6
ATOM      6  C   UNL     1     -16.547  13.210 -29.503  1.00  0.00    -0.077 C 
ATOM      7  C   UNL     1     -17.822  13.884 -29.058  1.00  0.00     0.039 C 
ATOM      8  C   UNL     1     -15.473  13.287 -28.679  1.00  0.00    -0.023 CG0
ATOM      9  G   UNL     1     -14.112  12.645 -28.875  1.00  0.00     0.000 G0
ENDBRANCH   5   6
ENDBRANCH   4   5
ENDBRANCH   2   4
BRANCH   1  10
ATOM     10  C   UNL     1     -13.509  14.183 -32.123  1.00  0.00     0.111 C 
BRANCH  10  11
ATOM     11  C   UNL     1     -12.902  13.262 -31.092  1.00  0.00     0.163 C 
ATOM     12  O   UNL     1     -12.253  12.269 -31.521  1.00  0.00    -0.294 OA
BRANCH  11  13
ATOM     13  C   UNL     1     -13.048  13.453 -29.610  1.00  0.00    -0.002 C 
ATOM     14  C   UNL     1     -12.151  14.217 -28.915  1.00  0.00    -0.069 C 
ATOM     15  C   UNL     1     -12.125  14.247 -27.403  1.00  0.00     0.039 C 
ATOM     16  C   UNL     1     -11.164  15.118 -29.624  1.00  0.00     0.039 C 
BRANCH  13  17
ATOM     17  C   UNL     1     -14.109  12.629 -28.888  1.00  0.00     0.066 CG0
ATOM     18  G   UNL     1     -15.460  13.292 -28.688  1.00  0.00     0.000 G0
ENDBRANCH  13  17
ENDBRANCH  11  13
ENDBRANCH  10  11
ENDBRANCH   1  10
TORSDOF 0
ENDMDL
MODEL 5
REMARK VINA RESULT:    -3.699      1.991      4.811
REMARK INTER + INTRA:          -4.800
REMARK INTER:                  -4.790
REMARK INTRA:                  -0.010
REMARK UNBOUND:                 0.413
REMARK SMILES CC1=CCC(=C(C)C)C(=O)CC(C)=CCC1
REMARK SMILES IDX 12 1 14 2 13 3 15 4 16 5 2 6 1 7 3 8 11 10 9 11 10 12 5 13
REMARK SMILES IDX 6 14 7 15 8 16 4 17
REMARK H PARENT
REMARK Flexibility Score: 60.00
ROOT
ATOM      1  C   UNL     1     -17.326  13.129 -30.606  1.00  0.00    -0.070 C 
ATOM      2  C   UNL     1     -16.966  13.898 -31.659  1.00  0.00    -0.027 C 
ATOM      3  C   UNL     1     -18.760  13.189 -30.143  1.00  0.00     0.039 C 
ENDROOT
BRANCH   2   4
ATOM      4  C   UNL     1     -15.622  13.851 -32.342  1.00  0.00     0.032 C 
BRANCH   4   5
ATOM      5  C   UNL     1     -14.636  14.770 -31.612  1.00  0.00     0.034 C 
BRANCH   5   6
ATOM      6  C   UNL     1     -13.294  14.107 -31.375  1.00  0.00    -0.077 C 
ATOM      7  C   UNL     1     -12.431  13.773 -32.567  1.00  0.00     0.039 C 
ATOM      8  C   UNL     1     -12.850  13.728 -30.150  1.00  0.00    -0.023 CG0
ATOM      9  G   UNL     1     -13.502  14.001 -28.807  1.00  0.00     0.000 G0
ENDBRANCH   5   6
ENDBRANCH   4   5
ENDBRANCH   2   4
BRANCH   1  10
ATOM     10  C   UNL     1     -16.361  12.230 -29.858  1.00  0.00     0.111 C 
BRANCH  10  11
ATOM     11  C   UNL     1     -15.828  12.891 -28.610  1.00  0.00     0.163 C 
ATOM     12  O   UNL     1     -16.665  13.476 -27.869  1.00  0.00    -0.294 OA
BRANCH  11  13
ATOM     13  C   UNL     1     -14.377  12.905 -28.225  1.00  0.00    -0.002 C 
ATOM     14  C   UNL     1     -13.906  12.062 -27.256  1.00  0.00    -0.069 C 
ATOM     15  C   UNL     1     -12.515  12.203 -26.679  1.00  0.00     0.039 C 
ATOM     16  C   UNL     1     -14.735  10.907 -26.743  1.00  0.00     0.039 C 
BRANCH  13  17
ATOM     17  C   UNL     1     -13.497  14.004 -28.813  1.00  0.00     0.066 CG0
ATOM     18  G   UNL     1     -12.851  13.707 -30.154  1.00  0.00     0.000 G0
ENDBRANCH  13  17
ENDBRANCH  11  13
ENDBRANCH  10  11
ENDBRANCH   1  10
TORSDOF 0
ENDMDL
MODEL 6
REMARK VINA RESULT:    -3.665      2.162      3.942
REMARK INTER + INTRA:          -4.752
REMARK INTER:                  -5.016
REMARK INTRA:                   0.264
REMARK UNBOUND:                 0.413
REMARK SMILES CC1=CCC(=C(C)C)C(=O)CC(C)=CCC1
REMARK SMILES IDX 12 1 14 2 13 3 15 4 16 5 2 6 1 7 3 8 11 10 9 11 10 12 5 13
REMARK SMILES IDX 6 14 7 15 8 16 4 17
REMARK H PARENT
REMARK Flexibility Score: 60.00
ROOT
ATOM      1  C   UNL     1     -14.787  15.287 -31.468  1.00  0.00    -0.070 C 
ATOM      2  C   UNL     1     -15.480  14.511 -30.605  1.00  0.00    -0.027 C 
ATOM      3  C   UNL     1     -14.151  16.546 -30.935  1.00  0.00     0.039 C 
ENDROOT
BRANCH   2   4
ATOM      4  C   UNL     1     -16.051  13.153 -30.932  1.00  0.00     0.032 C 
BRANCH   4   5
ATOM      5  C   UNL     1     -14.992  12.072 -30.686  1.00  0.00     0.034 C 
BRANCH   5   6
ATOM      6  C   UNL     1     -13.943  12.505 -29.683  1.00  0.00    -0.077 C 
ATOM      7  C   UNL     1     -14.324  12.575 -28.224  1.00  0.00     0.039 C 
ATOM      8  C   UNL     1     -12.694  12.906 -30.028  1.00  0.00    -0.023 CG0
ATOM      9  G   UNL     1     -12.062  12.871 -31.407  1.00  0.00     0.000 G0
ENDBRANCH   5   6
ENDBRANCH   4   5
ENDBRANCH   2   4
BRANCH   1  10
ATOM     10  C   UNL     1     -14.633  14.967 -32.942  1.00  0.00     0.111 C 
BRANCH  10  11
ATOM     11  C   UNL     1     -13.357  14.212 -33.224  1.00  0.00     0.163 C 
ATOM     12  O   UNL     1     -13.284  13.600 -34.325  1.00  0.00    -0.294 OA
BRANCH  11  13
ATOM     13  C   UNL     1     -12.201  14.137 -32.270  1.00  0.00    -0.002 C 
ATOM     14  C   UNL     1     -11.220  15.091 -32.288  1.00  0.00    -0.069 C 
ATOM     15  C   UNL     1      -9.932  14.931 -31.512  1.00  0.00     0.039 C 
ATOM     16  C   UNL     1     -11.393  16.387 -33.047  1.00  0.00     0.039 C 
BRANCH  13  17
ATOM     17  C   UNL     1     -12.064  12.880 -31.417  1.00  0.00     0.066 CG0
ATOM     18  G   UNL     1     -12.711  12.920 -30.045  1.00  0.00     0.000 G0
ENDBRANCH  13  17
ENDBRANCH  11  13
ENDBRANCH  10  11
ENDBRANCH   1  10
TORSDOF 0
ENDMDL
MODEL 7
REMARK VINA RESULT:    -3.589      1.982      3.896
REMARK INTER + INTRA:          -4.646
REMARK INTER:                  -4.670
REMARK INTRA:                   0.025
REMARK UNBOUND:                 0.413
REMARK SMILES CC1=CCC(=C(C)C)C(=O)CC(C)=CCC1
REMARK SMILES IDX 12 1 14 2 13 3 15 4 16 5 2 6 1 7 3 8 11 10 9 11 10 12 5 13
REMARK SMILES IDX 6 14 7 15 8 16 4 17
REMARK H PARENT
REMARK Flexibility Score: 60.00
ROOT
ATOM      1  C   UNL     1     -16.230  11.777 -28.929  1.00  0.00    -0.070 C 
ATOM      2  C   UNL     1     -16.756  12.635 -29.833  1.00  0.00    -0.027 C 
ATOM      3  C   UNL     1     -17.114  11.306 -27.803  1.00  0.00     0.039 C 
ENDROOT
BRANCH   2   4
ATOM      4  C   UNL     1     -16.066  13.089 -31.096  1.00  0.00     0.032 C 
BRANCH   4   5
ATOM      5  C   UNL     1     -15.798  14.596 -31.028  1.00  0.00     0.034 C 
BRANCH   5   6
ATOM      6  C   UNL     1     -14.468  14.976 -31.648  1.00  0.00    -0.077 C 
ATOM      7  C   UNL     1     -14.445  15.428 -33.088  1.00  0.00     0.039 C 
ATOM      8  C   UNL     1     -13.280  14.866 -31.004  1.00  0.00    -0.023 CG0
ATOM      9  G   UNL     1     -13.050  14.494 -29.550  1.00  0.00     0.000 G0
ENDBRANCH   5   6
ENDBRANCH   4   5
ENDBRANCH   2   4
BRANCH   1  10
ATOM     10  C   UNL     1     -14.797  11.285 -28.980  1.00  0.00     0.111 C 
BRANCH  10  11
ATOM     11  C   UNL     1     -13.833  12.299 -28.416  1.00  0.00     0.163 C 
ATOM     12  O   UNL     1     -13.928  12.559 -27.185  1.00  0.00    -0.294 OA
BRANCH  11  13
ATOM     13  C   UNL     1     -12.800  13.017 -29.235  1.00  0.00    -0.002 C 
ATOM     14  C   UNL     1     -11.616  12.409 -29.551  1.00  0.00    -0.069 C 
ATOM     15  C   UNL     1     -10.464  13.169 -30.168  1.00  0.00     0.039 C 
ATOM     16  C   UNL     1     -11.411  10.924 -29.346  1.00  0.00     0.039 C 
BRANCH  13  17
ATOM     17  C   UNL     1     -13.036  14.493 -29.541  1.00  0.00     0.066 CG0
ATOM     18  G   UNL     1     -13.265  14.852 -30.998  1.00  0.00     0.000 G0
ENDBRANCH  13  17
ENDBRANCH  11  13
ENDBRANCH  10  11
ENDBRANCH   1  10
TORSDOF 0
ENDMDL
MODEL 8
REMARK VINA RESULT:    -3.401      2.319      4.048
REMARK INTER + INTRA:          -4.380
REMARK INTER:                  -5.003
REMARK INTRA:                   0.622
REMARK UNBOUND:                 0.413
REMARK SMILES CC1=CCC(=C(C)C)C(=O)CC(C)=CCC1
REMARK SMILES IDX 12 1 14 2 13 3 15 4 16 5 2 6 1 7 3 8 11 10 9 11 10 12 5 13
REMARK SMILES IDX 6 14 7 15 8 16 4 17
REMARK H PARENT
REMARK Flexibility Score: 60.00
ROOT
ATOM      1  C   UNL     1     -15.213  13.713 -30.313  1.00  0.00    -0.070 C 
ATOM      2  C   UNL     1     -14.820  12.503 -29.855  1.00  0.00    -0.027 C 
ATOM      3  C   UNL     1     -16.394  14.373 -29.648  1.00  0.00     0.039 C 
ENDROOT
BRANCH   2   4
ATOM      4  C   UNL     1     -13.579  11.772 -30.301  1.00  0.00     0.032 C 
BRANCH   4   5
ATOM      5  C   UNL     1     -12.459  11.973 -29.274  1.00  0.00     0.034 C 
BRANCH   5   6
ATOM      6  C   UNL     1     -12.816  13.004 -28.222  1.00  0.00    -0.077 C 
ATOM      7  C   UNL     1     -13.673  12.578 -27.054  1.00  0.00     0.039 C 
ATOM      8  C   UNL     1     -12.470  14.313 -28.305  1.00  0.00    -0.023 CG0
ATOM      9  G   UNL     1     -11.574  14.966 -29.342  1.00  0.00     0.000 G0
ENDBRANCH   5   6
ENDBRANCH   4   5
ENDBRANCH   2   4
BRANCH   1  10
ATOM     10  C   UNL     1     -14.541  14.427 -31.469  1.00  0.00     0.111 C 
BRANCH  10  11
ATOM     11  C   UNL     1     -13.501  15.413 -30.995  1.00  0.00     0.163 C 
ATOM     12  O   UNL     1     -13.883  16.600 -30.798  1.00  0.00    -0.294 OA
BRANCH  11  13
ATOM     13  C   UNL     1     -12.059  15.064 -30.770  1.00  0.00    -0.002 C 
ATOM     14  C   UNL     1     -11.265  14.678 -31.816  1.00  0.00    -0.069 C 
ATOM     15  C   UNL     1      -9.884  14.099 -31.603  1.00  0.00     0.039 C 
ATOM     16  C   UNL     1     -11.707  14.858 -33.251  1.00  0.00     0.039 C 
BRANCH  13  17
ATOM     17  C   UNL     1     -11.564  14.977 -29.329  1.00  0.00     0.066 CG0
ATOM     18  G   UNL     1     -12.488  14.291 -28.339  1.00  0.00     0.000 G0
ENDBRANCH  13  17
ENDBRANCH  11  13
ENDBRANCH  10  11
ENDBRANCH   1  10
TORSDOF 0
ENDMDL
MODEL 9
REMARK VINA RESULT:    -3.204      1.560      4.551
REMARK INTER + INTRA:          -4.103
REMARK INTER:                  -5.585
REMARK INTRA:                   1.482
REMARK UNBOUND:                 0.413
REMARK SMILES CC1=CCC(=C(C)C)C(=O)CC(C)=CCC1
REMARK SMILES IDX 12 1 14 2 13 3 15 4 16 5 2 6 1 7 3 8 11 10 9 11 10 12 5 13
REMARK SMILES IDX 6 14 7 15 8 16 4 17
REMARK H PARENT
REMARK Flexibility Score: 60.00
ROOT
ATOM      1  C   UNL     1     -14.195  15.147 -30.653  1.00  0.00    -0.070 C 
ATOM      2  C   UNL     1     -13.228  14.273 -31.010  1.00  0.00    -0.027 C 
ATOM      3  C   UNL     1     -13.940  16.616 -30.875  1.00  0.00     0.039 C 
ENDROOT
BRANCH   2   4
ATOM      4  C   UNL     1     -13.372  12.771 -30.996  1.00  0.00     0.032 C 
BRANCH   4   5
ATOM      5  C   UNL     1     -12.557  12.182 -29.840  1.00  0.00     0.034 C 
BRANCH   5   6
ATOM      6  C   UNL     1     -13.365  12.060 -28.564  1.00  0.00    -0.077 C 
ATOM      7  C   UNL     1     -12.701  12.403 -27.252  1.00  0.00     0.039 C 
ATOM      8  C   UNL     1     -14.636  11.589 -28.522  1.00  0.00    -0.023 CG0
ATOM      9  G   UNL     1     -15.529  11.237 -29.697  1.00  0.00     0.000 G0
ENDBRANCH   5   6
ENDBRANCH   4   5
ENDBRANCH   2   4
BRANCH   1  10
ATOM     10  C   UNL     1     -15.509  14.728 -30.024  1.00  0.00     0.111 C 
BRANCH  10  11
ATOM     11  C   UNL     1     -16.125  13.549 -30.738  1.00  0.00     0.163 C 
ATOM     12  O   UNL     1     -16.266  13.646 -31.988  1.00  0.00    -0.294 OA
BRANCH  11  13
ATOM     13  C   UNL     1     -16.588  12.301 -30.046  1.00  0.00    -0.002 C 
ATOM     14  C   UNL     1     -17.879  12.186 -29.609  1.00  0.00    -0.069 C 
ATOM     15  C   UNL     1     -18.323  11.053 -28.710  1.00  0.00     0.039 C 
ATOM     16  C   UNL     1     -18.950  13.160 -30.045  1.00  0.00     0.039 C 
BRANCH  13  17
ATOM     17  C   UNL     1     -15.537  11.255 -29.687  1.00  0.00     0.066 CG0
ATOM     18  G   UNL     1     -14.634  11.580 -28.511  1.00  0.00     0.000 G0
ENDBRANCH  13  17
ENDBRANCH  11  13
ENDBRANCH  10  11
ENDBRANCH   1  10
TORSDOF 0
ENDMDL
