MODEL 1
REMARK VINA RESULT:    -4.457      0.000      0.000
REMARK INTER + INTRA:         -16.718
REMARK INTER:                 -11.233
REMARK INTRA:                  -5.486
REMARK UNBOUND:                -5.486
REMARK SMILES CCCCCCCCCCCCCCCCCCCCCCCCCCCC(=O)[O-]
REMARK SMILES IDX 15 1 16 2 17 3 18 4 19 5 20 6 21 7 22 8 23 9 24 10 25 11
REMARK SMILES IDX 26 12 27 13 28 14 29 15 30 16 14 17 13 18 12 19 11 20 10 21
REMARK SMILES IDX 9 22 8 23 7 24 6 25 5 26 4 27 3 28 2 29 1 30
REMARK H PARENT
REMARK Flexibility Score: inf
ROOT
ATOM      1  C   UNL     1      48.335 -37.502  -1.007  1.00  0.00     0.000 C 
ENDROOT
BRANCH   1   2
ATOM      2  C   UNL     1      47.506 -38.647  -0.405  1.00  0.00     0.000 C 
BRANCH   2   3
ATOM      3  C   UNL     1      46.183 -38.120   0.171  1.00  0.00     0.000 C 
BRANCH   3   4
ATOM      4  C   UNL     1      44.947 -38.812  -0.433  1.00  0.00     0.000 C 
BRANCH   4   5
ATOM      5  C   UNL     1      45.251 -39.838  -1.542  1.00  0.00     0.000 C 
BRANCH   5   6
ATOM      6  C   UNL     1      44.996 -39.342  -2.978  1.00  0.00     0.000 C 
BRANCH   6   7
ATOM      7  C   UNL     1      45.871 -40.003  -4.063  1.00  0.00     0.000 C 
BRANCH   7   8
ATOM      8  C   UNL     1      47.211 -40.573  -3.563  1.00  0.00     0.000 C 
BRANCH   8   9
ATOM      9  C   UNL     1      48.268 -40.672  -4.675  1.00  0.00     0.000 C 
BRANCH   9  10
ATOM     10  C   UNL     1      49.603 -41.248  -4.176  1.00  0.00     0.000 C 
BRANCH  10  11
ATOM     11  C   UNL     1      50.172 -40.567  -2.916  1.00  0.00     0.000 C 
BRANCH  11  12
ATOM     12  C   UNL     1      51.702 -40.366  -2.959  1.00  0.00     0.006 C 
BRANCH  12  13
ATOM     13  C   UNL     1      52.453 -41.491  -2.233  1.00  0.00     0.053 C 
BRANCH  13  14
ATOM     14  C   UNL     1      53.845 -41.058  -1.895  1.00  0.00     0.041 C 
ATOM     15  O   UNL     1      54.773 -41.907  -1.824  1.00  0.00    -0.550 OA
ATOM     16  O   UNL     1      54.109 -39.722  -1.613  1.00  0.00    -0.550 OA
ENDBRANCH  13  14
ENDBRANCH  12  13
ENDBRANCH  11  12
ENDBRANCH  10  11
ENDBRANCH   9  10
ENDBRANCH   8   9
ENDBRANCH   7   8
ENDBRANCH   6   7
ENDBRANCH   5   6
ENDBRANCH   4   5
ENDBRANCH   3   4
ENDBRANCH   2   3
ENDBRANCH   1   2
BRANCH   1  17
ATOM     17  C   UNL     1      48.134 -37.361  -2.525  1.00  0.00     0.000 C 
BRANCH  17  18
ATOM     18  C   UNL     1      49.436 -36.994  -3.259  1.00  0.00     0.000 C 
BRANCH  18  19
ATOM     19  C   UNL     1      49.204 -36.635  -4.736  1.00  0.00     0.000 C 
BRANCH  19  20
ATOM     20  C   UNL     1      47.816 -37.071  -5.237  1.00  0.00     0.000 C 
BRANCH  20  21
ATOM     21  C   UNL     1      47.066 -35.946  -5.973  1.00  0.00     0.000 C 
BRANCH  21  22
ATOM     22  C   UNL     1      45.636 -36.298  -6.431  1.00  0.00    -0.000 C 
BRANCH  22  23
ATOM     23  C   UNL     1      44.602 -36.446  -5.298  1.00  0.00    -0.000 C 
BRANCH  23  24
ATOM     24  C   UNL     1      44.557 -35.271  -4.303  1.00  0.00    -0.000 C 
BRANCH  24  25
ATOM     25  C   UNL     1      44.945 -35.660  -2.861  1.00  0.00    -0.000 C 
BRANCH  25  26
ATOM     26  C   UNL     1      45.865 -34.621  -2.195  1.00  0.00    -0.000 C 
BRANCH  26  27
ATOM     27  C   UNL     1      46.592 -33.733  -3.217  1.00  0.00    -0.000 C 
BRANCH  27  28
ATOM     28  C   UNL     1      48.096 -33.600  -2.920  1.00  0.00    -0.000 C 
BRANCH  28  29
ATOM     29  C   UNL     1      48.841 -32.803  -4.002  1.00  0.00    -0.003 C 
ATOM     30  C   UNL     1      48.386 -31.346  -4.078  1.00  0.00     0.004 C 
ENDBRANCH  28  29
ENDBRANCH  27  28
ENDBRANCH  26  27
ENDBRANCH  25  26
ENDBRANCH  24  25
ENDBRANCH  23  24
ENDBRANCH  22  23
ENDBRANCH  21  22
ENDBRANCH  20  21
ENDBRANCH  19  20
ENDBRANCH  18  19
ENDBRANCH  17  18
ENDBRANCH   1  17
TORSDOF 26
ENDMDL
MODEL 2
REMARK VINA RESULT:    -4.372      2.905      6.254
REMARK INTER + INTRA:         -16.503
REMARK INTER:                 -10.751
REMARK INTRA:                  -5.753
REMARK UNBOUND:                -5.486
REMARK SMILES CCCCCCCCCCCCCCCCCCCCCCCCCCCC(=O)[O-]
REMARK SMILES IDX 15 1 16 2 17 3 18 4 19 5 20 6 21 7 22 8 23 9 24 10 25 11
REMARK SMILES IDX 26 12 27 13 28 14 29 15 30 16 14 17 13 18 12 19 11 20 10 21
REMARK SMILES IDX 9 22 8 23 7 24 6 25 5 26 4 27 3 28 2 29 1 30
REMARK H PARENT
REMARK Flexibility Score: inf
ROOT
ATOM      1  C   UNL     1      51.756 -40.349  -3.015  1.00  0.00     0.000 C 
ENDROOT
BRANCH   1   2
ATOM      2  C   UNL     1      51.905 -38.879  -3.434  1.00  0.00     0.000 C 
BRANCH   2   3
ATOM      3  C   UNL     1      51.573 -38.698  -4.923  1.00  0.00     0.000 C 
BRANCH   3   4
ATOM      4  C   UNL     1      50.748 -37.428  -5.205  1.00  0.00     0.000 C 
BRANCH   4   5
ATOM      5  C   UNL     1      49.307 -37.453  -4.659  1.00  0.00     0.000 C 
BRANCH   5   6
ATOM      6  C   UNL     1      49.072 -36.594  -3.401  1.00  0.00     0.000 C 
BRANCH   6   7
ATOM      7  C   UNL     1      48.655 -37.381  -2.141  1.00  0.00     0.000 C 
BRANCH   7   8
ATOM      8  C   UNL     1      47.194 -37.181  -1.700  1.00  0.00     0.000 C 
BRANCH   8   9
ATOM      9  C   UNL     1      46.407 -36.261  -2.647  1.00  0.00     0.000 C 
BRANCH   9  10
ATOM     10  C   UNL     1      45.097 -35.750  -2.026  1.00  0.00     0.000 C 
BRANCH  10  11
ATOM     11  C   UNL     1      44.622 -34.380  -2.549  1.00  0.00     0.000 C 
BRANCH  11  12
ATOM     12  C   UNL     1      45.753 -33.524  -3.156  1.00  0.00     0.006 C 
BRANCH  12  13
ATOM     13  C   UNL     1      45.977 -32.222  -2.372  1.00  0.00     0.053 C 
BRANCH  13  14
ATOM     14  C   UNL     1      47.279 -32.272  -1.636  1.00  0.00     0.041 C 
ATOM     15  O   UNL     1      47.772 -31.220  -1.150  1.00  0.00    -0.550 OA
ATOM     16  O   UNL     1      47.971 -33.473  -1.525  1.00  0.00    -0.550 OA
ENDBRANCH  13  14
ENDBRANCH  12  13
ENDBRANCH  11  12
ENDBRANCH  10  11
ENDBRANCH   9  10
ENDBRANCH   8   9
ENDBRANCH   7   8
ENDBRANCH   6   7
ENDBRANCH   5   6
ENDBRANCH   4   5
ENDBRANCH   3   4
ENDBRANCH   2   3
ENDBRANCH   1   2
BRANCH   1  17
ATOM     17  C   UNL     1      50.302 -40.727  -2.689  1.00  0.00     0.000 C 
BRANCH  17  18
ATOM     18  C   UNL     1      49.689 -41.666  -3.743  1.00  0.00     0.000 C 
BRANCH  18  19
ATOM     19  C   UNL     1      48.553 -41.003  -4.540  1.00  0.00     0.000 C 
BRANCH  19  20
ATOM     20  C   UNL     1      47.387 -40.555  -3.642  1.00  0.00     0.000 C 
BRANCH  20  21
ATOM     21  C   UNL     1      46.343 -39.710  -4.395  1.00  0.00     0.000 C 
BRANCH  21  22
ATOM     22  C   UNL     1      44.984 -39.553  -3.682  1.00  0.00    -0.000 C 
BRANCH  22  23
ATOM     23  C   UNL     1      44.024 -38.531  -4.320  1.00  0.00    -0.000 C 
BRANCH  23  24
ATOM     24  C   UNL     1      44.388 -38.104  -5.754  1.00  0.00    -0.000 C 
BRANCH  24  25
ATOM     25  C   UNL     1      44.801 -36.622  -5.878  1.00  0.00    -0.000 C 
BRANCH  25  26
ATOM     26  C   UNL     1      46.263 -36.450  -6.327  1.00  0.00    -0.000 C 
BRANCH  26  27
ATOM     27  C   UNL     1      46.750 -34.998  -6.215  1.00  0.00    -0.000 C 
BRANCH  27  28
ATOM     28  C   UNL     1      48.061 -34.753  -6.983  1.00  0.00    -0.000 C 
BRANCH  28  29
ATOM     29  C   UNL     1      48.792 -33.488  -6.509  1.00  0.00    -0.003 C 
ATOM     30  C   UNL     1      48.923 -33.417  -4.988  1.00  0.00     0.004 C 
ENDBRANCH  28  29
ENDBRANCH  27  28
ENDBRANCH  26  27
ENDBRANCH  25  26
ENDBRANCH  24  25
ENDBRANCH  23  24
ENDBRANCH  22  23
ENDBRANCH  21  22
ENDBRANCH  20  21
ENDBRANCH  19  20
ENDBRANCH  18  19
ENDBRANCH  17  18
ENDBRANCH   1  17
TORSDOF 26
ENDMDL
MODEL 3
REMARK VINA RESULT:    -4.365      3.340      6.759
REMARK INTER + INTRA:         -16.485
REMARK INTER:                 -10.857
REMARK INTRA:                  -5.627
REMARK UNBOUND:                -5.486
REMARK SMILES CCCCCCCCCCCCCCCCCCCCCCCCCCCC(=O)[O-]
REMARK SMILES IDX 15 1 16 2 17 3 18 4 19 5 20 6 21 7 22 8 23 9 24 10 25 11
REMARK SMILES IDX 26 12 27 13 28 14 29 15 30 16 14 17 13 18 12 19 11 20 10 21
REMARK SMILES IDX 9 22 8 23 7 24 6 25 5 26 4 27 3 28 2 29 1 30
REMARK H PARENT
REMARK Flexibility Score: inf
ROOT
ATOM      1  C   UNL     1      49.419 -41.713  -3.697  1.00  0.00     0.000 C 
ENDROOT
BRANCH   1   2
ATOM      2  C   UNL     1      50.076 -40.747  -2.699  1.00  0.00     0.000 C 
BRANCH   2   3
ATOM      3  C   UNL     1      51.608 -40.830  -2.785  1.00  0.00     0.000 C 
BRANCH   3   4
ATOM      4  C   UNL     1      52.274 -39.457  -2.984  1.00  0.00     0.000 C 
BRANCH   4   5
ATOM      5  C   UNL     1      51.403 -38.407  -3.700  1.00  0.00     0.000 C 
BRANCH   5   6
ATOM      6  C   UNL     1      51.714 -38.214  -5.197  1.00  0.00     0.000 C 
BRANCH   6   7
ATOM      7  C   UNL     1      50.712 -37.325  -5.963  1.00  0.00     0.000 C 
BRANCH   7   8
ATOM      8  C   UNL     1      49.746 -36.518  -5.077  1.00  0.00     0.000 C 
BRANCH   8   9
ATOM      9  C   UNL     1      48.455 -36.121  -5.811  1.00  0.00     0.000 C 
BRANCH   9  10
ATOM     10  C   UNL     1      47.791 -34.870  -5.213  1.00  0.00     0.000 C 
BRANCH  10  11
ATOM     11  C   UNL     1      48.538 -33.549  -5.482  1.00  0.00     0.000 C 
BRANCH  11  12
ATOM     12  C   UNL     1      48.917 -32.779  -4.200  1.00  0.00     0.006 C 
BRANCH  12  13
ATOM     13  C   UNL     1      48.085 -33.227  -2.989  1.00  0.00     0.053 C 
BRANCH  13  14
ATOM     14  C   UNL     1      47.189 -32.121  -2.530  1.00  0.00     0.041 C 
ATOM     15  O   UNL     1      46.085 -32.385  -1.984  1.00  0.00    -0.550 OA
ATOM     16  O   UNL     1      47.553 -30.796  -2.746  1.00  0.00    -0.550 OA
ENDBRANCH  13  14
ENDBRANCH  12  13
ENDBRANCH  11  12
ENDBRANCH  10  11
ENDBRANCH   9  10
ENDBRANCH   8   9
ENDBRANCH   7   8
ENDBRANCH   6   7
ENDBRANCH   5   6
ENDBRANCH   4   5
ENDBRANCH   3   4
ENDBRANCH   2   3
ENDBRANCH   1   2
BRANCH   1  17
ATOM     17  C   UNL     1      48.831 -40.989  -4.920  1.00  0.00     0.000 C 
BRANCH  17  18
ATOM     18  C   UNL     1      48.093 -39.694  -4.536  1.00  0.00     0.000 C 
BRANCH  18  19
ATOM     19  C   UNL     1      46.565 -39.869  -4.506  1.00  0.00     0.000 C 
BRANCH  19  20
ATOM     20  C   UNL     1      45.827 -38.724  -5.219  1.00  0.00     0.000 C 
BRANCH  20  21
ATOM     21  C   UNL     1      44.675 -38.141  -4.381  1.00  0.00     0.000 C 
BRANCH  21  22
ATOM     22  C   UNL     1      44.901 -36.709  -3.854  1.00  0.00    -0.000 C 
BRANCH  22  23
ATOM     23  C   UNL     1      44.797 -36.548  -2.326  1.00  0.00    -0.000 C 
BRANCH  23  24
ATOM     24  C   UNL     1      46.131 -36.266  -1.610  1.00  0.00    -0.000 C 
BRANCH  24  25
ATOM     25  C   UNL     1      47.361 -36.865  -2.324  1.00  0.00    -0.000 C 
BRANCH  25  26
ATOM     26  C   UNL     1      48.291 -37.625  -1.363  1.00  0.00    -0.000 C 
BRANCH  26  27
ATOM     27  C   UNL     1      47.520 -38.472  -0.339  1.00  0.00    -0.000 C 
BRANCH  27  28
ATOM     28  C   UNL     1      47.062 -39.824  -0.916  1.00  0.00    -0.000 C 
BRANCH  28  29
ATOM     29  C   UNL     1      45.720 -40.288  -0.329  1.00  0.00    -0.003 C 
ATOM     30  C   UNL     1      44.563 -40.146  -1.318  1.00  0.00     0.004 C 
ENDBRANCH  28  29
ENDBRANCH  27  28
ENDBRANCH  26  27
ENDBRANCH  25  26
ENDBRANCH  24  25
ENDBRANCH  23  24
ENDBRANCH  22  23
ENDBRANCH  21  22
ENDBRANCH  20  21
ENDBRANCH  19  20
ENDBRANCH  18  19
ENDBRANCH  17  18
ENDBRANCH   1  17
TORSDOF 26
ENDMDL
MODEL 4
REMARK VINA RESULT:    -4.359      2.533      5.556
REMARK INTER + INTRA:         -16.470
REMARK INTER:                 -10.934
REMARK INTRA:                  -5.536
REMARK UNBOUND:                -5.486
REMARK SMILES CCCCCCCCCCCCCCCCCCCCCCCCCCCC(=O)[O-]
REMARK SMILES IDX 15 1 16 2 17 3 18 4 19 5 20 6 21 7 22 8 23 9 24 10 25 11
REMARK SMILES IDX 26 12 27 13 28 14 29 15 30 16 14 17 13 18 12 19 11 20 10 21
REMARK SMILES IDX 9 22 8 23 7 24 6 25 5 26 4 27 3 28 2 29 1 30
REMARK H PARENT
REMARK Flexibility Score: inf
ROOT
ATOM      1  C   UNL     1      49.361 -41.931  -3.724  1.00  0.00     0.000 C 
ENDROOT
BRANCH   1   2
ATOM      2  C   UNL     1      50.851 -42.057  -3.372  1.00  0.00     0.000 C 
BRANCH   2   3
ATOM      3  C   UNL     1      51.267 -40.979  -2.360  1.00  0.00     0.000 C 
BRANCH   3   4
ATOM      4  C   UNL     1      52.655 -40.382  -2.655  1.00  0.00     0.000 C 
BRANCH   4   5
ATOM      5  C   UNL     1      52.649 -38.905  -3.094  1.00  0.00     0.000 C 
BRANCH   5   6
ATOM      6  C   UNL     1      51.865 -38.612  -4.388  1.00  0.00     0.000 C 
BRANCH   6   7
ATOM      7  C   UNL     1      50.688 -37.628  -4.229  1.00  0.00     0.000 C 
BRANCH   7   8
ATOM      8  C   UNL     1      50.298 -37.304  -2.776  1.00  0.00     0.000 C 
BRANCH   8   9
ATOM      9  C   UNL     1      48.785 -37.097  -2.597  1.00  0.00     0.000 C 
BRANCH   9  10
ATOM     10  C   UNL     1      48.453 -35.903  -1.688  1.00  0.00     0.000 C 
BRANCH  10  11
ATOM     11  C   UNL     1      46.971 -35.793  -1.278  1.00  0.00     0.000 C 
BRANCH  11  12
ATOM     12  C   UNL     1      46.098 -36.956  -1.793  1.00  0.00     0.006 C 
BRANCH  12  13
ATOM     13  C   UNL     1      45.093 -37.436  -0.737  1.00  0.00     0.053 C 
BRANCH  13  14
ATOM     14  C   UNL     1      45.743 -38.398   0.207  1.00  0.00     0.041 C 
ATOM     15  O   UNL     1      45.259 -38.586   1.354  1.00  0.00    -0.550 OA
ATOM     16  O   UNL     1      46.913 -39.054  -0.164  1.00  0.00    -0.550 OA
ENDBRANCH  13  14
ENDBRANCH  12  13
ENDBRANCH  11  12
ENDBRANCH  10  11
ENDBRANCH   9  10
ENDBRANCH   8   9
ENDBRANCH   7   8
ENDBRANCH   6   7
ENDBRANCH   5   6
ENDBRANCH   4   5
ENDBRANCH   3   4
ENDBRANCH   2   3
ENDBRANCH   1   2
BRANCH   1  17
ATOM     17  C   UNL     1      49.112 -40.992  -4.916  1.00  0.00     0.000 C 
BRANCH  17  18
ATOM     18  C   UNL     1      47.936 -40.030  -4.670  1.00  0.00     0.000 C 
BRANCH  18  19
ATOM     19  C   UNL     1      47.142 -40.378  -3.399  1.00  0.00     0.000 C 
BRANCH  19  20
ATOM     20  C   UNL     1      45.640 -40.081  -3.544  1.00  0.00     0.000 C 
BRANCH  20  21
ATOM     21  C   UNL     1      45.329 -39.122  -4.708  1.00  0.00     0.000 C 
BRANCH  21  22
ATOM     22  C   UNL     1      44.008 -38.337  -4.580  1.00  0.00    -0.000 C 
BRANCH  22  23
ATOM     23  C   UNL     1      43.929 -37.045  -5.416  1.00  0.00    -0.000 C 
BRANCH  23  24
ATOM     24  C   UNL     1      44.942 -35.954  -5.024  1.00  0.00    -0.000 C 
BRANCH  24  25
ATOM     25  C   UNL     1      45.981 -35.643  -6.122  1.00  0.00    -0.000 C 
BRANCH  25  26
ATOM     26  C   UNL     1      47.388 -36.156  -5.767  1.00  0.00    -0.000 C 
BRANCH  26  27
ATOM     27  C   UNL     1      48.500 -35.208  -6.242  1.00  0.00    -0.000 C 
BRANCH  27  28
ATOM     28  C   UNL     1      49.123 -34.403  -5.087  1.00  0.00    -0.000 C 
BRANCH  28  29
ATOM     29  C   UNL     1      48.458 -33.030  -4.902  1.00  0.00    -0.003 C 
ATOM     30  C   UNL     1      47.455 -33.011  -3.748  1.00  0.00     0.004 C 
ENDBRANCH  28  29
ENDBRANCH  27  28
ENDBRANCH  26  27
ENDBRANCH  25  26
ENDBRANCH  24  25
ENDBRANCH  23  24
ENDBRANCH  22  23
ENDBRANCH  21  22
ENDBRANCH  20  21
ENDBRANCH  19  20
ENDBRANCH  18  19
ENDBRANCH  17  18
ENDBRANCH   1  17
TORSDOF 26
ENDMDL
MODEL 5
REMARK VINA RESULT:    -4.328      3.081      6.460
REMARK INTER + INTRA:         -16.393
REMARK INTER:                 -11.416
REMARK INTRA:                  -4.977
REMARK UNBOUND:                -5.486
REMARK SMILES CCCCCCCCCCCCCCCCCCCCCCCCCCCC(=O)[O-]
REMARK SMILES IDX 15 1 16 2 17 3 18 4 19 5 20 6 21 7 22 8 23 9 24 10 25 11
REMARK SMILES IDX 26 12 27 13 28 14 29 15 30 16 14 17 13 18 12 19 11 20 10 21
REMARK SMILES IDX 9 22 8 23 7 24 6 25 5 26 4 27 3 28 2 29 1 30
REMARK H PARENT
REMARK Flexibility Score: inf
ROOT
ATOM      1  C   UNL     1      52.273 -42.420  -2.665  1.00  0.00     0.000 C 
ENDROOT
BRANCH   1   2
ATOM      2  C   UNL     1      52.662 -41.341  -1.643  1.00  0.00     0.000 C 
BRANCH   2   3
ATOM      3  C   UNL     1      54.095 -40.846  -1.889  1.00  0.00     0.000 C 
BRANCH   3   4
ATOM      4  C   UNL     1      54.156 -39.366  -2.310  1.00  0.00     0.000 C 
BRANCH   4   5
ATOM      5  C   UNL     1      52.796 -38.733  -2.663  1.00  0.00     0.000 C 
BRANCH   5   6
ATOM      6  C   UNL     1      52.463 -38.700  -4.167  1.00  0.00     0.000 C 
BRANCH   6   7
ATOM      7  C   UNL     1      51.146 -37.981  -4.529  1.00  0.00     0.000 C 
BRANCH   7   8
ATOM      8  C   UNL     1      51.165 -37.220  -5.867  1.00  0.00     0.000 C 
BRANCH   8   9
ATOM      9  C   UNL     1      49.965 -36.272  -6.029  1.00  0.00     0.000 C 
BRANCH   9  10
ATOM     10  C   UNL     1      49.081 -36.213  -4.773  1.00  0.00     0.000 C 
BRANCH  10  11
ATOM     11  C   UNL     1      47.569 -36.091  -5.050  1.00  0.00     0.000 C 
BRANCH  11  12
ATOM     12  C   UNL     1      47.013 -34.669  -4.829  1.00  0.00     0.006 C 
BRANCH  12  13
ATOM     13  C   UNL     1      47.849 -33.872  -3.817  1.00  0.00     0.053 C 
BRANCH  13  14
ATOM     14  C   UNL     1      48.383 -32.624  -4.446  1.00  0.00     0.041 C 
ATOM     15  O   UNL     1      48.748 -32.629  -5.652  1.00  0.00    -0.550 OA
ATOM     16  O   UNL     1      48.522 -31.466  -3.688  1.00  0.00    -0.550 OA
ENDBRANCH  13  14
ENDBRANCH  12  13
ENDBRANCH  11  12
ENDBRANCH  10  11
ENDBRANCH   9  10
ENDBRANCH   8   9
ENDBRANCH   7   8
ENDBRANCH   6   7
ENDBRANCH   5   6
ENDBRANCH   4   5
ENDBRANCH   3   4
ENDBRANCH   2   3
ENDBRANCH   1   2
BRANCH   1  17
ATOM     17  C   UNL     1      50.967 -42.088  -3.407  1.00  0.00     0.000 C 
BRANCH  17  18
ATOM     18  C   UNL     1      50.134 -41.018  -2.678  1.00  0.00     0.000 C 
BRANCH  18  19
ATOM     19  C   UNL     1      48.653 -41.036  -3.092  1.00  0.00     0.000 C 
BRANCH  19  20
ATOM     20  C   UNL     1      48.410 -40.331  -4.437  1.00  0.00     0.000 C 
BRANCH  20  21
ATOM     21  C   UNL     1      46.958 -39.846  -4.604  1.00  0.00     0.000 C 
BRANCH  21  22
ATOM     22  C   UNL     1      45.973 -40.330  -3.519  1.00  0.00    -0.000 C 
BRANCH  22  23
ATOM     23  C   UNL     1      44.556 -39.733  -3.607  1.00  0.00    -0.000 C 
BRANCH  23  24
ATOM     24  C   UNL     1      44.384 -38.621  -4.658  1.00  0.00    -0.000 C 
BRANCH  24  25
ATOM     25  C   UNL     1      44.285 -37.203  -4.056  1.00  0.00    -0.000 C 
BRANCH  25  26
ATOM     26  C   UNL     1      44.282 -37.213  -2.517  1.00  0.00    -0.000 C 
BRANCH  26  27
ATOM     27  C   UNL     1      45.549 -36.582  -1.918  1.00  0.00    -0.000 C 
BRANCH  27  28
ATOM     28  C   UNL     1      46.404 -37.598  -1.140  1.00  0.00    -0.000 C 
BRANCH  28  29
ATOM     29  C   UNL     1      47.851 -37.662  -1.652  1.00  0.00    -0.003 C 
ATOM     30  C   UNL     1      48.700 -36.488  -1.166  1.00  0.00     0.004 C 
ENDBRANCH  28  29
ENDBRANCH  27  28
ENDBRANCH  26  27
ENDBRANCH  25  26
ENDBRANCH  24  25
ENDBRANCH  23  24
ENDBRANCH  22  23
ENDBRANCH  21  22
ENDBRANCH  20  21
ENDBRANCH  19  20
ENDBRANCH  18  19
ENDBRANCH  17  18
ENDBRANCH   1  17
TORSDOF 26
ENDMDL
MODEL 6
REMARK VINA RESULT:    -4.316      2.894      6.310
REMARK INTER + INTRA:         -16.363
REMARK INTER:                 -10.505
REMARK INTRA:                  -5.858
REMARK UNBOUND:                -5.486
REMARK SMILES CCCCCCCCCCCCCCCCCCCCCCCCCCCC(=O)[O-]
REMARK SMILES IDX 15 1 16 2 17 3 18 4 19 5 20 6 21 7 22 8 23 9 24 10 25 11
REMARK SMILES IDX 26 12 27 13 28 14 29 15 30 16 14 17 13 18 12 19 11 20 10 21
REMARK SMILES IDX 9 22 8 23 7 24 6 25 5 26 4 27 3 28 2 29 1 30
REMARK H PARENT
REMARK Flexibility Score: inf
ROOT
ATOM      1  C   UNL     1      50.948 -40.170  -2.989  1.00  0.00     0.000 C 
ENDROOT
BRANCH   1   2
ATOM      2  C   UNL     1      50.514 -41.184  -4.058  1.00  0.00     0.000 C 
BRANCH   2   3
ATOM      3  C   UNL     1      48.988 -41.366  -4.052  1.00  0.00     0.000 C 
BRANCH   3   4
ATOM      4  C   UNL     1      48.298 -40.612  -2.901  1.00  0.00     0.000 C 
BRANCH   4   5
ATOM      5  C   UNL     1      46.832 -40.217  -3.166  1.00  0.00     0.000 C 
BRANCH   5   6
ATOM      6  C   UNL     1      46.520 -39.812  -4.620  1.00  0.00     0.000 C 
BRANCH   6   7
ATOM      7  C   UNL     1      45.526 -38.641  -4.772  1.00  0.00     0.000 C 
BRANCH   7   8
ATOM      8  C   UNL     1      44.364 -38.636  -3.762  1.00  0.00     0.000 C 
BRANCH   8   9
ATOM      9  C   UNL     1      44.172 -37.270  -3.083  1.00  0.00     0.000 C 
BRANCH   9  10
ATOM     10  C   UNL     1      45.043 -36.169  -3.708  1.00  0.00     0.000 C 
BRANCH  10  11
ATOM     11  C   UNL     1      45.548 -35.101  -2.717  1.00  0.00     0.000 C 
BRANCH  11  12
ATOM     12  C   UNL     1      46.090 -33.829  -3.400  1.00  0.00     0.006 C 
BRANCH  12  13
ATOM     13  C   UNL     1      46.975 -32.999  -2.459  1.00  0.00     0.053 C 
BRANCH  13  14
ATOM     14  C   UNL     1      48.097 -32.363  -3.219  1.00  0.00     0.041 C 
ATOM     15  O   UNL     1      48.285 -31.120  -3.148  1.00  0.00    -0.550 OA
ATOM     16  O   UNL     1      48.907 -33.138  -4.041  1.00  0.00    -0.550 OA
ENDBRANCH  13  14
ENDBRANCH  12  13
ENDBRANCH  11  12
ENDBRANCH  10  11
ENDBRANCH   9  10
ENDBRANCH   8   9
ENDBRANCH   7   8
ENDBRANCH   6   7
ENDBRANCH   5   6
ENDBRANCH   4   5
ENDBRANCH   3   4
ENDBRANCH   2   3
ENDBRANCH   1   2
BRANCH   1  17
ATOM     17  C   UNL     1      51.835 -39.051  -3.561  1.00  0.00     0.000 C 
BRANCH  17  18
ATOM     18  C   UNL     1      51.487 -38.716  -5.022  1.00  0.00     0.000 C 
BRANCH  18  19
ATOM     19  C   UNL     1      50.800 -37.348  -5.169  1.00  0.00     0.000 C 
BRANCH  19  20
ATOM     20  C   UNL     1      49.266 -37.459  -5.189  1.00  0.00     0.000 C 
BRANCH  20  21
ATOM     21  C   UNL     1      48.588 -36.557  -4.142  1.00  0.00     0.000 C 
BRANCH  21  22
ATOM     22  C   UNL     1      48.741 -37.017  -2.678  1.00  0.00    -0.000 C 
BRANCH  22  23
ATOM     23  C   UNL     1      49.656 -36.137  -1.805  1.00  0.00    -0.000 C 
BRANCH  23  24
ATOM     24  C   UNL     1      48.967 -35.486  -0.592  1.00  0.00    -0.000 C 
BRANCH  24  25
ATOM     25  C   UNL     1      48.395 -36.501   0.421  1.00  0.00    -0.000 C 
BRANCH  25  26
ATOM     26  C   UNL     1      47.046 -36.054   1.009  1.00  0.00    -0.000 C 
BRANCH  26  27
ATOM     27  C   UNL     1      45.851 -36.771   0.362  1.00  0.00    -0.000 C 
BRANCH  27  28
ATOM     28  C   UNL     1      46.192 -38.206  -0.080  1.00  0.00    -0.000 C 
BRANCH  28  29
ATOM     29  C   UNL     1      45.054 -39.196   0.213  1.00  0.00    -0.003 C 
ATOM     30  C   UNL     1      45.527 -40.649   0.230  1.00  0.00     0.004 C 
ENDBRANCH  28  29
ENDBRANCH  27  28
ENDBRANCH  26  27
ENDBRANCH  25  26
ENDBRANCH  24  25
ENDBRANCH  23  24
ENDBRANCH  22  23
ENDBRANCH  21  22
ENDBRANCH  20  21
ENDBRANCH  19  20
ENDBRANCH  18  19
ENDBRANCH  17  18
ENDBRANCH   1  17
TORSDOF 26
ENDMDL
MODEL 7
REMARK VINA RESULT:    -4.273      3.428      7.076
REMARK INTER + INTRA:         -16.255
REMARK INTER:                 -10.288
REMARK INTRA:                  -5.966
REMARK UNBOUND:                -5.486
REMARK SMILES CCCCCCCCCCCCCCCCCCCCCCCCCCCC(=O)[O-]
REMARK SMILES IDX 15 1 16 2 17 3 18 4 19 5 20 6 21 7 22 8 23 9 24 10 25 11
REMARK SMILES IDX 26 12 27 13 28 14 29 15 30 16 14 17 13 18 12 19 11 20 10 21
REMARK SMILES IDX 9 22 8 23 7 24 6 25 5 26 4 27 3 28 2 29 1 30
REMARK H PARENT
REMARK Flexibility Score: inf
ROOT
ATOM      1  C   UNL     1      48.732 -35.790  -0.536  1.00  0.00     0.000 C 
ENDROOT
BRANCH   1   2
ATOM      2  C   UNL     1      48.954 -35.773  -2.056  1.00  0.00     0.000 C 
BRANCH   2   3
ATOM      3  C   UNL     1      48.419 -34.472  -2.673  1.00  0.00     0.000 C 
BRANCH   3   4
ATOM      4  C   UNL     1      47.634 -34.703  -3.977  1.00  0.00     0.000 C 
BRANCH   4   5
ATOM      5  C   UNL     1      47.298 -36.176  -4.283  1.00  0.00     0.000 C 
BRANCH   5   6
ATOM      6  C   UNL     1      45.795 -36.486  -4.425  1.00  0.00     0.000 C 
BRANCH   6   7
ATOM      7  C   UNL     1      44.873 -35.702  -3.468  1.00  0.00     0.000 C 
BRANCH   7   8
ATOM      8  C   UNL     1      44.742 -36.298  -2.055  1.00  0.00     0.000 C 
BRANCH   8   9
ATOM      9  C   UNL     1      44.758 -35.226  -0.953  1.00  0.00     0.000 C 
BRANCH   9  10
ATOM     10  C   UNL     1      44.989 -33.810  -1.505  1.00  0.00     0.000 C 
BRANCH  10  11
ATOM     11  C   UNL     1      45.745 -32.859  -0.556  1.00  0.00     0.000 C 
BRANCH  11  12
ATOM     12  C   UNL     1      46.286 -33.552   0.712  1.00  0.00     0.006 C 
BRANCH  12  13
ATOM     13  C   UNL     1      47.327 -32.691   1.442  1.00  0.00     0.053 C 
BRANCH  13  14
ATOM     14  C   UNL     1      47.231 -32.893   2.921  1.00  0.00     0.041 C 
ATOM     15  O   UNL     1      46.869 -31.946   3.668  1.00  0.00    -0.550 OA
ATOM     16  O   UNL     1      47.585 -34.116   3.481  1.00  0.00    -0.550 OA
ENDBRANCH  13  14
ENDBRANCH  12  13
ENDBRANCH  11  12
ENDBRANCH  10  11
ENDBRANCH   9  10
ENDBRANCH   8   9
ENDBRANCH   7   8
ENDBRANCH   6   7
ENDBRANCH   5   6
ENDBRANCH   4   5
ENDBRANCH   3   4
ENDBRANCH   2   3
ENDBRANCH   1   2
BRANCH   1  17
ATOM     17  C   UNL     1      47.931 -37.017  -0.070  1.00  0.00     0.000 C 
BRANCH  17  18
ATOM     18  C   UNL     1      47.788 -38.079  -1.175  1.00  0.00     0.000 C 
BRANCH  18  19
ATOM     19  C   UNL     1      47.624 -39.501  -0.613  1.00  0.00     0.000 C 
BRANCH  19  20
ATOM     20  C   UNL     1      46.429 -40.245  -1.232  1.00  0.00     0.000 C 
BRANCH  20  21
ATOM     21  C   UNL     1      45.995 -39.657  -2.587  1.00  0.00     0.000 C 
BRANCH  21  22
ATOM     22  C   UNL     1      46.434 -40.463  -3.826  1.00  0.00    -0.000 C 
BRANCH  22  23
ATOM     23  C   UNL     1      47.667 -39.911  -4.565  1.00  0.00    -0.000 C 
BRANCH  23  24
ATOM     24  C   UNL     1      48.800 -40.930  -4.791  1.00  0.00    -0.000 C 
BRANCH  24  25
ATOM     25  C   UNL     1      49.305 -41.599  -3.495  1.00  0.00    -0.000 C 
BRANCH  25  26
ATOM     26  C   UNL     1      50.361 -40.751  -2.764  1.00  0.00    -0.000 C 
BRANCH  26  27
ATOM     27  C   UNL     1      51.190 -39.883  -3.724  1.00  0.00    -0.000 C 
BRANCH  27  28
ATOM     28  C   UNL     1      51.008 -38.377  -3.464  1.00  0.00    -0.000 C 
BRANCH  28  29
ATOM     29  C   UNL     1      50.702 -37.592  -4.748  1.00  0.00    -0.003 C 
ATOM     30  C   UNL     1      51.231 -38.286  -6.003  1.00  0.00     0.004 C 
ENDBRANCH  28  29
ENDBRANCH  27  28
ENDBRANCH  26  27
ENDBRANCH  25  26
ENDBRANCH  24  25
ENDBRANCH  23  24
ENDBRANCH  22  23
ENDBRANCH  21  22
ENDBRANCH  20  21
ENDBRANCH  19  20
ENDBRANCH  18  19
ENDBRANCH  17  18
ENDBRANCH   1  17
TORSDOF 26
ENDMDL
MODEL 8
REMARK VINA RESULT:    -4.258      3.213      5.579
REMARK INTER + INTRA:         -16.215
REMARK INTER:                 -10.609
REMARK INTRA:                  -5.606
REMARK UNBOUND:                -5.486
REMARK SMILES CCCCCCCCCCCCCCCCCCCCCCCCCCCC(=O)[O-]
REMARK SMILES IDX 15 1 16 2 17 3 18 4 19 5 20 6 21 7 22 8 23 9 24 10 25 11
REMARK SMILES IDX 26 12 27 13 28 14 29 15 30 16 14 17 13 18 12 19 11 20 10 21
REMARK SMILES IDX 9 22 8 23 7 24 6 25 5 26 4 27 3 28 2 29 1 30
REMARK H PARENT
REMARK Flexibility Score: inf
ROOT
ATOM      1  C   UNL     1      47.060 -40.044  -2.672  1.00  0.00     0.000 C 
ENDROOT
BRANCH   1   2
ATOM      2  C   UNL     1      48.440 -40.648  -2.371  1.00  0.00     0.000 C 
BRANCH   2   3
ATOM      3  C   UNL     1      48.986 -41.401  -3.594  1.00  0.00     0.000 C 
BRANCH   3   4
ATOM      4  C   UNL     1      50.517 -41.305  -3.724  1.00  0.00     0.000 C 
BRANCH   4   5
ATOM      5  C   UNL     1      51.049 -39.925  -4.156  1.00  0.00     0.000 C 
BRANCH   5   6
ATOM      6  C   UNL     1      50.191 -39.195  -5.208  1.00  0.00     0.000 C 
BRANCH   6   7
ATOM      7  C   UNL     1      49.624 -37.833  -4.756  1.00  0.00     0.000 C 
BRANCH   7   8
ATOM      8  C   UNL     1      50.098 -37.354  -3.372  1.00  0.00     0.000 C 
BRANCH   8   9
ATOM      9  C   UNL     1      48.944 -36.851  -2.489  1.00  0.00     0.000 C 
BRANCH   9  10
ATOM     10  C   UNL     1      49.185 -35.432  -1.950  1.00  0.00     0.000 C 
BRANCH  10  11
ATOM     11  C   UNL     1      49.059 -35.290  -0.420  1.00  0.00     0.000 C 
BRANCH  11  12
ATOM     12  C   UNL     1      48.312 -36.461   0.251  1.00  0.00     0.006 C 
BRANCH  12  13
ATOM     13  C   UNL     1      48.414 -36.411   1.782  1.00  0.00     0.053 C 
BRANCH  13  14
ATOM     14  C   UNL     1      47.493 -35.368   2.334  1.00  0.00     0.041 C 
ATOM     15  O   UNL     1      46.463 -35.029   1.694  1.00  0.00    -0.550 OA
ATOM     16  O   UNL     1      47.797 -34.738   3.536  1.00  0.00    -0.550 OA
ENDBRANCH  13  14
ENDBRANCH  12  13
ENDBRANCH  11  12
ENDBRANCH  10  11
ENDBRANCH   9  10
ENDBRANCH   8   9
ENDBRANCH   7   8
ENDBRANCH   6   7
ENDBRANCH   5   6
ENDBRANCH   4   5
ENDBRANCH   3   4
ENDBRANCH   2   3
ENDBRANCH   1   2
BRANCH   1  17
ATOM     17  C   UNL     1      46.633 -40.246  -4.135  1.00  0.00     0.000 C 
BRANCH  17  18
ATOM     18  C   UNL     1      46.129 -38.945  -4.785  1.00  0.00     0.000 C 
BRANCH  18  19
ATOM     19  C   UNL     1      44.607 -38.769  -4.656  1.00  0.00     0.000 C 
BRANCH  19  20
ATOM     20  C   UNL     1      44.055 -37.697  -5.611  1.00  0.00     0.000 C 
BRANCH  20  21
ATOM     21  C   UNL     1      44.983 -37.430  -6.810  1.00  0.00     0.000 C 
BRANCH  21  22
ATOM     22  C   UNL     1      45.486 -35.978  -6.944  1.00  0.00    -0.000 C 
BRANCH  22  23
ATOM     23  C   UNL     1      46.940 -35.743  -6.493  1.00  0.00    -0.000 C 
BRANCH  23  24
ATOM     24  C   UNL     1      47.093 -35.111  -5.097  1.00  0.00    -0.000 C 
BRANCH  24  25
ATOM     25  C   UNL     1      45.764 -34.622  -4.484  1.00  0.00    -0.000 C 
BRANCH  25  26
ATOM     26  C   UNL     1      45.968 -33.839  -3.175  1.00  0.00    -0.000 C 
BRANCH  26  27
ATOM     27  C   UNL     1      45.641 -34.675  -1.928  1.00  0.00    -0.000 C 
BRANCH  27  28
ATOM     28  C   UNL     1      44.774 -35.905  -2.252  1.00  0.00    -0.000 C 
BRANCH  28  29
ATOM     29  C   UNL     1      45.257 -37.171  -1.528  1.00  0.00    -0.003 C 
ATOM     30  C   UNL     1      44.597 -37.358  -0.162  1.00  0.00     0.004 C 
ENDBRANCH  28  29
ENDBRANCH  27  28
ENDBRANCH  26  27
ENDBRANCH  25  26
ENDBRANCH  24  25
ENDBRANCH  23  24
ENDBRANCH  22  23
ENDBRANCH  21  22
ENDBRANCH  20  21
ENDBRANCH  19  20
ENDBRANCH  18  19
ENDBRANCH  17  18
ENDBRANCH   1  17
TORSDOF 26
ENDMDL
MODEL 9
REMARK VINA RESULT:    -4.221      1.502      3.050
REMARK INTER + INTRA:         -16.123
REMARK INTER:                 -10.330
REMARK INTRA:                  -5.794
REMARK UNBOUND:                -5.486
REMARK SMILES CCCCCCCCCCCCCCCCCCCCCCCCCCCC(=O)[O-]
REMARK SMILES IDX 15 1 16 2 17 3 18 4 19 5 20 6 21 7 22 8 23 9 24 10 25 11
REMARK SMILES IDX 26 12 27 13 28 14 29 15 30 16 14 17 13 18 12 19 11 20 10 21
REMARK SMILES IDX 9 22 8 23 7 24 6 25 5 26 4 27 3 28 2 29 1 30
REMARK H PARENT
REMARK Flexibility Score: inf
ROOT
ATOM      1  C   UNL     1      49.793 -37.252  -3.007  1.00  0.00     0.000 C 
ENDROOT
BRANCH   1   2
ATOM      2  C   UNL     1      48.617 -36.923  -2.074  1.00  0.00     0.000 C 
BRANCH   2   3
ATOM      3  C   UNL     1      49.079 -36.043  -0.902  1.00  0.00     0.000 C 
BRANCH   3   4
ATOM      4  C   UNL     1      48.407 -36.418   0.432  1.00  0.00     0.000 C 
BRANCH   4   5
ATOM      5  C   UNL     1      47.598 -37.730   0.408  1.00  0.00     0.000 C 
BRANCH   5   6
ATOM      6  C   UNL     1      46.105 -37.581   0.757  1.00  0.00     0.000 C 
BRANCH   6   7
ATOM      7  C   UNL     1      45.184 -38.666   0.160  1.00  0.00     0.000 C 
BRANCH   7   8
ATOM      8  C   UNL     1      45.847 -39.585  -0.882  1.00  0.00     0.000 C 
BRANCH   8   9
ATOM      9  C   UNL     1      44.926 -39.899  -2.072  1.00  0.00     0.000 C 
BRANCH   9  10
ATOM     10  C   UNL     1      45.704 -40.264  -3.346  1.00  0.00     0.000 C 
BRANCH  10  11
ATOM     11  C   UNL     1      47.221 -39.997  -3.278  1.00  0.00     0.000 C 
BRANCH  11  12
ATOM     12  C   UNL     1      48.022 -40.689  -4.399  1.00  0.00     0.006 C 
BRANCH  12  13
ATOM     13  C   UNL     1      49.113 -41.617  -3.843  1.00  0.00     0.053 C 
BRANCH  13  14
ATOM     14  C   UNL     1      50.454 -40.958  -3.926  1.00  0.00     0.041 C 
ATOM     15  O   UNL     1      50.720 -40.182  -4.881  1.00  0.00    -0.550 OA
ATOM     16  O   UNL     1      51.426 -41.237  -2.972  1.00  0.00    -0.550 OA
ENDBRANCH  13  14
ENDBRANCH  12  13
ENDBRANCH  11  12
ENDBRANCH  10  11
ENDBRANCH   9  10
ENDBRANCH   8   9
ENDBRANCH   7   8
ENDBRANCH   6   7
ENDBRANCH   5   6
ENDBRANCH   4   5
ENDBRANCH   3   4
ENDBRANCH   2   3
ENDBRANCH   1   2
BRANCH   1  17
ATOM     17  C   UNL     1      49.507 -36.879  -4.471  1.00  0.00     0.000 C 
BRANCH  17  18
ATOM     18  C   UNL     1      48.010 -36.970  -4.818  1.00  0.00     0.000 C 
BRANCH  18  19
ATOM     19  C   UNL     1      47.521 -35.774  -5.653  1.00  0.00     0.000 C 
BRANCH  19  20
ATOM     20  C   UNL     1      46.143 -36.023  -6.289  1.00  0.00     0.000 C 
BRANCH  20  21
ATOM     21  C   UNL     1      45.623 -37.452  -6.048  1.00  0.00     0.000 C 
BRANCH  21  22
ATOM     22  C   UNL     1      44.269 -37.546  -5.315  1.00  0.00    -0.000 C 
BRANCH  22  23
ATOM     23  C   UNL     1      43.875 -36.299  -4.503  1.00  0.00    -0.000 C 
BRANCH  23  24
ATOM     24  C   UNL     1      43.969 -36.463  -2.974  1.00  0.00    -0.000 C 
BRANCH  24  25
ATOM     25  C   UNL     1      45.267 -35.893  -2.364  1.00  0.00    -0.000 C 
BRANCH  25  26
ATOM     26  C   UNL     1      45.409 -34.377  -2.585  1.00  0.00    -0.000 C 
BRANCH  26  27
ATOM     27  C   UNL     1      46.206 -33.688  -1.467  1.00  0.00    -0.000 C 
BRANCH  27  28
ATOM     28  C   UNL     1      47.501 -33.034  -1.981  1.00  0.00    -0.000 C 
BRANCH  28  29
ATOM     29  C   UNL     1      47.606 -33.065  -3.513  1.00  0.00    -0.003 C 
ATOM     30  C   UNL     1      48.657 -32.094  -4.052  1.00  0.00     0.004 C 
ENDBRANCH  28  29
ENDBRANCH  27  28
ENDBRANCH  26  27
ENDBRANCH  25  26
ENDBRANCH  24  25
ENDBRANCH  23  24
ENDBRANCH  22  23
ENDBRANCH  21  22
ENDBRANCH  20  21
ENDBRANCH  19  20
ENDBRANCH  18  19
ENDBRANCH  17  18
ENDBRANCH   1  17
TORSDOF 26
ENDMDL
