MODEL 1
REMARK VINA RESULT:    -3.331      0.000      0.000
REMARK INTER + INTRA:          -8.240
REMARK INTER:                  -6.253
REMARK INTRA:                  -1.987
REMARK UNBOUND:                -1.987
REMARK SMILES CCCCCCCCC=CCCCCCCCC(=O)[O-]
REMARK SMILES IDX 10 1 9 2 11 3 12 4 13 5 14 6 15 7 16 8 17 9 18 10 19 11
REMARK SMILES IDX 20 12 8 13 7 14 6 15 5 16 4 17 3 18 2 19 1 20
REMARK H PARENT
REMARK Flexibility Score: inf
ROOT
ATOM      1  C   UNL     1      25.655  -1.564  19.481  1.00  0.00    -0.031 C 
ATOM      2  C   UNL     1      25.839  -0.978  18.284  1.00  0.00    -0.031 C 
ENDROOT
BRANCH   1   3
ATOM      3  C   UNL     1      25.220  -0.852  20.737  1.00  0.00     0.027 C 
BRANCH   3   4
ATOM      4  C   UNL     1      24.027  -1.562  21.394  1.00  0.00     0.004 C 
BRANCH   4   5
ATOM      5  C   UNL     1      23.062  -2.168  20.362  1.00  0.00     0.000 C 
BRANCH   5   6
ATOM      6  C   UNL     1      21.591  -1.891  20.704  1.00  0.00     0.000 C 
BRANCH   6   7
ATOM      7  C   UNL     1      20.881  -1.178  19.546  1.00  0.00     0.000 C 
BRANCH   7   8
ATOM      8  C   UNL     1      21.795  -0.119  18.914  1.00  0.00     0.006 C 
BRANCH   8   9
ATOM      9  C   UNL     1      22.043  -0.378  17.423  1.00  0.00     0.053 C 
BRANCH   9  10
ATOM     10  C   UNL     1      20.764  -0.489  16.654  1.00  0.00     0.041 C 
ATOM     11  O   UNL     1      20.006   0.507  16.539  1.00  0.00    -0.550 OA
ATOM     12  O   UNL     1      20.396  -1.699  16.083  1.00  0.00    -0.550 OA
ENDBRANCH   9  10
ENDBRANCH   8   9
ENDBRANCH   7   8
ENDBRANCH   6   7
ENDBRANCH   5   6
ENDBRANCH   4   5
ENDBRANCH   3   4
ENDBRANCH   1   3
BRANCH   2  13
ATOM     13  C   UNL     1      25.610   0.486  17.995  1.00  0.00     0.027 C 
BRANCH  13  14
ATOM     14  C   UNL     1      25.809   0.815  16.505  1.00  0.00     0.004 C 
BRANCH  14  15
ATOM     15  C   UNL     1      27.289   0.921  16.086  1.00  0.00     0.000 C 
BRANCH  15  16
ATOM     16  C   UNL     1      28.100   2.014  16.807  1.00  0.00     0.000 C 
BRANCH  16  17
ATOM     17  C   UNL     1      29.608   1.727  16.944  1.00  0.00    -0.000 C 
BRANCH  17  18
ATOM     18  C   UNL     1      30.092   1.422  18.375  1.00  0.00    -0.000 C 
BRANCH  18  19
ATOM     19  C   UNL     1      29.331   0.291  19.090  1.00  0.00    -0.003 C 
ATOM     20  C   UNL     1      30.223  -0.895  19.448  1.00  0.00     0.004 C 
ENDBRANCH  18  19
ENDBRANCH  17  18
ENDBRANCH  16  17
ENDBRANCH  15  16
ENDBRANCH  14  15
ENDBRANCH  13  14
ENDBRANCH   2  13
TORSDOF 15
ENDMDL
MODEL 2
REMARK VINA RESULT:    -3.296      3.747      6.967
REMARK INTER + INTRA:          -8.173
REMARK INTER:                  -5.327
REMARK INTRA:                  -2.846
REMARK UNBOUND:                -1.987
REMARK SMILES CCCCCCCCC=CCCCCCCCC(=O)[O-]
REMARK SMILES IDX 10 1 9 2 11 3 12 4 13 5 14 6 15 7 16 8 17 9 18 10 19 11
REMARK SMILES IDX 20 12 8 13 7 14 6 15 5 16 4 17 3 18 2 19 1 20
REMARK H PARENT
REMARK Flexibility Score: inf
ROOT
ATOM      1  C   UNL     1      25.227  -1.618  19.011  1.00  0.00    -0.031 C 
ATOM      2  C   UNL     1      25.973  -1.372  20.103  1.00  0.00    -0.031 C 
ENDROOT
BRANCH   1   3
ATOM      3  C   UNL     1      23.745  -1.364  18.897  1.00  0.00     0.027 C 
BRANCH   3   4
ATOM      4  C   UNL     1      23.453  -0.195  17.945  1.00  0.00     0.004 C 
BRANCH   4   5
ATOM      5  C   UNL     1      24.610   0.814  17.878  1.00  0.00     0.000 C 
BRANCH   5   6
ATOM      6  C   UNL     1      25.237   0.894  16.479  1.00  0.00     0.000 C 
BRANCH   6   7
ATOM      7  C   UNL     1      26.758   0.701  16.544  1.00  0.00     0.000 C 
BRANCH   7   8
ATOM      8  C   UNL     1      27.342   1.383  17.789  1.00  0.00     0.006 C 
BRANCH   8   9
ATOM      9  C   UNL     1      28.516   0.599  18.388  1.00  0.00     0.053 C 
BRANCH   9  10
ATOM     10  C   UNL     1      29.832   1.235  18.069  1.00  0.00     0.041 C 
ATOM     11  O   UNL     1      30.148   1.474  16.877  1.00  0.00    -0.550 OA
ATOM     12  O   UNL     1      30.723   1.545  19.088  1.00  0.00    -0.550 OA
ENDBRANCH   9  10
ENDBRANCH   8   9
ENDBRANCH   7   8
ENDBRANCH   6   7
ENDBRANCH   5   6
ENDBRANCH   4   5
ENDBRANCH   3   4
ENDBRANCH   1   3
BRANCH   2  13
ATOM     13  C   UNL     1      25.451  -0.773  21.388  1.00  0.00     0.027 C 
BRANCH  13  14
ATOM     14  C   UNL     1      25.591   0.759  21.405  1.00  0.00     0.004 C 
BRANCH  14  15
ATOM     15  C   UNL     1      24.414   1.481  22.090  1.00  0.00     0.000 C 
BRANCH  15  16
ATOM     16  C   UNL     1      23.060   1.363  21.364  1.00  0.00     0.000 C 
BRANCH  16  17
ATOM     17  C   UNL     1      21.945   0.665  22.168  1.00  0.00    -0.000 C 
BRANCH  17  18
ATOM     18  C   UNL     1      21.514  -0.715  21.635  1.00  0.00    -0.000 C 
BRANCH  18  19
ATOM     19  C   UNL     1      22.087  -1.916  22.409  1.00  0.00    -0.003 C 
ATOM     20  C   UNL     1      22.699  -1.524  23.751  1.00  0.00     0.004 C 
ENDBRANCH  18  19
ENDBRANCH  17  18
ENDBRANCH  16  17
ENDBRANCH  15  16
ENDBRANCH  14  15
ENDBRANCH  13  14
ENDBRANCH   2  13
TORSDOF 15
ENDMDL
MODEL 3
REMARK VINA RESULT:    -3.288      1.896      4.726
REMARK INTER + INTRA:          -8.159
REMARK INTER:                  -5.536
REMARK INTRA:                  -2.623
REMARK UNBOUND:                -1.987
REMARK SMILES CCCCCCCCC=CCCCCCCCC(=O)[O-]
REMARK SMILES IDX 10 1 9 2 11 3 12 4 13 5 14 6 15 7 16 8 17 9 18 10 19 11
REMARK SMILES IDX 20 12 8 13 7 14 6 15 5 16 4 17 3 18 2 19 1 20
REMARK H PARENT
REMARK Flexibility Score: inf
ROOT
ATOM      1  C   UNL     1      28.531   0.665  19.188  1.00  0.00    -0.031 C 
ATOM      2  C   UNL     1      28.811   1.062  17.934  1.00  0.00    -0.031 C 
ENDROOT
BRANCH   1   3
ATOM      3  C   UNL     1      27.222   0.898  19.899  1.00  0.00     0.027 C 
BRANCH   3   4
ATOM      4  C   UNL     1      26.534  -0.430  20.247  1.00  0.00     0.004 C 
BRANCH   4   5
ATOM      5  C   UNL     1      26.210  -1.269  19.001  1.00  0.00     0.000 C 
BRANCH   5   6
ATOM      6  C   UNL     1      24.831  -1.939  19.090  1.00  0.00     0.000 C 
BRANCH   6   7
ATOM      7  C   UNL     1      24.097  -1.522  20.371  1.00  0.00     0.000 C 
BRANCH   7   8
ATOM      8  C   UNL     1      22.839  -2.376  20.582  1.00  0.00     0.006 C 
BRANCH   8   9
ATOM      9  C   UNL     1      21.617  -1.532  20.962  1.00  0.00     0.053 C 
BRANCH   9  10
ATOM     10  C   UNL     1      20.340  -2.298  20.816  1.00  0.00     0.041 C 
ATOM     11  O   UNL     1      19.989  -3.117  21.702  1.00  0.00    -0.550 OA
ATOM     12  O   UNL     1      19.547  -2.126  19.690  1.00  0.00    -0.550 OA
ENDBRANCH   9  10
ENDBRANCH   8   9
ENDBRANCH   7   8
ENDBRANCH   6   7
ENDBRANCH   5   6
ENDBRANCH   4   5
ENDBRANCH   3   4
ENDBRANCH   1   3
BRANCH   2  13
ATOM     13  C   UNL     1      27.848   1.782  17.020  1.00  0.00     0.027 C 
BRANCH  13  14
ATOM     14  C   UNL     1      27.138   0.815  16.057  1.00  0.00     0.004 C 
BRANCH  14  15
ATOM     15  C   UNL     1      25.604   0.960  16.054  1.00  0.00     0.000 C 
BRANCH  15  16
ATOM     16  C   UNL     1      25.033   1.937  17.100  1.00  0.00     0.000 C 
BRANCH  16  17
ATOM     17  C   UNL     1      23.811   1.418  17.883  1.00  0.00    -0.000 C 
BRANCH  17  18
ATOM     18  C   UNL     1      22.629   0.941  17.017  1.00  0.00    -0.000 C 
BRANCH  18  19
ATOM     19  C   UNL     1      21.994  -0.388  17.463  1.00  0.00    -0.003 C 
ATOM     20  C   UNL     1      20.713  -0.723  16.701  1.00  0.00     0.004 C 
ENDBRANCH  18  19
ENDBRANCH  17  18
ENDBRANCH  16  17
ENDBRANCH  15  16
ENDBRANCH  14  15
ENDBRANCH  13  14
ENDBRANCH   2  13
TORSDOF 15
ENDMDL
MODEL 4
REMARK VINA RESULT:    -3.242      2.114      4.705
REMARK INTER + INTRA:          -8.072
REMARK INTER:                  -5.420
REMARK INTRA:                  -2.652
REMARK UNBOUND:                -1.987
REMARK SMILES CCCCCCCCC=CCCCCCCCC(=O)[O-]
REMARK SMILES IDX 10 1 9 2 11 3 12 4 13 5 14 6 15 7 16 8 17 9 18 10 19 11
REMARK SMILES IDX 20 12 8 13 7 14 6 15 5 16 4 17 3 18 2 19 1 20
REMARK H PARENT
REMARK Flexibility Score: inf
ROOT
ATOM      1  C   UNL     1      27.031  -0.163  18.637  1.00  0.00    -0.031 C 
ATOM      2  C   UNL     1      27.467   0.658  17.664  1.00  0.00    -0.031 C 
ENDROOT
BRANCH   1   3
ATOM      3  C   UNL     1      25.980  -1.231  18.463  1.00  0.00     0.027 C 
BRANCH   3   4
ATOM      4  C   UNL     1      25.333  -1.598  19.806  1.00  0.00     0.004 C 
BRANCH   4   5
ATOM      5  C   UNL     1      25.723  -0.627  20.932  1.00  0.00     0.000 C 
BRANCH   5   6
ATOM      6  C   UNL     1      24.857  -0.809  22.187  1.00  0.00     0.000 C 
BRANCH   6   7
ATOM      7  C   UNL     1      23.382  -0.512  21.887  1.00  0.00     0.000 C 
BRANCH   7   8
ATOM      8  C   UNL     1      22.489  -1.680  22.327  1.00  0.00     0.006 C 
BRANCH   8   9
ATOM      9  C   UNL     1      21.948  -2.482  21.137  1.00  0.00     0.053 C 
BRANCH   9  10
ATOM     10  C   UNL     1      20.452  -2.532  21.131  1.00  0.00     0.041 C 
ATOM     11  O   UNL     1      19.796  -1.747  20.402  1.00  0.00    -0.550 OA
ATOM     12  O   UNL     1      19.780  -3.431  21.947  1.00  0.00    -0.550 OA
ENDBRANCH   9  10
ENDBRANCH   8   9
ENDBRANCH   7   8
ENDBRANCH   6   7
ENDBRANCH   5   6
ENDBRANCH   4   5
ENDBRANCH   3   4
ENDBRANCH   1   3
BRANCH   2  13
ATOM     13  C   UNL     1      26.997   0.625  16.230  1.00  0.00     0.027 C 
BRANCH  13  14
ATOM     14  C   UNL     1      26.038   1.784  15.912  1.00  0.00     0.004 C 
BRANCH  14  15
ATOM     15  C   UNL     1      24.576   1.340  15.708  1.00  0.00     0.000 C 
BRANCH  15  16
ATOM     16  C   UNL     1      23.551   2.002  16.648  1.00  0.00     0.000 C 
BRANCH  16  17
ATOM     17  C   UNL     1      23.653   1.582  18.128  1.00  0.00    -0.000 C 
BRANCH  17  18
ATOM     18  C   UNL     1      22.509   0.685  18.639  1.00  0.00    -0.000 C 
BRANCH  18  19
ATOM     19  C   UNL     1      22.346  -0.648  17.887  1.00  0.00    -0.003 C 
ATOM     20  C   UNL     1      20.953  -0.831  17.290  1.00  0.00     0.004 C 
ENDBRANCH  18  19
ENDBRANCH  17  18
ENDBRANCH  16  17
ENDBRANCH  15  16
ENDBRANCH  14  15
ENDBRANCH  13  14
ENDBRANCH   2  13
TORSDOF 15
ENDMDL
MODEL 5
REMARK VINA RESULT:    -3.234      2.989      3.849
REMARK INTER + INTRA:          -8.057
REMARK INTER:                  -6.156
REMARK INTRA:                  -1.901
REMARK UNBOUND:                -1.987
REMARK SMILES CCCCCCCCC=CCCCCCCCC(=O)[O-]
REMARK SMILES IDX 10 1 9 2 11 3 12 4 13 5 14 6 15 7 16 8 17 9 18 10 19 11
REMARK SMILES IDX 20 12 8 13 7 14 6 15 5 16 4 17 3 18 2 19 1 20
REMARK H PARENT
REMARK Flexibility Score: inf
ROOT
ATOM      1  C   UNL     1      26.515  -1.027  19.853  1.00  0.00    -0.031 C 
ATOM      2  C   UNL     1      26.013  -1.086  18.607  1.00  0.00    -0.031 C 
ENDROOT
BRANCH   1   3
ATOM      3  C   UNL     1      26.024  -0.107  20.943  1.00  0.00     0.027 C 
BRANCH   3   4
ATOM      4  C   UNL     1      25.217  -0.877  21.999  1.00  0.00     0.004 C 
BRANCH   4   5
ATOM      5  C   UNL     1      23.702  -0.815  21.742  1.00  0.00     0.000 C 
BRANCH   5   6
ATOM      6  C   UNL     1      23.202  -2.002  20.906  1.00  0.00     0.000 C 
BRANCH   6   7
ATOM      7  C   UNL     1      21.858  -2.521  21.435  1.00  0.00     0.000 C 
BRANCH   7   8
ATOM      8  C   UNL     1      21.535  -1.905  22.803  1.00  0.00     0.006 C 
BRANCH   8   9
ATOM      9  C   UNL     1      21.491  -2.955  23.920  1.00  0.00     0.053 C 
BRANCH   9  10
ATOM     10  C   UNL     1      20.498  -4.036  23.632  1.00  0.00     0.041 C 
ATOM     11  O   UNL     1      20.871  -5.234  23.555  1.00  0.00    -0.550 OA
ATOM     12  O   UNL     1      19.162  -3.721  23.426  1.00  0.00    -0.550 OA
ENDBRANCH   9  10
ENDBRANCH   8   9
ENDBRANCH   7   8
ENDBRANCH   6   7
ENDBRANCH   5   6
ENDBRANCH   4   5
ENDBRANCH   3   4
ENDBRANCH   1   3
BRANCH   2  13
ATOM     13  C   UNL     1      24.853  -0.260  18.102  1.00  0.00     0.027 C 
BRANCH  13  14
ATOM     14  C   UNL     1      25.311   0.835  17.124  1.00  0.00     0.004 C 
BRANCH  14  15
ATOM     15  C   UNL     1      26.590   0.474  16.345  1.00  0.00     0.000 C 
BRANCH  15  16
ATOM     16  C   UNL     1      27.541   1.652  16.060  1.00  0.00     0.000 C 
BRANCH  16  17
ATOM     17  C   UNL     1      28.903   1.583  16.779  1.00  0.00    -0.000 C 
BRANCH  17  18
ATOM     18  C   UNL     1      28.833   1.523  18.317  1.00  0.00    -0.000 C 
BRANCH  18  19
ATOM     19  C   UNL     1      30.110   1.007  19.004  1.00  0.00    -0.003 C 
ATOM     20  C   UNL     1      30.079  -0.497  19.268  1.00  0.00     0.004 C 
ENDBRANCH  18  19
ENDBRANCH  17  18
ENDBRANCH  16  17
ENDBRANCH  15  16
ENDBRANCH  14  15
ENDBRANCH  13  14
ENDBRANCH   2  13
TORSDOF 15
ENDMDL
MODEL 6
REMARK VINA RESULT:    -3.212      2.589      4.126
REMARK INTER + INTRA:          -8.016
REMARK INTER:                  -5.522
REMARK INTRA:                  -2.495
REMARK UNBOUND:                -1.987
REMARK SMILES CCCCCCCCC=CCCCCCCCC(=O)[O-]
REMARK SMILES IDX 10 1 9 2 11 3 12 4 13 5 14 6 15 7 16 8 17 9 18 10 19 11
REMARK SMILES IDX 20 12 8 13 7 14 6 15 5 16 4 17 3 18 2 19 1 20
REMARK H PARENT
REMARK Flexibility Score: inf
ROOT
ATOM      1  C   UNL     1      25.482   0.927  16.672  1.00  0.00    -0.031 C 
ATOM      2  C   UNL     1      26.651   0.936  16.006  1.00  0.00    -0.031 C 
ENDROOT
BRANCH   1   3
ATOM      3  C   UNL     1      24.916   2.091  17.446  1.00  0.00     0.027 C 
BRANCH   3   4
ATOM      4  C   UNL     1      23.647   1.685  18.210  1.00  0.00     0.004 C 
BRANCH   4   5
ATOM      5  C   UNL     1      23.214   0.242  17.908  1.00  0.00     0.000 C 
BRANCH   5   6
ATOM      6  C   UNL     1      21.698   0.044  18.054  1.00  0.00     0.000 C 
BRANCH   6   7
ATOM      7  C   UNL     1      21.382  -1.106  19.019  1.00  0.00     0.000 C 
BRANCH   7   8
ATOM      8  C   UNL     1      22.623  -1.487  19.839  1.00  0.00     0.006 C 
BRANCH   8   9
ATOM      9  C   UNL     1      22.306  -2.511  20.935  1.00  0.00     0.053 C 
BRANCH   9  10
ATOM     10  C   UNL     1      22.631  -1.989  22.299  1.00  0.00     0.041 C 
ATOM     11  O   UNL     1      21.928  -2.318  23.287  1.00  0.00    -0.550 OA
ATOM     12  O   UNL     1      23.699  -1.121  22.478  1.00  0.00    -0.550 OA
ENDBRANCH   9  10
ENDBRANCH   8   9
ENDBRANCH   7   8
ENDBRANCH   6   7
ENDBRANCH   5   6
ENDBRANCH   4   5
ENDBRANCH   3   4
ENDBRANCH   1   3
BRANCH   2  13
ATOM     13  C   UNL     1      27.576   2.125  15.901  1.00  0.00     0.027 C 
BRANCH  13  14
ATOM     14  C   UNL     1      28.994   1.796  16.398  1.00  0.00     0.004 C 
BRANCH  14  15
ATOM     15  C   UNL     1      29.175   1.978  17.918  1.00  0.00     0.000 C 
BRANCH  15  16
ATOM     16  C   UNL     1      29.726   0.750  18.666  1.00  0.00     0.000 C 
BRANCH  16  17
ATOM     17  C   UNL     1      28.666  -0.113  19.379  1.00  0.00    -0.000 C 
BRANCH  17  18
ATOM     18  C   UNL     1      27.422   0.650  19.876  1.00  0.00    -0.000 C 
BRANCH  18  19
ATOM     19  C   UNL     1      26.194  -0.231  20.165  1.00  0.00    -0.003 C 
ATOM     20  C   UNL     1      26.186  -1.527  19.357  1.00  0.00     0.004 C 
ENDBRANCH  18  19
ENDBRANCH  17  18
ENDBRANCH  16  17
ENDBRANCH  15  16
ENDBRANCH  14  15
ENDBRANCH  13  14
ENDBRANCH   2  13
TORSDOF 15
ENDMDL
MODEL 7
REMARK VINA RESULT:    -3.210      1.247      2.763
REMARK INTER + INTRA:          -8.011
REMARK INTER:                  -5.204
REMARK INTRA:                  -2.807
REMARK UNBOUND:                -1.987
REMARK SMILES CCCCCCCCC=CCCCCCCCC(=O)[O-]
REMARK SMILES IDX 10 1 9 2 11 3 12 4 13 5 14 6 15 7 16 8 17 9 18 10 19 11
REMARK SMILES IDX 20 12 8 13 7 14 6 15 5 16 4 17 3 18 2 19 1 20
REMARK H PARENT
REMARK Flexibility Score: inf
ROOT
ATOM      1  C   UNL     1      26.035  -1.275  20.046  1.00  0.00    -0.031 C 
ATOM      2  C   UNL     1      27.105  -0.792  19.389  1.00  0.00    -0.031 C 
ENDROOT
BRANCH   1   3
ATOM      3  C   UNL     1      25.426  -0.660  21.281  1.00  0.00     0.027 C 
BRANCH   3   4
ATOM      4  C   UNL     1      23.897  -0.803  21.276  1.00  0.00     0.004 C 
BRANCH   4   5
ATOM      5  C   UNL     1      23.421  -2.010  20.454  1.00  0.00     0.000 C 
BRANCH   5   6
ATOM      6  C   UNL     1      22.475  -1.605  19.313  1.00  0.00     0.000 C 
BRANCH   6   7
ATOM      7  C   UNL     1      21.652  -0.368  19.693  1.00  0.00     0.000 C 
BRANCH   7   8
ATOM      8  C   UNL     1      20.847   0.143  18.490  1.00  0.00     0.006 C 
BRANCH   8   9
ATOM      9  C   UNL     1      21.283  -0.513  17.175  1.00  0.00     0.053 C 
BRANCH   9  10
ATOM     10  C   UNL     1      20.140  -1.178  16.476  1.00  0.00     0.041 C 
ATOM     11  O   UNL     1      19.990  -1.039  15.236  1.00  0.00    -0.550 OA
ATOM     12  O   UNL     1      19.226  -1.934  17.195  1.00  0.00    -0.550 OA
ENDBRANCH   9  10
ENDBRANCH   8   9
ENDBRANCH   7   8
ENDBRANCH   6   7
ENDBRANCH   5   6
ENDBRANCH   4   5
ENDBRANCH   3   4
ENDBRANCH   1   3
BRANCH   2  13
ATOM     13  C   UNL     1      27.853   0.465  19.763  1.00  0.00     0.027 C 
BRANCH  13  14
ATOM     14  C   UNL     1      28.783   0.939  18.632  1.00  0.00     0.004 C 
BRANCH  14  15
ATOM     15  C   UNL     1      28.090   1.854  17.603  1.00  0.00     0.000 C 
BRANCH  15  16
ATOM     16  C   UNL     1      27.785   1.200  16.242  1.00  0.00     0.000 C 
BRANCH  16  17
ATOM     17  C   UNL     1      26.327   0.736  16.050  1.00  0.00    -0.000 C 
BRANCH  17  18
ATOM     18  C   UNL     1      25.253   1.706  16.581  1.00  0.00    -0.000 C 
BRANCH  18  19
ATOM     19  C   UNL     1      24.440   1.180  17.777  1.00  0.00    -0.003 C 
ATOM     20  C   UNL     1      24.465   2.124  18.977  1.00  0.00     0.004 C 
ENDBRANCH  18  19
ENDBRANCH  17  18
ENDBRANCH  16  17
ENDBRANCH  15  16
ENDBRANCH  14  15
ENDBRANCH  13  14
ENDBRANCH   2  13
TORSDOF 15
ENDMDL
MODEL 8
REMARK VINA RESULT:    -3.177      1.573      4.913
REMARK INTER + INTRA:          -7.950
REMARK INTER:                  -4.898
REMARK INTRA:                  -3.052
REMARK UNBOUND:                -1.987
REMARK SMILES CCCCCCCCC=CCCCCCCCC(=O)[O-]
REMARK SMILES IDX 10 1 9 2 11 3 12 4 13 5 14 6 15 7 16 8 17 9 18 10 19 11
REMARK SMILES IDX 20 12 8 13 7 14 6 15 5 16 4 17 3 18 2 19 1 20
REMARK H PARENT
REMARK Flexibility Score: inf
ROOT
ATOM      1  C   UNL     1      28.733   0.684  18.180  1.00  0.00    -0.031 C 
ATOM      2  C   UNL     1      28.416   0.071  19.335  1.00  0.00    -0.031 C 
ENDROOT
BRANCH   1   3
ATOM      3  C   UNL     1      27.798   1.550  17.373  1.00  0.00     0.027 C 
BRANCH   3   4
ATOM      4  C   UNL     1      27.024   0.719  16.339  1.00  0.00     0.004 C 
BRANCH   4   5
ATOM      5  C   UNL     1      25.549   1.139  16.231  1.00  0.00     0.000 C 
BRANCH   5   6
ATOM      6  C   UNL     1      25.063   1.893  17.478  1.00  0.00     0.000 C 
BRANCH   6   7
ATOM      7  C   UNL     1      23.532   1.977  17.508  1.00  0.00     0.000 C 
BRANCH   7   8
ATOM      8  C   UNL     1      22.910   0.990  16.511  1.00  0.00     0.006 C 
BRANCH   8   9
ATOM      9  C   UNL     1      21.378   1.064  16.494  1.00  0.00     0.053 C 
BRANCH   9  10
ATOM     10  C   UNL     1      20.754  -0.295  16.438  1.00  0.00     0.041 C 
ATOM     11  O   UNL     1      21.107  -1.187  17.248  1.00  0.00    -0.550 OA
ATOM     12  O   UNL     1      19.797  -0.584  15.475  1.00  0.00    -0.550 OA
ENDBRANCH   9  10
ENDBRANCH   8   9
ENDBRANCH   7   8
ENDBRANCH   6   7
ENDBRANCH   5   6
ENDBRANCH   4   5
ENDBRANCH   3   4
ENDBRANCH   1   3
BRANCH   2  13
ATOM     13  C   UNL     1      27.079   0.173  20.029  1.00  0.00     0.027 C 
BRANCH  13  14
ATOM     14  C   UNL     1      26.369  -1.189  20.111  1.00  0.00     0.004 C 
BRANCH  14  15
ATOM     15  C   UNL     1      25.673  -1.605  18.801  1.00  0.00     0.000 C 
BRANCH  15  16
ATOM     16  C   UNL     1      24.133  -1.595  18.841  1.00  0.00     0.000 C 
BRANCH  16  17
ATOM     17  C   UNL     1      23.517  -1.394  20.240  1.00  0.00    -0.000 C 
BRANCH  17  18
ATOM     18  C   UNL     1      22.599  -0.165  20.385  1.00  0.00    -0.000 C 
BRANCH  18  19
ATOM     19  C   UNL     1      23.250   1.055  21.058  1.00  0.00    -0.003 C 
ATOM     20  C   UNL     1      24.039   0.693  22.315  1.00  0.00     0.004 C 
ENDBRANCH  18  19
ENDBRANCH  17  18
ENDBRANCH  16  17
ENDBRANCH  15  16
ENDBRANCH  14  15
ENDBRANCH  13  14
ENDBRANCH   2  13
TORSDOF 15
ENDMDL
MODEL 9
REMARK VINA RESULT:    -3.128      3.367      6.558
REMARK INTER + INTRA:          -7.858
REMARK INTER:                  -4.632
REMARK INTRA:                  -3.226
REMARK UNBOUND:                -1.987
REMARK SMILES CCCCCCCCC=CCCCCCCCC(=O)[O-]
REMARK SMILES IDX 10 1 9 2 11 3 12 4 13 5 14 6 15 7 16 8 17 9 18 10 19 11
REMARK SMILES IDX 20 12 8 13 7 14 6 15 5 16 4 17 3 18 2 19 1 20
REMARK H PARENT
REMARK Flexibility Score: inf
ROOT
ATOM      1  C   UNL     1      25.670  -0.853  18.350  1.00  0.00    -0.031 C 
ATOM      2  C   UNL     1      25.298   0.269  17.708  1.00  0.00    -0.031 C 
ENDROOT
BRANCH   1   3
ATOM      3  C   UNL     1      24.723  -1.853  18.965  1.00  0.00     0.027 C 
BRANCH   3   4
ATOM      4  C   UNL     1      24.518  -1.577  20.462  1.00  0.00     0.004 C 
BRANCH   4   5
ATOM      5  C   UNL     1      25.678  -0.778  21.078  1.00  0.00     0.000 C 
BRANCH   5   6
ATOM      6  C   UNL     1      25.212   0.549  21.695  1.00  0.00     0.000 C 
BRANCH   6   7
ATOM      7  C   UNL     1      25.998   1.732  21.116  1.00  0.00     0.000 C 
BRANCH   7   8
ATOM      8  C   UNL     1      27.474   1.363  20.918  1.00  0.00     0.006 C 
BRANCH   8   9
ATOM      9  C   UNL     1      28.046   1.925  19.610  1.00  0.00     0.053 C 
BRANCH   9  10
ATOM     10  C   UNL     1      28.880   0.916  18.886  1.00  0.00     0.041 C 
ATOM     11  O   UNL     1      29.496   1.238  17.840  1.00  0.00    -0.550 OA
ATOM     12  O   UNL     1      28.962  -0.388  19.355  1.00  0.00    -0.550 OA
ENDBRANCH   9  10
ENDBRANCH   8   9
ENDBRANCH   7   8
ENDBRANCH   6   7
ENDBRANCH   5   6
ENDBRANCH   4   5
ENDBRANCH   3   4
ENDBRANCH   1   3
BRANCH   2  13
ATOM     13  C   UNL     1      23.870   0.697  17.471  1.00  0.00     0.027 C 
BRANCH  13  14
ATOM     14  C   UNL     1      23.410   1.753  18.491  1.00  0.00     0.004 C 
BRANCH  14  15
ATOM     15  C   UNL     1      22.112   1.375  19.232  1.00  0.00     0.000 C 
BRANCH  15  16
ATOM     16  C   UNL     1      21.509   0.011  18.846  1.00  0.00     0.000 C 
BRANCH  16  17
ATOM     17  C   UNL     1      20.979  -0.828  20.026  1.00  0.00    -0.000 C 
BRANCH  17  18
ATOM     18  C   UNL     1      21.255  -0.244  21.425  1.00  0.00    -0.000 C 
BRANCH  18  19
ATOM     19  C   UNL     1      21.340  -1.283  22.556  1.00  0.00    -0.003 C 
ATOM     20  C   UNL     1      21.434  -2.718  22.042  1.00  0.00     0.004 C 
ENDBRANCH  18  19
ENDBRANCH  17  18
ENDBRANCH  16  17
ENDBRANCH  15  16
ENDBRANCH  14  15
ENDBRANCH  13  14
ENDBRANCH   2  13
TORSDOF 15
ENDMDL
