MODEL 1
REMARK VINA RESULT:    -7.038      0.000      0.000
REMARK INTER + INTRA:         -13.831
REMARK INTER:                 -11.564
REMARK INTRA:                  -2.267
REMARK UNBOUND:                -2.267
REMARK SMILES C[C@@H]1O[C@H](OC[C@@H]2O[C@H](Oc3c(-c4ccc(O)c(O)c4)oc4cc(O)cc(O)c4c3=O)[C@@H](O)[C@@H](O)[C@@H]2O)[C@H](O)[C@H](O)[C@H]1O
REMARK SMILES IDX 7 1 36 2 34 3 32 4 9 5 8 6 6 7 5 8 4 9 1 10 2 11 42 12 3 13
REMARK SMILES IDX 40 14 38 15 43 16 41 18 39 20 37 22 35 24 10 26 11 27 12 28
REMARK SMILES IDX 30 29 21 30 29 31 31 32 22 33 27 34 23 35 26 36 24 37 13 38
REMARK SMILES IDX 20 39 14 40 18 41 15 42 16 43 19 44 17 46 28 48 25 50 33 52
REMARK H PARENT 43 17 41 19 39 21 37 23 35 25 19 45 17 47 28 49 25 51 33 53
REMARK Flexibility Score: inf
ROOT
ATOM      1  C   UNL     1      -0.475 -40.931 -30.605  1.00  0.00     0.180 C 
ATOM      2  C   UNL     1       0.634 -41.459 -29.658  1.00  0.00     0.177 C 
ATOM      3  C   UNL     1       1.567 -42.425 -30.395  1.00  0.00     0.180 C 
ATOM      4  C   UNL     1       2.093 -41.767 -31.681  1.00  0.00     0.214 C 
ATOM      5  C   UNL     1       0.935 -41.188 -32.525  1.00  0.00     0.339 C 
ATOM      6  O   UNL     1       0.061 -40.341 -31.785  1.00  0.00    -0.332 OA
ENDROOT
BRANCH   1   7
ATOM      7  C   UNL     1      -1.593 -41.952 -30.922  1.00  0.00     0.198 C 
BRANCH   7   8
ATOM      8  O   UNL     1      -2.401 -42.157 -29.773  1.00  0.00    -0.347 OA
BRANCH   8   9
ATOM      9  C   UNL     1      -3.156 -40.998 -29.466  1.00  0.00     0.281 C 
ATOM     10  C   UNL     1      -4.160 -38.275 -31.690  1.00  0.00     0.041 C 
ATOM     11  C   UNL     1      -4.253 -39.196 -30.471  1.00  0.00     0.150 C 
ATOM     12  C   UNL     1      -5.704 -39.728 -30.278  1.00  0.00     0.174 C 
ATOM     13  O   UNL     1      -3.363 -40.273 -30.671  1.00  0.00    -0.344 OA
ATOM     14  C   UNL     1      -5.706 -41.169 -29.700  1.00  0.00     0.179 C 
ATOM     15  C   UNL     1      -4.492 -41.404 -28.776  1.00  0.00     0.202 C 
BRANCH  12  16
ATOM     16  O   UNL     1      -6.402 -38.877 -29.402  1.00  0.00    -0.388 OA
ATOM     17  H   UNL     1      -5.729 -38.280 -28.988  1.00  0.00     0.211 HD
ENDBRANCH  12  16
BRANCH  14  18
ATOM     18  O   UNL     1      -5.752 -42.140 -30.719  1.00  0.00    -0.387 OA
ATOM     19  H   UNL     1      -4.823 -42.320 -31.026  1.00  0.00     0.211 HD
ENDBRANCH  14  18
BRANCH  15  20
ATOM     20  O   UNL     1      -4.449 -42.743 -28.350  1.00  0.00    -0.385 OA
ATOM     21  H   UNL     1      -3.493 -43.006 -28.327  1.00  0.00     0.211 HD
ENDBRANCH  15  20
ENDBRANCH   8   9
ENDBRANCH   7   8
ENDBRANCH   1   7
BRANCH   2  22
ATOM     22  O   UNL     1       0.078 -42.097 -28.537  1.00  0.00    -0.387 OA
ATOM     23  H   UNL     1       0.836 -42.449 -28.001  1.00  0.00     0.211 HD
ENDBRANCH   2  22
BRANCH   3  24
ATOM     24  O   UNL     1       2.652 -42.767 -29.569  1.00  0.00    -0.387 OA
ATOM     25  H   UNL     1       3.251 -43.347 -30.112  1.00  0.00     0.211 HD
ENDBRANCH   3  24
BRANCH   5  26
ATOM     26  O   UNL     1       0.206 -42.240 -33.162  1.00  0.00    -0.454 OA
BRANCH  26  27
ATOM     27  C   UNL     1       0.327 -42.530 -34.527  1.00  0.00     0.214 A 
ATOM     28  C   UNL     1      -0.760 -42.365 -35.407  1.00  0.00     0.180 A 
ATOM     29  C   UNL     1       1.543 -43.002 -35.033  1.00  0.00     0.239 A 
ATOM     30  O   UNL     1      -0.603 -42.606 -36.703  1.00  0.00    -0.452 OA
ATOM     31  C   UNL     1       1.692 -43.213 -36.428  1.00  0.00     0.111 A 
ATOM     32  O   UNL     1       2.476 -43.239 -34.217  1.00  0.00    -0.285 OA
ATOM     33  C   UNL     1       0.541 -43.019 -37.235  1.00  0.00     0.146 A 
ATOM     34  C   UNL     1       2.901 -43.634 -37.060  1.00  0.00     0.134 A 
ATOM     35  C   UNL     1       0.583 -43.271 -38.608  1.00  0.00     0.094 A 
ATOM     36  C   UNL     1       2.903 -43.911 -38.433  1.00  0.00     0.093 A 
ATOM     37  C   UNL     1       1.754 -43.726 -39.206  1.00  0.00     0.123 A 
BRANCH  28  38
ATOM     38  C   UNL     1      -2.096 -41.959 -34.931  1.00  0.00     0.025 A 
ATOM     39  C   UNL     1      -2.905 -42.882 -34.254  1.00  0.00     0.062 A 
ATOM     40  C   UNL     1      -2.558 -40.647 -35.118  1.00  0.00     0.016 A 
ATOM     41  C   UNL     1      -4.183 -42.514 -33.806  1.00  0.00     0.158 A 
ATOM     42  C   UNL     1      -3.828 -40.278 -34.670  1.00  0.00     0.051 A 
ATOM     43  C   UNL     1      -4.646 -41.204 -34.016  1.00  0.00     0.157 A 
BRANCH  41  44
ATOM     44  O   UNL     1      -4.990 -43.444 -33.153  1.00  0.00    -0.504 OA
ATOM     45  H   UNL     1      -4.652 -44.372 -32.925  1.00  0.00     0.293 HD
ENDBRANCH  41  44
BRANCH  43  46
ATOM     46  O   UNL     1      -5.913 -40.807 -33.590  1.00  0.00    -0.504 OA
ATOM     47  H   UNL     1      -6.042 -40.180 -32.805  1.00  0.00     0.293 HD
ENDBRANCH  43  46
ENDBRANCH  28  38
BRANCH  34  48
ATOM     48  O   UNL     1       4.124 -43.759 -36.394  1.00  0.00    -0.507 OA
ATOM     49  H   UNL     1       4.402 -43.225 -35.586  1.00  0.00     0.293 HD
ENDBRANCH  34  48
BRANCH  37  50
ATOM     50  O   UNL     1       1.766 -43.983 -40.574  1.00  0.00    -0.508 OA
ATOM     51  H   UNL     1       1.005 -43.683 -41.174  1.00  0.00     0.293 HD
ENDBRANCH  37  50
ENDBRANCH  26  27
ENDBRANCH   5  26
BRANCH   4  52
ATOM     52  O   UNL     1       3.068 -40.788 -31.397  1.00  0.00    -0.384 OA
ATOM     53  H   UNL     1       3.783 -41.212 -30.860  1.00  0.00     0.211 HD
ENDBRANCH   4  52
TORSDOF 16
ENDMDL
MODEL 2
REMARK VINA RESULT:    -6.778      2.514      5.007
REMARK INTER + INTRA:         -13.404
REMARK INTER:                 -10.680
REMARK INTRA:                  -2.724
REMARK UNBOUND:                -2.267
REMARK SMILES C[C@@H]1O[C@H](OC[C@@H]2O[C@H](Oc3c(-c4ccc(O)c(O)c4)oc4cc(O)cc(O)c4c3=O)[C@@H](O)[C@@H](O)[C@@H]2O)[C@H](O)[C@H](O)[C@H]1O
REMARK SMILES IDX 7 1 36 2 34 3 32 4 9 5 8 6 6 7 5 8 4 9 1 10 2 11 42 12 3 13
REMARK SMILES IDX 40 14 38 15 43 16 41 18 39 20 37 22 35 24 10 26 11 27 12 28
REMARK SMILES IDX 30 29 21 30 29 31 31 32 22 33 27 34 23 35 26 36 24 37 13 38
REMARK SMILES IDX 20 39 14 40 18 41 15 42 16 43 19 44 17 46 28 48 25 50 33 52
REMARK H PARENT 43 17 41 19 39 21 37 23 35 25 19 45 17 47 28 49 25 51 33 53
REMARK Flexibility Score: inf
ROOT
ATOM      1  C   UNL     1       0.251 -38.503 -33.284  1.00  0.00     0.180 C 
ATOM      2  C   UNL     1       1.120 -37.322 -33.790  1.00  0.00     0.177 C 
ATOM      3  C   UNL     1       1.855 -37.697 -35.080  1.00  0.00     0.180 C 
ATOM      4  C   UNL     1       0.853 -38.234 -36.115  1.00  0.00     0.214 C 
ATOM      5  C   UNL     1      -0.035 -39.346 -35.509  1.00  0.00     0.339 C 
ATOM      6  O   UNL     1      -0.651 -38.972 -34.281  1.00  0.00    -0.332 OA
ENDROOT
BRANCH   1   7
ATOM      7  C   UNL     1       1.048 -39.657 -32.632  1.00  0.00     0.198 C 
BRANCH   7   8
ATOM      8  O   UNL     1       0.223 -40.356 -31.712  1.00  0.00    -0.347 OA
BRANCH   8   9
ATOM      9  C   UNL     1       0.556 -41.733 -31.671  1.00  0.00     0.281 C 
ATOM     10  C   UNL     1       2.721 -43.622 -33.933  1.00  0.00     0.041 C 
ATOM     11  C   UNL     1       2.003 -43.305 -32.619  1.00  0.00     0.150 C 
ATOM     12  C   UNL     1       2.971 -43.426 -31.405  1.00  0.00     0.174 C 
ATOM     13  O   UNL     1       1.495 -41.991 -32.707  1.00  0.00    -0.344 OA
ATOM     14  C   UNL     1       2.621 -42.394 -30.298  1.00  0.00     0.179 C 
ATOM     15  C   UNL     1       1.107 -42.103 -30.262  1.00  0.00     0.202 C 
BRANCH  12  16
ATOM     16  O   UNL     1       2.891 -44.723 -30.870  1.00  0.00    -0.388 OA
ATOM     17  H   UNL     1       1.957 -44.848 -30.564  1.00  0.00     0.211 HD
ENDBRANCH  12  16
BRANCH  14  18
ATOM     18  O   UNL     1       3.355 -41.201 -30.446  1.00  0.00    -0.387 OA
ATOM     19  H   UNL     1       3.424 -40.991 -31.416  1.00  0.00     0.211 HD
ENDBRANCH  14  18
BRANCH  15  20
ATOM     20  O   UNL     1       0.822 -41.088 -29.331  1.00  0.00    -0.385 OA
ATOM     21  H   UNL     1       1.691 -40.779 -28.968  1.00  0.00     0.211 HD
ENDBRANCH  15  20
ENDBRANCH   8   9
ENDBRANCH   7   8
ENDBRANCH   1   7
BRANCH   2  22
ATOM     22  O   UNL     1       2.048 -36.925 -32.813  1.00  0.00    -0.387 OA
ATOM     23  H   UNL     1       1.753 -36.038 -32.480  1.00  0.00     0.211 HD
ENDBRANCH   2  22
BRANCH   3  24
ATOM     24  O   UNL     1       2.507 -36.569 -35.606  1.00  0.00    -0.387 OA
ATOM     25  H   UNL     1       3.281 -36.383 -35.009  1.00  0.00     0.211 HD
ENDBRANCH   3  24
BRANCH   5  26
ATOM     26  O   UNL     1       0.713 -40.555 -35.356  1.00  0.00    -0.454 OA
BRANCH  26  27
ATOM     27  C   UNL     1       0.695 -41.585 -36.305  1.00  0.00     0.214 A 
ATOM     28  C   UNL     1      -0.338 -42.540 -36.325  1.00  0.00     0.180 A 
ATOM     29  C   UNL     1       1.724 -41.679 -37.249  1.00  0.00     0.239 A 
ATOM     30  O   UNL     1      -0.352 -43.478 -37.265  1.00  0.00    -0.452 OA
ATOM     31  C   UNL     1       1.661 -42.667 -38.264  1.00  0.00     0.111 A 
ATOM     32  O   UNL     1       2.693 -40.875 -37.156  1.00  0.00    -0.285 OA
ATOM     33  C   UNL     1       0.581 -43.585 -38.202  1.00  0.00     0.146 A 
ATOM     34  C   UNL     1       2.620 -42.817 -39.311  1.00  0.00     0.134 A 
ATOM     35  C   UNL     1       0.482 -44.631 -39.123  1.00  0.00     0.094 A 
ATOM     36  C   UNL     1       2.513 -43.896 -40.198  1.00  0.00     0.093 A 
ATOM     37  C   UNL     1       1.448 -44.796 -40.110  1.00  0.00     0.123 A 
BRANCH  28  38
ATOM     38  C   UNL     1      -1.405 -42.559 -35.307  1.00  0.00     0.025 A 
ATOM     39  C   UNL     1      -1.325 -43.450 -34.228  1.00  0.00     0.062 A 
ATOM     40  C   UNL     1      -2.490 -41.671 -35.385  1.00  0.00     0.016 A 
ATOM     41  C   UNL     1      -2.338 -43.488 -33.258  1.00  0.00     0.158 A 
ATOM     42  C   UNL     1      -3.497 -41.704 -34.419  1.00  0.00     0.051 A 
ATOM     43  C   UNL     1      -3.430 -42.610 -33.356  1.00  0.00     0.157 A 
BRANCH  41  44
ATOM     44  O   UNL     1      -2.260 -44.392 -32.200  1.00  0.00    -0.504 OA
ATOM     45  H   UNL     1      -1.575 -45.138 -32.190  1.00  0.00     0.293 HD
ENDBRANCH  41  44
BRANCH  43  46
ATOM     46  O   UNL     1      -4.457 -42.625 -32.413  1.00  0.00    -0.504 OA
ATOM     47  H   UNL     1      -4.395 -42.106 -31.545  1.00  0.00     0.293 HD
ENDBRANCH  43  46
ENDBRANCH  28  38
BRANCH  34  48
ATOM     48  O   UNL     1       3.667 -41.919 -39.541  1.00  0.00    -0.507 OA
ATOM     49  H   UNL     1       3.713 -40.977 -39.185  1.00  0.00     0.293 HD
ENDBRANCH  34  48
BRANCH  37  50
ATOM     50  O   UNL     1       1.334 -45.854 -41.007  1.00  0.00    -0.508 OA
ATOM     51  H   UNL     1       0.640 -45.846 -41.748  1.00  0.00     0.293 HD
ENDBRANCH  37  50
ENDBRANCH  26  27
ENDBRANCH   5  26
BRANCH   4  52
ATOM     52  O   UNL     1       0.077 -37.196 -36.669  1.00  0.00    -0.384 OA
ATOM     53  H   UNL     1       0.682 -36.447 -36.899  1.00  0.00     0.211 HD
ENDBRANCH   4  52
TORSDOF 16
ENDMDL
MODEL 3
REMARK VINA RESULT:    -6.762      1.517      2.009
REMARK INTER + INTRA:         -13.378
REMARK INTER:                 -11.003
REMARK INTRA:                  -2.374
REMARK UNBOUND:                -2.267
REMARK SMILES C[C@@H]1O[C@H](OC[C@@H]2O[C@H](Oc3c(-c4ccc(O)c(O)c4)oc4cc(O)cc(O)c4c3=O)[C@@H](O)[C@@H](O)[C@@H]2O)[C@H](O)[C@H](O)[C@H]1O
REMARK SMILES IDX 7 1 36 2 34 3 32 4 9 5 8 6 6 7 5 8 4 9 1 10 2 11 42 12 3 13
REMARK SMILES IDX 40 14 38 15 43 16 41 18 39 20 37 22 35 24 10 26 11 27 12 28
REMARK SMILES IDX 30 29 21 30 29 31 31 32 22 33 27 34 23 35 26 36 24 37 13 38
REMARK SMILES IDX 20 39 14 40 18 41 15 42 16 43 19 44 17 46 28 48 25 50 33 52
REMARK H PARENT 43 17 41 19 39 21 37 23 35 25 19 45 17 47 28 49 25 51 33 53
REMARK Flexibility Score: inf
ROOT
ATOM      1  C   UNL     1       0.773 -40.530 -31.814  1.00  0.00     0.180 C 
ATOM      2  C   UNL     1       1.244 -41.905 -31.269  1.00  0.00     0.177 C 
ATOM      3  C   UNL     1       1.529 -42.879 -32.417  1.00  0.00     0.180 C 
ATOM      4  C   UNL     1       2.495 -42.232 -33.424  1.00  0.00     0.214 C 
ATOM      5  C   UNL     1       2.001 -40.830 -33.849  1.00  0.00     0.339 C 
ATOM      6  O   UNL     1       1.694 -39.979 -32.750  1.00  0.00    -0.332 OA
ENDROOT
BRANCH   1   7
ATOM      7  C   UNL     1      -0.679 -40.510 -32.346  1.00  0.00     0.198 C 
BRANCH   7   8
ATOM      8  O   UNL     1      -1.559 -41.050 -31.372  1.00  0.00    -0.347 OA
BRANCH   8   9
ATOM      9  C   UNL     1      -2.383 -40.041 -30.814  1.00  0.00     0.281 C 
ATOM     10  C   UNL     1      -5.618 -38.820 -32.004  1.00  0.00     0.041 C 
ATOM     11  C   UNL     1      -4.521 -39.110 -30.977  1.00  0.00     0.150 C 
ATOM     12  C   UNL     1      -5.111 -39.769 -29.695  1.00  0.00     0.174 C 
ATOM     13  O   UNL     1      -3.580 -39.974 -31.578  1.00  0.00    -0.344 OA
ATOM     14  C   UNL     1      -4.113 -40.780 -29.068  1.00  0.00     0.179 C 
ATOM     15  C   UNL     1      -2.652 -40.349 -29.310  1.00  0.00     0.202 C 
BRANCH  12  16
ATOM     16  O   UNL     1      -5.412 -38.771 -28.752  1.00  0.00    -0.388 OA
ATOM     17  H   UNL     1      -5.120 -37.909 -29.145  1.00  0.00     0.211 HD
ENDBRANCH  12  16
BRANCH  14  18
ATOM     18  O   UNL     1      -4.332 -42.090 -29.540  1.00  0.00    -0.387 OA
ATOM     19  H   UNL     1      -3.555 -42.357 -30.099  1.00  0.00     0.211 HD
ENDBRANCH  14  18
BRANCH  15  20
ATOM     20  O   UNL     1      -1.763 -41.329 -28.834  1.00  0.00    -0.385 OA
ATOM     21  H   UNL     1      -1.458 -41.029 -27.939  1.00  0.00     0.211 HD
ENDBRANCH  15  20
ENDBRANCH   8   9
ENDBRANCH   7   8
ENDBRANCH   1   7
BRANCH   2  22
ATOM     22  O   UNL     1       0.286 -42.458 -30.403  1.00  0.00    -0.387 OA
ATOM     23  H   UNL     1      -0.001 -41.733 -29.790  1.00  0.00     0.211 HD
ENDBRANCH   2  22
BRANCH   3  24
ATOM     24  O   UNL     1       2.103 -44.058 -31.913  1.00  0.00    -0.387 OA
ATOM     25  H   UNL     1       3.028 -43.827 -31.630  1.00  0.00     0.211 HD
ENDBRANCH   3  24
BRANCH   5  26
ATOM     26  O   UNL     1       0.885 -40.940 -34.735  1.00  0.00    -0.454 OA
BRANCH  26  27
ATOM     27  C   UNL     1       0.855 -41.835 -35.813  1.00  0.00     0.214 A 
ATOM     28  C   UNL     1      -0.250 -42.679 -36.029  1.00  0.00     0.180 A 
ATOM     29  C   UNL     1       1.943 -41.903 -36.691  1.00  0.00     0.239 A 
ATOM     30  O   UNL     1      -0.269 -43.485 -37.084  1.00  0.00    -0.452 OA
ATOM     31  C   UNL     1       1.877 -42.744 -37.831  1.00  0.00     0.111 A 
ATOM     32  O   UNL     1       2.965 -41.212 -36.427  1.00  0.00    -0.285 OA
ATOM     33  C   UNL     1       0.722 -43.558 -37.964  1.00  0.00     0.146 A 
ATOM     34  C   UNL     1       2.899 -42.848 -38.822  1.00  0.00     0.134 A 
ATOM     35  C   UNL     1       0.608 -44.464 -39.021  1.00  0.00     0.094 A 
ATOM     36  C   UNL     1       2.771 -43.791 -39.851  1.00  0.00     0.093 A 
ATOM     37  C   UNL     1       1.630 -44.591 -39.955  1.00  0.00     0.123 A 
BRANCH  28  38
ATOM     38  C   UNL     1      -1.391 -42.728 -35.096  1.00  0.00     0.025 A 
ATOM     39  C   UNL     1      -2.433 -41.798 -35.218  1.00  0.00     0.062 A 
ATOM     40  C   UNL     1      -1.465 -43.717 -34.102  1.00  0.00     0.016 A 
ATOM     41  C   UNL     1      -3.519 -41.825 -34.330  1.00  0.00     0.158 A 
ATOM     42  C   UNL     1      -2.547 -43.747 -33.220  1.00  0.00     0.051 A 
ATOM     43  C   UNL     1      -3.575 -42.805 -33.325  1.00  0.00     0.157 A 
BRANCH  41  44
ATOM     44  O   UNL     1      -4.540 -40.883 -34.446  1.00  0.00    -0.504 OA
ATOM     45  H   UNL     1      -4.418 -39.928 -34.130  1.00  0.00     0.293 HD
ENDBRANCH  41  44
BRANCH  43  46
ATOM     46  O   UNL     1      -4.636 -42.857 -32.422  1.00  0.00    -0.504 OA
ATOM     47  H   UNL     1      -5.597 -42.943 -32.730  1.00  0.00     0.293 HD
ENDBRANCH  43  46
ENDBRANCH  28  38
BRANCH  34  48
ATOM     48  O   UNL     1       4.032 -42.030 -38.860  1.00  0.00    -0.507 OA
ATOM     49  H   UNL     1       4.325 -41.481 -39.653  1.00  0.00     0.293 HD
ENDBRANCH  34  48
BRANCH  37  50
ATOM     50  O   UNL     1       1.499 -45.511 -40.991  1.00  0.00    -0.508 OA
ATOM     51  H   UNL     1       2.283 -46.079 -41.296  1.00  0.00     0.293 HD
ENDBRANCH  37  50
ENDBRANCH  26  27
ENDBRANCH   5  26
BRANCH   4  52
ATOM     52  O   UNL     1       3.811 -42.188 -32.920  1.00  0.00    -0.384 OA
ATOM     53  H   UNL     1       4.047 -43.093 -32.595  1.00  0.00     0.211 HD
ENDBRANCH   4  52
TORSDOF 16
ENDMDL
MODEL 4
REMARK VINA RESULT:    -6.618      2.527      7.646
REMARK INTER + INTRA:         -13.141
REMARK INTER:                  -9.648
REMARK INTRA:                  -3.493
REMARK UNBOUND:                -2.267
REMARK SMILES C[C@@H]1O[C@H](OC[C@@H]2O[C@H](Oc3c(-c4ccc(O)c(O)c4)oc4cc(O)cc(O)c4c3=O)[C@@H](O)[C@@H](O)[C@@H]2O)[C@H](O)[C@H](O)[C@H]1O
REMARK SMILES IDX 7 1 36 2 34 3 32 4 9 5 8 6 6 7 5 8 4 9 1 10 2 11 42 12 3 13
REMARK SMILES IDX 40 14 38 15 43 16 41 18 39 20 37 22 35 24 10 26 11 27 12 28
REMARK SMILES IDX 30 29 21 30 29 31 31 32 22 33 27 34 23 35 26 36 24 37 13 38
REMARK SMILES IDX 20 39 14 40 18 41 15 42 16 43 19 44 17 46 28 48 25 50 33 52
REMARK H PARENT 43 17 41 19 39 21 37 23 35 25 19 45 17 47 28 49 25 51 33 53
REMARK Flexibility Score: inf
ROOT
ATOM      1  C   UNL     1      -1.730 -41.901 -30.681  1.00  0.00     0.180 C 
ATOM      2  C   UNL     1      -0.190 -41.787 -30.537  1.00  0.00     0.177 C 
ATOM      3  C   UNL     1       0.280 -40.356 -30.817  1.00  0.00     0.180 C 
ATOM      4  C   UNL     1      -0.512 -39.365 -29.949  1.00  0.00     0.214 C 
ATOM      5  C   UNL     1      -2.035 -39.602 -30.079  1.00  0.00     0.339 C 
ATOM      6  O   UNL     1      -2.418 -40.957 -29.867  1.00  0.00    -0.332 OA
ENDROOT
BRANCH   1   7
ATOM      7  C   UNL     1      -2.245 -41.894 -32.140  1.00  0.00     0.198 C 
BRANCH   7   8
ATOM      8  O   UNL     1      -1.963 -43.140 -32.758  1.00  0.00    -0.347 OA
BRANCH   8   9
ATOM      9  C   UNL     1      -1.883 -43.004 -34.167  1.00  0.00     0.281 C 
ATOM     10  C   UNL     1      -2.353 -40.000 -36.197  1.00  0.00     0.041 C 
ATOM     11  C   UNL     1      -1.819 -41.394 -35.860  1.00  0.00     0.150 C 
ATOM     12  C   UNL     1      -0.296 -41.502 -36.165  1.00  0.00     0.174 C 
ATOM     13  O   UNL     1      -2.058 -41.631 -34.489  1.00  0.00    -0.344 OA
ATOM     14  C   UNL     1       0.418 -42.442 -35.156  1.00  0.00     0.179 C 
ATOM     15  C   UNL     1      -0.522 -43.567 -34.676  1.00  0.00     0.202 C 
BRANCH  12  16
ATOM     16  O   UNL     1      -0.114 -41.999 -37.468  1.00  0.00    -0.388 OA
ATOM     17  H   UNL     1      -0.883 -42.593 -37.657  1.00  0.00     0.211 HD
ENDBRANCH  12  16
BRANCH  14  18
ATOM     18  O   UNL     1       0.942 -41.729 -34.060  1.00  0.00    -0.387 OA
ATOM     19  H   UNL     1       0.198 -41.518 -33.435  1.00  0.00     0.211 HD
ENDBRANCH  14  18
BRANCH  15  20
ATOM     20  O   UNL     1       0.102 -44.342 -33.683  1.00  0.00    -0.385 OA
ATOM     21  H   UNL     1      -0.583 -44.528 -32.990  1.00  0.00     0.211 HD
ENDBRANCH  15  20
ENDBRANCH   8   9
ENDBRANCH   7   8
ENDBRANCH   1   7
BRANCH   2  22
ATOM     22  O   UNL     1       0.465 -42.680 -31.402  1.00  0.00    -0.387 OA
ATOM     23  H   UNL     1       0.562 -42.216 -32.274  1.00  0.00     0.211 HD
ENDBRANCH   2  22
BRANCH   3  24
ATOM     24  O   UNL     1       1.650 -40.237 -30.529  1.00  0.00    -0.387 OA
ATOM     25  H   UNL     1       2.008 -39.529 -31.129  1.00  0.00     0.211 HD
ENDBRANCH   3  24
BRANCH   5  26
ATOM     26  O   UNL     1      -2.507 -39.131 -31.343  1.00  0.00    -0.454 OA
BRANCH  26  27
ATOM     27  C   UNL     1      -3.493 -38.144 -31.466  1.00  0.00     0.214 A 
ATOM     28  C   UNL     1      -4.834 -38.482 -31.729  1.00  0.00     0.180 A 
ATOM     29  C   UNL     1      -3.147 -36.794 -31.335  1.00  0.00     0.239 A 
ATOM     30  O   UNL     1      -5.755 -37.527 -31.797  1.00  0.00    -0.452 OA
ATOM     31  C   UNL     1      -4.158 -35.801 -31.372  1.00  0.00     0.111 A 
ATOM     32  O   UNL     1      -1.927 -36.503 -31.198  1.00  0.00    -0.285 OA
ATOM     33  C   UNL     1      -5.481 -36.238 -31.643  1.00  0.00     0.146 A 
ATOM     34  C   UNL     1      -3.929 -34.403 -31.191  1.00  0.00     0.134 A 
ATOM     35  C   UNL     1      -6.524 -35.317 -31.764  1.00  0.00     0.094 A 
ATOM     36  C   UNL     1      -4.989 -33.501 -31.353  1.00  0.00     0.093 A 
ATOM     37  C   UNL     1      -6.281 -33.954 -31.632  1.00  0.00     0.123 A 
BRANCH  28  38
ATOM     38  C   UNL     1      -5.257 -39.875 -31.969  1.00  0.00     0.025 A 
ATOM     39  C   UNL     1      -5.611 -40.693 -30.888  1.00  0.00     0.062 A 
ATOM     40  C   UNL     1      -5.341 -40.385 -33.274  1.00  0.00     0.016 A 
ATOM     41  C   UNL     1      -6.004 -42.023 -31.100  1.00  0.00     0.158 A 
ATOM     42  C   UNL     1      -5.735 -41.708 -33.488  1.00  0.00     0.051 A 
ATOM     43  C   UNL     1      -6.065 -42.532 -32.408  1.00  0.00     0.157 A 
BRANCH  41  44
ATOM     44  O   UNL     1      -6.334 -42.836 -30.016  1.00  0.00    -0.504 OA
ATOM     45  H   UNL     1      -6.083 -42.582 -29.068  1.00  0.00     0.293 HD
ENDBRANCH  41  44
BRANCH  43  46
ATOM     46  O   UNL     1      -6.446 -43.851 -32.653  1.00  0.00    -0.504 OA
ATOM     47  H   UNL     1      -5.776 -44.611 -32.651  1.00  0.00     0.293 HD
ENDBRANCH  43  46
ENDBRANCH  28  38
BRANCH  34  48
ATOM     48  O   UNL     1      -2.696 -33.859 -30.819  1.00  0.00    -0.507 OA
ATOM     49  H   UNL     1      -2.330 -33.838 -29.880  1.00  0.00     0.293 HD
ENDBRANCH  34  48
BRANCH  37  50
ATOM     50  O   UNL     1      -7.336 -33.055 -31.771  1.00  0.00    -0.508 OA
ATOM     51  H   UNL     1      -8.092 -33.227 -32.426  1.00  0.00     0.293 HD
ENDBRANCH  37  50
ENDBRANCH  26  27
ENDBRANCH   5  26
BRANCH   4  52
ATOM     52  O   UNL     1      -0.094 -39.411 -28.603  1.00  0.00    -0.384 OA
ATOM     53  H   UNL     1       0.875 -39.617 -28.588  1.00  0.00     0.211 HD
ENDBRANCH   4  52
TORSDOF 16
ENDMDL
MODEL 5
REMARK VINA RESULT:    -6.561      3.452      6.274
REMARK INTER + INTRA:         -13.047
REMARK INTER:                 -12.066
REMARK INTRA:                  -0.981
REMARK UNBOUND:                -2.267
REMARK SMILES C[C@@H]1O[C@H](OC[C@@H]2O[C@H](Oc3c(-c4ccc(O)c(O)c4)oc4cc(O)cc(O)c4c3=O)[C@@H](O)[C@@H](O)[C@@H]2O)[C@H](O)[C@H](O)[C@H]1O
REMARK SMILES IDX 7 1 36 2 34 3 32 4 9 5 8 6 6 7 5 8 4 9 1 10 2 11 42 12 3 13
REMARK SMILES IDX 40 14 38 15 43 16 41 18 39 20 37 22 35 24 10 26 11 27 12 28
REMARK SMILES IDX 30 29 21 30 29 31 31 32 22 33 27 34 23 35 26 36 24 37 13 38
REMARK SMILES IDX 20 39 14 40 18 41 15 42 16 43 19 44 17 46 28 48 25 50 33 52
REMARK H PARENT 43 17 41 19 39 21 37 23 35 25 19 45 17 47 28 49 25 51 33 53
REMARK Flexibility Score: inf
ROOT
ATOM      1  C   UNL     1      -5.874 -37.462 -30.156  1.00  0.00     0.180 C 
ATOM      2  C   UNL     1      -6.248 -38.402 -28.980  1.00  0.00     0.177 C 
ATOM      3  C   UNL     1      -5.748 -39.827 -29.239  1.00  0.00     0.180 C 
ATOM      4  C   UNL     1      -4.248 -39.801 -29.578  1.00  0.00     0.214 C 
ATOM      5  C   UNL     1      -3.946 -38.777 -30.696  1.00  0.00     0.339 C 
ATOM      6  O   UNL     1      -4.479 -37.483 -30.439  1.00  0.00    -0.332 OA
ENDROOT
BRANCH   1   7
ATOM      7  C   UNL     1      -6.728 -37.654 -31.432  1.00  0.00     0.198 C 
BRANCH   7   8
ATOM      8  O   UNL     1      -6.954 -36.400 -32.057  1.00  0.00    -0.347 OA
BRANCH   8   9
ATOM      9  C   UNL     1      -8.312 -36.010 -31.942  1.00  0.00     0.281 C 
ATOM     10  C   UNL     1     -10.734 -36.916 -29.357  1.00  0.00     0.041 C 
ATOM     11  C   UNL     1     -10.121 -36.054 -30.463  1.00  0.00     0.150 C 
ATOM     12  C   UNL     1     -10.051 -34.558 -30.035  1.00  0.00     0.174 C 
ATOM     13  O   UNL     1      -8.825 -36.545 -30.729  1.00  0.00    -0.344 OA
ATOM     14  C   UNL     1      -8.801 -33.857 -30.634  1.00  0.00     0.179 C 
ATOM     15  C   UNL     1      -8.423 -34.457 -32.004  1.00  0.00     0.202 C 
BRANCH  12  16
ATOM     16  O   UNL     1     -11.209 -33.891 -30.473  1.00  0.00    -0.388 OA
ATOM     17  H   UNL     1     -11.349 -34.155 -31.418  1.00  0.00     0.211 HD
ENDBRANCH  12  16
BRANCH  14  18
ATOM     18  O   UNL     1      -7.705 -33.902 -29.750  1.00  0.00    -0.387 OA
ATOM     19  H   UNL     1      -8.049 -34.029 -28.826  1.00  0.00     0.211 HD
ENDBRANCH  14  18
BRANCH  15  20
ATOM     20  O   UNL     1      -7.229 -33.888 -32.479  1.00  0.00    -0.385 OA
ATOM     21  H   UNL     1      -7.480 -33.072 -32.983  1.00  0.00     0.211 HD
ENDBRANCH  15  20
ENDBRANCH   8   9
ENDBRANCH   7   8
ENDBRANCH   1   7
BRANCH   2  22
ATOM     22  O   UNL     1      -7.637 -38.417 -28.769  1.00  0.00    -0.387 OA
ATOM     23  H   UNL     1      -7.785 -38.787 -27.860  1.00  0.00     0.211 HD
ENDBRANCH   2  22
BRANCH   3  24
ATOM     24  O   UNL     1      -5.955 -40.622 -28.099  1.00  0.00    -0.387 OA
ATOM     25  H   UNL     1      -5.057 -40.930 -27.800  1.00  0.00     0.211 HD
ENDBRANCH   3  24
BRANCH   5  26
ATOM     26  O   UNL     1      -4.394 -39.271 -31.961  1.00  0.00    -0.454 OA
BRANCH  26  27
ATOM     27  C   UNL     1      -3.522 -39.777 -32.932  1.00  0.00     0.214 A 
ATOM     28  C   UNL     1      -3.793 -40.989 -33.595  1.00  0.00     0.180 A 
ATOM     29  C   UNL     1      -2.353 -39.077 -33.250  1.00  0.00     0.239 A 
ATOM     30  O   UNL     1      -2.970 -41.421 -34.543  1.00  0.00    -0.452 OA
ATOM     31  C   UNL     1      -1.514 -39.543 -34.295  1.00  0.00     0.111 A 
ATOM     32  O   UNL     1      -2.075 -38.046 -32.578  1.00  0.00    -0.285 OA
ATOM     33  C   UNL     1      -1.869 -40.774 -34.905  1.00  0.00     0.146 A 
ATOM     34  C   UNL     1      -0.332 -38.879 -34.743  1.00  0.00     0.134 A 
ATOM     35  C   UNL     1      -1.060 -41.337 -35.894  1.00  0.00     0.094 A 
ATOM     36  C   UNL     1       0.477 -39.487 -35.713  1.00  0.00     0.093 A 
ATOM     37  C   UNL     1       0.114 -40.706 -36.291  1.00  0.00     0.123 A 
BRANCH  28  38
ATOM     38  C   UNL     1      -4.957 -41.826 -33.249  1.00  0.00     0.025 A 
ATOM     39  C   UNL     1      -5.360 -41.941 -31.911  1.00  0.00     0.062 A 
ATOM     40  C   UNL     1      -5.690 -42.487 -34.247  1.00  0.00     0.016 A 
ATOM     41  C   UNL     1      -6.458 -42.743 -31.565  1.00  0.00     0.158 A 
ATOM     42  C   UNL     1      -6.785 -43.283 -33.905  1.00  0.00     0.051 A 
ATOM     43  C   UNL     1      -7.173 -43.418 -32.569  1.00  0.00     0.157 A 
BRANCH  41  44
ATOM     44  O   UNL     1      -6.839 -42.869 -30.230  1.00  0.00    -0.504 OA
ATOM     45  H   UNL     1      -6.743 -42.100 -29.577  1.00  0.00     0.293 HD
ENDBRANCH  41  44
BRANCH  43  46
ATOM     46  O   UNL     1      -8.265 -44.228 -32.259  1.00  0.00    -0.504 OA
ATOM     47  H   UNL     1      -8.383 -44.641 -31.342  1.00  0.00     0.293 HD
ENDBRANCH  43  46
ENDBRANCH  28  38
BRANCH  34  48
ATOM     48  O   UNL     1       0.068 -37.616 -34.296  1.00  0.00    -0.507 OA
ATOM     49  H   UNL     1       0.339 -36.849 -34.892  1.00  0.00     0.293 HD
ENDBRANCH  34  48
BRANCH  37  50
ATOM     50  O   UNL     1       0.910 -41.295 -37.269  1.00  0.00    -0.508 OA
ATOM     51  H   UNL     1       0.500 -41.746 -38.081  1.00  0.00     0.293 HD
ENDBRANCH  37  50
ENDBRANCH  26  27
ENDBRANCH   5  26
BRANCH   4  52
ATOM     52  O   UNL     1      -3.465 -39.563 -28.430  1.00  0.00    -0.384 OA
ATOM     53  H   UNL     1      -2.748 -40.245 -28.399  1.00  0.00     0.211 HD
ENDBRANCH   4  52
TORSDOF 16
ENDMDL
MODEL 6
REMARK VINA RESULT:    -6.522      2.847      4.760
REMARK INTER + INTRA:         -12.984
REMARK INTER:                 -10.478
REMARK INTRA:                  -2.506
REMARK UNBOUND:                -2.267
REMARK SMILES C[C@@H]1O[C@H](OC[C@@H]2O[C@H](Oc3c(-c4ccc(O)c(O)c4)oc4cc(O)cc(O)c4c3=O)[C@@H](O)[C@@H](O)[C@@H]2O)[C@H](O)[C@H](O)[C@H]1O
REMARK SMILES IDX 7 1 36 2 34 3 32 4 9 5 8 6 6 7 5 8 4 9 1 10 2 11 42 12 3 13
REMARK SMILES IDX 40 14 38 15 43 16 41 18 39 20 37 22 35 24 10 26 11 27 12 28
REMARK SMILES IDX 30 29 21 30 29 31 31 32 22 33 27 34 23 35 26 36 24 37 13 38
REMARK SMILES IDX 20 39 14 40 18 41 15 42 16 43 19 44 17 46 28 48 25 50 33 52
REMARK H PARENT 43 17 41 19 39 21 37 23 35 25 19 45 17 47 28 49 25 51 33 53
REMARK Flexibility Score: inf
ROOT
ATOM      1  C   UNL     1       1.203 -39.564 -32.016  1.00  0.00     0.180 C 
ATOM      2  C   UNL     1       0.442 -40.407 -30.960  1.00  0.00     0.177 C 
ATOM      3  C   UNL     1      -0.140 -41.676 -31.591  1.00  0.00     0.180 C 
ATOM      4  C   UNL     1       0.963 -42.443 -32.337  1.00  0.00     0.214 C 
ATOM      5  C   UNL     1       1.733 -41.514 -33.304  1.00  0.00     0.339 C 
ATOM      6  O   UNL     1       2.205 -40.320 -32.688  1.00  0.00    -0.332 OA
ENDROOT
BRANCH   1   7
ATOM      7  C   UNL     1       0.295 -38.795 -33.005  1.00  0.00     0.198 C 
BRANCH   7   8
ATOM      8  O   UNL     1       0.489 -37.397 -32.855  1.00  0.00    -0.347 OA
BRANCH   8   9
ATOM      9  C   UNL     1       0.952 -36.814 -34.060  1.00  0.00     0.281 C 
ATOM     10  C   UNL     1       2.255 -38.475 -37.045  1.00  0.00     0.041 C 
ATOM     11  C   UNL     1       1.586 -37.356 -36.243  1.00  0.00     0.150 C 
ATOM     12  C   UNL     1       0.289 -36.859 -36.946  1.00  0.00     0.174 C 
ATOM     13  O   UNL     1       1.282 -37.862 -34.961  1.00  0.00    -0.344 OA
ATOM     14  C   UNL     1      -0.784 -36.426 -35.910  1.00  0.00     0.179 C 
ATOM     15  C   UNL     1      -0.134 -35.854 -34.634  1.00  0.00     0.202 C 
BRANCH  12  16
ATOM     16  O   UNL     1       0.595 -35.767 -37.777  1.00  0.00    -0.388 OA
ATOM     17  H   UNL     1       1.043 -35.092 -37.208  1.00  0.00     0.211 HD
ENDBRANCH  12  16
BRANCH  14  18
ATOM     18  O   UNL     1      -1.660 -37.483 -35.593  1.00  0.00    -0.387 OA
ATOM     19  H   UNL     1      -1.957 -37.375 -34.650  1.00  0.00     0.211 HD
ENDBRANCH  14  18
BRANCH  15  20
ATOM     20  O   UNL     1      -1.113 -35.570 -33.665  1.00  0.00    -0.385 OA
ATOM     21  H   UNL     1      -1.382 -36.437 -33.266  1.00  0.00     0.211 HD
ENDBRANCH  15  20
ENDBRANCH   8   9
ENDBRANCH   7   8
ENDBRANCH   1   7
BRANCH   2  22
ATOM     22  O   UNL     1      -0.587 -39.659 -30.364  1.00  0.00    -0.387 OA
ATOM     23  H   UNL     1      -1.340 -40.283 -30.202  1.00  0.00     0.211 HD
ENDBRANCH   2  22
BRANCH   3  24
ATOM     24  O   UNL     1      -0.687 -42.500 -30.592  1.00  0.00    -0.387 OA
ATOM     25  H   UNL     1      -1.179 -43.227 -31.060  1.00  0.00     0.211 HD
ENDBRANCH   3  24
BRANCH   5  26
ATOM     26  O   UNL     1       0.934 -41.213 -34.450  1.00  0.00    -0.454 OA
BRANCH  26  27
ATOM     27  C   UNL     1       0.846 -42.062 -35.561  1.00  0.00     0.214 A 
ATOM     28  C   UNL     1      -0.344 -42.753 -35.858  1.00  0.00     0.180 A 
ATOM     29  C   UNL     1       1.959 -42.241 -36.390  1.00  0.00     0.239 A 
ATOM     30  O   UNL     1      -0.410 -43.517 -36.942  1.00  0.00    -0.452 OA
ATOM     31  C   UNL     1       1.846 -43.031 -37.562  1.00  0.00     0.111 A 
ATOM     32  O   UNL     1       3.045 -41.693 -36.055  1.00  0.00    -0.285 OA
ATOM     33  C   UNL     1       0.606 -43.687 -37.778  1.00  0.00     0.146 A 
ATOM     34  C   UNL     1       2.895 -43.232 -38.509  1.00  0.00     0.134 A 
ATOM     35  C   UNL     1       0.433 -44.539 -38.871  1.00  0.00     0.094 A 
ATOM     36  C   UNL     1       2.701 -44.119 -39.577  1.00  0.00     0.093 A 
ATOM     37  C   UNL     1       1.477 -44.765 -39.762  1.00  0.00     0.123 A 
BRANCH  28  38
ATOM     38  C   UNL     1      -1.527 -42.686 -34.980  1.00  0.00     0.025 A 
ATOM     39  C   UNL     1      -2.410 -41.602 -35.080  1.00  0.00     0.062 A 
ATOM     40  C   UNL     1      -1.801 -43.713 -34.063  1.00  0.00     0.016 A 
ATOM     41  C   UNL     1      -3.533 -41.518 -34.244  1.00  0.00     0.158 A 
ATOM     42  C   UNL     1      -2.920 -43.634 -33.232  1.00  0.00     0.051 A 
ATOM     43  C   UNL     1      -3.788 -42.541 -33.314  1.00  0.00     0.157 A 
BRANCH  41  44
ATOM     44  O   UNL     1      -4.394 -40.426 -34.335  1.00  0.00    -0.504 OA
ATOM     45  H   UNL     1      -4.042 -39.477 -34.385  1.00  0.00     0.293 HD
ENDBRANCH  41  44
BRANCH  43  46
ATOM     46  O   UNL     1      -4.892 -42.486 -32.463  1.00  0.00    -0.504 OA
ATOM     47  H   UNL     1      -4.825 -42.116 -31.523  1.00  0.00     0.293 HD
ENDBRANCH  43  46
ENDBRANCH  28  38
BRANCH  34  48
ATOM     48  O   UNL     1       4.122 -42.564 -38.465  1.00  0.00    -0.507 OA
ATOM     49  H   UNL     1       4.358 -41.748 -39.008  1.00  0.00     0.293 HD
ENDBRANCH  34  48
BRANCH  37  50
ATOM     50  O   UNL     1       1.283 -45.629 -40.837  1.00  0.00    -0.508 OA
ATOM     51  H   UNL     1       0.912 -46.564 -40.702  1.00  0.00     0.293 HD
ENDBRANCH  37  50
ENDBRANCH  26  27
ENDBRANCH   5  26
BRANCH   4  52
ATOM     52  O   UNL     1       1.835 -43.095 -31.441  1.00  0.00    -0.384 OA
ATOM     53  H   UNL     1       2.187 -43.905 -31.887  1.00  0.00     0.211 HD
ENDBRANCH   4  52
TORSDOF 16
ENDMDL
MODEL 7
REMARK VINA RESULT:    -6.470      2.372      7.711
REMARK INTER + INTRA:         -12.898
REMARK INTER:                 -10.347
REMARK INTRA:                  -2.551
REMARK UNBOUND:                -2.267
REMARK SMILES C[C@@H]1O[C@H](OC[C@@H]2O[C@H](Oc3c(-c4ccc(O)c(O)c4)oc4cc(O)cc(O)c4c3=O)[C@@H](O)[C@@H](O)[C@@H]2O)[C@H](O)[C@H](O)[C@H]1O
REMARK SMILES IDX 7 1 36 2 34 3 32 4 9 5 8 6 6 7 5 8 4 9 1 10 2 11 42 12 3 13
REMARK SMILES IDX 40 14 38 15 43 16 41 18 39 20 37 22 35 24 10 26 11 27 12 28
REMARK SMILES IDX 30 29 21 30 29 31 31 32 22 33 27 34 23 35 26 36 24 37 13 38
REMARK SMILES IDX 20 39 14 40 18 41 15 42 16 43 19 44 17 46 28 48 25 50 33 52
REMARK H PARENT 43 17 41 19 39 21 37 23 35 25 19 45 17 47 28 49 25 51 33 53
REMARK Flexibility Score: inf
ROOT
ATOM      1  C   UNL     1      -0.943 -43.574 -33.912  1.00  0.00     0.180 C 
ATOM      2  C   UNL     1       0.553 -43.623 -33.506  1.00  0.00     0.177 C 
ATOM      3  C   UNL     1       1.017 -42.267 -32.966  1.00  0.00     0.180 C 
ATOM      4  C   UNL     1       0.073 -41.797 -31.848  1.00  0.00     0.214 C 
ATOM      5  C   UNL     1      -1.404 -41.862 -32.301  1.00  0.00     0.339 C 
ATOM      6  O   UNL     1      -1.775 -43.123 -32.848  1.00  0.00    -0.332 OA
ENDROOT
BRANCH   1   7
ATOM      7  C   UNL     1      -1.229 -42.821 -35.233  1.00  0.00     0.198 C 
BRANCH   7   8
ATOM      8  O   UNL     1      -0.597 -43.485 -36.316  1.00  0.00    -0.347 OA
BRANCH   8   9
ATOM      9  C   UNL     1       0.011 -42.557 -37.198  1.00  0.00     0.281 C 
ATOM     10  C   UNL     1       2.211 -39.749 -36.395  1.00  0.00     0.041 C 
ATOM     11  C   UNL     1       1.614 -40.858 -37.265  1.00  0.00     0.150 C 
ATOM     12  C   UNL     1       2.732 -41.681 -37.971  1.00  0.00     0.174 C 
ATOM     13  O   UNL     1       0.844 -41.698 -36.432  1.00  0.00    -0.344 OA
ATOM     14  C   UNL     1       2.322 -43.171 -38.128  1.00  0.00     0.179 C 
ATOM     15  C   UNL     1       0.797 -43.319 -38.307  1.00  0.00     0.202 C 
BRANCH  12  16
ATOM     16  O   UNL     1       2.984 -41.135 -39.242  1.00  0.00    -0.388 OA
ATOM     17  H   UNL     1       3.189 -40.176 -39.104  1.00  0.00     0.211 HD
ENDBRANCH  12  16
BRANCH  14  18
ATOM     18  O   UNL     1       2.776 -43.953 -37.047  1.00  0.00    -0.387 OA
ATOM     19  H   UNL     1       2.143 -44.709 -36.918  1.00  0.00     0.211 HD
ENDBRANCH  14  18
BRANCH  15  20
ATOM     20  O   UNL     1       0.433 -44.676 -38.337  1.00  0.00    -0.385 OA
ATOM     21  H   UNL     1      -0.557 -44.709 -38.295  1.00  0.00     0.211 HD
ENDBRANCH  15  20
ENDBRANCH   8   9
ENDBRANCH   7   8
ENDBRANCH   1   7
BRANCH   2  22
ATOM     22  O   UNL     1       1.358 -44.003 -34.593  1.00  0.00    -0.387 OA
ATOM     23  H   UNL     1       0.745 -44.224 -35.341  1.00  0.00     0.211 HD
ENDBRANCH   2  22
BRANCH   3  24
ATOM     24  O   UNL     1       2.323 -42.375 -32.459  1.00  0.00    -0.387 OA
ATOM     25  H   UNL     1       2.932 -42.022 -33.162  1.00  0.00     0.211 HD
ENDBRANCH   3  24
BRANCH   5  26
ATOM     26  O   UNL     1      -1.693 -40.804 -33.218  1.00  0.00    -0.454 OA
BRANCH  26  27
ATOM     27  C   UNL     1      -2.277 -39.594 -32.824  1.00  0.00     0.214 A 
ATOM     28  C   UNL     1      -3.652 -39.509 -32.535  1.00  0.00     0.180 A 
ATOM     29  C   UNL     1      -1.490 -38.442 -32.721  1.00  0.00     0.239 A 
ATOM     30  O   UNL     1      -4.169 -38.358 -32.120  1.00  0.00    -0.452 OA
ATOM     31  C   UNL     1      -2.062 -37.238 -32.238  1.00  0.00     0.111 A 
ATOM     32  O   UNL     1      -0.282 -38.513 -33.078  1.00  0.00    -0.285 OA
ATOM     33  C   UNL     1      -3.456 -37.249 -31.972  1.00  0.00     0.146 A 
ATOM     34  C   UNL     1      -1.342 -36.021 -32.035  1.00  0.00     0.134 A 
ATOM     35  C   UNL     1      -4.111 -36.087 -31.559  1.00  0.00     0.094 A 
ATOM     36  C   UNL     1      -2.033 -34.864 -31.653  1.00  0.00     0.093 A 
ATOM     37  C   UNL     1      -3.409 -34.895 -31.410  1.00  0.00     0.123 A 
BRANCH  28  38
ATOM     38  C   UNL     1      -4.561 -40.658 -32.709  1.00  0.00     0.025 A 
ATOM     39  C   UNL     1      -5.233 -41.190 -31.600  1.00  0.00     0.062 A 
ATOM     40  C   UNL     1      -4.789 -41.207 -33.980  1.00  0.00     0.016 A 
ATOM     41  C   UNL     1      -6.090 -42.291 -31.748  1.00  0.00     0.158 A 
ATOM     42  C   UNL     1      -5.645 -42.300 -34.131  1.00  0.00     0.051 A 
ATOM     43  C   UNL     1      -6.297 -42.848 -33.021  1.00  0.00     0.157 A 
BRANCH  41  44
ATOM     44  O   UNL     1      -6.738 -42.828 -30.637  1.00  0.00    -0.504 OA
ATOM     45  H   UNL     1      -6.792 -42.323 -29.760  1.00  0.00     0.293 HD
ENDBRANCH  41  44
BRANCH  43  46
ATOM     46  O   UNL     1      -7.138 -43.945 -33.203  1.00  0.00    -0.504 OA
ATOM     47  H   UNL     1      -6.880 -44.875 -32.895  1.00  0.00     0.293 HD
ENDBRANCH  43  46
ENDBRANCH  28  38
BRANCH  34  48
ATOM     48  O   UNL     1       0.046 -35.909 -32.161  1.00  0.00    -0.507 OA
ATOM     49  H   UNL     1       0.697 -35.866 -31.393  1.00  0.00     0.293 HD
ENDBRANCH  34  48
BRANCH  37  50
ATOM     50  O   UNL     1      -4.087 -33.748 -31.010  1.00  0.00    -0.508 OA
ATOM     51  H   UNL     1      -3.702 -33.125 -30.307  1.00  0.00     0.293 HD
ENDBRANCH  37  50
ENDBRANCH  26  27
ENDBRANCH   5  26
BRANCH   4  52
ATOM     52  O   UNL     1       0.282 -42.523 -30.658  1.00  0.00    -0.384 OA
ATOM     53  H   UNL     1      -0.088 -43.433 -30.782  1.00  0.00     0.211 HD
ENDBRANCH   4  52
TORSDOF 16
ENDMDL
MODEL 8
REMARK VINA RESULT:    -6.427      1.854      2.807
REMARK INTER + INTRA:         -12.826
REMARK INTER:                 -10.460
REMARK INTRA:                  -2.366
REMARK UNBOUND:                -2.267
REMARK SMILES C[C@@H]1O[C@H](OC[C@@H]2O[C@H](Oc3c(-c4ccc(O)c(O)c4)oc4cc(O)cc(O)c4c3=O)[C@@H](O)[C@@H](O)[C@@H]2O)[C@H](O)[C@H](O)[C@H]1O
REMARK SMILES IDX 7 1 36 2 34 3 32 4 9 5 8 6 6 7 5 8 4 9 1 10 2 11 42 12 3 13
REMARK SMILES IDX 40 14 38 15 43 16 41 18 39 20 37 22 35 24 10 26 11 27 12 28
REMARK SMILES IDX 30 29 21 30 29 31 31 32 22 33 27 34 23 35 26 36 24 37 13 38
REMARK SMILES IDX 20 39 14 40 18 41 15 42 16 43 19 44 17 46 28 48 25 50 33 52
REMARK H PARENT 43 17 41 19 39 21 37 23 35 25 19 45 17 47 28 49 25 51 33 53
REMARK Flexibility Score: inf
ROOT
ATOM      1  C   UNL     1       0.872 -39.360 -32.448  1.00  0.00     0.180 C 
ATOM      2  C   UNL     1       1.035 -40.568 -31.489  1.00  0.00     0.177 C 
ATOM      3  C   UNL     1       1.136 -41.879 -32.274  1.00  0.00     0.180 C 
ATOM      4  C   UNL     1       2.236 -41.766 -33.343  1.00  0.00     0.214 C 
ATOM      5  C   UNL     1       2.053 -40.491 -34.199  1.00  0.00     0.339 C 
ATOM      6  O   UNL     1       1.906 -39.305 -33.425  1.00  0.00    -0.332 OA
ENDROOT
BRANCH   1   7
ATOM      7  C   UNL     1      -0.533 -39.223 -33.081  1.00  0.00     0.198 C 
BRANCH   7   8
ATOM      8  O   UNL     1      -1.329 -38.337 -32.308  1.00  0.00    -0.347 OA
BRANCH   8   9
ATOM      9  C   UNL     1      -2.618 -38.878 -32.079  1.00  0.00     0.281 C 
ATOM     10  C   UNL     1      -3.670 -41.256 -29.508  1.00  0.00     0.041 C 
ATOM     11  C   UNL     1      -3.841 -40.128 -30.528  1.00  0.00     0.150 C 
ATOM     12  C   UNL     1      -4.649 -38.941 -29.924  1.00  0.00     0.174 C 
ATOM     13  O   UNL     1      -2.556 -39.694 -30.917  1.00  0.00    -0.344 OA
ATOM     14  C   UNL     1      -4.163 -37.580 -30.493  1.00  0.00     0.179 C 
ATOM     15  C   UNL     1      -3.658 -37.726 -31.944  1.00  0.00     0.202 C 
BRANCH  12  16
ATOM     16  O   UNL     1      -6.013 -39.105 -30.219  1.00  0.00    -0.388 OA
ATOM     17  H   UNL     1      -6.191 -40.080 -30.213  1.00  0.00     0.211 HD
ENDBRANCH  12  16
BRANCH  14  18
ATOM     18  O   UNL     1      -3.174 -36.996 -29.678  1.00  0.00    -0.387 OA
ATOM     19  H   UNL     1      -2.332 -37.515 -29.783  1.00  0.00     0.211 HD
ENDBRANCH  14  18
BRANCH  15  20
ATOM     20  O   UNL     1      -3.122 -36.511 -32.405  1.00  0.00    -0.385 OA
ATOM     21  H   UNL     1      -3.809 -36.098 -32.989  1.00  0.00     0.211 HD
ENDBRANCH  15  20
ENDBRANCH   8   9
ENDBRANCH   7   8
ENDBRANCH   1   7
BRANCH   2  22
ATOM     22  O   UNL     1      -0.035 -40.639 -30.581  1.00  0.00    -0.387 OA
ATOM     23  H   UNL     1      -0.313 -41.590 -30.539  1.00  0.00     0.211 HD
ENDBRANCH   2  22
BRANCH   3  24
ATOM     24  O   UNL     1       1.441 -42.938 -31.402  1.00  0.00    -0.387 OA
ATOM     25  H   UNL     1       0.921 -43.725 -31.716  1.00  0.00     0.211 HD
ENDBRANCH   3  24
BRANCH   5  26
ATOM     26  O   UNL     1       0.957 -40.649 -35.103  1.00  0.00    -0.454 OA
BRANCH  26  27
ATOM     27  C   UNL     1       0.949 -41.602 -36.129  1.00  0.00     0.214 A 
ATOM     28  C   UNL     1      -0.110 -42.519 -36.264  1.00  0.00     0.180 A 
ATOM     29  C   UNL     1       2.012 -41.656 -37.037  1.00  0.00     0.239 A 
ATOM     30  O   UNL     1      -0.112 -43.382 -37.273  1.00  0.00    -0.452 OA
ATOM     31  C   UNL     1       1.964 -42.561 -38.127  1.00  0.00     0.111 A 
ATOM     32  O   UNL     1       2.999 -40.894 -36.844  1.00  0.00    -0.285 OA
ATOM     33  C   UNL     1       0.855 -43.447 -38.179  1.00  0.00     0.146 A 
ATOM     34  C   UNL     1       2.960 -42.661 -39.144  1.00  0.00     0.134 A 
ATOM     35  C   UNL     1       0.765 -44.415 -39.181  1.00  0.00     0.094 A 
ATOM     36  C   UNL     1       2.859 -43.666 -40.116  1.00  0.00     0.093 A 
ATOM     37  C   UNL     1       1.765 -44.535 -40.140  1.00  0.00     0.123 A 
BRANCH  28  38
ATOM     38  C   UNL     1      -1.219 -42.582 -35.292  1.00  0.00     0.025 A 
ATOM     39  C   UNL     1      -1.209 -43.556 -34.285  1.00  0.00     0.062 A 
ATOM     40  C   UNL     1      -2.271 -41.654 -35.342  1.00  0.00     0.016 A 
ATOM     41  C   UNL     1      -2.263 -43.636 -33.361  1.00  0.00     0.158 A 
ATOM     42  C   UNL     1      -3.318 -41.729 -34.422  1.00  0.00     0.051 A 
ATOM     43  C   UNL     1      -3.323 -42.716 -33.431  1.00  0.00     0.157 A 
BRANCH  41  44
ATOM     44  O   UNL     1      -2.256 -44.622 -32.376  1.00  0.00    -0.504 OA
ATOM     45  H   UNL     1      -1.987 -44.416 -31.422  1.00  0.00     0.293 HD
ENDBRANCH  41  44
BRANCH  43  46
ATOM     46  O   UNL     1      -4.388 -42.771 -32.533  1.00  0.00    -0.504 OA
ATOM     47  H   UNL     1      -4.542 -42.048 -31.841  1.00  0.00     0.293 HD
ENDBRANCH  43  46
ENDBRANCH  28  38
BRANCH  34  48
ATOM     48  O   UNL     1       4.042 -41.783 -39.263  1.00  0.00    -0.507 OA
ATOM     49  H   UNL     1       5.011 -42.037 -39.153  1.00  0.00     0.293 HD
ENDBRANCH  34  48
BRANCH  37  50
ATOM     50  O   UNL     1       1.658 -45.518 -41.120  1.00  0.00    -0.508 OA
ATOM     51  H   UNL     1       0.789 -46.020 -41.271  1.00  0.00     0.293 HD
ENDBRANCH  37  50
ENDBRANCH  26  27
ENDBRANCH   5  26
BRANCH   4  52
ATOM     52  O   UNL     1       3.521 -41.825 -32.768  1.00  0.00    -0.384 OA
ATOM     53  H   UNL     1       3.444 -41.577 -31.812  1.00  0.00     0.211 HD
ENDBRANCH   4  52
TORSDOF 16
ENDMDL
MODEL 9
REMARK VINA RESULT:    -6.346      2.184      3.592
REMARK INTER + INTRA:         -12.695
REMARK INTER:                  -9.825
REMARK INTRA:                  -2.870
REMARK UNBOUND:                -2.267
REMARK SMILES C[C@@H]1O[C@H](OC[C@@H]2O[C@H](Oc3c(-c4ccc(O)c(O)c4)oc4cc(O)cc(O)c4c3=O)[C@@H](O)[C@@H](O)[C@@H]2O)[C@H](O)[C@H](O)[C@H]1O
REMARK SMILES IDX 7 1 36 2 34 3 32 4 9 5 8 6 6 7 5 8 4 9 1 10 2 11 42 12 3 13
REMARK SMILES IDX 40 14 38 15 43 16 41 18 39 20 37 22 35 24 10 26 11 27 12 28
REMARK SMILES IDX 30 29 21 30 29 31 31 32 22 33 27 34 23 35 26 36 24 37 13 38
REMARK SMILES IDX 20 39 14 40 18 41 15 42 16 43 19 44 17 46 28 48 25 50 33 52
REMARK H PARENT 43 17 41 19 39 21 37 23 35 25 19 45 17 47 28 49 25 51 33 53
REMARK Flexibility Score: inf
ROOT
ATOM      1  C   UNL     1       0.846 -40.826 -30.457  1.00  0.00     0.180 C 
ATOM      2  C   UNL     1      -0.520 -40.598 -29.759  1.00  0.00     0.177 C 
ATOM      3  C   UNL     1      -1.677 -40.799 -30.743  1.00  0.00     0.180 C 
ATOM      4  C   UNL     1      -1.541 -42.164 -31.438  1.00  0.00     0.214 C 
ATOM      5  C   UNL     1      -0.125 -42.350 -32.030  1.00  0.00     0.339 C 
ATOM      6  O   UNL     1       0.919 -42.096 -31.095  1.00  0.00    -0.332 OA
ENDROOT
BRANCH   1   7
ATOM      7  C   UNL     1       1.291 -39.679 -31.394  1.00  0.00     0.198 C 
BRANCH   7   8
ATOM      8  O   UNL     1       1.298 -38.449 -30.685  1.00  0.00    -0.347 OA
BRANCH   8   9
ATOM      9  C   UNL     1       0.960 -37.367 -31.537  1.00  0.00     0.281 C 
ATOM     10  C   UNL     1      -0.807 -37.450 -34.737  1.00  0.00     0.041 C 
ATOM     11  C   UNL     1      -0.313 -36.838 -33.423  1.00  0.00     0.150 C 
ATOM     12  C   UNL     1      -1.468 -36.110 -32.673  1.00  0.00     0.174 C 
ATOM     13  O   UNL     1       0.204 -37.881 -32.626  1.00  0.00    -0.344 OA
ATOM     14  C   UNL     1      -1.302 -36.226 -31.133  1.00  0.00     0.179 C 
ATOM     15  C   UNL     1       0.186 -36.282 -30.731  1.00  0.00     0.202 C 
BRANCH  12  16
ATOM     16  O   UNL     1      -1.478 -34.752 -33.036  1.00  0.00    -0.388 OA
ATOM     17  H   UNL     1      -1.299 -34.715 -34.009  1.00  0.00     0.211 HD
ENDBRANCH  12  16
BRANCH  14  18
ATOM     18  O   UNL     1      -2.000 -37.335 -30.616  1.00  0.00    -0.387 OA
ATOM     19  H   UNL     1      -2.640 -37.656 -31.306  1.00  0.00     0.211 HD
ENDBRANCH  14  18
BRANCH  15  20
ATOM     20  O   UNL     1       0.316 -36.497 -29.348  1.00  0.00    -0.385 OA
ATOM     21  H   UNL     1      -0.602 -36.570 -28.981  1.00  0.00     0.211 HD
ENDBRANCH  15  20
ENDBRANCH   8   9
ENDBRANCH   7   8
ENDBRANCH   1   7
BRANCH   2  22
ATOM     22  O   UNL     1      -0.592 -39.311 -29.199  1.00  0.00    -0.387 OA
ATOM     23  H   UNL     1      -0.672 -39.429 -28.217  1.00  0.00     0.211 HD
ENDBRANCH   2  22
BRANCH   3  24
ATOM     24  O   UNL     1      -2.903 -40.745 -30.058  1.00  0.00    -0.387 OA
ATOM     25  H   UNL     1      -3.570 -41.212 -30.630  1.00  0.00     0.211 HD
ENDBRANCH   3  24
BRANCH   5  26
ATOM     26  O   UNL     1       0.036 -41.548 -33.202  1.00  0.00    -0.454 OA
BRANCH  26  27
ATOM     27  C   UNL     1       0.173 -42.095 -34.485  1.00  0.00     0.214 A 
ATOM     28  C   UNL     1      -0.934 -42.219 -35.346  1.00  0.00     0.180 A 
ATOM     29  C   UNL     1       1.426 -42.538 -34.923  1.00  0.00     0.239 A 
ATOM     30  O   UNL     1      -0.766 -42.700 -36.572  1.00  0.00    -0.452 OA
ATOM     31  C   UNL     1       1.582 -43.010 -36.251  1.00  0.00     0.111 A 
ATOM     32  O   UNL     1       2.386 -42.511 -34.105  1.00  0.00    -0.285 OA
ATOM     33  C   UNL     1       0.409 -43.098 -37.045  1.00  0.00     0.146 A 
ATOM     34  C   UNL     1       2.821 -43.429 -36.823  1.00  0.00     0.134 A 
ATOM     35  C   UNL     1       0.463 -43.616 -38.340  1.00  0.00     0.094 A 
ATOM     36  C   UNL     1       2.838 -43.977 -38.112  1.00  0.00     0.093 A 
ATOM     37  C   UNL     1       1.668 -44.065 -38.871  1.00  0.00     0.123 A 
BRANCH  28  38
ATOM     38  C   UNL     1      -2.300 -41.859 -34.921  1.00  0.00     0.025 A 
ATOM     39  C   UNL     1      -3.100 -42.807 -34.270  1.00  0.00     0.062 A 
ATOM     40  C   UNL     1      -2.800 -40.564 -35.130  1.00  0.00     0.016 A 
ATOM     41  C   UNL     1      -4.406 -42.484 -33.870  1.00  0.00     0.158 A 
ATOM     42  C   UNL     1      -4.098 -40.239 -34.730  1.00  0.00     0.051 A 
ATOM     43  C   UNL     1      -4.906 -41.191 -34.102  1.00  0.00     0.157 A 
BRANCH  41  44
ATOM     44  O   UNL     1      -5.202 -43.440 -33.242  1.00  0.00    -0.504 OA
ATOM     45  H   UNL     1      -6.209 -43.448 -33.355  1.00  0.00     0.293 HD
ENDBRANCH  41  44
BRANCH  43  46
ATOM     46  O   UNL     1      -6.201 -40.838 -33.724  1.00  0.00    -0.504 OA
ATOM     47  H   UNL     1      -6.454 -40.690 -32.754  1.00  0.00     0.293 HD
ENDBRANCH  43  46
ENDBRANCH  28  38
BRANCH  34  48
ATOM     48  O   UNL     1       4.057 -43.296 -36.183  1.00  0.00    -0.507 OA
ATOM     49  H   UNL     1       4.334 -42.513 -35.612  1.00  0.00     0.293 HD
ENDBRANCH  34  48
BRANCH  37  50
ATOM     50  O   UNL     1       1.694 -44.591 -40.160  1.00  0.00    -0.508 OA
ATOM     51  H   UNL     1       1.246 -44.111 -40.934  1.00  0.00     0.293 HD
ENDBRANCH  37  50
ENDBRANCH  26  27
ENDBRANCH   5  26
BRANCH   4  52
ATOM     52  O   UNL     1      -1.883 -43.221 -30.570  1.00  0.00    -0.384 OA
ATOM     53  H   UNL     1      -2.094 -42.836 -29.683  1.00  0.00     0.211 HD
ENDBRANCH   4  52
TORSDOF 16
ENDMDL
