MODEL 1
REMARK VINA RESULT:    -4.431      0.000      0.000
REMARK INTER + INTRA:          -6.361
REMARK INTER:                  -6.762
REMARK INTRA:                   0.401
REMARK UNBOUND:                 0.401
REMARK SMILES CC1=CCC[C@H](C)C(=O)C[C@@H](C(C)C)C(=O)C1
REMARK SMILES IDX 8 1 9 2 6 3 7 4 5 5 4 6 3 7 2 8 1 9 10 11 11 12 15 13 16 14
REMARK SMILES IDX 17 15 12 17 13 18 14 19
REMARK H PARENT
REMARK Flexibility Score: 70.00
ROOT
ATOM      1  C   UNL     1     -10.914 -17.065  28.303  1.00  0.00     0.136 C 
ATOM      2  O   UNL     1     -10.112 -17.969  28.496  1.00  0.00    -0.299 OA
ENDROOT
BRANCH   1   3
ATOM      3  C   UNL     1     -11.913 -17.169  27.169  1.00  0.00     0.053 C 
ATOM      4  C   UNL     1     -11.191 -16.930  25.838  1.00  0.00     0.016 C 
BRANCH   3   5
ATOM      5  C   UNL     1     -12.650 -18.529  27.141  1.00  0.00     0.015 C 
BRANCH   5   6
ATOM      6  C   UNL     1     -13.611 -18.739  28.325  1.00  0.00     0.028 C 
BRANCH   6   7
ATOM      7  C   UNL     1     -13.069 -19.756  29.303  1.00  0.00    -0.028 C 
ATOM      8  C   UNL     1     -12.752 -19.511  30.594  1.00  0.00    -0.070 CG0
ATOM      9  C   UNL     1     -12.229 -20.656  31.424  1.00  0.00     0.039 C 
ATOM     10  G   UNL     1     -12.895 -18.144  31.237  1.00  0.00     0.000 G0
ENDBRANCH   6   7
ENDBRANCH   5   6
ENDBRANCH   3   5
ENDBRANCH   1   3
BRANCH   1  11
ATOM     11  C   UNL     1     -10.847 -15.825  29.161  1.00  0.00     0.087 C 
BRANCH  11  12
ATOM     12  C   UNL     1     -11.807 -15.907  30.368  1.00  0.00     0.066 C 
BRANCH  12  13
ATOM     13  C   UNL     1     -11.689 -17.257  31.060  1.00  0.00     0.140 C 
ATOM     14  O   UNL     1     -10.597 -17.646  31.449  1.00  0.00    -0.299 OA
BRANCH  13  15
ATOM     15  C   UNL     1     -12.891 -18.146  31.263  1.00  0.00     0.106 CG0
ATOM     16  G   UNL     1     -12.724 -19.503  30.604  1.00  0.00     0.000 G0
ENDBRANCH  13  15
ENDBRANCH  12  13
BRANCH  12  17
ATOM     17  C   UNL     1     -13.275 -15.550  29.979  1.00  0.00    -0.006 C 
ATOM     18  C   UNL     1     -13.317 -14.606  28.768  1.00  0.00     0.008 C 
ATOM     19  C   UNL     1     -14.111 -14.966  31.130  1.00  0.00     0.008 C 
ENDBRANCH  12  17
ENDBRANCH  11  12
ENDBRANCH   1  11
TORSDOF 1
ENDMDL
MODEL 2
REMARK VINA RESULT:    -4.090      1.902      4.503
REMARK INTER + INTRA:          -5.841
REMARK INTER:                  -5.892
REMARK INTRA:                   0.051
REMARK UNBOUND:                 0.401
REMARK SMILES CC1=CCC[C@H](C)C(=O)C[C@@H](C(C)C)C(=O)C1
REMARK SMILES IDX 8 1 9 2 6 3 7 4 5 5 4 6 3 7 2 8 1 9 10 11 11 12 15 13 16 14
REMARK SMILES IDX 17 15 12 17 13 18 14 19
REMARK H PARENT
REMARK Flexibility Score: 70.00
ROOT
ATOM      1  C   UNL     1     -12.914 -16.213  30.734  1.00  0.00     0.136 C 
ATOM      2  O   UNL     1     -11.869 -15.756  31.177  1.00  0.00    -0.299 OA
ENDROOT
BRANCH   1   3
ATOM      3  C   UNL     1     -14.001 -15.278  30.245  1.00  0.00     0.053 C 
ATOM      4  C   UNL     1     -14.343 -14.278  31.355  1.00  0.00     0.016 C 
BRANCH   3   5
ATOM      5  C   UNL     1     -13.609 -14.526  28.951  1.00  0.00     0.015 C 
BRANCH   5   6
ATOM      6  C   UNL     1     -13.982 -15.276  27.660  1.00  0.00     0.028 C 
BRANCH   6   7
ATOM      7  C   UNL     1     -12.774 -15.932  27.031  1.00  0.00    -0.028 C 
ATOM      8  C   UNL     1     -12.546 -17.262  26.971  1.00  0.00    -0.070 CG0
ATOM      9  C   UNL     1     -11.282 -17.734  26.296  1.00  0.00     0.039 C 
ATOM     10  G   UNL     1     -13.496 -18.293  27.553  1.00  0.00     0.000 G0
ENDBRANCH   6   7
ENDBRANCH   5   6
ENDBRANCH   3   5
ENDBRANCH   1   3
BRANCH   1  11
ATOM     11  C   UNL     1     -13.129 -17.707  30.746  1.00  0.00     0.087 C 
BRANCH  11  12
ATOM     12  C   UNL     1     -12.133 -18.441  29.822  1.00  0.00     0.066 C 
BRANCH  12  13
ATOM     13  C   UNL     1     -12.863 -19.108  28.666  1.00  0.00     0.140 C 
ATOM     14  O   UNL     1     -12.934 -20.327  28.615  1.00  0.00    -0.299 OA
BRANCH  13  15
ATOM     15  C   UNL     1     -13.491 -18.298  27.558  1.00  0.00     0.106 CG0
ATOM     16  G   UNL     1     -12.538 -17.266  26.984  1.00  0.00     0.000 G0
ENDBRANCH  13  15
ENDBRANCH  12  13
BRANCH  12  17
ATOM     17  C   UNL     1     -11.214 -19.425  30.610  1.00  0.00    -0.006 C 
ATOM     18  C   UNL     1     -12.006 -20.192  31.679  1.00  0.00     0.008 C 
ATOM     19  C   UNL     1      -9.977 -18.766  31.243  1.00  0.00     0.008 C 
ENDBRANCH  12  17
ENDBRANCH  11  12
ENDBRANCH   1  11
TORSDOF 1
ENDMDL
MODEL 3
REMARK VINA RESULT:    -4.089      1.767      3.569
REMARK INTER + INTRA:          -5.840
REMARK INTER:                  -6.201
REMARK INTRA:                   0.361
REMARK UNBOUND:                 0.401
REMARK SMILES CC1=CCC[C@H](C)C(=O)C[C@@H](C(C)C)C(=O)C1
REMARK SMILES IDX 8 1 9 2 6 3 7 4 5 5 4 6 3 7 2 8 1 9 10 11 11 12 15 13 16 14
REMARK SMILES IDX 17 15 12 17 13 18 14 19
REMARK H PARENT
REMARK Flexibility Score: 70.00
ROOT
ATOM      1  C   UNL     1     -11.194 -18.229  30.644  1.00  0.00     0.136 C 
ATOM      2  O   UNL     1     -10.195 -18.252  29.938  1.00  0.00    -0.299 OA
ENDROOT
BRANCH   1   3
ATOM      3  C   UNL     1     -11.985 -19.500  30.876  1.00  0.00     0.053 C 
ATOM      4  C   UNL     1     -13.121 -19.214  31.864  1.00  0.00     0.016 C 
BRANCH   3   5
ATOM      5  C   UNL     1     -12.553 -20.101  29.568  1.00  0.00     0.015 C 
BRANCH   5   6
ATOM      6  C   UNL     1     -13.275 -19.077  28.675  1.00  0.00     0.028 C 
BRANCH   6   7
ATOM      7  C   UNL     1     -12.414 -18.657  27.506  1.00  0.00    -0.028 C 
ATOM      8  C   UNL     1     -12.239 -17.388  27.076  1.00  0.00    -0.070 CG0
ATOM      9  C   UNL     1     -11.334 -17.160  25.891  1.00  0.00     0.039 C 
ATOM     10  G   UNL     1     -12.911 -16.193  27.727  1.00  0.00     0.000 G0
ENDBRANCH   6   7
ENDBRANCH   5   6
ENDBRANCH   3   5
ENDBRANCH   1   3
BRANCH   1  11
ATOM     11  C   UNL     1     -11.661 -16.914  31.219  1.00  0.00     0.087 C 
BRANCH  11  12
ATOM     12  C   UNL     1     -12.785 -16.280  30.370  1.00  0.00     0.066 C 
BRANCH  12  13
ATOM     13  C   UNL     1     -12.242 -15.799  29.032  1.00  0.00     0.140 C 
ATOM     14  O   UNL     1     -11.256 -15.078  29.000  1.00  0.00    -0.299 OA
BRANCH  13  15
ATOM     15  C   UNL     1     -12.906 -16.178  27.731  1.00  0.00     0.106 CG0
ATOM     16  G   UNL     1     -12.249 -17.379  27.075  1.00  0.00     0.000 G0
ENDBRANCH  13  15
ENDBRANCH  12  13
BRANCH  12  17
ATOM     17  C   UNL     1     -13.555 -15.168  31.148  1.00  0.00    -0.006 C 
ATOM     18  C   UNL     1     -14.424 -15.769  32.262  1.00  0.00     0.008 C 
ATOM     19  C   UNL     1     -14.405 -14.246  30.257  1.00  0.00     0.008 C 
ENDBRANCH  12  17
ENDBRANCH  11  12
ENDBRANCH   1  11
TORSDOF 1
ENDMDL
MODEL 4
REMARK VINA RESULT:    -3.554      1.622      2.385
REMARK INTER + INTRA:          -5.022
REMARK INTER:                  -5.689
REMARK INTRA:                   0.667
REMARK UNBOUND:                 0.401
REMARK SMILES CC1=CCC[C@H](C)C(=O)C[C@@H](C(C)C)C(=O)C1
REMARK SMILES IDX 8 1 9 2 6 3 7 4 5 5 4 6 3 7 2 8 1 9 10 11 11 12 15 13 16 14
REMARK SMILES IDX 17 15 12 17 13 18 14 19
REMARK H PARENT
REMARK Flexibility Score: 70.00
ROOT
ATOM      1  C   UNL     1     -12.832 -15.882  28.780  1.00  0.00     0.136 C 
ATOM      2  O   UNL     1     -13.165 -14.708  28.697  1.00  0.00    -0.299 OA
ENDROOT
BRANCH   1   3
ATOM      3  C   UNL     1     -12.984 -16.797  27.582  1.00  0.00     0.053 C 
ATOM      4  C   UNL     1     -11.596 -17.216  27.088  1.00  0.00     0.016 C 
BRANCH   3   5
ATOM      5  C   UNL     1     -13.843 -18.048  27.887  1.00  0.00     0.015 C 
BRANCH   5   6
ATOM      6  C   UNL     1     -13.027 -19.347  28.008  1.00  0.00     0.028 C 
BRANCH   6   7
ATOM      7  C   UNL     1     -13.187 -19.976  29.373  1.00  0.00    -0.028 C 
ATOM      8  C   UNL     1     -12.229 -20.040  30.324  1.00  0.00    -0.070 CG0
ATOM      9  C   UNL     1     -12.574 -20.704  31.634  1.00  0.00     0.039 C 
ATOM     10  G   UNL     1     -10.831 -19.481  30.131  1.00  0.00     0.000 G0
ENDBRANCH   6   7
ENDBRANCH   5   6
ENDBRANCH   3   5
ENDBRANCH   1   3
BRANCH   1  11
ATOM     11  C   UNL     1     -12.337 -16.417  30.102  1.00  0.00     0.087 C 
BRANCH  11  12
ATOM     12  C   UNL     1     -10.854 -16.844  30.032  1.00  0.00     0.066 C 
BRANCH  12  13
ATOM     13  C   UNL     1     -10.630 -18.139  30.799  1.00  0.00     0.140 C 
ATOM     14  O   UNL     1     -10.270 -18.099  31.966  1.00  0.00    -0.299 OA
BRANCH  13  15
ATOM     15  C   UNL     1     -10.824 -19.485  30.146  1.00  0.00     0.106 CG0
ATOM     16  G   UNL     1     -12.235 -20.015  30.321  1.00  0.00     0.000 G0
ENDBRANCH  13  15
ENDBRANCH  12  13
BRANCH  12  17
ATOM     17  C   UNL     1      -9.891 -15.700  30.476  1.00  0.00    -0.006 C 
ATOM     18  C   UNL     1     -10.179 -15.257  31.918  1.00  0.00     0.008 C 
ATOM     19  C   UNL     1      -9.886 -14.478  29.541  1.00  0.00     0.008 C 
ENDBRANCH  12  17
ENDBRANCH  11  12
ENDBRANCH   1  11
TORSDOF 1
ENDMDL
MODEL 5
REMARK VINA RESULT:    -3.533      1.710      3.444
REMARK INTER + INTRA:          -4.991
REMARK INTER:                  -6.235
REMARK INTRA:                   1.244
REMARK UNBOUND:                 0.401
REMARK SMILES CC1=CCC[C@H](C)C(=O)C[C@@H](C(C)C)C(=O)C1
REMARK SMILES IDX 8 1 9 2 6 3 7 4 5 5 4 6 3 7 2 8 1 9 10 11 11 12 15 13 16 14
REMARK SMILES IDX 17 15 12 17 13 18 14 19
REMARK H PARENT
REMARK Flexibility Score: 70.00
ROOT
ATOM      1  C   UNL     1     -10.699 -15.898  29.449  1.00  0.00     0.136 C 
ATOM      2  O   UNL     1     -10.134 -14.956  28.909  1.00  0.00    -0.299 OA
ENDROOT
BRANCH   1   3
ATOM      3  C   UNL     1     -11.081 -15.811  30.913  1.00  0.00     0.053 C 
ATOM      4  C   UNL     1     -12.533 -16.269  31.083  1.00  0.00     0.016 C 
BRANCH   3   5
ATOM      5  C   UNL     1     -10.148 -16.640  31.827  1.00  0.00     0.015 C 
BRANCH   5   6
ATOM      6  C   UNL     1      -9.907 -18.077  31.330  1.00  0.00     0.028 C 
BRANCH   6   7
ATOM      7  C   UNL     1     -10.973 -19.023  31.833  1.00  0.00    -0.028 C 
ATOM      8  C   UNL     1     -11.788 -19.771  31.057  1.00  0.00    -0.070 CG0
ATOM      9  C   UNL     1     -12.792 -20.666  31.740  1.00  0.00     0.039 C 
ATOM     10  G   UNL     1     -11.740 -19.745  29.540  1.00  0.00     0.000 G0
ENDBRANCH   6   7
ENDBRANCH   5   6
ENDBRANCH   3   5
ENDBRANCH   1   3
BRANCH   1  11
ATOM     11  C   UNL     1     -10.944 -17.161  28.662  1.00  0.00     0.087 C 
BRANCH  11  12
ATOM     12  C   UNL     1     -12.452 -17.451  28.491  1.00  0.00     0.066 C 
BRANCH  12  13
ATOM     13  C   UNL     1     -12.778 -18.875  28.918  1.00  0.00     0.140 C 
ATOM     14  O   UNL     1     -13.912 -19.308  28.775  1.00  0.00    -0.299 OA
BRANCH  13  15
ATOM     15  C   UNL     1     -11.733 -19.770  29.539  1.00  0.00     0.106 CG0
ATOM     16  G   UNL     1     -11.802 -19.773  31.055  1.00  0.00     0.000 G0
ENDBRANCH  13  15
ENDBRANCH  12  13
BRANCH  12  17
ATOM     17  C   UNL     1     -12.956 -17.118  27.053  1.00  0.00    -0.006 C 
ATOM     18  C   UNL     1     -11.836 -17.287  26.016  1.00  0.00     0.008 C 
ATOM     19  C   UNL     1     -13.595 -15.726  26.914  1.00  0.00     0.008 C 
ENDBRANCH  12  17
ENDBRANCH  11  12
ENDBRANCH   1  11
TORSDOF 1
ENDMDL
MODEL 6
REMARK VINA RESULT:    -3.418      1.438      3.615
REMARK INTER + INTRA:          -4.815
REMARK INTER:                  -5.425
REMARK INTRA:                   0.610
REMARK UNBOUND:                 0.401
REMARK SMILES CC1=CCC[C@H](C)C(=O)C[C@@H](C(C)C)C(=O)C1
REMARK SMILES IDX 8 1 9 2 6 3 7 4 5 5 4 6 3 7 2 8 1 9 10 11 11 12 15 13 16 14
REMARK SMILES IDX 17 15 12 17 13 18 14 19
REMARK H PARENT
REMARK Flexibility Score: 70.00
ROOT
ATOM      1  C   UNL     1     -10.861 -17.204  28.465  1.00  0.00     0.136 C 
ATOM      2  O   UNL     1      -9.916 -16.638  28.998  1.00  0.00    -0.299 OA
ENDROOT
BRANCH   1   3
ATOM      3  C   UNL     1     -11.584 -16.543  27.310  1.00  0.00     0.053 C 
ATOM      4  C   UNL     1     -11.755 -17.557  26.174  1.00  0.00     0.016 C 
BRANCH   3   5
ATOM      5  C   UNL     1     -12.959 -15.960  27.717  1.00  0.00     0.015 C 
BRANCH   5   6
ATOM      6  C   UNL     1     -12.864 -14.703  28.600  1.00  0.00     0.028 C 
BRANCH   6   7
ATOM      7  C   UNL     1     -13.825 -14.770  29.764  1.00  0.00    -0.028 C 
ATOM      8  C   UNL     1     -13.628 -15.467  30.905  1.00  0.00    -0.070 CG0
ATOM      9  C   UNL     1     -14.700 -15.410  31.964  1.00  0.00     0.039 C 
ATOM     10  G   UNL     1     -12.385 -16.300  31.162  1.00  0.00     0.000 G0
ENDBRANCH   6   7
ENDBRANCH   5   6
ENDBRANCH   3   5
ENDBRANCH   1   3
BRANCH   1  11
ATOM     11  C   UNL     1     -11.334 -18.527  29.015  1.00  0.00     0.087 C 
BRANCH  11  12
ATOM     12  C   UNL     1     -12.746 -18.424  29.633  1.00  0.00     0.066 C 
BRANCH  12  13
ATOM     13  C   UNL     1     -12.684 -17.785  31.012  1.00  0.00     0.140 C 
ATOM     14  O   UNL     1     -12.880 -18.467  32.007  1.00  0.00    -0.299 OA
BRANCH  13  15
ATOM     15  C   UNL     1     -12.405 -16.312  31.187  1.00  0.00     0.106 CG0
ATOM     16  G   UNL     1     -13.630 -15.456  30.921  1.00  0.00     0.000 G0
ENDBRANCH  13  15
ENDBRANCH  12  13
BRANCH  12  17
ATOM     17  C   UNL     1     -13.492 -19.794  29.630  1.00  0.00    -0.006 C 
ATOM     18  C   UNL     1     -12.641 -20.893  30.284  1.00  0.00     0.008 C 
ATOM     19  C   UNL     1     -13.966 -20.253  28.241  1.00  0.00     0.008 C 
ENDBRANCH  12  17
ENDBRANCH  11  12
ENDBRANCH   1  11
TORSDOF 1
ENDMDL
MODEL 7
REMARK VINA RESULT:    -3.367      1.832      3.455
REMARK INTER + INTRA:          -4.737
REMARK INTER:                  -6.213
REMARK INTRA:                   1.475
REMARK UNBOUND:                 0.401
REMARK SMILES CC1=CCC[C@H](C)C(=O)C[C@@H](C(C)C)C(=O)C1
REMARK SMILES IDX 8 1 9 2 6 3 7 4 5 5 4 6 3 7 2 8 1 9 10 11 11 12 15 13 16 14
REMARK SMILES IDX 17 15 12 17 13 18 14 19
REMARK H PARENT
REMARK Flexibility Score: 70.00
ROOT
ATOM      1  C   UNL     1     -13.302 -15.408  30.539  1.00  0.00     0.136 C 
ATOM      2  O   UNL     1     -13.992 -14.480  30.940  1.00  0.00    -0.299 OA
ENDROOT
BRANCH   1   3
ATOM      3  C   UNL     1     -13.214 -15.698  29.054  1.00  0.00     0.053 C 
ATOM      4  C   UNL     1     -13.947 -14.597  28.281  1.00  0.00     0.016 C 
BRANCH   3   5
ATOM      5  C   UNL     1     -11.756 -15.824  28.553  1.00  0.00     0.015 C 
BRANCH   5   6
ATOM      6  C   UNL     1     -11.559 -16.913  27.483  1.00  0.00     0.028 C 
BRANCH   6   7
ATOM      7  C   UNL     1     -12.676 -17.930  27.516  1.00  0.00    -0.028 C 
ATOM      8  C   UNL     1     -12.752 -18.985  28.356  1.00  0.00    -0.070 CG0
ATOM      9  C   UNL     1     -13.950 -19.894  28.246  1.00  0.00     0.039 C 
ATOM     10  G   UNL     1     -11.689 -19.294  29.395  1.00  0.00     0.000 G0
ENDBRANCH   6   7
ENDBRANCH   5   6
ENDBRANCH   3   5
ENDBRANCH   1   3
BRANCH   1  11
ATOM     11  C   UNL     1     -12.602 -16.293  31.541  1.00  0.00     0.087 C 
BRANCH  11  12
ATOM     12  C   UNL     1     -11.485 -17.135  30.885  1.00  0.00     0.066 C 
BRANCH  12  13
ATOM     13  C   UNL     1     -11.935 -18.577  30.704  1.00  0.00     0.140 C 
ATOM     14  O   UNL     1     -12.487 -19.162  31.625  1.00  0.00    -0.299 OA
BRANCH  13  15
ATOM     15  C   UNL     1     -11.698 -19.321  29.412  1.00  0.00     0.106 CG0
ATOM     16  G   UNL     1     -12.743 -18.997  28.360  1.00  0.00     0.000 G0
ENDBRANCH  13  15
ENDBRANCH  12  13
BRANCH  12  17
ATOM     17  C   UNL     1     -10.130 -17.012  31.647  1.00  0.00    -0.006 C 
ATOM     18  C   UNL     1      -9.875 -18.240  32.533  1.00  0.00     0.008 C 
ATOM     19  C   UNL     1      -9.987 -15.725  32.478  1.00  0.00     0.008 C 
ENDBRANCH  12  17
ENDBRANCH  11  12
ENDBRANCH   1  11
TORSDOF 1
ENDMDL
MODEL 8
REMARK VINA RESULT:    -3.307      1.762      3.564
REMARK INTER + INTRA:          -4.646
REMARK INTER:                  -6.049
REMARK INTRA:                   1.402
REMARK UNBOUND:                 0.401
REMARK SMILES CC1=CCC[C@H](C)C(=O)C[C@@H](C(C)C)C(=O)C1
REMARK SMILES IDX 8 1 9 2 6 3 7 4 5 5 4 6 3 7 2 8 1 9 10 11 11 12 15 13 16 14
REMARK SMILES IDX 17 15 12 17 13 18 14 19
REMARK H PARENT
REMARK Flexibility Score: 70.00
ROOT
ATOM      1  C   UNL     1     -11.558 -17.547  27.291  1.00  0.00     0.136 C 
ATOM      2  O   UNL     1     -10.475 -17.536  26.722  1.00  0.00    -0.299 OA
ENDROOT
BRANCH   1   3
ATOM      3  C   UNL     1     -12.392 -16.284  27.352  1.00  0.00     0.053 C 
ATOM      4  C   UNL     1     -13.878 -16.659  27.322  1.00  0.00     0.016 C 
BRANCH   3   5
ATOM      5  C   UNL     1     -12.084 -15.421  28.599  1.00  0.00     0.015 C 
BRANCH   5   6
ATOM      6  C   UNL     1     -12.759 -15.926  29.887  1.00  0.00     0.028 C 
BRANCH   6   7
ATOM      7  C   UNL     1     -11.862 -15.745  31.089  1.00  0.00    -0.028 C 
ATOM      8  C   UNL     1     -10.628 -16.277  31.236  1.00  0.00    -0.070 CG0
ATOM      9  C   UNL     1      -9.875 -15.981  32.509  1.00  0.00     0.039 C 
ATOM     10  G   UNL     1      -9.976 -17.157  30.185  1.00  0.00     0.000 G0
ENDBRANCH   6   7
ENDBRANCH   5   6
ENDBRANCH   3   5
ENDBRANCH   1   3
BRANCH   1  11
ATOM     11  C   UNL     1     -12.014 -18.808  27.983  1.00  0.00     0.087 C 
BRANCH  11  12
ATOM     12  C   UNL     1     -12.007 -18.656  29.521  1.00  0.00     0.066 C 
BRANCH  12  13
ATOM     13  C   UNL     1     -10.585 -18.504  30.040  1.00  0.00     0.140 C 
ATOM     14  O   UNL     1      -9.946 -19.496  30.361  1.00  0.00    -0.299 OA
BRANCH  13  15
ATOM     15  C   UNL     1      -9.941 -17.148  30.189  1.00  0.00     0.106 CG0
ATOM     16  G   UNL     1     -10.632 -16.291  31.234  1.00  0.00     0.000 G0
ENDBRANCH  13  15
ENDBRANCH  12  13
BRANCH  12  17
ATOM     17  C   UNL     1     -12.793 -19.802  30.229  1.00  0.00    -0.006 C 
ATOM     18  C   UNL     1     -13.995 -20.256  29.388  1.00  0.00     0.008 C 
ATOM     19  C   UNL     1     -13.250 -19.466  31.659  1.00  0.00     0.008 C 
ENDBRANCH  12  17
ENDBRANCH  11  12
ENDBRANCH   1  11
TORSDOF 1
ENDMDL
MODEL 9
REMARK VINA RESULT:    -3.292      1.356      3.312
REMARK INTER + INTRA:          -4.622
REMARK INTER:                  -5.349
REMARK INTRA:                   0.726
REMARK UNBOUND:                 0.401
REMARK SMILES CC1=CCC[C@H](C)C(=O)C[C@@H](C(C)C)C(=O)C1
REMARK SMILES IDX 8 1 9 2 6 3 7 4 5 5 4 6 3 7 2 8 1 9 10 11 11 12 15 13 16 14
REMARK SMILES IDX 17 15 12 17 13 18 14 19
REMARK H PARENT
REMARK Flexibility Score: 70.00
ROOT
ATOM      1  C   UNL     1     -10.497 -15.698  29.628  1.00  0.00     0.136 C 
ATOM      2  O   UNL     1      -9.875 -14.646  29.690  1.00  0.00    -0.299 OA
ENDROOT
BRANCH   1   3
ATOM      3  C   UNL     1     -11.148 -16.266  30.872  1.00  0.00     0.053 C 
ATOM      4  C   UNL     1     -10.302 -15.900  32.096  1.00  0.00     0.016 C 
BRANCH   3   5
ATOM      5  C   UNL     1     -12.604 -15.778  31.063  1.00  0.00     0.015 C 
BRANCH   5   6
ATOM      6  C   UNL     1     -13.658 -16.888  30.898  1.00  0.00     0.028 C 
BRANCH   6   7
ATOM      7  C   UNL     1     -13.240 -18.158  31.604  1.00  0.00    -0.028 C 
ATOM      8  C   UNL     1     -12.839 -19.297  30.997  1.00  0.00    -0.070 CG0
ATOM      9  C   UNL     1     -12.453 -20.466  31.869  1.00  0.00     0.039 C 
ATOM     10  G   UNL     1     -12.766 -19.450  29.489  1.00  0.00     0.000 G0
ENDBRANCH   6   7
ENDBRANCH   5   6
ENDBRANCH   3   5
ENDBRANCH   1   3
BRANCH   1  11
ATOM     11  C   UNL     1     -10.546 -16.449  28.320  1.00  0.00     0.087 C 
BRANCH  11  12
ATOM     12  C   UNL     1     -11.804 -17.340  28.214  1.00  0.00     0.066 C 
BRANCH  12  13
ATOM     13  C   UNL     1     -11.585 -18.668  28.924  1.00  0.00     0.140 C 
ATOM     14  O   UNL     1     -10.456 -19.124  29.024  1.00  0.00    -0.299 OA
BRANCH  13  15
ATOM     15  C   UNL     1     -12.738 -19.453  29.499  1.00  0.00     0.106 CG0
ATOM     16  G   UNL     1     -12.842 -19.308  31.006  1.00  0.00     0.000 G0
ENDBRANCH  13  15
ENDBRANCH  12  13
BRANCH  12  17
ATOM     17  C   UNL     1     -12.281 -17.512  26.738  1.00  0.00    -0.006 C 
ATOM     18  C   UNL     1     -11.131 -17.268  25.749  1.00  0.00     0.008 C 
ATOM     19  C   UNL     1     -13.493 -16.645  26.360  1.00  0.00     0.008 C 
ENDBRANCH  12  17
ENDBRANCH  11  12
ENDBRANCH   1  11
TORSDOF 1
ENDMDL
