MODEL 1
REMARK VINA RESULT:    -3.333      0.000      0.000
REMARK INTER + INTRA:          -4.953
REMARK INTER:                  -4.502
REMARK INTRA:                  -0.451
REMARK UNBOUND:                -0.451
REMARK SMILES CCCCCCCC(=O)[O-]
REMARK SMILES IDX 5 1 6 2 7 3 8 4 9 5 10 6 4 7 3 8 2 9 1 10
REMARK H PARENT
REMARK Flexibility Score: inf
ROOT
ATOM      1  C   UNL     1       2.469   5.935  17.021  1.00  0.00     0.000 C 
ENDROOT
BRANCH   1   2
ATOM      2  C   UNL     1       1.891   6.368  18.376  1.00  0.00     0.006 C 
BRANCH   2   3
ATOM      3  C   UNL     1       2.856   7.269  19.159  1.00  0.00     0.053 C 
BRANCH   3   4
ATOM      4  C   UNL     1       2.169   8.490  19.691  1.00  0.00     0.041 C 
ATOM      5  O   UNL     1       1.875   8.567  20.914  1.00  0.00    -0.550 OA
ATOM      6  O   UNL     1       1.883   9.553  18.845  1.00  0.00    -0.550 OA
ENDBRANCH   3   4
ENDBRANCH   2   3
ENDBRANCH   1   2
BRANCH   1   7
ATOM      7  C   UNL     1       3.901   6.458  16.842  1.00  0.00     0.000 C 
BRANCH   7   8
ATOM      8  C   UNL     1       4.203   6.876  15.395  1.00  0.00    -0.000 C 
BRANCH   8   9
ATOM      9  C   UNL     1       4.865   8.259  15.304  1.00  0.00    -0.003 C 
ATOM     10  C   UNL     1       4.353   9.186  16.402  1.00  0.00     0.004 C 
ENDBRANCH   8   9
ENDBRANCH   7   8
ENDBRANCH   1   7
TORSDOF 6
ENDMDL
MODEL 2
REMARK VINA RESULT:    -3.075     17.963     19.376
REMARK INTER + INTRA:          -4.605
REMARK INTER:                  -4.158
REMARK INTRA:                  -0.447
REMARK UNBOUND:                -0.451
REMARK SMILES CCCCCCCC(=O)[O-]
REMARK SMILES IDX 5 1 6 2 7 3 8 4 9 5 10 6 4 7 3 8 2 9 1 10
REMARK H PARENT
REMARK Flexibility Score: inf
ROOT
ATOM      1  C   UNL     1       6.443  -7.243   5.849  1.00  0.00     0.000 C 
ENDROOT
BRANCH   1   2
ATOM      2  C   UNL     1       5.331  -6.204   6.058  1.00  0.00     0.006 C 
BRANCH   2   3
ATOM      3  C   UNL     1       4.520  -5.955   4.779  1.00  0.00     0.053 C 
BRANCH   3   4
ATOM      4  C   UNL     1       4.324  -4.492   4.521  1.00  0.00     0.041 C 
ATOM      5  O   UNL     1       3.810  -3.757   5.405  1.00  0.00    -0.550 OA
ATOM      6  O   UNL     1       4.739  -3.935   3.318  1.00  0.00    -0.550 OA
ENDBRANCH   3   4
ENDBRANCH   2   3
ENDBRANCH   1   2
BRANCH   1   7
ATOM      7  C   UNL     1       5.939  -8.657   6.170  1.00  0.00     0.000 C 
BRANCH   7   8
ATOM      8  C   UNL     1       4.932  -8.678   7.331  1.00  0.00    -0.000 C 
BRANCH   8   9
ATOM      9  C   UNL     1       3.626  -9.399   6.969  1.00  0.00    -0.003 C 
ATOM     10  C   UNL     1       3.408  -9.417   5.459  1.00  0.00     0.004 C 
ENDBRANCH   8   9
ENDBRANCH   7   8
ENDBRANCH   1   7
TORSDOF 6
ENDMDL
MODEL 3
REMARK VINA RESULT:    -3.062      2.200      4.239
REMARK INTER + INTRA:          -4.586
REMARK INTER:                  -4.437
REMARK INTRA:                  -0.149
REMARK UNBOUND:                -0.451
REMARK SMILES CCCCCCCC(=O)[O-]
REMARK SMILES IDX 5 1 6 2 7 3 8 4 9 5 10 6 4 7 3 8 2 9 1 10
REMARK H PARENT
REMARK Flexibility Score: inf
ROOT
ATOM      1  C   UNL     1       2.611   5.908  17.446  1.00  0.00     0.000 C 
ENDROOT
BRANCH   1   2
ATOM      2  C   UNL     1       2.334   6.714  16.168  1.00  0.00     0.006 C 
BRANCH   2   3
ATOM      3  C   UNL     1       3.620   7.040  15.395  1.00  0.00     0.053 C 
BRANCH   3   4
ATOM      4  C   UNL     1       4.596   7.802  16.238  1.00  0.00     0.041 C 
ATOM      5  O   UNL     1       4.502   9.055  16.340  1.00  0.00    -0.550 OA
ATOM      6  O   UNL     1       5.589   7.127  16.936  1.00  0.00    -0.550 OA
ENDBRANCH   3   4
ENDBRANCH   2   3
ENDBRANCH   1   2
BRANCH   1   7
ATOM      7  C   UNL     1       1.956   6.572  18.665  1.00  0.00     0.000 C 
BRANCH   7   8
ATOM      8  C   UNL     1       2.623   7.904  19.044  1.00  0.00    -0.000 C 
BRANCH   8   9
ATOM      9  C   UNL     1       1.875   8.643  20.163  1.00  0.00    -0.003 C 
ATOM     10  C   UNL     1       1.957   7.876  21.479  1.00  0.00     0.004 C 
ENDBRANCH   8   9
ENDBRANCH   7   8
ENDBRANCH   1   7
TORSDOF 6
ENDMDL
MODEL 4
REMARK VINA RESULT:    -3.061      1.292      3.135
REMARK INTER + INTRA:          -4.585
REMARK INTER:                  -4.220
REMARK INTRA:                  -0.365
REMARK UNBOUND:                -0.451
REMARK SMILES CCCCCCCC(=O)[O-]
REMARK SMILES IDX 5 1 6 2 7 3 8 4 9 5 10 6 4 7 3 8 2 9 1 10
REMARK H PARENT
REMARK Flexibility Score: inf
ROOT
ATOM      1  C   UNL     1       4.546   8.260  16.308  1.00  0.00     0.000 C 
ENDROOT
BRANCH   1   2
ATOM      2  C   UNL     1       4.010   9.590  16.858  1.00  0.00     0.006 C 
BRANCH   2   3
ATOM      3  C   UNL     1       2.534   9.498  17.266  1.00  0.00     0.053 C 
BRANCH   3   4
ATOM      4  C   UNL     1       2.378   9.210  18.728  1.00  0.00     0.041 C 
ATOM      5  O   UNL     1       1.878  10.076  19.494  1.00  0.00    -0.550 OA
ATOM      6  O   UNL     1       2.754   7.974  19.238  1.00  0.00    -0.550 OA
ENDBRANCH   3   4
ENDBRANCH   2   3
ENDBRANCH   1   2
BRANCH   1   7
ATOM      7  C   UNL     1       3.405   7.398  15.749  1.00  0.00     0.000 C 
BRANCH   7   8
ATOM      8  C   UNL     1       3.308   6.027  16.436  1.00  0.00    -0.000 C 
BRANCH   8   9
ATOM      9  C   UNL     1       1.880   5.694  16.895  1.00  0.00    -0.003 C 
ATOM     10  C   UNL     1       1.875   4.517  17.865  1.00  0.00     0.004 C 
ENDBRANCH   8   9
ENDBRANCH   7   8
ENDBRANCH   1   7
TORSDOF 6
ENDMDL
MODEL 5
REMARK VINA RESULT:    -3.000     18.357     19.762
REMARK INTER + INTRA:          -4.502
REMARK INTER:                  -3.933
REMARK INTRA:                  -0.570
REMARK UNBOUND:                -0.451
REMARK SMILES CCCCCCCC(=O)[O-]
REMARK SMILES IDX 5 1 6 2 7 3 8 4 9 5 10 6 4 7 3 8 2 9 1 10
REMARK H PARENT
REMARK Flexibility Score: inf
ROOT
ATOM      1  C   UNL     1       6.082  -8.555   6.027  1.00  0.00     0.000 C 
ENDROOT
BRANCH   1   2
ATOM      2  C   UNL     1       6.459  -7.110   5.664  1.00  0.00     0.006 C 
BRANCH   2   3
ATOM      3  C   UNL     1       5.424  -6.095   6.165  1.00  0.00     0.053 C 
BRANCH   3   4
ATOM      4  C   UNL     1       4.764  -5.369   5.033  1.00  0.00     0.041 C 
ATOM      5  O   UNL     1       4.933  -5.758   3.847  1.00  0.00    -0.550 OA
ATOM      6  O   UNL     1       3.936  -4.284   5.291  1.00  0.00    -0.550 OA
ENDBRANCH   3   4
ENDBRANCH   2   3
ENDBRANCH   1   2
BRANCH   1   7
ATOM      7  C   UNL     1       4.926  -8.582   7.037  1.00  0.00     0.000 C 
BRANCH   7   8
ATOM      8  C   UNL     1       3.688  -9.318   6.501  1.00  0.00    -0.000 C 
BRANCH   8   9
ATOM      9  C   UNL     1       3.687  -9.437   4.970  1.00  0.00    -0.003 C 
ATOM     10  C   UNL     1       2.742  -8.419   4.340  1.00  0.00     0.004 C 
ENDBRANCH   8   9
ENDBRANCH   7   8
ENDBRANCH   1   7
TORSDOF 6
ENDMDL
MODEL 6
REMARK VINA RESULT:    -2.930     18.067     19.156
REMARK INTER + INTRA:          -4.408
REMARK INTER:                  -4.119
REMARK INTRA:                  -0.289
REMARK UNBOUND:                -0.451
REMARK SMILES CCCCCCCC(=O)[O-]
REMARK SMILES IDX 5 1 6 2 7 3 8 4 9 5 10 6 4 7 3 8 2 9 1 10
REMARK H PARENT
REMARK Flexibility Score: inf
ROOT
ATOM      1  C   UNL     1       5.292  -6.205   5.907  1.00  0.00     0.000 C 
ENDROOT
BRANCH   1   2
ATOM      2  C   UNL     1       4.568  -5.935   4.579  1.00  0.00     0.006 C 
BRANCH   2   3
ATOM      3  C   UNL     1       4.279  -4.443   4.367  1.00  0.00     0.053 C 
BRANCH   3   4
ATOM      4  C   UNL     1       2.823  -4.188   4.120  1.00  0.00     0.041 C 
ATOM      5  O   UNL     1       2.041  -5.151   3.900  1.00  0.00    -0.550 OA
ATOM      6  O   UNL     1       2.325  -2.892   4.168  1.00  0.00    -0.550 OA
ENDBRANCH   3   4
ENDBRANCH   2   3
ENDBRANCH   1   2
BRANCH   1   7
ATOM      7  C   UNL     1       6.356  -7.299   5.738  1.00  0.00     0.000 C 
BRANCH   7   8
ATOM      8  C   UNL     1       5.837  -8.694   6.123  1.00  0.00    -0.000 C 
BRANCH   8   9
ATOM      9  C   UNL     1       4.895  -8.661   7.335  1.00  0.00    -0.003 C 
ATOM     10  C   UNL     1       3.576  -9.362   7.026  1.00  0.00     0.004 C 
ENDBRANCH   8   9
ENDBRANCH   7   8
ENDBRANCH   1   7
TORSDOF 6
ENDMDL
MODEL 7
REMARK VINA RESULT:    -2.908     18.137     19.376
REMARK INTER + INTRA:          -4.379
REMARK INTER:                  -4.029
REMARK INTRA:                  -0.350
REMARK UNBOUND:                -0.451
REMARK SMILES CCCCCCCC(=O)[O-]
REMARK SMILES IDX 5 1 6 2 7 3 8 4 9 5 10 6 4 7 3 8 2 9 1 10
REMARK H PARENT
REMARK Flexibility Score: inf
ROOT
ATOM      1  C   UNL     1       6.337  -6.673   4.881  1.00  0.00     0.000 C 
ENDROOT
BRANCH   1   2
ATOM      2  C   UNL     1       5.705  -6.928   6.258  1.00  0.00     0.006 C 
BRANCH   2   3
ATOM      3  C   UNL     1       5.612  -8.424   6.588  1.00  0.00     0.053 C 
BRANCH   3   4
ATOM      4  C   UNL     1       4.222  -8.950   6.400  1.00  0.00     0.041 C 
ATOM      5  O   UNL     1       3.557  -9.350   7.392  1.00  0.00    -0.550 OA
ATOM      6  O   UNL     1       3.649  -8.966   5.135  1.00  0.00    -0.550 OA
ENDBRANCH   3   4
ENDBRANCH   2   3
ENDBRANCH   1   2
BRANCH   1   7
ATOM      7  C   UNL     1       5.543  -5.616   4.102  1.00  0.00     0.000 C 
BRANCH   7   8
ATOM      8  C   UNL     1       4.097  -5.472   4.602  1.00  0.00    -0.000 C 
BRANCH   8   9
ATOM      9  C   UNL     1       3.727  -4.020   4.936  1.00  0.00    -0.003 C 
ATOM     10  C   UNL     1       2.678  -3.482   3.968  1.00  0.00     0.004 C 
ENDBRANCH   8   9
ENDBRANCH   7   8
ENDBRANCH   1   7
TORSDOF 6
ENDMDL
MODEL 8
REMARK VINA RESULT:    -2.833      1.579      2.333
REMARK INTER + INTRA:          -4.277
REMARK INTER:                  -3.969
REMARK INTRA:                  -0.308
REMARK UNBOUND:                -0.451
REMARK SMILES CCCCCCCC(=O)[O-]
REMARK SMILES IDX 5 1 6 2 7 3 8 4 9 5 10 6 4 7 3 8 2 9 1 10
REMARK H PARENT
REMARK Flexibility Score: inf
ROOT
ATOM      1  C   UNL     1       2.504   8.729  18.066  1.00  0.00     0.000 C 
ENDROOT
BRANCH   1   2
ATOM      2  C   UNL     1       1.875   8.967  19.447  1.00  0.00     0.006 C 
BRANCH   2   3
ATOM      3  C   UNL     1       2.254   7.875  20.456  1.00  0.00     0.053 C 
BRANCH   3   4
ATOM      4  C   UNL     1       2.047   8.326  21.869  1.00  0.00     0.041 C 
ATOM      5  O   UNL     1       2.054   7.487  22.809  1.00  0.00    -0.550 OA
ATOM      6  O   UNL     1       1.881   9.676  22.152  1.00  0.00    -0.550 OA
ENDBRANCH   3   4
ENDBRANCH   2   3
ENDBRANCH   1   2
BRANCH   1   7
ATOM      7  C   UNL     1       1.958   7.443  17.430  1.00  0.00     0.000 C 
BRANCH   7   8
ATOM      8  C   UNL     1       3.046   6.630  16.711  1.00  0.00    -0.000 C 
BRANCH   8   9
ATOM      9  C   UNL     1       4.427   7.297  16.781  1.00  0.00    -0.003 C 
ATOM     10  C   UNL     1       4.867   7.796  15.408  1.00  0.00     0.004 C 
ENDBRANCH   8   9
ENDBRANCH   7   8
ENDBRANCH   1   7
TORSDOF 6
ENDMDL
MODEL 9
REMARK VINA RESULT:    -2.822     19.454     20.326
REMARK INTER + INTRA:          -4.262
REMARK INTER:                  -3.600
REMARK INTRA:                  -0.662
REMARK UNBOUND:                -0.451
REMARK SMILES CCCCCCCC(=O)[O-]
REMARK SMILES IDX 5 1 6 2 7 3 8 4 9 5 10 6 4 7 3 8 2 9 1 10
REMARK H PARENT
REMARK Flexibility Score: inf
ROOT
ATOM      1  C   UNL     1       5.574  -7.091   6.572  1.00  0.00     0.000 C 
ENDROOT
BRANCH   1   2
ATOM      2  C   UNL     1       5.335  -8.604   6.692  1.00  0.00     0.006 C 
BRANCH   2   3
ATOM      3  C   UNL     1       3.918  -9.005   6.260  1.00  0.00     0.053 C 
BRANCH   3   4
ATOM      4  C   UNL     1       3.881  -9.469   4.836  1.00  0.00     0.041 C 
ATOM      5  O   UNL     1       4.940  -9.838   4.263  1.00  0.00    -0.550 OA
ATOM      6  O   UNL     1       2.673  -9.525   4.154  1.00  0.00    -0.550 OA
ENDBRANCH   3   4
ENDBRANCH   2   3
ENDBRANCH   1   2
BRANCH   1   7
ATOM      7  C   UNL     1       6.439  -6.768   5.346  1.00  0.00     0.000 C 
BRANCH   7   8
ATOM      8  C   UNL     1       5.665  -6.006   4.259  1.00  0.00    -0.000 C 
BRANCH   8   9
ATOM      9  C   UNL     1       4.355  -5.398   4.781  1.00  0.00    -0.003 C 
ATOM     10  C   UNL     1       3.163  -5.866   3.953  1.00  0.00     0.004 C 
ENDBRANCH   8   9
ENDBRANCH   7   8
ENDBRANCH   1   7
TORSDOF 6
ENDMDL
