MODEL 1
REMARK VINA RESULT:    -4.803      0.000      0.000
REMARK INTER + INTRA:          -5.581
REMARK INTER:                  -5.505
REMARK INTRA:                  -0.076
REMARK UNBOUND:                -0.076
REMARK SMILES COc1cc(C(=O)[O-])ccc1O
REMARK SMILES IDX 5 1 9 2 4 3 10 4 3 5 11 6 6 7 7 8 8 9 2 10 1 11 12 12
REMARK H PARENT 12 13
REMARK Flexibility Score: inf
ROOT
ATOM      1  C   UNL     1     -44.516 -53.860 227.088  1.00  0.00     0.001 A 
ATOM      2  C   UNL     1     -43.729 -52.699 227.031  1.00  0.00     0.014 A 
ATOM      3  C   UNL     1     -45.506 -53.968 228.082  1.00  0.00     0.060 A 
ATOM      4  C   UNL     1     -43.928 -51.666 227.949  1.00  0.00     0.051 A 
ATOM      5  C   UNL     1     -45.711 -52.927 229.010  1.00  0.00     0.161 A 
ATOM      6  C   UNL     1     -44.912 -51.772 228.936  1.00  0.00     0.157 A 
ENDROOT
BRANCH   1   7
ATOM      7  C   UNL     1     -44.301 -54.953 226.113  1.00  0.00     0.072 C 
ATOM      8  O   UNL     1     -44.354 -54.728 224.875  1.00  0.00    -0.545 OA
ATOM      9  O   UNL     1     -44.039 -56.246 226.552  1.00  0.00    -0.545 OA
ENDBRANCH   1   7
BRANCH   5  10
ATOM     10  O   UNL     1     -46.692 -53.007 230.013  1.00  0.00    -0.493 OA
ATOM     11  C   UNL     1     -47.821 -53.873 229.972  1.00  0.00     0.278 C 
ENDBRANCH   5  10
BRANCH   6  12
ATOM     12  O   UNL     1     -45.081 -50.719 229.835  1.00  0.00    -0.504 OA
ATOM     13  H   UNL     1     -45.987 -50.309 230.022  1.00  0.00     0.293 HD
ENDBRANCH   6  12
TORSDOF 3
ENDMDL
MODEL 2
REMARK VINA RESULT:    -4.773      3.116      5.077
REMARK INTER + INTRA:          -5.546
REMARK INTER:                  -5.446
REMARK INTRA:                  -0.100
REMARK UNBOUND:                -0.076
REMARK SMILES COc1cc(C(=O)[O-])ccc1O
REMARK SMILES IDX 5 1 9 2 4 3 10 4 3 5 11 6 6 7 7 8 8 9 2 10 1 11 12 12
REMARK H PARENT 12 13
REMARK Flexibility Score: inf
ROOT
ATOM      1  C   UNL     1     -47.577 -52.822 229.848  1.00  0.00     0.001 A 
ATOM      2  C   UNL     1     -48.403 -53.564 230.707  1.00  0.00     0.014 A 
ATOM      3  C   UNL     1     -47.982 -51.533 229.454  1.00  0.00     0.060 A 
ATOM      4  C   UNL     1     -49.610 -53.030 231.162  1.00  0.00     0.051 A 
ATOM      5  C   UNL     1     -49.200 -50.989 229.911  1.00  0.00     0.161 A 
ATOM      6  C   UNL     1     -50.012 -51.750 230.771  1.00  0.00     0.157 A 
ENDROOT
BRANCH   1   7
ATOM      7  C   UNL     1     -46.298 -53.392 229.368  1.00  0.00     0.072 C 
ATOM      8  O   UNL     1     -46.213 -54.612 229.067  1.00  0.00    -0.545 OA
ATOM      9  O   UNL     1     -45.172 -52.586 229.242  1.00  0.00    -0.545 OA
ENDBRANCH   1   7
BRANCH   5  10
ATOM     10  O   UNL     1     -49.630 -49.706 229.533  1.00  0.00    -0.493 OA
ATOM     11  C   UNL     1     -49.211 -48.497 230.157  1.00  0.00     0.278 C 
ENDBRANCH   5  10
BRANCH   6  12
ATOM     12  O   UNL     1     -51.225 -51.251 231.246  1.00  0.00    -0.504 OA
ATOM     13  H   UNL     1     -51.273 -50.576 231.998  1.00  0.00     0.293 HD
ENDBRANCH   6  12
TORSDOF 3
ENDMDL
MODEL 3
REMARK VINA RESULT:    -4.725      2.186      4.500
REMARK INTER + INTRA:          -5.491
REMARK INTER:                  -5.393
REMARK INTRA:                  -0.098
REMARK UNBOUND:                -0.076
REMARK SMILES COc1cc(C(=O)[O-])ccc1O
REMARK SMILES IDX 5 1 9 2 4 3 10 4 3 5 11 6 6 7 7 8 8 9 2 10 1 11 12 12
REMARK H PARENT 12 13
REMARK Flexibility Score: inf
ROOT
ATOM      1  C   UNL     1     -47.712 -53.198 229.643  1.00  0.00     0.001 A 
ATOM      2  C   UNL     1     -47.279 -51.879 229.433  1.00  0.00     0.014 A 
ATOM      3  C   UNL     1     -46.803 -54.256 229.451  1.00  0.00     0.060 A 
ATOM      4  C   UNL     1     -45.965 -51.622 229.038  1.00  0.00     0.051 A 
ATOM      5  C   UNL     1     -45.475 -54.000 229.053  1.00  0.00     0.161 A 
ATOM      6  C   UNL     1     -45.063 -52.671 228.847  1.00  0.00     0.157 A 
ENDROOT
BRANCH   1   7
ATOM      7  C   UNL     1     -49.106 -53.467 230.061  1.00  0.00     0.072 C 
ATOM      8  O   UNL     1     -49.648 -54.576 229.810  1.00  0.00    -0.545 OA
ATOM      9  O   UNL     1     -49.837 -52.498 230.738  1.00  0.00    -0.545 OA
ENDBRANCH   1   7
BRANCH   5  10
ATOM     10  O   UNL     1     -44.546 -55.035 228.853  1.00  0.00    -0.493 OA
ATOM     11  C   UNL     1     -44.389 -55.756 227.635  1.00  0.00     0.278 C 
ENDBRANCH   5  10
BRANCH   6  12
ATOM     12  O   UNL     1     -43.758 -52.374 228.453  1.00  0.00    -0.504 OA
ATOM     13  H   UNL     1     -43.212 -51.647 228.897  1.00  0.00     0.293 HD
ENDBRANCH   6  12
TORSDOF 3
ENDMDL
MODEL 4
REMARK VINA RESULT:    -4.665      2.083      4.994
REMARK INTER + INTRA:          -5.423
REMARK INTER:                  -5.321
REMARK INTRA:                  -0.102
REMARK UNBOUND:                -0.076
REMARK SMILES COc1cc(C(=O)[O-])ccc1O
REMARK SMILES IDX 5 1 9 2 4 3 10 4 3 5 11 6 6 7 7 8 8 9 2 10 1 11 12 12
REMARK H PARENT 12 13
REMARK Flexibility Score: inf
ROOT
ATOM      1  C   UNL     1     -47.572 -52.492 229.599  1.00  0.00     0.001 A 
ATOM      2  C   UNL     1     -47.445 -53.887 229.695  1.00  0.00     0.014 A 
ATOM      3  C   UNL     1     -46.502 -51.742 229.075  1.00  0.00     0.060 A 
ATOM      4  C   UNL     1     -46.273 -54.519 229.278  1.00  0.00     0.051 A 
ATOM      5  C   UNL     1     -45.317 -52.377 228.652  1.00  0.00     0.161 A 
ATOM      6  C   UNL     1     -45.210 -53.775 228.758  1.00  0.00     0.157 A 
ENDROOT
BRANCH   1   7
ATOM      7  C   UNL     1     -48.816 -51.825 230.043  1.00  0.00     0.072 C 
ATOM      8  O   UNL     1     -48.989 -50.593 229.845  1.00  0.00    -0.545 OA
ATOM      9  O   UNL     1     -49.813 -52.550 230.686  1.00  0.00    -0.545 OA
ENDBRANCH   1   7
BRANCH   5  10
ATOM     10  O   UNL     1     -44.233 -51.654 228.126  1.00  0.00    -0.493 OA
ATOM     11  C   UNL     1     -44.114 -51.250 226.766  1.00  0.00     0.278 C 
ENDBRANCH   5  10
BRANCH   6  12
ATOM     12  O   UNL     1     -44.056 -54.443 228.351  1.00  0.00    -0.504 OA
ATOM     13  H   UNL     1     -43.542 -55.059 228.968  1.00  0.00     0.293 HD
ENDBRANCH   6  12
TORSDOF 3
ENDMDL
MODEL 5
REMARK VINA RESULT:    -4.650      3.167      6.538
REMARK INTER + INTRA:          -5.405
REMARK INTER:                  -5.306
REMARK INTRA:                  -0.099
REMARK UNBOUND:                -0.076
REMARK SMILES COc1cc(C(=O)[O-])ccc1O
REMARK SMILES IDX 5 1 9 2 4 3 10 4 3 5 11 6 6 7 7 8 8 9 2 10 1 11 12 12
REMARK H PARENT 12 13
REMARK Flexibility Score: inf
ROOT
ATOM      1  C   UNL     1     -49.685 -51.407 230.473  1.00  0.00     0.001 A 
ATOM      2  C   UNL     1     -49.897 -52.726 230.904  1.00  0.00     0.014 A 
ATOM      3  C   UNL     1     -48.568 -51.121 229.666  1.00  0.00     0.060 A 
ATOM      4  C   UNL     1     -49.010 -53.740 230.536  1.00  0.00     0.051 A 
ATOM      5  C   UNL     1     -47.670 -52.142 229.292  1.00  0.00     0.161 A 
ATOM      6  C   UNL     1     -47.901 -53.457 229.735  1.00  0.00     0.157 A 
ENDROOT
BRANCH   1   7
ATOM      7  C   UNL     1     -50.628 -50.335 230.865  1.00  0.00     0.072 C 
ATOM      8  O   UNL     1     -51.652 -50.600 231.549  1.00  0.00    -0.545 OA
ATOM      9  O   UNL     1     -50.395 -49.018 230.483  1.00  0.00    -0.545 OA
ENDBRANCH   1   7
BRANCH   5  10
ATOM     10  O   UNL     1     -46.547 -51.886 228.488  1.00  0.00    -0.493 OA
ATOM     11  C   UNL     1     -45.279 -51.466 228.981  1.00  0.00     0.278 C 
ENDBRANCH   5  10
BRANCH   6  12
ATOM     12  O   UNL     1     -47.038 -54.496 229.389  1.00  0.00    -0.504 OA
ATOM     13  H   UNL     1     -46.254 -54.764 229.971  1.00  0.00     0.293 HD
ENDBRANCH   6  12
TORSDOF 3
ENDMDL
MODEL 6
REMARK VINA RESULT:    -4.638     15.200     16.642
REMARK INTER + INTRA:          -5.392
REMARK INTER:                  -5.314
REMARK INTRA:                  -0.078
REMARK UNBOUND:                -0.076
REMARK SMILES COc1cc(C(=O)[O-])ccc1O
REMARK SMILES IDX 5 1 9 2 4 3 10 4 3 5 11 6 6 7 7 8 8 9 2 10 1 11 12 12
REMARK H PARENT 12 13
REMARK Flexibility Score: inf
ROOT
ATOM      1  C   UNL     1     -47.088 -61.019 242.406  1.00  0.00     0.001 A 
ATOM      2  C   UNL     1     -47.064 -61.406 241.056  1.00  0.00     0.014 A 
ATOM      3  C   UNL     1     -48.275 -60.492 242.946  1.00  0.00     0.060 A 
ATOM      4  C   UNL     1     -48.204 -61.267 240.262  1.00  0.00     0.051 A 
ATOM      5  C   UNL     1     -49.428 -60.350 242.148  1.00  0.00     0.161 A 
ATOM      6  C   UNL     1     -49.383 -60.743 240.798  1.00  0.00     0.157 A 
ENDROOT
BRANCH   1   7
ATOM      7  C   UNL     1     -45.877 -61.168 243.244  1.00  0.00     0.072 C 
ATOM      8  O   UNL     1     -45.119 -62.165 243.105  1.00  0.00    -0.545 OA
ATOM      9  O   UNL     1     -45.559 -60.208 244.199  1.00  0.00    -0.545 OA
ENDBRANCH   1   7
BRANCH   5  10
ATOM     10  O   UNL     1     -50.627 -59.826 242.660  1.00  0.00    -0.493 OA
ATOM     11  C   UNL     1     -50.723 -59.021 243.830  1.00  0.00     0.278 C 
ENDBRANCH   5  10
BRANCH   6  12
ATOM     12  O   UNL     1     -50.501 -60.619 239.974  1.00  0.00    -0.504 OA
ATOM     13  H   UNL     1     -51.406 -60.990 240.233  1.00  0.00     0.293 HD
ENDBRANCH   6  12
TORSDOF 3
ENDMDL
MODEL 7
REMARK VINA RESULT:    -4.631      3.331      4.740
REMARK INTER + INTRA:          -5.384
REMARK INTER:                  -5.306
REMARK INTRA:                  -0.079
REMARK UNBOUND:                -0.076
REMARK SMILES COc1cc(C(=O)[O-])ccc1O
REMARK SMILES IDX 5 1 9 2 4 3 10 4 3 5 11 6 6 7 7 8 8 9 2 10 1 11 12 12
REMARK H PARENT 12 13
REMARK Flexibility Score: inf
ROOT
ATOM      1  C   UNL     1     -47.692 -51.997 228.685  1.00  0.00     0.001 A 
ATOM      2  C   UNL     1     -47.150 -53.224 229.099  1.00  0.00     0.014 A 
ATOM      3  C   UNL     1     -48.774 -51.450 229.400  1.00  0.00     0.060 A 
ATOM      4  C   UNL     1     -47.679 -53.892 230.205  1.00  0.00     0.051 A 
ATOM      5  C   UNL     1     -49.311 -52.121 230.518  1.00  0.00     0.161 A 
ATOM      6  C   UNL     1     -48.754 -53.350 230.915  1.00  0.00     0.157 A 
ENDROOT
BRANCH   1   7
ATOM      7  C   UNL     1     -47.128 -51.291 227.512  1.00  0.00     0.072 C 
ATOM      8  O   UNL     1     -47.846 -50.520 226.822  1.00  0.00    -0.545 OA
ATOM      9  O   UNL     1     -45.796 -51.470 227.157  1.00  0.00    -0.545 OA
ENDBRANCH   1   7
BRANCH   5  10
ATOM     10  O   UNL     1     -50.391 -51.600 231.250  1.00  0.00    -0.493 OA
ATOM     11  C   UNL     1     -51.114 -50.425 230.899  1.00  0.00     0.278 C 
ENDBRANCH   5  10
BRANCH   6  12
ATOM     12  O   UNL     1     -49.255 -54.047 232.014  1.00  0.00    -0.504 OA
ATOM     13  H   UNL     1     -48.811 -54.883 232.371  1.00  0.00     0.293 HD
ENDBRANCH   6  12
TORSDOF 3
ENDMDL
MODEL 8
REMARK VINA RESULT:    -4.591     15.378     16.981
REMARK INTER + INTRA:          -5.338
REMARK INTER:                  -5.253
REMARK INTRA:                  -0.085
REMARK UNBOUND:                -0.076
REMARK SMILES COc1cc(C(=O)[O-])ccc1O
REMARK SMILES IDX 5 1 9 2 4 3 10 4 3 5 11 6 6 7 7 8 8 9 2 10 1 11 12 12
REMARK H PARENT 12 13
REMARK Flexibility Score: inf
ROOT
ATOM      1  C   UNL     1     -49.600 -59.823 242.742  1.00  0.00     0.001 A 
ATOM      2  C   UNL     1     -50.451 -60.247 241.709  1.00  0.00     0.014 A 
ATOM      3  C   UNL     1     -48.237 -60.171 242.691  1.00  0.00     0.060 A 
ATOM      4  C   UNL     1     -49.951 -61.003 240.647  1.00  0.00     0.051 A 
ATOM      5  C   UNL     1     -47.727 -60.934 241.621  1.00  0.00     0.161 A 
ATOM      6  C   UNL     1     -48.598 -61.348 240.597  1.00  0.00     0.157 A 
ENDROOT
BRANCH   1   7
ATOM      7  C   UNL     1     -50.134 -59.022 243.866  1.00  0.00     0.072 C 
ATOM      8  O   UNL     1     -51.357 -58.728 243.919  1.00  0.00    -0.545 OA
ATOM      9  O   UNL     1     -49.290 -58.582 244.880  1.00  0.00    -0.545 OA
ENDBRANCH   1   7
BRANCH   5  10
ATOM     10  O   UNL     1     -46.372 -61.296 241.544  1.00  0.00    -0.493 OA
ATOM     11  C   UNL     1     -45.568 -61.660 242.661  1.00  0.00     0.278 C 
ENDBRANCH   5  10
BRANCH   6  12
ATOM     12  O   UNL     1     -48.136 -62.105 239.520  1.00  0.00    -0.504 OA
ATOM     13  H   UNL     1     -47.289 -62.657 239.572  1.00  0.00     0.293 HD
ENDBRANCH   6  12
TORSDOF 3
ENDMDL
MODEL 9
REMARK VINA RESULT:    -4.575     15.334     16.526
REMARK INTER + INTRA:          -5.320
REMARK INTER:                  -5.244
REMARK INTRA:                  -0.076
REMARK UNBOUND:                -0.076
REMARK SMILES COc1cc(C(=O)[O-])ccc1O
REMARK SMILES IDX 5 1 9 2 4 3 10 4 3 5 11 6 6 7 7 8 8 9 2 10 1 11 12 12
REMARK H PARENT 12 13
REMARK Flexibility Score: inf
ROOT
ATOM      1  C   UNL     1     -47.482 -60.142 242.804  1.00  0.00     0.001 A 
ATOM      2  C   UNL     1     -48.617 -59.322 242.906  1.00  0.00     0.014 A 
ATOM      3  C   UNL     1     -47.427 -61.113 241.787  1.00  0.00     0.060 A 
ATOM      4  C   UNL     1     -49.676 -59.470 242.009  1.00  0.00     0.051 A 
ATOM      5  C   UNL     1     -48.495 -61.266 240.879  1.00  0.00     0.161 A 
ATOM      6  C   UNL     1     -49.623 -60.434 240.999  1.00  0.00     0.157 A 
ENDROOT
BRANCH   1   7
ATOM      7  C   UNL     1     -46.360 -59.982 243.757  1.00  0.00     0.072 C 
ATOM      8  O   UNL     1     -45.172 -59.917 243.344  1.00  0.00    -0.545 OA
ATOM      9  O   UNL     1     -46.603 -59.902 245.124  1.00  0.00    -0.545 OA
ENDBRANCH   1   7
BRANCH   5  10
ATOM     10  O   UNL     1     -48.468 -62.226 239.854  1.00  0.00    -0.493 OA
ATOM     11  C   UNL     1     -47.320 -62.984 239.486  1.00  0.00     0.278 C 
ENDBRANCH   5  10
BRANCH   6  12
ATOM     12  O   UNL     1     -50.701 -60.552 240.122  1.00  0.00    -0.504 OA
ATOM     13  H   UNL     1     -50.873 -61.394 239.588  1.00  0.00     0.293 HD
ENDBRANCH   6  12
TORSDOF 3
ENDMDL
