MODEL 1
REMARK VINA RESULT:    -3.508      0.000      0.000
REMARK INTER + INTRA:          -4.240
REMARK INTER:                  -4.123
REMARK INTRA:                  -0.117
REMARK UNBOUND:                -0.117
REMARK SMILES O=C([O-])CCC(=O)[O-]
REMARK SMILES IDX 4 1 2 2 1 3 3 4 5 5 6 6 7 7 8 8
REMARK H PARENT
REMARK Flexibility Score: inf
ROOT
ATOM      1  C   UNL     1      19.119  -9.105  13.172  1.00  0.00     0.059 C 
ENDROOT
BRANCH   1   2
ATOM      2  C   UNL     1      18.809  -8.299  14.395  1.00  0.00     0.042 C 
ATOM      3  O   UNL     1      17.631  -7.917  14.620  1.00  0.00    -0.550 OA
ATOM      4  O   UNL     1      19.813  -8.005  15.308  1.00  0.00    -0.550 OA
ENDBRANCH   1   2
BRANCH   1   5
ATOM      5  C   UNL     1      18.526 -10.516  13.259  1.00  0.00     0.059 C 
BRANCH   5   6
ATOM      6  C   UNL     1      17.319 -10.661  12.385  1.00  0.00     0.042 C 
ATOM      7  O   UNL     1      16.164 -10.545  12.873  1.00  0.00    -0.550 OA
ATOM      8  O   UNL     1      17.469 -10.963  11.037  1.00  0.00    -0.550 OA
ENDBRANCH   5   6
ENDBRANCH   1   5
TORSDOF 3
ENDMDL
MODEL 2
REMARK VINA RESULT:    -3.508      1.860      2.261
REMARK INTER + INTRA:          -4.240
REMARK INTER:                  -4.119
REMARK INTRA:                  -0.121
REMARK UNBOUND:                -0.117
REMARK SMILES O=C([O-])CCC(=O)[O-]
REMARK SMILES IDX 4 1 2 2 1 3 3 4 5 5 6 6 7 7 8 8
REMARK H PARENT
REMARK Flexibility Score: inf
ROOT
ATOM      1  C   UNL     1      17.907  -9.917  14.167  1.00  0.00     0.059 C 
ENDROOT
BRANCH   1   2
ATOM      2  C   UNL     1      18.249  -8.524  14.597  1.00  0.00     0.042 C 
ATOM      3  O   UNL     1      17.349  -7.646  14.675  1.00  0.00    -0.550 OA
ATOM      4  O   UNL     1      19.554  -8.204  14.949  1.00  0.00    -0.550 OA
ENDBRANCH   1   2
BRANCH   1   5
ATOM      5  C   UNL     1      18.459 -10.230  12.772  1.00  0.00     0.059 C 
BRANCH   5   6
ATOM      6  C   UNL     1      19.687 -11.085  12.844  1.00  0.00     0.042 C 
ATOM      7  O   UNL     1      19.584 -12.339  12.898  1.00  0.00    -0.550 OA
ATOM      8  O   UNL     1      20.943 -10.494  12.892  1.00  0.00    -0.550 OA
ENDBRANCH   5   6
ENDBRANCH   1   5
TORSDOF 3
ENDMDL
MODEL 3
REMARK VINA RESULT:    -3.469      1.165      4.062
REMARK INTER + INTRA:          -4.194
REMARK INTER:                  -4.151
REMARK INTRA:                  -0.043
REMARK UNBOUND:                -0.117
REMARK SMILES O=C([O-])CCC(=O)[O-]
REMARK SMILES IDX 4 1 2 2 1 3 3 4 5 5 6 6 7 7 8 8
REMARK H PARENT
REMARK Flexibility Score: inf
ROOT
ATOM      1  C   UNL     1      19.398 -10.442  13.181  1.00  0.00     0.059 C 
ENDROOT
BRANCH   1   2
ATOM      2  C   UNL     1      18.766 -11.464  12.286  1.00  0.00     0.042 C 
ATOM      3  O   UNL     1      19.207 -12.643  12.261  1.00  0.00    -0.550 OA
ATOM      4  O   UNL     1      17.665 -11.124  11.510  1.00  0.00    -0.550 OA
ENDBRANCH   1   2
BRANCH   1   5
ATOM      5  C   UNL     1      18.768  -9.058  12.991  1.00  0.00     0.059 C 
BRANCH   5   6
ATOM      6  C   UNL     1      18.543  -8.371  14.303  1.00  0.00     0.042 C 
ATOM      7  O   UNL     1      19.505  -8.182  15.093  1.00  0.00    -0.550 OA
ATOM      8  O   UNL     1      17.263  -7.973  14.669  1.00  0.00    -0.550 OA
ENDBRANCH   5   6
ENDBRANCH   1   5
TORSDOF 3
ENDMDL
MODEL 4
REMARK VINA RESULT:    -3.353      0.909      3.933
REMARK INTER + INTRA:          -4.058
REMARK INTER:                  -3.977
REMARK INTRA:                  -0.081
REMARK UNBOUND:                -0.117
REMARK SMILES O=C([O-])CCC(=O)[O-]
REMARK SMILES IDX 4 1 2 2 1 3 3 4 5 5 6 6 7 7 8 8
REMARK H PARENT
REMARK Flexibility Score: inf
ROOT
ATOM      1  C   UNL     1      19.137 -10.508  13.147  1.00  0.00     0.059 C 
ENDROOT
BRANCH   1   2
ATOM      2  C   UNL     1      18.218 -11.037  12.090  1.00  0.00     0.042 C 
ATOM      3  O   UNL     1      18.650 -11.833  11.215  1.00  0.00    -0.550 OA
ATOM      4  O   UNL     1      16.874 -10.683  12.094  1.00  0.00    -0.550 OA
ENDBRANCH   1   2
BRANCH   1   5
ATOM      5  C   UNL     1      18.367 -10.074  14.399  1.00  0.00     0.059 C 
BRANCH   5   6
ATOM      6  C   UNL     1      18.560  -8.617  14.688  1.00  0.00     0.042 C 
ATOM      7  O   UNL     1      17.599  -7.814  14.567  1.00  0.00    -0.550 OA
ATOM      8  O   UNL     1      19.814  -8.142  15.053  1.00  0.00    -0.550 OA
ENDBRANCH   5   6
ENDBRANCH   1   5
TORSDOF 3
ENDMDL
MODEL 5
REMARK VINA RESULT:    -3.277      6.191      7.918
REMARK INTER + INTRA:          -3.968
REMARK INTER:                  -3.835
REMARK INTRA:                  -0.133
REMARK UNBOUND:                -0.117
REMARK SMILES O=C([O-])CCC(=O)[O-]
REMARK SMILES IDX 4 1 2 2 1 3 3 4 5 5 6 6 7 7 8 8
REMARK H PARENT
REMARK Flexibility Score: inf
ROOT
ATOM      1  C   UNL     1      15.852  -3.855  17.370  1.00  0.00     0.059 C 
ENDROOT
BRANCH   1   2
ATOM      2  C   UNL     1      15.233  -5.196  17.125  1.00  0.00     0.042 C 
ATOM      3  O   UNL     1      15.704  -5.959  16.241  1.00  0.00    -0.550 OA
ATOM      4  O   UNL     1      14.160  -5.620  17.899  1.00  0.00    -0.550 OA
ENDBRANCH   1   2
BRANCH   1   5
ATOM      5  C   UNL     1      17.316  -3.980  17.805  1.00  0.00     0.059 C 
BRANCH   5   6
ATOM      6  C   UNL     1      17.432  -4.291  19.266  1.00  0.00     0.042 C 
ATOM      7  O   UNL     1      16.739  -3.660  20.106  1.00  0.00    -0.550 OA
ATOM      8  O   UNL     1      18.335  -5.253  19.703  1.00  0.00    -0.550 OA
ENDBRANCH   5   6
ENDBRANCH   1   5
TORSDOF 3
ENDMDL
MODEL 6
REMARK VINA RESULT:    -3.266      6.174      6.983
REMARK INTER + INTRA:          -3.955
REMARK INTER:                  -3.824
REMARK INTRA:                  -0.131
REMARK UNBOUND:                -0.117
REMARK SMILES O=C([O-])CCC(=O)[O-]
REMARK SMILES IDX 4 1 2 2 1 3 3 4 5 5 6 6 7 7 8 8
REMARK H PARENT
REMARK Flexibility Score: inf
ROOT
ATOM      1  C   UNL     1      16.477  -3.966  18.945  1.00  0.00     0.059 C 
ENDROOT
BRANCH   1   2
ATOM      2  C   UNL     1      17.862  -4.531  18.875  1.00  0.00     0.042 C 
ATOM      3  O   UNL     1      18.567  -4.355  17.846  1.00  0.00    -0.550 OA
ATOM      4  O   UNL     1      18.391  -5.216  19.962  1.00  0.00    -0.550 OA
ENDBRANCH   1   2
BRANCH   1   5
ATOM      5  C   UNL     1      15.826  -3.893  17.559  1.00  0.00     0.059 C 
BRANCH   5   6
ATOM      6  C   UNL     1      15.213  -5.203  17.169  1.00  0.00     0.042 C 
ATOM      7  O   UNL     1      14.202  -5.637  17.782  1.00  0.00    -0.550 OA
ATOM      8  O   UNL     1      15.781  -5.961  16.153  1.00  0.00    -0.550 OA
ENDBRANCH   5   6
ENDBRANCH   1   5
TORSDOF 3
ENDMDL
MODEL 7
REMARK VINA RESULT:    -3.240      7.907      9.465
REMARK INTER + INTRA:          -3.925
REMARK INTER:                  -3.805
REMARK INTRA:                  -0.119
REMARK UNBOUND:                -0.117
REMARK SMILES O=C([O-])CCC(=O)[O-]
REMARK SMILES IDX 4 1 2 2 1 3 3 4 5 5 6 6 7 7 8 8
REMARK H PARENT
REMARK Flexibility Score: inf
ROOT
ATOM      1  C   UNL     1      19.440  -3.068  21.367  1.00  0.00     0.059 C 
ENDROOT
BRANCH   1   2
ATOM      2  C   UNL     1      20.840  -3.303  21.843  1.00  0.00     0.042 C 
ATOM      3  O   UNL     1      21.076  -3.450  23.070  1.00  0.00    -0.550 OA
ATOM      4  O   UNL     1      21.880  -3.400  20.926  1.00  0.00    -0.550 OA
ENDBRANCH   1   2
BRANCH   1   5
ATOM      5  C   UNL     1      18.684  -4.385  21.161  1.00  0.00     0.059 C 
BRANCH   5   6
ATOM      6  C   UNL     1      18.525  -4.707  19.706  1.00  0.00     0.042 C 
ATOM      7  O   UNL     1      17.378  -4.748  19.188  1.00  0.00    -0.550 OA
ATOM      8  O   UNL     1      19.641  -4.999  18.932  1.00  0.00    -0.550 OA
ENDBRANCH   5   6
ENDBRANCH   1   5
TORSDOF 3
ENDMDL
MODEL 8
REMARK VINA RESULT:    -3.218      7.872     10.088
REMARK INTER + INTRA:          -3.899
REMARK INTER:                  -3.781
REMARK INTRA:                  -0.118
REMARK UNBOUND:                -0.117
REMARK SMILES O=C([O-])CCC(=O)[O-]
REMARK SMILES IDX 4 1 2 2 1 3 3 4 5 5 6 6 7 7 8 8
REMARK H PARENT
REMARK Flexibility Score: inf
ROOT
ATOM      1  C   UNL     1      18.739  -4.478  21.143  1.00  0.00     0.059 C 
ENDROOT
BRANCH   1   2
ATOM      2  C   UNL     1      18.600  -4.759  19.679  1.00  0.00     0.042 C 
ATOM      3  O   UNL     1      17.459  -4.797  19.147  1.00  0.00    -0.550 OA
ATOM      4  O   UNL     1      19.731  -4.938  18.893  1.00  0.00    -0.550 OA
ENDBRANCH   1   2
BRANCH   1   5
ATOM      5  C   UNL     1      19.436  -3.136  21.396  1.00  0.00     0.059 C 
BRANCH   5   6
ATOM      6  C   UNL     1      20.827  -3.328  21.918  1.00  0.00     0.042 C 
ATOM      7  O   UNL     1      21.033  -3.414  23.157  1.00  0.00    -0.550 OA
ATOM      8  O   UNL     1      21.900  -3.372  21.037  1.00  0.00    -0.550 OA
ENDBRANCH   5   6
ENDBRANCH   1   5
TORSDOF 3
ENDMDL
MODEL 9
REMARK VINA RESULT:    -3.175     10.825     12.315
REMARK INTER + INTRA:          -3.848
REMARK INTER:                  -3.664
REMARK INTRA:                  -0.184
REMARK UNBOUND:                -0.117
REMARK SMILES O=C([O-])CCC(=O)[O-]
REMARK SMILES IDX 4 1 2 2 1 3 3 4 5 5 6 6 7 7 8 8
REMARK H PARENT
REMARK Flexibility Score: inf
ROOT
ATOM      1  C   UNL     1      21.073  -1.825  23.713  1.00  0.00     0.059 C 
ENDROOT
BRANCH   1   2
ATOM      2  C   UNL     1      20.404  -0.793  22.860  1.00  0.00     0.042 C 
ATOM      3  O   UNL     1      19.186  -0.909  22.561  1.00  0.00    -0.550 OA
ATOM      4  O   UNL     1      21.115   0.320  22.427  1.00  0.00    -0.550 OA
ENDBRANCH   1   2
BRANCH   1   5
ATOM      5  C   UNL     1      21.129  -3.187  23.012  1.00  0.00     0.059 C 
BRANCH   5   6
ATOM      6  C   UNL     1      21.954  -3.130  21.763  1.00  0.00     0.042 C 
ATOM      7  O   UNL     1      21.482  -3.542  20.672  1.00  0.00    -0.550 OA
ATOM      8  O   UNL     1      23.260  -2.656  21.814  1.00  0.00    -0.550 OA
ENDBRANCH   5   6
ENDBRANCH   1   5
TORSDOF 3
ENDMDL
