MODEL 1
REMARK VINA RESULT:    -4.483      0.000      0.000
REMARK INTER + INTRA:         -10.355
REMARK INTER:                  -8.415
REMARK INTRA:                  -1.940
REMARK UNBOUND:                -1.940
REMARK SMILES CCCCCCCCC=CCCCCCCCC(=O)[O-]
REMARK SMILES IDX 10 1 9 2 11 3 12 4 13 5 14 6 15 7 16 8 17 9 18 10 19 11
REMARK SMILES IDX 20 12 8 13 7 14 6 15 5 16 4 17 3 18 2 19 1 20
REMARK H PARENT
REMARK Flexibility Score: inf
ROOT
ATOM      1  C   UNL     1      43.024  10.973 115.402  1.00  0.00    -0.031 C 
ATOM      2  C   UNL     1      42.464  10.793 114.190  1.00  0.00    -0.031 C 
ENDROOT
BRANCH   1   3
ATOM      3  C   UNL     1      44.164  10.158 115.961  1.00  0.00     0.027 C 
BRANCH   3   4
ATOM      4  C   UNL     1      43.656   9.050 116.896  1.00  0.00     0.004 C 
BRANCH   4   5
ATOM      5  C   UNL     1      43.751   7.652 116.266  1.00  0.00     0.000 C 
BRANCH   5   6
ATOM      6  C   UNL     1      45.151   7.351 115.700  1.00  0.00     0.000 C 
BRANCH   6   7
ATOM      7  C   UNL     1      45.107   6.882 114.237  1.00  0.00     0.000 C 
BRANCH   7   8
ATOM      8  C   UNL     1      46.021   7.714 113.320  1.00  0.00     0.006 C 
BRANCH   8   9
ATOM      9  C   UNL     1      47.264   6.929 112.878  1.00  0.00     0.053 C 
BRANCH   9  10
ATOM     10  C   UNL     1      48.413   7.140 113.816  1.00  0.00     0.041 C 
ATOM     11  O   UNL     1      49.319   6.272 113.914  1.00  0.00    -0.550 OA
ATOM     12  O   UNL     1      48.466   8.281 114.606  1.00  0.00    -0.550 OA
ENDBRANCH   9  10
ENDBRANCH   8   9
ENDBRANCH   7   8
ENDBRANCH   6   7
ENDBRANCH   5   6
ENDBRANCH   4   5
ENDBRANCH   3   4
ENDBRANCH   1   3
BRANCH   2  13
ATOM     13  C   UNL     1      42.865   9.736 113.187  1.00  0.00     0.027 C 
BRANCH  13  14
ATOM     14  C   UNL     1      43.020  10.319 111.773  1.00  0.00     0.004 C 
BRANCH  14  15
ATOM     15  C   UNL     1      41.977  11.394 111.411  1.00  0.00     0.000 C 
BRANCH  15  16
ATOM     16  C   UNL     1      42.597  12.686 110.831  1.00  0.00     0.000 C 
BRANCH  16  17
ATOM     17  C   UNL     1      41.990  13.971 111.427  1.00  0.00    -0.000 C 
BRANCH  17  18
ATOM     18  C   UNL     1      42.667  14.427 112.733  1.00  0.00    -0.000 C 
BRANCH  18  19
ATOM     19  C   UNL     1      41.735  14.315 113.949  1.00  0.00    -0.003 C 
ATOM     20  C   UNL     1      41.408  15.693 114.518  1.00  0.00     0.004 C 
ENDBRANCH  18  19
ENDBRANCH  17  18
ENDBRANCH  16  17
ENDBRANCH  15  16
ENDBRANCH  14  15
ENDBRANCH  13  14
ENDBRANCH   2  13
TORSDOF 15
ENDMDL
MODEL 2
REMARK VINA RESULT:    -4.483      3.487      7.765
REMARK INTER + INTRA:         -10.355
REMARK INTER:                  -8.418
REMARK INTRA:                  -1.936
REMARK UNBOUND:                -1.940
REMARK SMILES CCCCCCCCC=CCCCCCCCC(=O)[O-]
REMARK SMILES IDX 10 1 9 2 11 3 12 4 13 5 14 6 15 7 16 8 17 9 18 10 19 11
REMARK SMILES IDX 20 12 8 13 7 14 6 15 5 16 4 17 3 18 2 19 1 20
REMARK H PARENT
REMARK Flexibility Score: inf
ROOT
ATOM      1  C   UNL     1      47.136   7.750 115.039  1.00  0.00    -0.031 C 
ATOM      2  C   UNL     1      48.471   7.911 115.115  1.00  0.00    -0.031 C 
ENDROOT
BRANCH   1   3
ATOM      3  C   UNL     1      46.359   7.526 113.766  1.00  0.00     0.027 C 
BRANCH   3   4
ATOM      4  C   UNL     1      45.132   6.632 114.007  1.00  0.00     0.004 C 
BRANCH   4   5
ATOM      5  C   UNL     1      43.829   7.436 114.136  1.00  0.00     0.000 C 
BRANCH   5   6
ATOM      6  C   UNL     1      44.006   8.917 113.757  1.00  0.00     0.000 C 
BRANCH   6   7
ATOM      7  C   UNL     1      43.528   9.869 114.864  1.00  0.00     0.000 C 
BRANCH   7   8
ATOM      8  C   UNL     1      44.467   9.881 116.084  1.00  0.00     0.006 C 
BRANCH   8   9
ATOM      9  C   UNL     1      43.730   9.529 117.383  1.00  0.00     0.053 C 
BRANCH   9  10
ATOM     10  C   UNL     1      44.436   8.450 118.146  1.00  0.00     0.041 C 
ATOM     11  O   UNL     1      44.840   7.415 117.554  1.00  0.00    -0.550 OA
ATOM     12  O   UNL     1      44.619   8.574 119.517  1.00  0.00    -0.550 OA
ENDBRANCH   9  10
ENDBRANCH   8   9
ENDBRANCH   7   8
ENDBRANCH   6   7
ENDBRANCH   5   6
ENDBRANCH   4   5
ENDBRANCH   3   4
ENDBRANCH   1   3
BRANCH   2  13
ATOM     13  C   UNL     1      49.422   7.913 113.939  1.00  0.00     0.027 C 
BRANCH  13  14
ATOM     14  C   UNL     1      50.578   6.919 114.137  1.00  0.00     0.004 C 
BRANCH  14  15
ATOM     15  C   UNL     1      50.133   5.499 114.540  1.00  0.00     0.000 C 
BRANCH  15  16
ATOM     16  C   UNL     1      50.247   4.468 113.393  1.00  0.00     0.000 C 
BRANCH  16  17
ATOM     17  C   UNL     1      50.564   5.110 112.029  1.00  0.00    -0.000 C 
BRANCH  17  18
ATOM     18  C   UNL     1      49.341   5.227 111.101  1.00  0.00    -0.000 C 
BRANCH  18  19
ATOM     19  C   UNL     1      49.372   6.502 110.244  1.00  0.00    -0.003 C 
ATOM     20  C   UNL     1      48.221   7.435 110.607  1.00  0.00     0.004 C 
ENDBRANCH  18  19
ENDBRANCH  17  18
ENDBRANCH  16  17
ENDBRANCH  15  16
ENDBRANCH  14  15
ENDBRANCH  13  14
ENDBRANCH   2  13
TORSDOF 15
ENDMDL
MODEL 3
REMARK VINA RESULT:    -4.397      4.191      8.016
REMARK INTER + INTRA:         -10.194
REMARK INTER:                  -8.319
REMARK INTRA:                  -1.875
REMARK UNBOUND:                -1.940
REMARK SMILES CCCCCCCCC=CCCCCCCCC(=O)[O-]
REMARK SMILES IDX 10 1 9 2 11 3 12 4 13 5 14 6 15 7 16 8 17 9 18 10 19 11
REMARK SMILES IDX 20 12 8 13 7 14 6 15 5 16 4 17 3 18 2 19 1 20
REMARK H PARENT
REMARK Flexibility Score: inf
ROOT
ATOM      1  C   UNL     1      46.287   7.510 114.184  1.00  0.00    -0.031 C 
ATOM      2  C   UNL     1      46.806   7.210 112.977  1.00  0.00    -0.031 C 
ENDROOT
BRANCH   1   3
ATOM      3  C   UNL     1      47.041   8.160 115.317  1.00  0.00     0.027 C 
BRANCH   3   4
ATOM      4  C   UNL     1      46.197   9.247 116.001  1.00  0.00     0.004 C 
BRANCH   4   5
ATOM      5  C   UNL     1      44.874   9.520 115.268  1.00  0.00     0.000 C 
BRANCH   5   6
ATOM      6  C   UNL     1      43.656   9.483 116.208  1.00  0.00     0.000 C 
BRANCH   6   7
ATOM      7  C   UNL     1      43.813   8.450 117.335  1.00  0.00     0.000 C 
BRANCH   7   8
ATOM      8  C   UNL     1      43.267   8.955 118.683  1.00  0.00     0.006 C 
BRANCH   8   9
ATOM      9  C   UNL     1      44.060  10.157 119.214  1.00  0.00     0.053 C 
BRANCH   9  10
ATOM     10  C   UNL     1      45.408   9.748 119.725  1.00  0.00     0.041 C 
ATOM     11  O   UNL     1      45.519   8.773 120.512  1.00  0.00    -0.550 OA
ATOM     12  O   UNL     1      46.538  10.468 119.357  1.00  0.00    -0.550 OA
ENDBRANCH   9  10
ENDBRANCH   8   9
ENDBRANCH   7   8
ENDBRANCH   6   7
ENDBRANCH   5   6
ENDBRANCH   4   5
ENDBRANCH   3   4
ENDBRANCH   1   3
BRANCH   2  13
ATOM     13  C   UNL     1      48.236   7.457 112.553  1.00  0.00     0.027 C 
BRANCH  13  14
ATOM     14  C   UNL     1      48.547   6.816 111.191  1.00  0.00     0.004 C 
BRANCH  14  15
ATOM     15  C   UNL     1      49.479   5.591 111.262  1.00  0.00     0.000 C 
BRANCH  15  16
ATOM     16  C   UNL     1      48.932   4.450 112.149  1.00  0.00     0.000 C 
BRANCH  16  17
ATOM     17  C   UNL     1      49.795   4.184 113.397  1.00  0.00    -0.000 C 
BRANCH  17  18
ATOM     18  C   UNL     1      51.129   4.954 113.402  1.00  0.00    -0.000 C 
BRANCH  18  19
ATOM     19  C   UNL     1      51.393   5.665 114.738  1.00  0.00    -0.003 C 
ATOM     20  C   UNL     1      50.087   6.102 115.394  1.00  0.00     0.004 C 
ENDBRANCH  18  19
ENDBRANCH  17  18
ENDBRANCH  16  17
ENDBRANCH  15  16
ENDBRANCH  14  15
ENDBRANCH  13  14
ENDBRANCH   2  13
TORSDOF 15
ENDMDL
MODEL 4
REMARK VINA RESULT:    -4.395      4.618      8.196
REMARK INTER + INTRA:         -10.189
REMARK INTER:                  -8.046
REMARK INTRA:                  -2.143
REMARK UNBOUND:                -1.940
REMARK SMILES CCCCCCCCC=CCCCCCCCC(=O)[O-]
REMARK SMILES IDX 10 1 9 2 11 3 12 4 13 5 14 6 15 7 16 8 17 9 18 10 19 11
REMARK SMILES IDX 20 12 8 13 7 14 6 15 5 16 4 17 3 18 2 19 1 20
REMARK H PARENT
REMARK Flexibility Score: inf
ROOT
ATOM      1  C   UNL     1      48.758   8.549 115.089  1.00  0.00    -0.031 C 
ATOM      2  C   UNL     1      49.796   7.711 114.905  1.00  0.00    -0.031 C 
ENDROOT
BRANCH   1   3
ATOM      3  C   UNL     1      47.551   8.262 115.947  1.00  0.00     0.027 C 
BRANCH   3   4
ATOM      4  C   UNL     1      46.255   8.298 115.122  1.00  0.00     0.004 C 
BRANCH   4   5
ATOM      5  C   UNL     1      45.259   7.203 115.535  1.00  0.00     0.000 C 
BRANCH   5   6
ATOM      6  C   UNL     1      43.932   7.776 116.062  1.00  0.00     0.000 C 
BRANCH   6   7
ATOM      7  C   UNL     1      43.796   9.284 115.798  1.00  0.00     0.000 C 
BRANCH   7   8
ATOM      8  C   UNL     1      43.728  10.111 117.095  1.00  0.00     0.006 C 
BRANCH   8   9
ATOM      9  C   UNL     1      43.645   9.222 118.342  1.00  0.00     0.053 C 
BRANCH   9  10
ATOM     10  C   UNL     1      42.930   9.910 119.465  1.00  0.00     0.041 C 
ATOM     11  O   UNL     1      41.911   9.386 119.985  1.00  0.00    -0.550 OA
ATOM     12  O   UNL     1      43.372  11.148 119.915  1.00  0.00    -0.550 OA
ENDBRANCH   9  10
ENDBRANCH   8   9
ENDBRANCH   7   8
ENDBRANCH   6   7
ENDBRANCH   5   6
ENDBRANCH   4   5
ENDBRANCH   3   4
ENDBRANCH   1   3
BRANCH   2  13
ATOM     13  C   UNL     1      49.927   6.332 115.512  1.00  0.00     0.027 C 
BRANCH  13  14
ATOM     14  C   UNL     1      50.885   5.441 114.704  1.00  0.00     0.004 C 
BRANCH  14  15
ATOM     15  C   UNL     1      51.260   6.003 113.319  1.00  0.00     0.000 C 
BRANCH  15  16
ATOM     16  C   UNL     1      51.001   5.012 112.160  1.00  0.00     0.000 C 
BRANCH  16  17
ATOM     17  C   UNL     1      49.740   5.349 111.342  1.00  0.00    -0.000 C 
BRANCH  17  18
ATOM     18  C   UNL     1      48.429   4.899 112.013  1.00  0.00    -0.000 C 
BRANCH  18  19
ATOM     19  C   UNL     1      47.600   6.082 112.537  1.00  0.00    -0.003 C 
ATOM     20  C   UNL     1      47.824   7.329 111.685  1.00  0.00     0.004 C 
ENDBRANCH  18  19
ENDBRANCH  17  18
ENDBRANCH  16  17
ENDBRANCH  15  16
ENDBRANCH  14  15
ENDBRANCH  13  14
ENDBRANCH   2  13
TORSDOF 15
ENDMDL
MODEL 5
REMARK VINA RESULT:    -4.385      4.086      7.078
REMARK INTER + INTRA:         -10.171
REMARK INTER:                  -7.842
REMARK INTRA:                  -2.328
REMARK UNBOUND:                -1.940
REMARK SMILES CCCCCCCCC=CCCCCCCCC(=O)[O-]
REMARK SMILES IDX 10 1 9 2 11 3 12 4 13 5 14 6 15 7 16 8 17 9 18 10 19 11
REMARK SMILES IDX 20 12 8 13 7 14 6 15 5 16 4 17 3 18 2 19 1 20
REMARK H PARENT
REMARK Flexibility Score: inf
ROOT
ATOM      1  C   UNL     1      43.167   8.924 119.249  1.00  0.00    -0.031 C 
ATOM      2  C   UNL     1      42.881  10.098 119.843  1.00  0.00    -0.031 C 
ENDROOT
BRANCH   1   3
ATOM      3  C   UNL     1      43.538   8.752 117.796  1.00  0.00     0.027 C 
BRANCH   3   4
ATOM      4  C   UNL     1      44.975   9.226 117.525  1.00  0.00     0.004 C 
BRANCH   4   5
ATOM      5  C   UNL     1      45.715   8.330 116.520  1.00  0.00     0.000 C 
BRANCH   5   6
ATOM      6  C   UNL     1      44.786   7.309 115.840  1.00  0.00     0.000 C 
BRANCH   6   7
ATOM      7  C   UNL     1      44.912   7.327 114.309  1.00  0.00     0.000 C 
BRANCH   7   8
ATOM      8  C   UNL     1      44.568   8.699 113.701  1.00  0.00     0.006 C 
BRANCH   8   9
ATOM      9  C   UNL     1      43.065   9.003 113.774  1.00  0.00     0.053 C 
BRANCH   9  10
ATOM     10  C   UNL     1      42.806  10.463 113.991  1.00  0.00     0.041 C 
ATOM     11  O   UNL     1      43.001  10.981 115.121  1.00  0.00    -0.550 OA
ATOM     12  O   UNL     1      42.317  11.244 112.951  1.00  0.00    -0.550 OA
ENDBRANCH   9  10
ENDBRANCH   8   9
ENDBRANCH   7   8
ENDBRANCH   6   7
ENDBRANCH   5   6
ENDBRANCH   4   5
ENDBRANCH   3   4
ENDBRANCH   1   3
BRANCH   2  13
ATOM     13  C   UNL     1      42.864  11.446 119.157  1.00  0.00     0.027 C 
BRANCH  13  14
ATOM     14  C   UNL     1      43.002  12.600 120.163  1.00  0.00     0.004 C 
BRANCH  14  15
ATOM     15  C   UNL     1      43.867  12.271 121.395  1.00  0.00     0.000 C 
BRANCH  15  16
ATOM     16  C   UNL     1      45.235  12.991 121.399  1.00  0.00     0.000 C 
BRANCH  16  17
ATOM     17  C   UNL     1      46.431  12.022 121.461  1.00  0.00    -0.000 C 
BRANCH  17  18
ATOM     18  C   UNL     1      46.460  11.000 120.309  1.00  0.00    -0.000 C 
BRANCH  18  19
ATOM     19  C   UNL     1      46.671   9.561 120.805  1.00  0.00    -0.003 C 
ATOM     20  C   UNL     1      45.858   9.291 122.068  1.00  0.00     0.004 C 
ENDBRANCH  18  19
ENDBRANCH  17  18
ENDBRANCH  16  17
ENDBRANCH  15  16
ENDBRANCH  14  15
ENDBRANCH  13  14
ENDBRANCH   2  13
TORSDOF 15
ENDMDL
MODEL 6
REMARK VINA RESULT:    -4.380      3.701      6.400
REMARK INTER + INTRA:         -10.161
REMARK INTER:                  -8.300
REMARK INTRA:                  -1.861
REMARK UNBOUND:                -1.940
REMARK SMILES CCCCCCCCC=CCCCCCCCC(=O)[O-]
REMARK SMILES IDX 10 1 9 2 11 3 12 4 13 5 14 6 15 7 16 8 17 9 18 10 19 11
REMARK SMILES IDX 20 12 8 13 7 14 6 15 5 16 4 17 3 18 2 19 1 20
REMARK H PARENT
REMARK Flexibility Score: inf
ROOT
ATOM      1  C   UNL     1      45.475   9.123 119.194  1.00  0.00    -0.031 C 
ATOM      2  C   UNL     1      46.087   9.732 120.228  1.00  0.00    -0.031 C 
ENDROOT
BRANCH   1   3
ATOM      3  C   UNL     1      45.502   9.602 117.764  1.00  0.00     0.027 C 
BRANCH   3   4
ATOM      4  C   UNL     1      44.081   9.768 117.202  1.00  0.00     0.004 C 
BRANCH   4   5
ATOM      5  C   UNL     1      43.712   8.672 116.190  1.00  0.00     0.000 C 
BRANCH   5   6
ATOM      6  C   UNL     1      43.494   9.225 114.771  1.00  0.00     0.000 C 
BRANCH   6   7
ATOM      7  C   UNL     1      44.554   8.726 113.775  1.00  0.00     0.000 C 
BRANCH   7   8
ATOM      8  C   UNL     1      45.380   7.550 114.327  1.00  0.00     0.006 C 
BRANCH   8   9
ATOM      9  C   UNL     1      46.845   7.936 114.568  1.00  0.00     0.053 C 
BRANCH   9  10
ATOM     10  C   UNL     1      47.743   7.393 113.499  1.00  0.00     0.041 C 
ATOM     11  O   UNL     1      47.255   6.851 112.475  1.00  0.00    -0.550 OA
ATOM     12  O   UNL     1      49.123   7.456 113.652  1.00  0.00    -0.550 OA
ENDBRANCH   9  10
ENDBRANCH   8   9
ENDBRANCH   7   8
ENDBRANCH   6   7
ENDBRANCH   5   6
ENDBRANCH   4   5
ENDBRANCH   3   4
ENDBRANCH   1   3
BRANCH   2  13
ATOM     13  C   UNL     1      46.892  11.009 120.140  1.00  0.00     0.027 C 
BRANCH  13  14
ATOM     14  C   UNL     1      46.548  11.981 121.282  1.00  0.00     0.004 C 
BRANCH  14  15
ATOM     15  C   UNL     1      45.213  12.728 121.101  1.00  0.00     0.000 C 
BRANCH  15  16
ATOM     16  C   UNL     1      44.082  12.200 122.014  1.00  0.00     0.000 C 
BRANCH  16  17
ATOM     17  C   UNL     1      42.677  12.393 121.412  1.00  0.00    -0.000 C 
BRANCH  17  18
ATOM     18  C   UNL     1      42.443  11.592 120.118  1.00  0.00    -0.000 C 
BRANCH  18  19
ATOM     19  C   UNL     1      42.240  10.092 120.383  1.00  0.00    -0.003 C 
ATOM     20  C   UNL     1      41.113   9.859 121.385  1.00  0.00     0.004 C 
ENDBRANCH  18  19
ENDBRANCH  17  18
ENDBRANCH  16  17
ENDBRANCH  15  16
ENDBRANCH  14  15
ENDBRANCH  13  14
ENDBRANCH   2  13
TORSDOF 15
ENDMDL
MODEL 7
REMARK VINA RESULT:    -4.379      4.086      6.797
REMARK INTER + INTRA:         -10.159
REMARK INTER:                  -7.700
REMARK INTRA:                  -2.459
REMARK UNBOUND:                -1.940
REMARK SMILES CCCCCCCCC=CCCCCCCCC(=O)[O-]
REMARK SMILES IDX 10 1 9 2 11 3 12 4 13 5 14 6 15 7 16 8 17 9 18 10 19 11
REMARK SMILES IDX 20 12 8 13 7 14 6 15 5 16 4 17 3 18 2 19 1 20
REMARK H PARENT
REMARK Flexibility Score: inf
ROOT
ATOM      1  C   UNL     1      44.497   8.701 119.756  1.00  0.00    -0.031 C 
ATOM      2  C   UNL     1      45.705   9.220 120.050  1.00  0.00    -0.031 C 
ENDROOT
BRANCH   1   3
ATOM      3  C   UNL     1      43.490   9.319 118.819  1.00  0.00     0.027 C 
BRANCH   3   4
ATOM      4  C   UNL     1      43.688   8.825 117.377  1.00  0.00     0.004 C 
BRANCH   4   5
ATOM      5  C   UNL     1      44.134   9.944 116.423  1.00  0.00     0.000 C 
BRANCH   5   6
ATOM      6  C   UNL     1      45.592   9.779 115.957  1.00  0.00     0.000 C 
BRANCH   6   7
ATOM      7  C   UNL     1      46.157   8.385 116.274  1.00  0.00     0.000 C 
BRANCH   7   8
ATOM      8  C   UNL     1      46.570   7.611 115.009  1.00  0.00     0.006 C 
BRANCH   8   9
ATOM      9  C   UNL     1      45.590   7.833 113.850  1.00  0.00     0.053 C 
BRANCH   9  10
ATOM     10  C   UNL     1      44.393   6.939 113.958  1.00  0.00     0.041 C 
ATOM     11  O   UNL     1      43.245   7.430 114.117  1.00  0.00    -0.550 OA
ATOM     12  O   UNL     1      44.550   5.559 113.917  1.00  0.00    -0.550 OA
ENDBRANCH   9  10
ENDBRANCH   8   9
ENDBRANCH   7   8
ENDBRANCH   6   7
ENDBRANCH   5   6
ENDBRANCH   4   5
ENDBRANCH   3   4
ENDBRANCH   1   3
BRANCH   2  13
ATOM     13  C   UNL     1      46.256  10.520 119.506  1.00  0.00     0.027 C 
BRANCH  13  14
ATOM     14  C   UNL     1      47.015  11.313 120.582  1.00  0.00     0.004 C 
BRANCH  14  15
ATOM     15  C   UNL     1      46.179  12.405 121.276  1.00  0.00     0.000 C 
BRANCH  15  16
ATOM     16  C   UNL     1      45.453  11.912 122.549  1.00  0.00     0.000 C 
BRANCH  16  17
ATOM     17  C   UNL     1      43.918  11.954 122.428  1.00  0.00    -0.000 C 
BRANCH  17  18
ATOM     18  C   UNL     1      43.419  12.359 121.028  1.00  0.00    -0.000 C 
BRANCH  18  19
ATOM     19  C   UNL     1      41.940  12.005 120.805  1.00  0.00    -0.003 C 
ATOM     20  C   UNL     1      41.614  10.627 121.375  1.00  0.00     0.004 C 
ENDBRANCH  18  19
ENDBRANCH  17  18
ENDBRANCH  16  17
ENDBRANCH  15  16
ENDBRANCH  14  15
ENDBRANCH  13  14
ENDBRANCH   2  13
TORSDOF 15
ENDMDL
MODEL 8
REMARK VINA RESULT:    -4.377      3.294      6.183
REMARK INTER + INTRA:         -10.156
REMARK INTER:                  -7.819
REMARK INTRA:                  -2.336
REMARK UNBOUND:                -1.940
REMARK SMILES CCCCCCCCC=CCCCCCCCC(=O)[O-]
REMARK SMILES IDX 10 1 9 2 11 3 12 4 13 5 14 6 15 7 16 8 17 9 18 10 19 11
REMARK SMILES IDX 20 12 8 13 7 14 6 15 5 16 4 17 3 18 2 19 1 20
REMARK H PARENT
REMARK Flexibility Score: inf
ROOT
ATOM      1  C   UNL     1      43.707   8.975 117.442  1.00  0.00    -0.031 C 
ATOM      2  C   UNL     1      44.285   8.705 118.629  1.00  0.00    -0.031 C 
ENDROOT
BRANCH   1   3
ATOM      3  C   UNL     1      44.175  10.028 116.468  1.00  0.00     0.027 C 
BRANCH   3   4
ATOM      4  C   UNL     1      43.341  10.007 115.177  1.00  0.00     0.004 C 
BRANCH   4   5
ATOM      5  C   UNL     1      43.998   9.181 114.060  1.00  0.00     0.000 C 
BRANCH   5   6
ATOM      6  C   UNL     1      43.902   7.665 114.309  1.00  0.00     0.000 C 
BRANCH   6   7
ATOM      7  C   UNL     1      45.233   6.941 114.052  1.00  0.00     0.000 C 
BRANCH   7   8
ATOM      8  C   UNL     1      46.458   7.817 114.374  1.00  0.00     0.006 C 
BRANCH   8   9
ATOM      9  C   UNL     1      46.925   7.645 115.825  1.00  0.00     0.053 C 
BRANCH   9  10
ATOM     10  C   UNL     1      47.882   8.725 116.230  1.00  0.00     0.041 C 
ATOM     11  O   UNL     1      47.496   9.920 116.301  1.00  0.00    -0.550 OA
ATOM     12  O   UNL     1      49.210   8.413 116.497  1.00  0.00    -0.550 OA
ENDBRANCH   9  10
ENDBRANCH   8   9
ENDBRANCH   7   8
ENDBRANCH   6   7
ENDBRANCH   5   6
ENDBRANCH   4   5
ENDBRANCH   3   4
ENDBRANCH   1   3
BRANCH   2  13
ATOM     13  C   UNL     1      45.491   9.417 119.199  1.00  0.00     0.027 C 
BRANCH  13  14
ATOM     14  C   UNL     1      45.661   9.139 120.701  1.00  0.00     0.004 C 
BRANCH  14  15
ATOM     15  C   UNL     1      46.021  10.379 121.541  1.00  0.00     0.000 C 
BRANCH  15  16
ATOM     16  C   UNL     1      45.620  11.715 120.873  1.00  0.00     0.000 C 
BRANCH  16  17
ATOM     17  C   UNL     1      44.272  12.265 121.378  1.00  0.00    -0.000 C 
BRANCH  17  18
ATOM     18  C   UNL     1      43.158  12.243 120.314  1.00  0.00    -0.000 C 
BRANCH  18  19
ATOM     19  C   UNL     1      42.213  11.043 120.476  1.00  0.00    -0.003 C 
ATOM     20  C   UNL     1      42.310  10.454 121.881  1.00  0.00     0.004 C 
ENDBRANCH  18  19
ENDBRANCH  17  18
ENDBRANCH  16  17
ENDBRANCH  15  16
ENDBRANCH  14  15
ENDBRANCH  13  14
ENDBRANCH   2  13
TORSDOF 15
ENDMDL
MODEL 9
REMARK VINA RESULT:    -4.362      4.090      6.719
REMARK INTER + INTRA:         -10.128
REMARK INTER:                  -8.372
REMARK INTRA:                  -1.757
REMARK UNBOUND:                -1.940
REMARK SMILES CCCCCCCCC=CCCCCCCCC(=O)[O-]
REMARK SMILES IDX 10 1 9 2 11 3 12 4 13 5 14 6 15 7 16 8 17 9 18 10 19 11
REMARK SMILES IDX 20 12 8 13 7 14 6 15 5 16 4 17 3 18 2 19 1 20
REMARK H PARENT
REMARK Flexibility Score: inf
ROOT
ATOM      1  C   UNL     1      42.995   9.135 119.267  1.00  0.00    -0.031 C 
ATOM      2  C   UNL     1      42.565  10.168 120.016  1.00  0.00    -0.031 C 
ENDROOT
BRANCH   1   3
ATOM      3  C   UNL     1      43.764   9.260 117.975  1.00  0.00     0.027 C 
BRANCH   3   4
ATOM      4  C   UNL     1      44.895   8.221 117.893  1.00  0.00     0.004 C 
BRANCH   4   5
ATOM      5  C   UNL     1      44.783   7.321 116.653  1.00  0.00     0.000 C 
BRANCH   5   6
ATOM      6  C   UNL     1      43.532   7.625 115.810  1.00  0.00     0.000 C 
BRANCH   6   7
ATOM      7  C   UNL     1      43.671   7.146 114.356  1.00  0.00     0.000 C 
BRANCH   7   8
ATOM      8  C   UNL     1      45.081   6.616 114.037  1.00  0.00     0.006 C 
BRANCH   8   9
ATOM      9  C   UNL     1      45.931   7.652 113.290  1.00  0.00     0.053 C 
BRANCH   9  10
ATOM     10  C   UNL     1      47.347   7.190 113.124  1.00  0.00     0.041 C 
ATOM     11  O   UNL     1      47.753   6.774 112.008  1.00  0.00    -0.550 OA
ATOM     12  O   UNL     1      48.209   7.188 114.214  1.00  0.00    -0.550 OA
ENDBRANCH   9  10
ENDBRANCH   8   9
ENDBRANCH   7   8
ENDBRANCH   6   7
ENDBRANCH   5   6
ENDBRANCH   4   5
ENDBRANCH   3   4
ENDBRANCH   1   3
BRANCH   2  13
ATOM     13  C   UNL     1      42.760  11.631 119.687  1.00  0.00     0.027 C 
BRANCH  13  14
ATOM     14  C   UNL     1      42.688  12.514 120.943  1.00  0.00     0.004 C 
BRANCH  14  15
ATOM     15  C   UNL     1      43.142  11.815 122.239  1.00  0.00     0.000 C 
BRANCH  15  16
ATOM     16  C   UNL     1      44.351  12.498 122.919  1.00  0.00     0.000 C 
BRANCH  16  17
ATOM     17  C   UNL     1      45.583  11.579 123.030  1.00  0.00    -0.000 C 
BRANCH  17  18
ATOM     18  C   UNL     1      45.849  10.745 121.764  1.00  0.00    -0.000 C 
BRANCH  18  19
ATOM     19  C   UNL     1      46.555  11.553 120.664  1.00  0.00    -0.003 C 
ATOM     20  C   UNL     1      47.130  10.633 119.591  1.00  0.00     0.004 C 
ENDBRANCH  18  19
ENDBRANCH  17  18
ENDBRANCH  16  17
ENDBRANCH  15  16
ENDBRANCH  14  15
ENDBRANCH  13  14
ENDBRANCH   2  13
TORSDOF 15
ENDMDL
