MODEL 1
REMARK VINA RESULT:    -5.823      0.000      0.000
REMARK INTER + INTRA:          -7.227
REMARK INTER:                  -6.674
REMARK INTRA:                  -0.553
REMARK UNBOUND:                -0.553
REMARK SMILES C=C(C)[C@@H]1CC[C@@]2(C(=O)[O-])CC[C@@]3(C)[C@@H](CC[C@@H]4[C@@]5(C)CC[C@H](O)C(C)(C)[C@H]5CC[C@]43C)[C@@H]12
REMARK SMILES IDX 7 1 6 2 33 3 11 4 5 5 15 6 4 7 12 8 16 9 13 10 17 11 31 12
REMARK SMILES IDX 14 13 18 14 30 15 32 16 19 17 29 18 21 19 20 20 28 21 22 22
REMARK SMILES IDX 25 23 23 24 26 25 27 26 8 27 9 28 10 29 2 30 3 31 1 32 24 33
REMARK H PARENT 24 34
REMARK Flexibility Score: inf
ROOT
ATOM      1  C   UNL     1       5.879   1.534  -7.091  1.00  0.00     0.014 C 
ATOM      2  C   UNL     1       6.247   3.015  -6.780  1.00  0.00     0.014 C 
ATOM      3  C   UNL     1       5.567   0.864  -5.714  1.00  0.00     0.012 C 
ATOM      4  C   UNL     1       7.048   0.833  -7.850  1.00  0.00     0.014 C 
ATOM      5  C   UNL     1       6.145   3.245  -5.278  1.00  0.00     0.009 C 
ATOM      6  C   UNL     1       6.429  -0.412  -5.435  1.00  0.00     0.000 C 
ATOM      7  C   UNL     1       5.593   1.972  -4.629  1.00  0.00     0.018 C 
ATOM      8  C   UNL     1       8.277   0.550  -6.967  1.00  0.00     0.008 C 
ATOM      9  C   UNL     1       6.075  -1.122  -4.094  1.00  0.00     0.005 C 
ATOM     10  C   UNL     1       7.984  -0.320  -5.681  1.00  0.00    -0.024 C 
ATOM     11  C   UNL     1       7.027  -2.290  -3.747  1.00  0.00     0.005 C 
ATOM     12  C   UNL     1       8.586  -1.853  -5.786  1.00  0.00    -0.024 C 
ATOM     13  C   UNL     1       8.631   0.491  -4.496  1.00  0.00     0.012 C 
ATOM     14  C   UNL     1       7.665  -2.893  -5.019  1.00  0.00     0.002 C 
ATOM     15  C   UNL     1       8.646  -2.391  -7.264  1.00  0.00     0.008 C 
ATOM     16  C   UNL     1      10.045  -1.854  -5.233  1.00  0.00     0.012 C 
ATOM     17  C   UNL     1       8.193  -4.399  -4.925  1.00  0.00    -0.026 C 
ATOM     18  C   UNL     1       8.437  -3.921  -7.465  1.00  0.00     0.005 C 
ATOM     19  C   UNL     1       6.932  -5.307  -4.693  1.00  0.00     0.010 C 
ATOM     20  C   UNL     1       9.140  -4.562  -3.696  1.00  0.00     0.012 C 
ATOM     21  C   UNL     1       8.945  -4.803  -6.285  1.00  0.00     0.003 C 
ATOM     22  C   UNL     1       7.142  -6.796  -4.939  1.00  0.00     0.033 C 
ATOM     23  C   UNL     1       9.002  -6.362  -6.622  1.00  0.00    -0.006 C 
ATOM     24  C   UNL     1       7.630  -7.040  -6.365  1.00  0.00     0.120 C 
ATOM     25  C   UNL     1      10.125  -7.050  -5.791  1.00  0.00     0.014 C 
ATOM     26  C   UNL     1       9.384  -6.621  -8.106  1.00  0.00     0.014 C 
ENDROOT
BRANCH   1  27
ATOM     27  C   UNL     1       4.641   1.429  -7.985  1.00  0.00     0.048 C 
ATOM     28  O   UNL     1       4.137   0.317  -8.303  1.00  0.00    -0.550 OA
ATOM     29  O   UNL     1       4.076   2.590  -8.510  1.00  0.00    -0.550 OA
ENDBRANCH   1  27
BRANCH   7  30
ATOM     30  C   UNL     1       4.220   2.208  -3.998  1.00  0.00    -0.077 C 
ATOM     31  C   UNL     1       3.542   3.546  -4.130  1.00  0.00     0.039 C 
ATOM     32  C   UNL     1       3.581   1.231  -3.332  1.00  0.00     0.008 C 
ENDBRANCH   7  30
BRANCH  24  33
ATOM     33  O   UNL     1       7.711  -8.424  -6.599  1.00  0.00    -0.393 OA
ATOM     34  H   UNL     1       6.960  -8.845  -6.102  1.00  0.00     0.210 HD
ENDBRANCH  24  33
TORSDOF 3
ENDMDL
MODEL 2
REMARK VINA RESULT:    -5.035      2.164      8.029
REMARK INTER + INTRA:          -6.324
REMARK INTER:                  -5.661
REMARK INTRA:                  -0.663
REMARK UNBOUND:                -0.553
REMARK SMILES C=C(C)[C@@H]1CC[C@@]2(C(=O)[O-])CC[C@@]3(C)[C@@H](CC[C@@H]4[C@@]5(C)CC[C@H](O)C(C)(C)[C@H]5CC[C@]43C)[C@@H]12
REMARK SMILES IDX 7 1 6 2 33 3 11 4 5 5 15 6 4 7 12 8 16 9 13 10 17 11 31 12
REMARK SMILES IDX 14 13 18 14 30 15 32 16 19 17 29 18 21 19 20 20 28 21 22 22
REMARK SMILES IDX 25 23 23 24 26 25 27 26 8 27 9 28 10 29 2 30 3 31 1 32 24 33
REMARK H PARENT 24 34
REMARK Flexibility Score: inf
ROOT
ATOM      1  C   UNL     1       7.680  -6.188  -3.246  1.00  0.00     0.014 C 
ATOM      2  C   UNL     1       8.872  -7.028  -2.701  1.00  0.00     0.014 C 
ATOM      3  C   UNL     1       7.559  -6.536  -4.766  1.00  0.00     0.012 C 
ATOM      4  C   UNL     1       7.929  -4.668  -2.995  1.00  0.00     0.014 C 
ATOM      5  C   UNL     1       9.443  -7.869  -3.836  1.00  0.00     0.009 C 
ATOM      6  C   UNL     1       7.624  -5.279  -5.697  1.00  0.00     0.000 C 
ATOM      7  C   UNL     1       8.559  -7.682  -5.072  1.00  0.00     0.018 C 
ATOM      8  C   UNL     1       9.023  -4.064  -3.893  1.00  0.00     0.008 C 
ATOM      9  C   UNL     1       7.437  -5.614  -7.207  1.00  0.00     0.005 C 
ATOM     10  C   UNL     1       8.777  -4.234  -5.446  1.00  0.00    -0.024 C 
ATOM     11  C   UNL     1       7.653  -4.397  -8.137  1.00  0.00     0.005 C 
ATOM     12  C   UNL     1       8.370  -2.820  -6.194  1.00  0.00    -0.024 C 
ATOM     13  C   UNL     1      10.125  -4.831  -5.999  1.00  0.00     0.012 C 
ATOM     14  C   UNL     1       7.370  -3.069  -7.401  1.00  0.00     0.002 C 
ATOM     15  C   UNL     1       7.608  -1.819  -5.248  1.00  0.00     0.008 C 
ATOM     16  C   UNL     1       9.678  -2.110  -6.663  1.00  0.00     0.012 C 
ATOM     17  C   UNL     1       6.991  -1.804  -8.302  1.00  0.00    -0.026 C 
ATOM     18  C   UNL     1       6.550  -0.891  -5.912  1.00  0.00     0.005 C 
ATOM     19  C   UNL     1       5.615  -2.132  -8.987  1.00  0.00     0.010 C 
ATOM     20  C   UNL     1       8.055  -1.602  -9.424  1.00  0.00     0.012 C 
ATOM     21  C   UNL     1       6.872  -0.492  -7.384  1.00  0.00     0.003 C 
ATOM     22  C   UNL     1       4.884  -0.941  -9.592  1.00  0.00     0.033 C 
ATOM     23  C   UNL     1       5.953   0.684  -7.950  1.00  0.00    -0.006 C 
ATOM     24  C   UNL     1       4.626   0.126  -8.530  1.00  0.00     0.120 C 
ATOM     25  C   UNL     1       6.729   1.501  -9.025  1.00  0.00     0.014 C 
ATOM     26  C   UNL     1       5.587   1.717  -6.848  1.00  0.00     0.014 C 
ENDROOT
BRANCH   1  27
ATOM     27  C   UNL     1       6.364  -6.544  -2.550  1.00  0.00     0.048 C 
ATOM     28  O   UNL     1       6.066  -7.732  -2.249  1.00  0.00    -0.550 OA
ATOM     29  O   UNL     1       5.438  -5.537  -2.281  1.00  0.00    -0.550 OA
ENDBRANCH   1  27
BRANCH   7  30
ATOM     30  C   UNL     1       7.856  -8.981  -5.468  1.00  0.00    -0.077 C 
ATOM     31  C   UNL     1       7.438  -9.972  -4.414  1.00  0.00     0.039 C 
ATOM     32  C   UNL     1       7.582  -9.263  -6.753  1.00  0.00     0.008 C 
ENDBRANCH   7  30
BRANCH  24  33
ATOM     33  O   UNL     1       3.857   1.162  -9.089  1.00  0.00    -0.393 OA
ATOM     34  H   UNL     1       3.861   1.910  -8.433  1.00  0.00     0.210 HD
ENDBRANCH  24  33
TORSDOF 3
ENDMDL
MODEL 3
REMARK VINA RESULT:    -4.881      2.156      7.872
REMARK INTER + INTRA:          -6.148
REMARK INTER:                  -5.497
REMARK INTRA:                  -0.650
REMARK UNBOUND:                -0.553
REMARK SMILES C=C(C)[C@@H]1CC[C@@]2(C(=O)[O-])CC[C@@]3(C)[C@@H](CC[C@@H]4[C@@]5(C)CC[C@H](O)C(C)(C)[C@H]5CC[C@]43C)[C@@H]12
REMARK SMILES IDX 7 1 6 2 33 3 11 4 5 5 15 6 4 7 12 8 16 9 13 10 17 11 31 12
REMARK SMILES IDX 14 13 18 14 30 15 32 16 19 17 29 18 21 19 20 20 28 21 22 22
REMARK SMILES IDX 25 23 23 24 26 25 27 26 8 27 9 28 10 29 2 30 3 31 1 32 24 33
REMARK H PARENT 24 34
REMARK Flexibility Score: inf
ROOT
ATOM      1  C   UNL     1       8.138  -3.334  -3.539  1.00  0.00     0.014 C 
ATOM      2  C   UNL     1       9.338  -4.314  -3.386  1.00  0.00     0.014 C 
ATOM      3  C   UNL     1       7.567  -3.564  -4.976  1.00  0.00     0.012 C 
ATOM      4  C   UNL     1       8.604  -1.863  -3.305  1.00  0.00     0.014 C 
ATOM      5  C   UNL     1       9.483  -5.122  -4.668  1.00  0.00     0.009 C 
ATOM      6  C   UNL     1       7.505  -2.258  -5.835  1.00  0.00     0.000 C 
ATOM      7  C   UNL     1       8.317  -4.771  -5.598  1.00  0.00     0.018 C 
ATOM      8  C   UNL     1       9.467  -1.300  -4.449  1.00  0.00     0.008 C 
ATOM      9  C   UNL     1       6.875  -2.470  -7.245  1.00  0.00     0.005 C 
ATOM     10  C   UNL     1       8.786  -1.339  -5.875  1.00  0.00    -0.024 C 
ATOM     11  C   UNL     1       6.953  -1.216  -8.147  1.00  0.00     0.005 C 
ATOM     12  C   UNL     1       8.340   0.153  -6.420  1.00  0.00    -0.024 C 
ATOM     13  C   UNL     1       9.858  -2.016  -6.809  1.00  0.00     0.012 C 
ATOM     14  C   UNL     1       7.026   0.079  -7.306  1.00  0.00     0.002 C 
ATOM     15  C   UNL     1       7.978   1.151  -5.257  1.00  0.00     0.008 C 
ATOM     16  C   UNL     1       9.536   0.774  -7.208  1.00  0.00     0.012 C 
ATOM     17  C   UNL     1       6.549   1.432  -8.012  1.00  0.00    -0.026 C 
ATOM     18  C   UNL     1       6.882   2.214  -5.559  1.00  0.00     0.005 C 
ATOM     19  C   UNL     1       5.011   1.276  -8.296  1.00  0.00     0.010 C 
ATOM     20  C   UNL     1       7.278   1.614  -9.378  1.00  0.00     0.012 C 
ATOM     21  C   UNL     1       6.826   2.683  -7.044  1.00  0.00     0.003 C 
ATOM     22  C   UNL     1       4.271   2.567  -8.622  1.00  0.00     0.033 C 
ATOM     23  C   UNL     1       5.915   3.973  -7.281  1.00  0.00    -0.006 C 
ATOM     24  C   UNL     1       4.429   3.577  -7.487  1.00  0.00     0.120 C 
ATOM     25  C   UNL     1       6.447   4.789  -8.496  1.00  0.00     0.014 C 
ATOM     26  C   UNL     1       5.978   4.956  -6.078  1.00  0.00     0.014 C 
ENDROOT
BRANCH   1  27
ATOM     27  C   UNL     1       7.035  -3.618  -2.516  1.00  0.00     0.048 C 
ATOM     28  O   UNL     1       6.353  -4.679  -2.543  1.00  0.00    -0.550 OA
ATOM     29  O   UNL     1       6.733  -2.658  -1.551  1.00  0.00    -0.550 OA
ENDBRANCH   1  27
BRANCH   7  30
ATOM     30  C   UNL     1       7.400  -5.972  -5.833  1.00  0.00    -0.077 C 
ATOM     31  C   UNL     1       7.523  -7.204  -4.975  1.00  0.00     0.039 C 
ATOM     32  C   UNL     1       6.458  -5.954  -6.792  1.00  0.00     0.008 C 
ENDBRANCH   7  30
BRANCH  24  33
ATOM     33  O   UNL     1       3.649   4.714  -7.764  1.00  0.00    -0.393 OA
ATOM     34  H   UNL     1       2.820   4.634  -7.221  1.00  0.00     0.210 HD
ENDBRANCH  24  33
TORSDOF 3
ENDMDL
MODEL 4
REMARK VINA RESULT:    -4.405      2.551      4.810
REMARK INTER + INTRA:          -5.601
REMARK INTER:                  -4.901
REMARK INTRA:                  -0.700
REMARK UNBOUND:                -0.553
REMARK SMILES C=C(C)[C@@H]1CC[C@@]2(C(=O)[O-])CC[C@@]3(C)[C@@H](CC[C@@H]4[C@@]5(C)CC[C@H](O)C(C)(C)[C@H]5CC[C@]43C)[C@@H]12
REMARK SMILES IDX 7 1 6 2 33 3 11 4 5 5 15 6 4 7 12 8 16 9 13 10 17 11 31 12
REMARK SMILES IDX 14 13 18 14 30 15 32 16 19 17 29 18 21 19 20 20 28 21 22 22
REMARK SMILES IDX 25 23 23 24 26 25 27 26 8 27 9 28 10 29 2 30 3 31 1 32 24 33
REMARK H PARENT 24 34
REMARK Flexibility Score: inf
ROOT
ATOM      1  C   UNL     1       6.212   4.351  -6.061  1.00  0.00     0.014 C 
ATOM      2  C   UNL     1       5.414   5.238  -7.062  1.00  0.00     0.014 C 
ATOM      3  C   UNL     1       7.422   3.770  -6.861  1.00  0.00     0.012 C 
ATOM      4  C   UNL     1       5.291   3.239  -5.469  1.00  0.00     0.014 C 
ATOM      5  C   UNL     1       6.119   5.214  -8.412  1.00  0.00     0.009 C 
ATOM      6  C   UNL     1       7.498   2.207  -6.821  1.00  0.00     0.000 C 
ATOM      7  C   UNL     1       7.427   4.431  -8.264  1.00  0.00     0.018 C 
ATOM      8  C   UNL     1       4.936   2.130  -6.476  1.00  0.00     0.008 C 
ATOM      9  C   UNL     1       8.740   1.625  -7.561  1.00  0.00     0.005 C 
ATOM     10  C   UNL     1       6.179   1.396  -7.120  1.00  0.00    -0.024 C 
ATOM     11  C   UNL     1       8.734   0.081  -7.652  1.00  0.00     0.005 C 
ATOM     12  C   UNL     1       6.379  -0.145  -6.565  1.00  0.00    -0.024 C 
ATOM     13  C   UNL     1       5.907   1.437  -8.670  1.00  0.00     0.012 C 
ATOM     14  C   UNL     1       7.913  -0.547  -6.503  1.00  0.00     0.002 C 
ATOM     15  C   UNL     1       5.858  -0.342  -5.092  1.00  0.00     0.008 C 
ATOM     16  C   UNL     1       5.563  -1.113  -7.478  1.00  0.00     0.012 C 
ATOM     17  C   UNL     1       8.253  -2.058  -6.108  1.00  0.00    -0.026 C 
ATOM     18  C   UNL     1       6.613  -1.381  -4.212  1.00  0.00     0.005 C 
ATOM     19  C   UNL     1       9.719  -2.059  -5.541  1.00  0.00     0.010 C 
ATOM     20  C   UNL     1       8.222  -2.967  -7.375  1.00  0.00     0.012 C 
ATOM     21  C   UNL     1       7.214  -2.583  -5.002  1.00  0.00     0.003 C 
ATOM     22  C   UNL     1      10.121  -3.307  -4.767  1.00  0.00     0.033 C 
ATOM     23  C   UNL     1       7.718  -3.779  -4.072  1.00  0.00    -0.006 C 
ATOM     24  C   UNL     1       9.173  -3.537  -3.591  1.00  0.00     0.120 C 
ATOM     25  C   UNL     1       7.601  -5.134  -4.831  1.00  0.00     0.014 C 
ATOM     26  C   UNL     1       6.827  -3.948  -2.810  1.00  0.00     0.014 C 
ENDROOT
BRANCH   1  27
ATOM     27  C   UNL     1       6.745   5.164  -4.878  1.00  0.00     0.048 C 
ATOM     28  O   UNL     1       5.979   5.660  -4.007  1.00  0.00    -0.550 OA
ATOM     29  O   UNL     1       8.113   5.411  -4.779  1.00  0.00    -0.550 OA
ENDBRANCH   1  27
BRANCH   7  30
ATOM     30  C   UNL     1       8.649   5.323  -8.488  1.00  0.00    -0.077 C 
ATOM     31  C   UNL     1       8.649   6.749  -8.003  1.00  0.00     0.039 C 
ATOM     32  C   UNL     1       9.750   4.857  -9.101  1.00  0.00     0.008 C 
ENDBRANCH   7  30
BRANCH  24  33
ATOM     33  O   UNL     1       9.630  -4.629  -2.832  1.00  0.00    -0.393 OA
ATOM     34  H   UNL     1      10.063  -5.261  -3.466  1.00  0.00     0.210 HD
ENDBRANCH  24  33
TORSDOF 3
ENDMDL
MODEL 5
REMARK VINA RESULT:    -4.352      2.093      3.705
REMARK INTER + INTRA:          -5.541
REMARK INTER:                  -4.867
REMARK INTRA:                  -0.674
REMARK UNBOUND:                -0.553
REMARK SMILES C=C(C)[C@@H]1CC[C@@]2(C(=O)[O-])CC[C@@]3(C)[C@@H](CC[C@@H]4[C@@]5(C)CC[C@H](O)C(C)(C)[C@H]5CC[C@]43C)[C@@H]12
REMARK SMILES IDX 7 1 6 2 33 3 11 4 5 5 15 6 4 7 12 8 16 9 13 10 17 11 31 12
REMARK SMILES IDX 14 13 18 14 30 15 32 16 19 17 29 18 21 19 20 20 28 21 22 22
REMARK SMILES IDX 25 23 23 24 26 25 27 26 8 27 9 28 10 29 2 30 3 31 1 32 24 33
REMARK H PARENT 24 34
REMARK Flexibility Score: inf
ROOT
ATOM      1  C   UNL     1       5.322   2.878  -5.690  1.00  0.00     0.014 C 
ATOM      2  C   UNL     1       5.006   4.218  -6.417  1.00  0.00     0.014 C 
ATOM      3  C   UNL     1       6.880   2.784  -5.604  1.00  0.00     0.012 C 
ATOM      4  C   UNL     1       4.689   1.679  -6.462  1.00  0.00     0.014 C 
ATOM      5  C   UNL     1       6.317   4.922  -6.745  1.00  0.00     0.009 C 
ATOM      6  C   UNL     1       7.458   1.471  -6.230  1.00  0.00     0.000 C 
ATOM      7  C   UNL     1       7.466   4.122  -6.127  1.00  0.00     0.018 C 
ATOM      8  C   UNL     1       5.398   1.355  -7.790  1.00  0.00     0.008 C 
ATOM      9  C   UNL     1       9.005   1.343  -6.087  1.00  0.00     0.005 C 
ATOM     10  C   UNL     1       6.943   1.046  -7.658  1.00  0.00    -0.024 C 
ATOM     11  C   UNL     1       9.591   0.124  -6.837  1.00  0.00     0.005 C 
ATOM     12  C   UNL     1       7.306  -0.547  -7.889  1.00  0.00    -0.024 C 
ATOM     13  C   UNL     1       7.627   1.972  -8.733  1.00  0.00     0.012 C 
ATOM     14  C   UNL     1       8.539  -0.997  -6.999  1.00  0.00     0.002 C 
ATOM     15  C   UNL     1       6.137  -1.513  -7.465  1.00  0.00     0.008 C 
ATOM     16  C   UNL     1       7.573  -0.782  -9.409  1.00  0.00     0.012 C 
ATOM     17  C   UNL     1       9.088  -2.483  -7.216  1.00  0.00    -0.026 C 
ATOM     18  C   UNL     1       6.545  -2.907  -6.906  1.00  0.00     0.005 C 
ATOM     19  C   UNL     1       9.839  -2.886  -5.895  1.00  0.00     0.010 C 
ATOM     20  C   UNL     1      10.117  -2.513  -8.387  1.00  0.00     0.012 C 
ATOM     21  C   UNL     1       7.864  -3.483  -7.503  1.00  0.00     0.003 C 
ATOM     22  C   UNL     1      10.121  -4.374  -5.729  1.00  0.00     0.033 C 
ATOM     23  C   UNL     1       8.114  -5.021  -7.155  1.00  0.00    -0.006 C 
ATOM     24  C   UNL     1       8.822  -5.175  -5.783  1.00  0.00     0.120 C 
ATOM     25  C   UNL     1       8.941  -5.700  -8.286  1.00  0.00     0.014 C 
ATOM     26  C   UNL     1       6.785  -5.824  -7.091  1.00  0.00     0.014 C 
ENDROOT
BRANCH   1  27
ATOM     27  C   UNL     1       4.745   2.848  -4.272  1.00  0.00     0.048 C 
ATOM     28  O   UNL     1       4.221   3.864  -3.740  1.00  0.00    -0.550 OA
ATOM     29  O   UNL     1       4.841   1.678  -3.519  1.00  0.00    -0.550 OA
ENDBRANCH   1  27
BRANCH   7  30
ATOM     30  C   UNL     1       8.185   4.914  -5.033  1.00  0.00    -0.077 C 
ATOM     31  C   UNL     1       9.686   4.873  -4.925  1.00  0.00     0.039 C 
ATOM     32  C   UNL     1       7.502   5.673  -4.159  1.00  0.00     0.008 C 
ENDBRANCH   7  30
BRANCH  24  33
ATOM     33  O   UNL     1       9.099  -6.528  -5.519  1.00  0.00    -0.393 OA
ATOM     34  H   UNL     1       8.227  -6.972  -5.342  1.00  0.00     0.210 HD
ENDBRANCH  24  33
TORSDOF 3
ENDMDL
MODEL 6
REMARK VINA RESULT:    -4.231      2.783      7.759
REMARK INTER + INTRA:          -5.403
REMARK INTER:                  -4.691
REMARK INTRA:                  -0.711
REMARK UNBOUND:                -0.553
REMARK SMILES C=C(C)[C@@H]1CC[C@@]2(C(=O)[O-])CC[C@@]3(C)[C@@H](CC[C@@H]4[C@@]5(C)CC[C@H](O)C(C)(C)[C@H]5CC[C@]43C)[C@@H]12
REMARK SMILES IDX 7 1 6 2 33 3 11 4 5 5 15 6 4 7 12 8 16 9 13 10 17 11 31 12
REMARK SMILES IDX 14 13 18 14 30 15 32 16 19 17 29 18 21 19 20 20 28 21 22 22
REMARK SMILES IDX 25 23 23 24 26 25 27 26 8 27 9 28 10 29 2 30 3 31 1 32 24 33
REMARK H PARENT 24 34
REMARK Flexibility Score: inf
ROOT
ATOM      1  C   UNL     1       9.216  -2.191  -4.237  1.00  0.00     0.014 C 
ATOM      2  C   UNL     1       9.509  -3.718  -4.323  1.00  0.00     0.014 C 
ATOM      3  C   UNL     1       7.663  -2.050  -4.124  1.00  0.00     0.012 C 
ATOM      4  C   UNL     1       9.798  -1.455  -5.483  1.00  0.00     0.014 C 
ATOM      5  C   UNL     1       8.191  -4.478  -4.248  1.00  0.00     0.009 C 
ATOM      6  C   UNL     1       7.041  -1.133  -5.230  1.00  0.00     0.000 C 
ATOM      7  C   UNL     1       7.065  -3.475  -3.985  1.00  0.00     0.018 C 
ATOM      8  C   UNL     1       9.021  -1.732  -6.783  1.00  0.00     0.008 C 
ATOM      9  C   UNL     1       5.502  -0.936  -5.082  1.00  0.00     0.005 C 
ATOM     10  C   UNL     1       7.481  -1.378  -6.724  1.00  0.00    -0.024 C 
ATOM     11  C   UNL     1       4.868  -0.157  -6.258  1.00  0.00     0.005 C 
ATOM     12  C   UNL     1       7.091  -0.039  -7.607  1.00  0.00    -0.024 C 
ATOM     13  C   UNL     1       6.755  -2.670  -7.254  1.00  0.00     0.012 C 
ATOM     14  C   UNL     1       5.899   0.769  -6.942  1.00  0.00     0.002 C 
ATOM     15  C   UNL     1       8.270   1.001  -7.702  1.00  0.00     0.008 C 
ATOM     16  C   UNL     1       6.748  -0.485  -9.063  1.00  0.00     0.012 C 
ATOM     17  C   UNL     1       5.326   2.019  -7.756  1.00  0.00    -0.026 C 
ATOM     18  C   UNL     1       7.876   2.505  -7.786  1.00  0.00     0.005 C 
ATOM     19  C   UNL     1       4.636   2.965  -6.708  1.00  0.00     0.010 C 
ATOM     20  C   UNL     1       4.240   1.549  -8.773  1.00  0.00     0.012 C 
ATOM     21  C   UNL     1       6.523   2.779  -8.509  1.00  0.00     0.003 C 
ATOM     22  C   UNL     1       4.347   4.380  -7.192  1.00  0.00     0.033 C 
ATOM     23  C   UNL     1       6.275   4.319  -8.853  1.00  0.00    -0.006 C 
ATOM     24  C   UNL     1       5.634   5.063  -7.651  1.00  0.00     0.120 C 
ATOM     25  C   UNL     1       5.387   4.448 -10.125  1.00  0.00     0.014 C 
ATOM     26  C   UNL     1       7.598   5.054  -9.210  1.00  0.00     0.014 C 
ENDROOT
BRANCH   1  27
ATOM     27  C   UNL     1       9.861  -1.555  -3.003  1.00  0.00     0.048 C 
ATOM     28  O   UNL     1      10.125  -2.222  -1.966  1.00  0.00    -0.550 OA
ATOM     29  O   UNL     1      10.124  -0.185  -2.998  1.00  0.00    -0.550 OA
ENDBRANCH   1  27
BRANCH   7  30
ATOM     30  C   UNL     1       6.410  -3.704  -2.622  1.00  0.00    -0.077 C 
ATOM     31  C   UNL     1       6.229  -2.558  -1.661  1.00  0.00     0.039 C 
ATOM     32  C   UNL     1       5.966  -4.919  -2.256  1.00  0.00     0.008 C 
ENDBRANCH   7  30
BRANCH  24  33
ATOM     33  O   UNL     1       5.356   6.399  -7.989  1.00  0.00    -0.393 OA
ATOM     34  H   UNL     1       5.725   6.964  -7.259  1.00  0.00     0.210 HD
ENDBRANCH  24  33
TORSDOF 3
ENDMDL
MODEL 7
REMARK VINA RESULT:    -4.207      3.256      5.395
REMARK INTER + INTRA:          -5.375
REMARK INTER:                  -4.778
REMARK INTRA:                  -0.596
REMARK UNBOUND:                -0.553
REMARK SMILES C=C(C)[C@@H]1CC[C@@]2(C(=O)[O-])CC[C@@]3(C)[C@@H](CC[C@@H]4[C@@]5(C)CC[C@H](O)C(C)(C)[C@H]5CC[C@]43C)[C@@H]12
REMARK SMILES IDX 7 1 6 2 33 3 11 4 5 5 15 6 4 7 12 8 16 9 13 10 17 11 31 12
REMARK SMILES IDX 14 13 18 14 30 15 32 16 19 17 29 18 21 19 20 20 28 21 22 22
REMARK SMILES IDX 25 23 23 24 26 25 27 26 8 27 9 28 10 29 2 30 3 31 1 32 24 33
REMARK H PARENT 24 34
REMARK Flexibility Score: inf
ROOT
ATOM      1  C   UNL     1       6.176   4.687  -5.237  1.00  0.00     0.014 C 
ATOM      2  C   UNL     1       5.986   5.496  -6.554  1.00  0.00     0.014 C 
ATOM      3  C   UNL     1       7.464   3.825  -5.436  1.00  0.00     0.012 C 
ATOM      4  C   UNL     1       4.911   3.821  -4.945  1.00  0.00     0.014 C 
ATOM      5  C   UNL     1       7.122   5.157  -7.510  1.00  0.00     0.009 C 
ATOM      6  C   UNL     1       7.227   2.294  -5.214  1.00  0.00     0.000 C 
ATOM      7  C   UNL     1       8.111   4.240  -6.784  1.00  0.00     0.018 C 
ATOM      8  C   UNL     1       4.753   2.619  -5.894  1.00  0.00     0.008 C 
ATOM      9  C   UNL     1       8.522   1.438  -5.346  1.00  0.00     0.005 C 
ATOM     10  C   UNL     1       5.985   1.629  -5.923  1.00  0.00    -0.024 C 
ATOM     11  C   UNL     1       8.261  -0.085  -5.277  1.00  0.00     0.005 C 
ATOM     12  C   UNL     1       5.674   0.187  -5.183  1.00  0.00    -0.024 C 
ATOM     13  C   UNL     1       6.318   1.452  -7.452  1.00  0.00     0.012 C 
ATOM     14  C   UNL     1       6.972  -0.400  -4.486  1.00  0.00     0.002 C 
ATOM     15  C   UNL     1       4.619   0.307  -4.021  1.00  0.00     0.008 C 
ATOM     16  C   UNL     1       5.088  -0.799  -6.241  1.00  0.00     0.012 C 
ATOM     17  C   UNL     1       6.853  -1.858  -3.840  1.00  0.00    -0.026 C 
ATOM     18  C   UNL     1       4.786  -0.666  -2.817  1.00  0.00     0.005 C 
ATOM     19  C   UNL     1       7.978  -1.963  -2.748  1.00  0.00     0.010 C 
ATOM     20  C   UNL     1       7.123  -2.950  -4.920  1.00  0.00     0.012 C 
ATOM     21  C   UNL     1       5.400  -2.050  -3.184  1.00  0.00     0.003 C 
ATOM     22  C   UNL     1       7.824  -3.110  -1.757  1.00  0.00     0.033 C 
ATOM     23  C   UNL     1       5.292  -3.134  -2.017  1.00  0.00    -0.006 C 
ATOM     24  C   UNL     1       6.484  -3.014  -1.030  1.00  0.00     0.120 C 
ATOM     25  C   UNL     1       5.213  -4.567  -2.622  1.00  0.00     0.014 C 
ATOM     26  C   UNL     1       3.982  -2.973  -1.195  1.00  0.00     0.014 C 
ENDROOT
BRANCH   1  27
ATOM     27  C   UNL     1       6.376   5.604  -4.027  1.00  0.00     0.048 C 
ATOM     28  O   UNL     1       7.518   6.002  -3.669  1.00  0.00    -0.550 OA
ATOM     29  O   UNL     1       5.271   5.976  -3.261  1.00  0.00    -0.550 OA
ENDBRANCH   1  27
BRANCH   7  30
ATOM     30  C   UNL     1       9.473   4.912  -6.597  1.00  0.00    -0.077 C 
ATOM     31  C   UNL     1      10.125   4.947  -5.240  1.00  0.00     0.039 C 
ATOM     32  C   UNL     1      10.124   5.467  -7.633  1.00  0.00     0.008 C 
ENDBRANCH   7  30
BRANCH  24  33
ATOM     33  O   UNL     1       6.415  -4.018  -0.048  1.00  0.00    -0.393 OA
ATOM     34  H   UNL     1       6.165  -4.861  -0.514  1.00  0.00     0.210 HD
ENDBRANCH  24  33
TORSDOF 3
ENDMDL
MODEL 8
REMARK VINA RESULT:    -4.122      2.388      7.804
REMARK INTER + INTRA:          -5.278
REMARK INTER:                  -4.605
REMARK INTRA:                  -0.673
REMARK UNBOUND:                -0.553
REMARK SMILES C=C(C)[C@@H]1CC[C@@]2(C(=O)[O-])CC[C@@]3(C)[C@@H](CC[C@@H]4[C@@]5(C)CC[C@H](O)C(C)(C)[C@H]5CC[C@]43C)[C@@H]12
REMARK SMILES IDX 7 1 6 2 33 3 11 4 5 5 15 6 4 7 12 8 16 9 13 10 17 11 31 12
REMARK SMILES IDX 14 13 18 14 30 15 32 16 19 17 29 18 21 19 20 20 28 21 22 22
REMARK SMILES IDX 25 23 23 24 26 25 27 26 8 27 9 28 10 29 2 30 3 31 1 32 24 33
REMARK H PARENT 24 34
REMARK Flexibility Score: inf
ROOT
ATOM      1  C   UNL     1       7.077  -1.939  -3.390  1.00  0.00     0.014 C 
ATOM      2  C   UNL     1       8.349  -2.648  -2.836  1.00  0.00     0.014 C 
ATOM      3  C   UNL     1       6.864  -2.493  -4.836  1.00  0.00     0.012 C 
ATOM      4  C   UNL     1       7.264  -0.390  -3.361  1.00  0.00     0.014 C 
ATOM      5  C   UNL     1       8.878  -3.608  -3.893  1.00  0.00     0.009 C 
ATOM      6  C   UNL     1       6.794  -1.372  -5.926  1.00  0.00     0.000 C 
ATOM      7  C   UNL     1       7.896  -3.627  -5.068  1.00  0.00     0.018 C 
ATOM      8  C   UNL     1       8.256   0.133  -4.415  1.00  0.00     0.008 C 
ATOM      9  C   UNL     1       6.514  -1.915  -7.360  1.00  0.00     0.005 C 
ATOM     10  C   UNL     1       7.906  -0.254  -5.907  1.00  0.00    -0.024 C 
ATOM     11  C   UNL     1       6.597  -0.826  -8.455  1.00  0.00     0.005 C 
ATOM     12  C   UNL     1       7.372   1.027  -6.799  1.00  0.00    -0.024 C 
ATOM     13  C   UNL     1       9.239  -0.864  -6.483  1.00  0.00     0.012 C 
ATOM     14  C   UNL     1       6.300   0.577  -7.879  1.00  0.00     0.002 C 
ATOM     15  C   UNL     1       6.630   2.113  -5.934  1.00  0.00     0.008 C 
ATOM     16  C   UNL     1       8.603   1.722  -7.460  1.00  0.00     0.012 C 
ATOM     17  C   UNL     1       5.790   1.691  -8.905  1.00  0.00    -0.026 C 
ATOM     18  C   UNL     1       5.478   2.899  -6.628  1.00  0.00     0.005 C 
ATOM     19  C   UNL     1       4.386   1.216  -9.429  1.00  0.00     0.010 C 
ATOM     20  C   UNL     1       6.757   1.785 -10.125  1.00  0.00     0.012 C 
ATOM     21  C   UNL     1       5.670   3.109  -8.160  1.00  0.00     0.003 C 
ATOM     22  C   UNL     1       3.551   2.283 -10.125  1.00  0.00     0.033 C 
ATOM     23  C   UNL     1       4.651   4.158  -8.801  1.00  0.00    -0.006 C 
ATOM     24  C   UNL     1       3.317   3.471  -9.195  1.00  0.00     0.120 C 
ATOM     25  C   UNL     1       5.302   4.855 -10.032  1.00  0.00     0.014 C 
ATOM     26  C   UNL     1       4.314   5.314  -7.817  1.00  0.00     0.014 C 
ENDROOT
BRANCH   1  27
ATOM     27  C   UNL     1       5.837  -2.253  -2.550  1.00  0.00     0.048 C 
ATOM     28  O   UNL     1       5.616  -3.405  -2.087  1.00  0.00    -0.550 OA
ATOM     29  O   UNL     1       4.891  -1.254  -2.327  1.00  0.00    -0.550 OA
ENDBRANCH   1  27
BRANCH   7  30
ATOM     30  C   UNL     1       7.236  -4.996  -5.233  1.00  0.00    -0.077 C 
ATOM     31  C   UNL     1       6.802  -5.473  -6.594  1.00  0.00     0.039 C 
ATOM     32  C   UNL     1       7.042  -5.809  -4.180  1.00  0.00     0.008 C 
ENDBRANCH   7  30
BRANCH  24  33
ATOM     33  O   UNL     1       2.455   4.390  -9.821  1.00  0.00    -0.393 OA
ATOM     34  H   UNL     1       1.652   4.474  -9.240  1.00  0.00     0.210 HD
ENDBRANCH  24  33
TORSDOF 3
ENDMDL
MODEL 9
REMARK VINA RESULT:    -4.037      1.602      2.573
REMARK INTER + INTRA:          -5.180
REMARK INTER:                  -4.442
REMARK INTRA:                  -0.738
REMARK UNBOUND:                -0.553
REMARK SMILES C=C(C)[C@@H]1CC[C@@]2(C(=O)[O-])CC[C@@]3(C)[C@@H](CC[C@@H]4[C@@]5(C)CC[C@H](O)C(C)(C)[C@H]5CC[C@]43C)[C@@H]12
REMARK SMILES IDX 7 1 6 2 33 3 11 4 5 5 15 6 4 7 12 8 16 9 13 10 17 11 31 12
REMARK SMILES IDX 14 13 18 14 30 15 32 16 19 17 29 18 21 19 20 20 28 21 22 22
REMARK SMILES IDX 25 23 23 24 26 25 27 26 8 27 9 28 10 29 2 30 3 31 1 32 24 33
REMARK H PARENT 24 34
REMARK Flexibility Score: inf
ROOT
ATOM      1  C   UNL     1       5.684   3.564  -7.841  1.00  0.00     0.014 C 
ATOM      2  C   UNL     1       6.198   5.034  -7.860  1.00  0.00     0.014 C 
ATOM      3  C   UNL     1       5.948   3.028  -6.397  1.00  0.00     0.012 C 
ATOM      4  C   UNL     1       6.408   2.722  -8.937  1.00  0.00     0.014 C 
ATOM      5  C   UNL     1       6.736   5.386  -6.479  1.00  0.00     0.009 C 
ATOM      6  C   UNL     1       6.803   1.717  -6.368  1.00  0.00     0.000 C 
ATOM      7  C   UNL     1       6.460   4.212  -5.536  1.00  0.00     0.018 C 
ATOM      8  C   UNL     1       7.881   2.420  -8.611  1.00  0.00     0.008 C 
ATOM      9  C   UNL     1       7.012   1.142  -4.935  1.00  0.00     0.005 C 
ATOM     10  C   UNL     1       8.118   1.676  -7.237  1.00  0.00    -0.024 C 
ATOM     11  C   UNL     1       7.981  -0.063  -4.893  1.00  0.00     0.005 C 
ATOM     12  C   UNL     1       8.569   0.099  -7.424  1.00  0.00    -0.024 C 
ATOM     13  C   UNL     1       9.225   2.527  -6.509  1.00  0.00     0.012 C 
ATOM     14  C   UNL     1       8.013  -0.808  -6.247  1.00  0.00     0.002 C 
ATOM     15  C   UNL     1       7.991  -0.555  -8.735  1.00  0.00     0.008 C 
ATOM     16  C   UNL     1      10.125   0.034  -7.520  1.00  0.00     0.012 C 
ATOM     17  C   UNL     1       8.480  -2.336  -6.225  1.00  0.00    -0.026 C 
ATOM     18  C   UNL     1       7.666  -2.076  -8.676  1.00  0.00     0.005 C 
ATOM     19  C   UNL     1       7.397  -3.129  -5.406  1.00  0.00     0.010 C 
ATOM     20  C   UNL     1       9.845  -2.473  -5.483  1.00  0.00     0.012 C 
ATOM     21  C   UNL     1       8.586  -2.899  -7.725  1.00  0.00     0.003 C 
ATOM     22  C   UNL     1       7.435  -4.644  -5.565  1.00  0.00     0.033 C 
ATOM     23  C   UNL     1       8.444  -4.480  -7.897  1.00  0.00    -0.006 C 
ATOM     24  C   UNL     1       7.278  -5.033  -7.034  1.00  0.00     0.120 C 
ATOM     25  C   UNL     1       9.785  -5.182  -7.534  1.00  0.00     0.014 C 
ATOM     26  C   UNL     1       8.167  -4.881  -9.373  1.00  0.00     0.014 C 
ENDROOT
BRANCH   1  27
ATOM     27  C   UNL     1       4.184   3.481  -8.135  1.00  0.00     0.048 C 
ATOM     28  O   UNL     1       3.348   4.241  -7.574  1.00  0.00    -0.550 OA
ATOM     29  O   UNL     1       3.711   2.503  -9.010  1.00  0.00    -0.550 OA
ENDBRANCH   1  27
BRANCH   7  30
ATOM     30  C   UNL     1       5.480   4.596  -4.426  1.00  0.00    -0.077 C 
ATOM     31  C   UNL     1       4.280   3.732  -4.137  1.00  0.00     0.039 C 
ATOM     32  C   UNL     1       5.671   5.695  -3.675  1.00  0.00     0.008 C 
ENDBRANCH   7  30
BRANCH  24  33
ATOM     33  O   UNL     1       7.207  -6.434  -7.139  1.00  0.00    -0.393 OA
ATOM     34  H   UNL     1       8.097  -6.744  -7.456  1.00  0.00     0.210 HD
ENDBRANCH  24  33
TORSDOF 3
ENDMDL
