MODEL 1
REMARK VINA RESULT:    -2.876      0.000      0.000
REMARK INTER + INTRA:          -3.927
REMARK INTER:                  -3.800
REMARK INTRA:                  -0.127
REMARK UNBOUND:                -0.127
REMARK SMILES CCCCCCCO
REMARK SMILES IDX 5 1 4 2 3 3 2 4 1 5 6 6 7 7 8 8
REMARK H PARENT 8 9
REMARK Flexibility Score: inf
ROOT
ATOM      1  C   UNL     1       0.118   1.911  -3.924  1.00  0.00     0.002 C 
ENDROOT
BRANCH   1   2
ATOM      2  C   UNL     1      -1.039   2.381  -4.813  1.00  0.00     0.000 C 
BRANCH   2   3
ATOM      3  C   UNL     1      -1.584   3.736  -4.336  1.00  0.00    -0.000 C 
BRANCH   3   4
ATOM      4  C   UNL     1      -2.850   4.163  -5.094  1.00  0.00    -0.003 C 
ATOM      5  C   UNL     1      -3.144   3.273  -6.302  1.00  0.00     0.004 C 
ENDBRANCH   3   4
ENDBRANCH   2   3
ENDBRANCH   1   2
BRANCH   1   6
ATOM      6  C   UNL     1       1.469   2.366  -4.490  1.00  0.00     0.028 C 
BRANCH   6   7
ATOM      7  C   UNL     1       2.631   1.705  -3.745  1.00  0.00     0.156 C 
BRANCH   7   8
ATOM      8  O   UNL     1       2.150   0.712  -2.881  1.00  0.00    -0.396 OA
ATOM      9  H   UNL     1       2.855   0.568  -2.195  1.00  0.00     0.210 HD
ENDBRANCH   7   8
ENDBRANCH   6   7
ENDBRANCH   1   6
TORSDOF 6
ENDMDL
MODEL 2
REMARK VINA RESULT:    -2.863      1.233      1.868
REMARK INTER + INTRA:          -3.911
REMARK INTER:                  -3.824
REMARK INTRA:                  -0.086
REMARK UNBOUND:                -0.127
REMARK SMILES CCCCCCCO
REMARK SMILES IDX 5 1 4 2 3 3 2 4 1 5 6 6 7 7 8 8
REMARK H PARENT 8 9
REMARK Flexibility Score: inf
ROOT
ATOM      1  C   UNL     1       1.623   2.001  -4.052  1.00  0.00     0.002 C 
ENDROOT
BRANCH   1   2
ATOM      2  C   UNL     1       0.091   1.936  -4.034  1.00  0.00     0.000 C 
BRANCH   2   3
ATOM      3  C   UNL     1      -0.502   2.575  -5.299  1.00  0.00    -0.000 C 
BRANCH   3   4
ATOM      4  C   UNL     1      -2.003   2.874  -5.161  1.00  0.00    -0.003 C 
ATOM      5  C   UNL     1      -2.284   4.107  -4.302  1.00  0.00     0.004 C 
ENDBRANCH   3   4
ENDBRANCH   2   3
ENDBRANCH   1   2
BRANCH   1   6
ATOM      6  C   UNL     1       2.235   0.798  -3.324  1.00  0.00     0.028 C 
BRANCH   6   7
ATOM      7  C   UNL     1       3.747   0.963  -3.160  1.00  0.00     0.156 C 
BRANCH   7   8
ATOM      8  O   UNL     1       4.031   2.117  -2.415  1.00  0.00    -0.396 OA
ATOM      9  H   UNL     1       3.724   2.889  -2.960  1.00  0.00     0.210 HD
ENDBRANCH   7   8
ENDBRANCH   6   7
ENDBRANCH   1   6
TORSDOF 6
ENDMDL
MODEL 3
REMARK VINA RESULT:    -2.863      2.074      5.075
REMARK INTER + INTRA:          -3.910
REMARK INTER:                  -3.792
REMARK INTRA:                  -0.119
REMARK UNBOUND:                -0.127
REMARK SMILES CCCCCCCO
REMARK SMILES IDX 5 1 4 2 3 3 2 4 1 5 6 6 7 7 8 8
REMARK H PARENT 8 9
REMARK Flexibility Score: inf
ROOT
ATOM      1  C   UNL     1       0.082   1.875  -4.083  1.00  0.00     0.002 C 
ENDROOT
BRANCH   1   2
ATOM      2  C   UNL     1       1.608   2.010  -4.146  1.00  0.00     0.000 C 
BRANCH   2   3
ATOM      3  C   UNL     1       2.293   0.883  -3.358  1.00  0.00    -0.000 C 
BRANCH   3   4
ATOM      4  C   UNL     1       3.791   1.145  -3.135  1.00  0.00    -0.003 C 
ATOM      5  C   UNL     1       4.341   2.243  -4.046  1.00  0.00     0.004 C 
ENDBRANCH   3   4
ENDBRANCH   2   3
ENDBRANCH   1   2
BRANCH   1   6
ATOM      6  C   UNL     1      -0.600   3.234  -4.280  1.00  0.00     0.028 C 
BRANCH   6   7
ATOM      7  C   UNL     1      -1.936   3.081  -5.011  1.00  0.00     0.156 C 
BRANCH   7   8
ATOM      8  O   UNL     1      -2.294   1.727  -5.087  1.00  0.00    -0.396 OA
ATOM      9  H   UNL     1      -2.843   1.533  -4.283  1.00  0.00     0.210 HD
ENDBRANCH   7   8
ENDBRANCH   6   7
ENDBRANCH   1   6
TORSDOF 6
ENDMDL
MODEL 4
REMARK VINA RESULT:    -2.838     11.534     12.352
REMARK INTER + INTRA:          -3.877
REMARK INTER:                  -3.672
REMARK INTRA:                  -0.205
REMARK UNBOUND:                -0.127
REMARK SMILES CCCCCCCO
REMARK SMILES IDX 5 1 4 2 3 3 2 4 1 5 6 6 7 7 8 8
REMARK H PARENT 8 9
REMARK Flexibility Score: inf
ROOT
ATOM      1  C   UNL     1      -1.462   2.164   8.546  1.00  0.00     0.002 C 
ENDROOT
BRANCH   1   2
ATOM      2  C   UNL     1      -2.004   2.104   7.114  1.00  0.00     0.000 C 
BRANCH   2   3
ATOM      3  C   UNL     1      -2.056   0.655   6.605  1.00  0.00    -0.000 C 
BRANCH   3   4
ATOM      4  C   UNL     1      -0.928   0.338   5.612  1.00  0.00    -0.003 C 
ATOM      5  C   UNL     1      -0.052  -0.831   6.065  1.00  0.00     0.004 C 
ENDBRANCH   3   4
ENDBRANCH   2   3
ENDBRANCH   1   2
BRANCH   1   6
ATOM      6  C   UNL     1       0.070   2.228   8.555  1.00  0.00     0.028 C 
BRANCH   6   7
ATOM      7  C   UNL     1       0.564   3.584   9.062  1.00  0.00     0.156 C 
BRANCH   7   8
ATOM      8  O   UNL     1       1.408   4.178   8.114  1.00  0.00    -0.396 OA
ATOM      9  H   UNL     1       0.825   4.703   7.504  1.00  0.00     0.210 HD
ENDBRANCH   7   8
ENDBRANCH   6   7
ENDBRANCH   1   6
TORSDOF 6
ENDMDL
MODEL 5
REMARK VINA RESULT:    -2.825     12.393     13.060
REMARK INTER + INTRA:          -3.860
REMARK INTER:                  -3.601
REMARK INTRA:                  -0.259
REMARK UNBOUND:                -0.127
REMARK SMILES CCCCCCCO
REMARK SMILES IDX 5 1 4 2 3 3 2 4 1 5 6 6 7 7 8 8
REMARK H PARENT 8 9
REMARK Flexibility Score: inf
ROOT
ATOM      1  C   UNL     1      -0.817   1.942   9.933  1.00  0.00     0.002 C 
ENDROOT
BRANCH   1   2
ATOM      2  C   UNL     1      -2.162   2.199   9.244  1.00  0.00     0.000 C 
BRANCH   2   3
ATOM      3  C   UNL     1      -2.411   1.178   8.124  1.00  0.00    -0.000 C 
BRANCH   3   4
ATOM      4  C   UNL     1      -2.069   1.734   6.733  1.00  0.00    -0.003 C 
ATOM      5  C   UNL     1      -1.077   0.855   5.972  1.00  0.00     0.004 C 
ENDBRANCH   3   4
ENDBRANCH   2   3
ENDBRANCH   1   2
BRANCH   1   6
ATOM      6  C   UNL     1       0.093   3.173   9.843  1.00  0.00     0.028 C 
BRANCH   6   7
ATOM      7  C   UNL     1       0.830   3.219   8.503  1.00  0.00     0.156 C 
BRANCH   7   8
ATOM      8  O   UNL     1       1.356   4.500   8.283  1.00  0.00    -0.396 OA
ATOM      9  H   UNL     1       1.266   4.994   9.140  1.00  0.00     0.210 HD
ENDBRANCH   7   8
ENDBRANCH   6   7
ENDBRANCH   1   6
TORSDOF 6
ENDMDL
MODEL 6
REMARK VINA RESULT:    -2.823      1.639      3.132
REMARK INTER + INTRA:          -3.857
REMARK INTER:                  -3.721
REMARK INTRA:                  -0.137
REMARK UNBOUND:                -0.127
REMARK SMILES CCCCCCCO
REMARK SMILES IDX 5 1 4 2 3 3 2 4 1 5 6 6 7 7 8 8
REMARK H PARENT 8 9
REMARK Flexibility Score: inf
ROOT
ATOM      1  C   UNL     1       2.443   0.783  -3.327  1.00  0.00     0.002 C 
ENDROOT
BRANCH   1   2
ATOM      2  C   UNL     1       2.538   2.143  -4.028  1.00  0.00     0.000 C 
BRANCH   2   3
ATOM      3  C   UNL     1       1.301   2.398  -4.903  1.00  0.00    -0.000 C 
BRANCH   3   4
ATOM      4  C   UNL     1      -0.009   2.012  -4.199  1.00  0.00    -0.003 C 
ATOM      5  C   UNL     1      -1.226   2.734  -4.776  1.00  0.00     0.004 C 
ENDBRANCH   3   4
ENDBRANCH   2   3
ENDBRANCH   1   2
BRANCH   1   6
ATOM      6  C   UNL     1       3.829   0.149  -3.164  1.00  0.00     0.028 C 
BRANCH   6   7
ATOM      7  C   UNL     1       4.611   0.813  -2.028  1.00  0.00     0.156 C 
BRANCH   7   8
ATOM      8  O   UNL     1       4.005   0.535  -0.795  1.00  0.00    -0.396 OA
ATOM      9  H   UNL     1       3.131   1.007  -0.796  1.00  0.00     0.210 HD
ENDBRANCH   7   8
ENDBRANCH   6   7
ENDBRANCH   1   6
TORSDOF 6
ENDMDL
MODEL 7
REMARK VINA RESULT:    -2.806      2.700      4.762
REMARK INTER + INTRA:          -3.835
REMARK INTER:                  -3.623
REMARK INTRA:                  -0.212
REMARK UNBOUND:                -0.127
REMARK SMILES CCCCCCCO
REMARK SMILES IDX 5 1 4 2 3 3 2 4 1 5 6 6 7 7 8 8
REMARK H PARENT 8 9
REMARK Flexibility Score: inf
ROOT
ATOM      1  C   UNL     1      -2.067   3.380  -4.872  1.00  0.00     0.002 C 
ENDROOT
BRANCH   1   2
ATOM      2  C   UNL     1      -0.699   3.376  -4.179  1.00  0.00     0.000 C 
BRANCH   2   3
ATOM      3  C   UNL     1      -0.087   1.967  -4.178  1.00  0.00    -0.000 C 
BRANCH   3   4
ATOM      4  C   UNL     1       1.449   1.991  -4.195  1.00  0.00    -0.003 C 
ATOM      5  C   UNL     1       2.014   3.048  -5.146  1.00  0.00     0.004 C 
ENDBRANCH   3   4
ENDBRANCH   2   3
ENDBRANCH   1   2
BRANCH   1   6
ATOM      6  C   UNL     1      -1.947   2.927  -6.332  1.00  0.00     0.028 C 
BRANCH   6   7
ATOM      7  C   UNL     1      -3.326   2.786  -6.981  1.00  0.00     0.156 C 
BRANCH   7   8
ATOM      8  O   UNL     1      -3.671   1.433  -7.097  1.00  0.00    -0.396 OA
ATOM      9  H   UNL     1      -4.623   1.406  -7.380  1.00  0.00     0.210 HD
ENDBRANCH   7   8
ENDBRANCH   6   7
ENDBRANCH   1   6
TORSDOF 6
ENDMDL
MODEL 8
REMARK VINA RESULT:    -2.733      3.184      4.964
REMARK INTER + INTRA:          -3.739
REMARK INTER:                  -3.544
REMARK INTRA:                  -0.195
REMARK UNBOUND:                -0.127
REMARK SMILES CCCCCCCO
REMARK SMILES IDX 5 1 4 2 3 3 2 4 1 5 6 6 7 7 8 8
REMARK H PARENT 8 9
REMARK Flexibility Score: inf
ROOT
ATOM      1  C   UNL     1      -0.377   2.590  -7.856  1.00  0.00     0.002 C 
ENDROOT
BRANCH   1   2
ATOM      2  C   UNL     1       0.414   2.603  -6.543  1.00  0.00     0.000 C 
BRANCH   2   3
ATOM      3  C   UNL     1      -0.531   2.645  -5.332  1.00  0.00    -0.000 C 
BRANCH   3   4
ATOM      4  C   UNL     1       0.078   1.984  -4.086  1.00  0.00    -0.003 C 
ATOM      5  C   UNL     1       1.606   1.954  -4.119  1.00  0.00     0.004 C 
ENDBRANCH   3   4
ENDBRANCH   2   3
ENDBRANCH   1   2
BRANCH   1   6
ATOM      6  C   UNL     1      -1.820   3.058  -7.636  1.00  0.00     0.028 C 
BRANCH   6   7
ATOM      7  C   UNL     1      -2.802   2.235  -8.474  1.00  0.00     0.156 C 
BRANCH   7   8
ATOM      8  O   UNL     1      -3.556   1.391  -7.647  1.00  0.00    -0.396 OA
ATOM      9  H   UNL     1      -3.864   1.945  -6.882  1.00  0.00     0.210 HD
ENDBRANCH   7   8
ENDBRANCH   6   7
ENDBRANCH   1   6
TORSDOF 6
ENDMDL
MODEL 9
REMARK VINA RESULT:    -2.658      2.141      4.434
REMARK INTER + INTRA:          -3.639
REMARK INTER:                  -3.409
REMARK INTRA:                  -0.230
REMARK UNBOUND:                -0.127
REMARK SMILES CCCCCCCO
REMARK SMILES IDX 5 1 4 2 3 3 2 4 1 5 6 6 7 7 8 8
REMARK H PARENT 8 9
REMARK Flexibility Score: inf
ROOT
ATOM      1  C   UNL     1       0.076   2.505  -6.258  1.00  0.00     0.002 C 
ENDROOT
BRANCH   1   2
ATOM      2  C   UNL     1       1.383   3.289  -6.100  1.00  0.00     0.000 C 
BRANCH   2   3
ATOM      3  C   UNL     1       2.154   2.828  -4.855  1.00  0.00    -0.000 C 
BRANCH   3   4
ATOM      4  C   UNL     1       1.313   1.923  -3.942  1.00  0.00    -0.003 C 
ATOM      5  C   UNL     1       2.156   0.889  -3.195  1.00  0.00     0.004 C 
ENDBRANCH   3   4
ENDBRANCH   2   3
ENDBRANCH   1   2
BRANCH   1   6
ATOM      6  C   UNL     1      -1.133   3.447  -6.293  1.00  0.00     0.028 C 
BRANCH   6   7
ATOM      7  C   UNL     1      -2.217   2.993  -5.313  1.00  0.00     0.156 C 
BRANCH   7   8
ATOM      8  O   UNL     1      -1.987   1.668  -4.917  1.00  0.00    -0.396 OA
ATOM      9  H   UNL     1      -1.207   1.346  -5.442  1.00  0.00     0.210 HD
ENDBRANCH   7   8
ENDBRANCH   6   7
ENDBRANCH   1   6
TORSDOF 6
ENDMDL
