MODEL 1
REMARK VINA RESULT:    -5.924      0.000      0.000
REMARK INTER + INTRA:          -8.541
REMARK INTER:                  -8.002
REMARK INTRA:                  -0.539
REMARK UNBOUND:                -0.539
REMARK SMILES CCCCCCCC(=O)[O-]
REMARK SMILES IDX 5 1 6 2 7 3 8 4 9 5 10 6 4 7 3 8 2 9 1 10
REMARK H PARENT
REMARK Flexibility Score: inf
ROOT
ATOM      1  C   UNL     1      26.770  -2.101  20.430  1.00  0.00     0.000 C 
ENDROOT
BRANCH   1   2
ATOM      2  C   UNL     1      27.586  -1.174  19.515  1.00  0.00     0.006 C 
BRANCH   2   3
ATOM      3  C   UNL     1      29.086  -1.213  19.839  1.00  0.00     0.053 C 
BRANCH   3   4
ATOM      4  C   UNL     1      29.713  -2.508  19.423  1.00  0.00     0.041 C 
ATOM      5  O   UNL     1      30.008  -3.375  20.287  1.00  0.00    -0.550 OA
ATOM      6  O   UNL     1      29.999  -2.747  18.085  1.00  0.00    -0.550 OA
ENDBRANCH   3   4
ENDBRANCH   2   3
ENDBRANCH   1   2
BRANCH   1   7
ATOM      7  C   UNL     1      25.508  -2.657  19.747  1.00  0.00     0.000 C 
BRANCH   7   8
ATOM      8  C   UNL     1      25.488  -4.187  19.554  1.00  0.00    -0.000 C 
BRANCH   8   9
ATOM      9  C   UNL     1      26.865  -4.871  19.637  1.00  0.00    -0.003 C 
ATOM     10  C   UNL     1      27.455  -5.187  18.264  1.00  0.00     0.004 C 
ENDBRANCH   8   9
ENDBRANCH   7   8
ENDBRANCH   1   7
TORSDOF 6
ENDMDL
MODEL 2
REMARK VINA RESULT:    -5.782      1.812      3.591
REMARK INTER + INTRA:          -8.349
REMARK INTER:                  -8.148
REMARK INTRA:                  -0.201
REMARK UNBOUND:                -0.539
REMARK SMILES CCCCCCCC(=O)[O-]
REMARK SMILES IDX 5 1 6 2 7 3 8 4 9 5 10 6 4 7 3 8 2 9 1 10
REMARK H PARENT
REMARK Flexibility Score: inf
ROOT
ATOM      1  C   UNL     1      25.833  -3.614  19.600  1.00  0.00     0.000 C 
ENDROOT
BRANCH   1   2
ATOM      2  C   UNL     1      27.116  -4.440  19.779  1.00  0.00     0.006 C 
BRANCH   2   3
ATOM      3  C   UNL     1      28.094  -4.254  18.611  1.00  0.00     0.053 C 
BRANCH   3   4
ATOM      4  C   UNL     1      29.333  -3.524  19.031  1.00  0.00     0.041 C 
ATOM      5  O   UNL     1      30.301  -3.408  18.234  1.00  0.00    -0.550 OA
ATOM      6  O   UNL     1      29.431  -2.996  20.313  1.00  0.00    -0.550 OA
ENDBRANCH   3   4
ENDBRANCH   2   3
ENDBRANCH   1   2
BRANCH   1   7
ATOM      7  C   UNL     1      26.005  -2.142  20.016  1.00  0.00     0.000 C 
BRANCH   7   8
ATOM      8  C   UNL     1      24.773  -1.245  19.780  1.00  0.00    -0.000 C 
BRANCH   8   9
ATOM      9  C   UNL     1      25.063   0.267  19.766  1.00  0.00    -0.003 C 
ATOM     10  C   UNL     1      23.978   1.074  19.056  1.00  0.00     0.004 C 
ENDBRANCH   8   9
ENDBRANCH   7   8
ENDBRANCH   1   7
TORSDOF 6
ENDMDL
MODEL 3
REMARK VINA RESULT:    -5.743      1.972      2.545
REMARK INTER + INTRA:          -8.296
REMARK INTER:                  -8.016
REMARK INTRA:                  -0.280
REMARK UNBOUND:                -0.539
REMARK SMILES CCCCCCCC(=O)[O-]
REMARK SMILES IDX 5 1 6 2 7 3 8 4 9 5 10 6 4 7 3 8 2 9 1 10
REMARK H PARENT
REMARK Flexibility Score: inf
ROOT
ATOM      1  C   UNL     1      26.385  -4.516  18.634  1.00  0.00     0.000 C 
ENDROOT
BRANCH   1   2
ATOM      2  C   UNL     1      27.510  -3.685  19.271  1.00  0.00     0.006 C 
BRANCH   2   3
ATOM      3  C   UNL     1      28.900  -4.126  18.793  1.00  0.00     0.053 C 
BRANCH   3   4
ATOM      4  C   UNL     1      29.982  -3.240  19.330  1.00  0.00     0.041 C 
ATOM      5  O   UNL     1      29.695  -2.286  20.100  1.00  0.00    -0.550 OA
ATOM      6  O   UNL     1      31.304  -3.449  18.957  1.00  0.00    -0.550 OA
ENDBRANCH   3   4
ENDBRANCH   2   3
ENDBRANCH   1   2
BRANCH   1   7
ATOM      7  C   UNL     1      25.370  -5.040  19.665  1.00  0.00     0.000 C 
BRANCH   7   8
ATOM      8  C   UNL     1      25.233  -6.575  19.729  1.00  0.00    -0.000 C 
BRANCH   8   9
ATOM      9  C   UNL     1      26.546  -7.353  19.521  1.00  0.00    -0.003 C 
ATOM     10  C   UNL     1      26.636  -8.609  20.387  1.00  0.00     0.004 C 
ENDBRANCH   8   9
ENDBRANCH   7   8
ENDBRANCH   1   7
TORSDOF 6
ENDMDL
MODEL 4
REMARK VINA RESULT:    -5.721      2.111      3.623
REMARK INTER + INTRA:          -8.267
REMARK INTER:                  -8.026
REMARK INTRA:                  -0.240
REMARK UNBOUND:                -0.539
REMARK SMILES CCCCCCCC(=O)[O-]
REMARK SMILES IDX 5 1 6 2 7 3 8 4 9 5 10 6 4 7 3 8 2 9 1 10
REMARK H PARENT
REMARK Flexibility Score: inf
ROOT
ATOM      1  C   UNL     1      26.530  -1.826  20.132  1.00  0.00     0.000 C 
ENDROOT
BRANCH   1   2
ATOM      2  C   UNL     1      27.510  -2.942  19.739  1.00  0.00     0.006 C 
BRANCH   2   3
ATOM      3  C   UNL     1      28.960  -2.443  19.671  1.00  0.00     0.053 C 
BRANCH   3   4
ATOM      4  C   UNL     1      29.853  -3.417  18.965  1.00  0.00     0.041 C 
ATOM      5  O   UNL     1      31.103  -3.271  19.002  1.00  0.00    -0.550 OA
ATOM      6  O   UNL     1      29.304  -4.468  18.241  1.00  0.00    -0.550 OA
ENDBRANCH   3   4
ENDBRANCH   2   3
ENDBRANCH   1   2
BRANCH   1   7
ATOM      7  C   UNL     1      27.139  -0.419  19.999  1.00  0.00     0.000 C 
BRANCH   7   8
ATOM      8  C   UNL     1      26.124   0.714  19.745  1.00  0.00    -0.000 C 
BRANCH   8   9
ATOM      9  C   UNL     1      24.657   0.259  19.633  1.00  0.00    -0.003 C 
ATOM     10  C   UNL     1      23.778   1.263  18.888  1.00  0.00     0.004 C 
ENDBRANCH   8   9
ENDBRANCH   7   8
ENDBRANCH   1   7
TORSDOF 6
ENDMDL
MODEL 5
REMARK VINA RESULT:    -5.666      1.447      2.982
REMARK INTER + INTRA:          -8.192
REMARK INTER:                  -7.802
REMARK INTRA:                  -0.391
REMARK UNBOUND:                -0.539
REMARK SMILES CCCCCCCC(=O)[O-]
REMARK SMILES IDX 5 1 6 2 7 3 8 4 9 5 10 6 4 7 3 8 2 9 1 10
REMARK H PARENT
REMARK Flexibility Score: inf
ROOT
ATOM      1  C   UNL     1      26.281  -4.437  19.021  1.00  0.00     0.000 C 
ENDROOT
BRANCH   1   2
ATOM      2  C   UNL     1      27.638  -4.335  19.737  1.00  0.00     0.006 C 
BRANCH   2   3
ATOM      3  C   UNL     1      28.785  -4.032  18.764  1.00  0.00     0.053 C 
BRANCH   3   4
ATOM      4  C   UNL     1      29.794  -3.101  19.364  1.00  0.00     0.041 C 
ATOM      5  O   UNL     1      29.422  -2.167  20.122  1.00  0.00    -0.550 OA
ATOM      6  O   UNL     1      31.143  -3.246  19.063  1.00  0.00    -0.550 OA
ENDBRANCH   3   4
ENDBRANCH   2   3
ENDBRANCH   1   2
BRANCH   1   7
ATOM      7  C   UNL     1      25.288  -3.346  19.461  1.00  0.00     0.000 C 
BRANCH   7   8
ATOM      8  C   UNL     1      25.874  -2.260  20.386  1.00  0.00    -0.000 C 
BRANCH   8   9
ATOM      9  C   UNL     1      26.065  -0.881  19.730  1.00  0.00    -0.003 C 
ATOM     10  C   UNL     1      24.783  -0.051  19.706  1.00  0.00     0.004 C 
ENDBRANCH   8   9
ENDBRANCH   7   8
ENDBRANCH   1   7
TORSDOF 6
ENDMDL
MODEL 6
REMARK VINA RESULT:    -5.546      2.577      3.618
REMARK INTER + INTRA:          -8.031
REMARK INTER:                  -7.787
REMARK INTRA:                  -0.244
REMARK UNBOUND:                -0.539
REMARK SMILES CCCCCCCC(=O)[O-]
REMARK SMILES IDX 5 1 6 2 7 3 8 4 9 5 10 6 4 7 3 8 2 9 1 10
REMARK H PARENT
REMARK Flexibility Score: inf
ROOT
ATOM      1  C   UNL     1      26.153  -5.506  19.765  1.00  0.00     0.000 C 
ENDROOT
BRANCH   1   2
ATOM      2  C   UNL     1      26.711  -4.567  18.684  1.00  0.00     0.006 C 
BRANCH   2   3
ATOM      3  C   UNL     1      27.523  -3.410  19.282  1.00  0.00     0.053 C 
BRANCH   3   4
ATOM      4  C   UNL     1      28.997  -3.666  19.209  1.00  0.00     0.041 C 
ATOM      5  O   UNL     1      29.480  -4.308  18.239  1.00  0.00    -0.550 OA
ATOM      6  O   UNL     1      29.834  -3.223  20.225  1.00  0.00    -0.550 OA
ENDBRANCH   3   4
ENDBRANCH   2   3
ENDBRANCH   1   2
BRANCH   1   7
ATOM      7  C   UNL     1      26.828  -6.889  19.763  1.00  0.00     0.000 C 
BRANCH   7   8
ATOM      8  C   UNL     1      25.968  -8.039  20.327  1.00  0.00    -0.000 C 
BRANCH   8   9
ATOM      9  C   UNL     1      24.502  -7.671  20.619  1.00  0.00    -0.003 C 
ATOM     10  C   UNL     1      23.726  -8.805  21.288  1.00  0.00     0.004 C 
ENDBRANCH   8   9
ENDBRANCH   7   8
ENDBRANCH   1   7
TORSDOF 6
ENDMDL
MODEL 7
REMARK VINA RESULT:    -5.356      3.280      5.026
REMARK INTER + INTRA:          -7.773
REMARK INTER:                  -7.470
REMARK INTRA:                  -0.303
REMARK UNBOUND:                -0.539
REMARK SMILES CCCCCCCC(=O)[O-]
REMARK SMILES IDX 5 1 6 2 7 3 8 4 9 5 10 6 4 7 3 8 2 9 1 10
REMARK H PARENT
REMARK Flexibility Score: inf
ROOT
ATOM      1  C   UNL     1      27.062  -3.878  18.945  1.00  0.00     0.000 C 
ENDROOT
BRANCH   1   2
ATOM      2  C   UNL     1      26.779  -5.180  19.712  1.00  0.00     0.006 C 
BRANCH   2   3
ATOM      3  C   UNL     1      25.287  -5.540  19.713  1.00  0.00     0.053 C 
BRANCH   3   4
ATOM      4  C   UNL     1      25.046  -6.916  20.255  1.00  0.00     0.041 C 
ATOM      5  O   UNL     1      24.016  -7.155  20.939  1.00  0.00    -0.550 OA
ATOM      6  O   UNL     1      25.972  -7.927  20.031  1.00  0.00    -0.550 OA
ENDBRANCH   3   4
ENDBRANCH   2   3
ENDBRANCH   1   2
BRANCH   1   7
ATOM      7  C   UNL     1      27.822  -2.839  19.789  1.00  0.00     0.000 C 
BRANCH   7   8
ATOM      8  C   UNL     1      26.986  -1.627  20.246  1.00  0.00    -0.000 C 
BRANCH   8   9
ATOM      9  C   UNL     1      25.463  -1.790  20.084  1.00  0.00    -0.003 C 
ATOM     10  C   UNL     1      24.759  -0.480  19.737  1.00  0.00     0.004 C 
ENDBRANCH   8   9
ENDBRANCH   7   8
ENDBRANCH   1   7
TORSDOF 6
ENDMDL
MODEL 8
REMARK VINA RESULT:    -5.337      1.940      2.648
REMARK INTER + INTRA:          -7.748
REMARK INTER:                  -7.336
REMARK INTRA:                  -0.412
REMARK UNBOUND:                -0.539
REMARK SMILES CCCCCCCC(=O)[O-]
REMARK SMILES IDX 5 1 6 2 7 3 8 4 9 5 10 6 4 7 3 8 2 9 1 10
REMARK H PARENT
REMARK Flexibility Score: inf
ROOT
ATOM      1  C   UNL     1      28.572  -4.565  18.445  1.00  0.00     0.000 C 
ENDROOT
BRANCH   1   2
ATOM      2  C   UNL     1      29.078  -3.709  19.618  1.00  0.00     0.006 C 
BRANCH   2   3
ATOM      3  C   UNL     1      29.237  -2.232  19.232  1.00  0.00     0.053 C 
BRANCH   3   4
ATOM      4  C   UNL     1      28.255  -1.359  19.950  1.00  0.00     0.041 C 
ATOM      5  O   UNL     1      28.528  -0.905  21.092  1.00  0.00    -0.550 OA
ATOM      6  O   UNL     1      27.025  -1.071  19.372  1.00  0.00    -0.550 OA
ENDBRANCH   3   4
ENDBRANCH   2   3
ENDBRANCH   1   2
BRANCH   1   7
ATOM      7  C   UNL     1      27.036  -4.609  18.355  1.00  0.00     0.000 C 
BRANCH   7   8
ATOM      8  C   UNL     1      26.309  -4.875  19.688  1.00  0.00    -0.000 C 
BRANCH   8   9
ATOM      9  C   UNL     1      25.633  -6.254  19.796  1.00  0.00    -0.003 C 
ATOM     10  C   UNL     1      26.635  -7.407  19.829  1.00  0.00     0.004 C 
ENDBRANCH   8   9
ENDBRANCH   7   8
ENDBRANCH   1   7
TORSDOF 6
ENDMDL
MODEL 9
REMARK VINA RESULT:    -5.251      3.392      5.267
REMARK INTER + INTRA:          -7.632
REMARK INTER:                  -7.403
REMARK INTRA:                  -0.229
REMARK UNBOUND:                -0.539
REMARK SMILES CCCCCCCC(=O)[O-]
REMARK SMILES IDX 5 1 6 2 7 3 8 4 9 5 10 6 4 7 3 8 2 9 1 10
REMARK H PARENT
REMARK Flexibility Score: inf
ROOT
ATOM      1  C   UNL     1      27.123  -4.104  19.117  1.00  0.00     0.000 C 
ENDROOT
BRANCH   1   2
ATOM      2  C   UNL     1      26.743  -5.444  19.768  1.00  0.00     0.006 C 
BRANCH   2   3
ATOM      3  C   UNL     1      25.227  -5.685  19.756  1.00  0.00     0.053 C 
BRANCH   3   4
ATOM      4  C   UNL     1      24.879  -7.068  20.212  1.00  0.00     0.041 C 
ATOM      5  O   UNL     1      25.766  -7.960  20.262  1.00  0.00    -0.550 OA
ATOM      6  O   UNL     1      23.569  -7.382  20.552  1.00  0.00    -0.550 OA
ENDBRANCH   3   4
ENDBRANCH   2   3
ENDBRANCH   1   2
BRANCH   1   7
ATOM      7  C   UNL     1      28.644  -3.924  18.961  1.00  0.00     0.000 C 
BRANCH   7   8
ATOM      8  C   UNL     1      29.238  -2.704  19.694  1.00  0.00    -0.000 C 
BRANCH   8   9
ATOM      9  C   UNL     1      28.202  -1.699  20.228  1.00  0.00    -0.003 C 
ATOM     10  C   UNL     1      28.125  -0.423  19.391  1.00  0.00     0.004 C 
ENDBRANCH   8   9
ENDBRANCH   7   8
ENDBRANCH   1   7
TORSDOF 6
ENDMDL
