MODEL 1
REMARK VINA RESULT:    31.502      0.000      0.000
REMARK INTER + INTRA:          36.748
REMARK INTER:                  37.026
REMARK INTRA:                  -0.279
REMARK UNBOUND:                -0.279
REMARK SMILES O=c1cc(-c2ccc(O)c(O)c2)oc2cc(O)cc(O)c12
REMARK SMILES IDX 4 1 3 2 2 3 1 4 21 5 19 6 18 7 16 8 15 9 14 10 13 11 5 12
REMARK SMILES IDX 6 13 7 14 8 15 12 16 10 17 9 18 11 20 20 22 17 24
REMARK H PARENT 9 19 11 21 20 23 17 25
REMARK Flexibility Score: inf
ROOT
ATOM      1  C   UNL     1      11.337  12.246  29.831  1.00  0.00     0.138 A 
ATOM      2  C   UNL     1      12.658  12.607  30.133  1.00  0.00     0.100 A 
ATOM      3  C   UNL     1      13.372  13.416  29.247  1.00  0.00     0.197 A 
ATOM      4  O   UNL     1      14.574  13.671  29.514  1.00  0.00    -0.289 OA
ATOM      5  C   UNL     1      12.747  13.892  28.070  1.00  0.00     0.107 A 
ATOM      6  C   UNL     1      13.364  14.757  27.117  1.00  0.00     0.134 A 
ATOM      7  C   UNL     1      12.688  15.069  25.931  1.00  0.00     0.093 A 
ATOM      8  C   UNL     1      11.394  14.597  25.692  1.00  0.00     0.123 A 
ATOM      9  C   UNL     1      10.763  13.797  26.642  1.00  0.00     0.094 A 
ATOM     10  C   UNL     1      11.424  13.440  27.820  1.00  0.00     0.146 A 
ATOM     11  O   UNL     1      10.792  12.663  28.692  1.00  0.00    -0.456 OA
ENDROOT
BRANCH   1  12
ATOM     12  C   UNL     1      10.532  11.388  30.737  1.00  0.00     0.021 A 
ATOM     13  C   UNL     1       9.764  10.343  30.197  1.00  0.00     0.016 A 
ATOM     14  C   UNL     1       8.992   9.526  31.028  1.00  0.00     0.051 A 
ATOM     15  C   UNL     1       8.964   9.745  32.407  1.00  0.00     0.157 A 
ATOM     16  C   UNL     1      10.491  11.614  32.127  1.00  0.00     0.062 A 
ATOM     17  C   UNL     1       9.715  10.796  32.961  1.00  0.00     0.158 A 
BRANCH  15  18
ATOM     18  O   UNL     1       8.186   8.913  33.211  1.00  0.00    -0.504 OA
ATOM     19  H   UNL     1       8.387   7.927  33.320  1.00  0.00     0.293 HD
ENDBRANCH  15  18
BRANCH  17  20
ATOM     20  O   UNL     1       9.683  11.026  34.335  1.00  0.00    -0.504 OA
ATOM     21  H   UNL     1       9.899  11.936  34.727  1.00  0.00     0.293 HD
ENDBRANCH  17  20
ENDBRANCH   1  12
BRANCH   6  22
ATOM     22  O   UNL     1      14.617  15.351  27.296  1.00  0.00    -0.507 OA
ATOM     23  H   UNL     1      15.497  14.860  27.268  1.00  0.00     0.293 HD
ENDBRANCH   6  22
BRANCH   8  24
ATOM     24  O   UNL     1      10.724  14.926  24.516  1.00  0.00    -0.508 OA
ATOM     25  H   UNL     1       9.712  14.926  24.466  1.00  0.00     0.293 HD
ENDBRANCH   8  24
TORSDOF 5
ENDMDL
MODEL 2
REMARK VINA RESULT:    33.139      1.591      2.401
REMARK INTER + INTRA:          38.673
REMARK INTER:                  38.962
REMARK INTRA:                  -0.289
REMARK UNBOUND:                -0.279
REMARK SMILES O=c1cc(-c2ccc(O)c(O)c2)oc2cc(O)cc(O)c12
REMARK SMILES IDX 4 1 3 2 2 3 1 4 21 5 19 6 18 7 16 8 15 9 14 10 13 11 5 12
REMARK SMILES IDX 6 13 7 14 8 15 12 16 10 17 9 18 11 20 20 22 17 24
REMARK H PARENT 9 19 11 21 20 23 17 25
REMARK Flexibility Score: inf
ROOT
ATOM      1  C   UNL     1      10.134  11.041  30.806  1.00  0.00     0.138 A 
ATOM      2  C   UNL     1      11.201  11.410  31.637  1.00  0.00     0.100 A 
ATOM      3  C   UNL     1      12.152  12.322  31.175  1.00  0.00     0.197 A 
ATOM      4  O   UNL     1      13.131  12.586  31.919  1.00  0.00    -0.289 OA
ATOM      5  C   UNL     1      12.014  12.890  29.887  1.00  0.00     0.107 A 
ATOM      6  C   UNL     1      12.899  13.860  29.328  1.00  0.00     0.134 A 
ATOM      7  C   UNL     1      12.728  14.264  27.998  1.00  0.00     0.093 A 
ATOM      8  C   UNL     1      11.669  13.778  27.227  1.00  0.00     0.123 A 
ATOM      9  C   UNL     1      10.768  12.873  27.781  1.00  0.00     0.094 A 
ATOM     10  C   UNL     1      10.931  12.424  29.095  1.00  0.00     0.146 A 
ATOM     11  O   UNL     1      10.058  11.549  29.580  1.00  0.00    -0.456 OA
ENDROOT
BRANCH   1  12
ATOM     12  C   UNL     1       9.095  10.076  31.247  1.00  0.00     0.021 A 
ATOM     13  C   UNL     1       7.814  10.129  30.672  1.00  0.00     0.016 A 
ATOM     14  C   UNL     1       6.816   9.237  31.074  1.00  0.00     0.051 A 
ATOM     15  C   UNL     1       7.076   8.286  32.063  1.00  0.00     0.157 A 
ATOM     16  C   UNL     1       9.348   9.123  32.253  1.00  0.00     0.062 A 
ATOM     17  C   UNL     1       8.347   8.229  32.658  1.00  0.00     0.158 A 
BRANCH  15  18
ATOM     18  O   UNL     1       6.061   7.408  32.443  1.00  0.00    -0.504 OA
ATOM     19  H   UNL     1       5.434   7.610  33.211  1.00  0.00     0.293 HD
ENDBRANCH  15  18
BRANCH  17  20
ATOM     20  O   UNL     1       8.609   7.289  33.654  1.00  0.00    -0.504 OA
ATOM     21  H   UNL     1       8.475   7.503  34.636  1.00  0.00     0.293 HD
ENDBRANCH  17  20
ENDBRANCH   1  12
BRANCH   6  22
ATOM     22  O   UNL     1      13.937  14.472  30.037  1.00  0.00    -0.507 OA
ATOM     23  H   UNL     1      14.811  14.029  30.277  1.00  0.00     0.293 HD
ENDBRANCH   6  22
BRANCH   8  24
ATOM     24  O   UNL     1      11.497  14.199  25.910  1.00  0.00    -0.508 OA
ATOM     25  H   UNL     1      12.208  14.036  25.206  1.00  0.00     0.293 HD
ENDBRANCH   8  24
TORSDOF 5
ENDMDL
MODEL 3
REMARK VINA RESULT:    33.607      2.228      3.567
REMARK INTER + INTRA:          39.222
REMARK INTER:                  39.512
REMARK INTRA:                  -0.290
REMARK UNBOUND:                -0.279
REMARK SMILES O=c1cc(-c2ccc(O)c(O)c2)oc2cc(O)cc(O)c12
REMARK SMILES IDX 4 1 3 2 2 3 1 4 21 5 19 6 18 7 16 8 15 9 14 10 13 11 5 12
REMARK SMILES IDX 6 13 7 14 8 15 12 16 10 17 9 18 11 20 20 22 17 24
REMARK H PARENT 9 19 11 21 20 23 17 25
REMARK Flexibility Score: inf
ROOT
ATOM      1  C   UNL     1      10.406  10.737  30.834  1.00  0.00     0.138 A 
ATOM      2  C   UNL     1       9.952  11.995  30.415  1.00  0.00     0.100 A 
ATOM      3  C   UNL     1      10.829  12.864  29.762  1.00  0.00     0.197 A 
ATOM      4  O   UNL     1      10.411  14.009  29.454  1.00  0.00    -0.289 OA
ATOM      5  C   UNL     1      12.158  12.454  29.499  1.00  0.00     0.107 A 
ATOM      6  C   UNL     1      13.126  13.239  28.805  1.00  0.00     0.134 A 
ATOM      7  C   UNL     1      14.445  12.777  28.706  1.00  0.00     0.093 A 
ATOM      8  C   UNL     1      14.815  11.533  29.224  1.00  0.00     0.123 A 
ATOM      9  C   UNL     1      13.863  10.736  29.855  1.00  0.00     0.094 A 
ATOM     10  C   UNL     1      12.547  11.184  30.000  1.00  0.00     0.146 A 
ATOM     11  O   UNL     1      11.674  10.399  30.622  1.00  0.00    -0.456 OA
ENDROOT
BRANCH   1  12
ATOM     12  C   UNL     1       9.516   9.775  31.532  1.00  0.00     0.021 A 
ATOM     13  C   UNL     1       9.800   8.400  31.470  1.00  0.00     0.016 A 
ATOM     14  C   UNL     1       8.975   7.474  32.112  1.00  0.00     0.051 A 
ATOM     15  C   UNL     1       7.847   7.901  32.817  1.00  0.00     0.157 A 
ATOM     16  C   UNL     1       8.371  10.201  32.233  1.00  0.00     0.062 A 
ATOM     17  C   UNL     1       7.541   9.271  32.876  1.00  0.00     0.158 A 
BRANCH  15  18
ATOM     18  O   UNL     1       7.042   6.954  33.449  1.00  0.00    -0.504 OA
ATOM     19  H   UNL     1       6.816   7.011  34.434  1.00  0.00     0.293 HD
ENDBRANCH  15  18
BRANCH  17  20
ATOM     20  O   UNL     1       6.411   9.704  33.569  1.00  0.00    -0.504 OA
ATOM     21  H   UNL     1       6.137   9.289  34.453  1.00  0.00     0.293 HD
ENDBRANCH  17  20
ENDBRANCH   1  12
BRANCH   6  22
ATOM     22  O   UNL     1      12.843  14.456  28.177  1.00  0.00    -0.507 OA
ATOM     23  H   UNL     1      12.486  15.275  28.643  1.00  0.00     0.293 HD
ENDBRANCH   6  22
BRANCH   8  24
ATOM     24  O   UNL     1      16.125  11.075  29.107  1.00  0.00    -0.508 OA
ATOM     25  H   UNL     1      16.916  11.693  29.247  1.00  0.00     0.293 HD
ENDBRANCH   8  24
TORSDOF 5
ENDMDL
MODEL 4
REMARK VINA RESULT:    33.626      2.585      3.636
REMARK INTER + INTRA:          39.244
REMARK INTER:                  39.534
REMARK INTRA:                  -0.290
REMARK UNBOUND:                -0.279
REMARK SMILES O=c1cc(-c2ccc(O)c(O)c2)oc2cc(O)cc(O)c12
REMARK SMILES IDX 4 1 3 2 2 3 1 4 21 5 19 6 18 7 16 8 15 9 14 10 13 11 5 12
REMARK SMILES IDX 6 13 7 14 8 15 12 16 10 17 9 18 11 20 20 22 17 24
REMARK H PARENT 9 19 11 21 20 23 17 25
REMARK Flexibility Score: inf
ROOT
ATOM      1  C   UNL     1      10.569  11.119  31.144  1.00  0.00     0.138 A 
ATOM      2  C   UNL     1      11.227  10.591  30.024  1.00  0.00     0.100 A 
ATOM      3  C   UNL     1      12.244  11.326  29.412  1.00  0.00     0.197 A 
ATOM      4  O   UNL     1      12.773  10.855  28.372  1.00  0.00    -0.289 OA
ATOM      5  C   UNL     1      12.625  12.580  29.945  1.00  0.00     0.107 A 
ATOM      6  C   UNL     1      13.675  13.397  29.429  1.00  0.00     0.134 A 
ATOM      7  C   UNL     1      13.885  14.672  29.968  1.00  0.00     0.093 A 
ATOM      8  C   UNL     1      13.122  15.136  31.043  1.00  0.00     0.123 A 
ATOM      9  C   UNL     1      12.131  14.324  31.589  1.00  0.00     0.094 A 
ATOM     10  C   UNL     1      11.874  13.060  31.051  1.00  0.00     0.146 A 
ATOM     11  O   UNL     1      10.910  12.323  31.592  1.00  0.00    -0.456 OA
ENDROOT
BRANCH   1  12
ATOM     12  C   UNL     1       9.481  10.381  31.835  1.00  0.00     0.021 A 
ATOM     13  C   UNL     1       9.217  10.646  33.189  1.00  0.00     0.016 A 
ATOM     14  C   UNL     1       8.203   9.960  33.863  1.00  0.00     0.051 A 
ATOM     15  C   UNL     1       7.444   8.992  33.201  1.00  0.00     0.157 A 
ATOM     16  C   UNL     1       8.722   9.395  31.175  1.00  0.00     0.062 A 
ATOM     17  C   UNL     1       7.706   8.704  31.851  1.00  0.00     0.158 A 
BRANCH  15  18
ATOM     18  O   UNL     1       6.438   8.324  33.899  1.00  0.00    -0.504 OA
ATOM     19  H   UNL     1       5.932   7.544  33.500  1.00  0.00     0.293 HD
ENDBRANCH  15  18
BRANCH  17  20
ATOM     20  O   UNL     1       6.960   7.731  31.189  1.00  0.00    -0.504 OA
ATOM     21  H   UNL     1       5.953   7.671  31.291  1.00  0.00     0.293 HD
ENDBRANCH  17  20
ENDBRANCH   1  12
BRANCH   6  22
ATOM     22  O   UNL     1      14.550  12.996  28.415  1.00  0.00    -0.507 OA
ATOM     23  H   UNL     1      14.963  13.614  27.732  1.00  0.00     0.293 HD
ENDBRANCH   6  22
BRANCH   8  24
ATOM     24  O   UNL     1      13.349  16.400  31.583  1.00  0.00    -0.508 OA
ATOM     25  H   UNL     1      13.474  16.535  32.579  1.00  0.00     0.293 HD
ENDBRANCH   8  24
TORSDOF 5
ENDMDL
