MODEL 1
REMARK VINA RESULT:    -4.194      0.000      0.000
REMARK INTER + INTRA:          -9.466
REMARK INTER:                  -7.382
REMARK INTRA:                  -2.085
REMARK UNBOUND:                -2.085
REMARK SMILES CCCCCCC=CCCCCCCCC(=O)[O-]
REMARK SMILES IDX 10 1 11 2 12 3 13 4 14 5 15 6 16 7 17 8 18 9 9 10 8 11 7 12
REMARK SMILES IDX 6 13 5 14 4 15 3 16 2 17 1 18
REMARK H PARENT
REMARK Flexibility Score: inf
ROOT
ATOM      1  C   UNL     1      98.712   5.269 -28.046  1.00  0.00     0.004 C 
ENDROOT
BRANCH   1   2
ATOM      2  C   UNL     1      98.824   4.395 -26.784  1.00  0.00     0.000 C 
BRANCH   2   3
ATOM      3  C   UNL     1      97.538   3.605 -26.497  1.00  0.00     0.000 C 
BRANCH   3   4
ATOM      4  C   UNL     1      97.358   3.295 -25.001  1.00  0.00     0.000 C 
BRANCH   4   5
ATOM      5  C   UNL     1      95.956   2.757 -24.673  1.00  0.00     0.006 C 
BRANCH   5   6
ATOM      6  C   UNL     1      95.021   2.759 -25.890  1.00  0.00     0.053 C 
BRANCH   6   7
ATOM      7  C   UNL     1      93.864   3.678 -25.656  1.00  0.00     0.041 C 
ATOM      8  O   UNL     1      92.826   3.257 -25.081  1.00  0.00    -0.550 OA
ATOM      9  O   UNL     1      93.950   5.012 -26.033  1.00  0.00    -0.550 OA
ENDBRANCH   6   7
ENDBRANCH   5   6
ENDBRANCH   4   5
ENDBRANCH   3   4
ENDBRANCH   2   3
ENDBRANCH   1   2
BRANCH   1  10
ATOM     10  C   UNL     1      98.452   4.435 -29.306  1.00  0.00     0.027 C 
BRANCH  10  11
ATOM     11  C   UNL     1      99.682   3.664 -29.724  1.00  0.00    -0.031 C 
ATOM     12  C   UNL     1      99.772   2.321 -29.750  1.00  0.00    -0.031 C 
BRANCH  12  13
ATOM     13  C   UNL     1      98.633   1.400 -29.388  1.00  0.00     0.027 C 
BRANCH  13  14
ATOM     14  C   UNL     1      98.971   0.485 -28.199  1.00  0.00     0.004 C 
BRANCH  14  15
ATOM     15  C   UNL     1     100.123   0.996 -27.313  1.00  0.00     0.000 C 
BRANCH  15  16
ATOM     16  C   UNL     1     100.024   0.507 -25.861  1.00  0.00    -0.000 C 
BRANCH  16  17
ATOM     17  C   UNL     1      98.630  -0.063 -25.569  1.00  0.00    -0.003 C 
ATOM     18  C   UNL     1      98.718  -1.470 -24.986  1.00  0.00     0.004 C 
ENDBRANCH  16  17
ENDBRANCH  15  16
ENDBRANCH  14  15
ENDBRANCH  13  14
ENDBRANCH  12  13
ENDBRANCH  10  11
ENDBRANCH   1  10
TORSDOF 13
ENDMDL
MODEL 2
REMARK VINA RESULT:    -4.075      1.303      2.538
REMARK INTER + INTRA:          -9.257
REMARK INTER:                  -7.405
REMARK INTRA:                  -1.851
REMARK UNBOUND:                -2.085
REMARK SMILES CCCCCCC=CCCCCCCCC(=O)[O-]
REMARK SMILES IDX 10 1 11 2 12 3 13 4 14 5 15 6 16 7 17 8 18 9 9 10 8 11 7 12
REMARK SMILES IDX 6 13 5 14 4 15 3 16 2 17 1 18
REMARK H PARENT
REMARK Flexibility Score: inf
ROOT
ATOM      1  C   UNL     1      99.084   3.407 -29.490  1.00  0.00     0.004 C 
ENDROOT
BRANCH   1   2
ATOM      2  C   UNL     1      99.572   4.495 -28.517  1.00  0.00     0.000 C 
BRANCH   2   3
ATOM      3  C   UNL     1      98.498   4.896 -27.493  1.00  0.00     0.000 C 
BRANCH   3   4
ATOM      4  C   UNL     1      98.536   4.022 -26.227  1.00  0.00     0.000 C 
BRANCH   4   5
ATOM      5  C   UNL     1      97.216   3.272 -25.987  1.00  0.00     0.006 C 
BRANCH   5   6
ATOM      6  C   UNL     1      96.258   3.360 -27.183  1.00  0.00     0.053 C 
BRANCH   6   7
ATOM      7  C   UNL     1      94.841   3.446 -26.711  1.00  0.00     0.041 C 
ATOM      8  O   UNL     1      94.541   4.185 -25.737  1.00  0.00    -0.550 OA
ATOM      9  O   UNL     1      93.844   2.744 -27.377  1.00  0.00    -0.550 OA
ENDBRANCH   6   7
ENDBRANCH   5   6
ENDBRANCH   4   5
ENDBRANCH   3   4
ENDBRANCH   2   3
ENDBRANCH   1   2
BRANCH   1  10
ATOM     10  C   UNL     1      99.881   2.105 -29.348  1.00  0.00     0.027 C 
BRANCH  10  11
ATOM     11  C   UNL     1      99.001   0.964 -28.893  1.00  0.00    -0.031 C 
ATOM     12  C   UNL     1      99.064   0.385 -27.680  1.00  0.00    -0.031 C 
BRANCH  12  13
ATOM     13  C   UNL     1     100.015   0.823 -26.593  1.00  0.00     0.027 C 
BRANCH  13  14
ATOM     14  C   UNL     1      99.968  -0.099 -25.363  1.00  0.00     0.004 C 
BRANCH  14  15
ATOM     15  C   UNL     1      98.818  -1.124 -25.383  1.00  0.00     0.000 C 
BRANCH  15  16
ATOM     16  C   UNL     1      97.694  -0.782 -24.395  1.00  0.00    -0.000 C 
BRANCH  16  17
ATOM     17  C   UNL     1      96.831  -2.015 -24.099  1.00  0.00    -0.003 C 
ATOM     18  C   UNL     1      97.556  -2.988 -23.173  1.00  0.00     0.004 C 
ENDBRANCH  16  17
ENDBRANCH  15  16
ENDBRANCH  14  15
ENDBRANCH  13  14
ENDBRANCH  12  13
ENDBRANCH  10  11
ENDBRANCH   1  10
TORSDOF 13
ENDMDL
MODEL 3
REMARK VINA RESULT:    -4.066      2.693      5.219
REMARK INTER + INTRA:          -9.240
REMARK INTER:                  -7.303
REMARK INTRA:                  -1.938
REMARK UNBOUND:                -2.085
REMARK SMILES CCCCCCC=CCCCCCCCC(=O)[O-]
REMARK SMILES IDX 10 1 11 2 12 3 13 4 14 5 15 6 16 7 17 8 18 9 9 10 8 11 7 12
REMARK SMILES IDX 6 13 5 14 4 15 3 16 2 17 1 18
REMARK H PARENT
REMARK Flexibility Score: inf
ROOT
ATOM      1  C   UNL     1      98.491   1.990 -29.560  1.00  0.00     0.004 C 
ENDROOT
BRANCH   1   2
ATOM      2  C   UNL     1      99.325   0.791 -29.080  1.00  0.00     0.000 C 
BRANCH   2   3
ATOM      3  C   UNL     1      99.003   0.390 -27.632  1.00  0.00     0.000 C 
BRANCH   3   4
ATOM      4  C   UNL     1     100.125   0.772 -26.651  1.00  0.00     0.000 C 
BRANCH   4   5
ATOM      5  C   UNL     1      99.952   0.118 -25.271  1.00  0.00     0.006 C 
BRANCH   5   6
ATOM      6  C   UNL     1      98.485  -0.189 -24.940  1.00  0.00     0.053 C 
BRANCH   6   7
ATOM      7  C   UNL     1      98.357  -1.561 -24.358  1.00  0.00     0.041 C 
ATOM      8  O   UNL     1      99.355  -2.124 -23.836  1.00  0.00    -0.550 OA
ATOM      9  O   UNL     1      97.124  -2.200 -24.350  1.00  0.00    -0.550 OA
ENDBRANCH   6   7
ENDBRANCH   5   6
ENDBRANCH   4   5
ENDBRANCH   3   4
ENDBRANCH   2   3
ENDBRANCH   1   2
BRANCH   1  10
ATOM     10  C   UNL     1      99.299   3.294 -29.560  1.00  0.00     0.027 C 
BRANCH  10  11
ATOM     11  C   UNL     1      98.446   4.475 -29.159  1.00  0.00    -0.031 C 
ATOM     12  C   UNL     1      98.280   4.906 -27.896  1.00  0.00    -0.031 C 
BRANCH  12  13
ATOM     13  C   UNL     1      98.954   4.276 -26.701  1.00  0.00     0.027 C 
BRANCH  13  14
ATOM     14  C   UNL     1      97.948   3.663 -25.712  1.00  0.00     0.004 C 
BRANCH  14  15
ATOM     15  C   UNL     1      96.698   3.054 -26.376  1.00  0.00     0.000 C 
BRANCH  15  16
ATOM     16  C   UNL     1      95.437   3.187 -25.510  1.00  0.00    -0.000 C 
BRANCH  16  17
ATOM     17  C   UNL     1      94.356   3.995 -26.238  1.00  0.00    -0.003 C 
ATOM     18  C   UNL     1      93.361   4.602 -25.253  1.00  0.00     0.004 C 
ENDBRANCH  16  17
ENDBRANCH  15  16
ENDBRANCH  14  15
ENDBRANCH  13  14
ENDBRANCH  12  13
ENDBRANCH  10  11
ENDBRANCH   1  10
TORSDOF 13
ENDMDL
MODEL 4
REMARK VINA RESULT:    -3.974      2.433      5.318
REMARK INTER + INTRA:          -9.078
REMARK INTER:                  -7.314
REMARK INTRA:                  -1.764
REMARK UNBOUND:                -2.085
REMARK SMILES CCCCCCC=CCCCCCCCC(=O)[O-]
REMARK SMILES IDX 10 1 11 2 12 3 13 4 14 5 15 6 16 7 17 8 18 9 9 10 8 11 7 12
REMARK SMILES IDX 6 13 5 14 4 15 3 16 2 17 1 18
REMARK H PARENT
REMARK Flexibility Score: inf
ROOT
ATOM      1  C   UNL     1      99.958   2.944 -29.666  1.00  0.00     0.004 C 
ENDROOT
BRANCH   1   2
ATOM      2  C   UNL     1      98.760   1.991 -29.812  1.00  0.00     0.000 C 
BRANCH   2   3
ATOM      3  C   UNL     1      98.935   0.695 -29.004  1.00  0.00     0.000 C 
BRANCH   3   4
ATOM      4  C   UNL     1      99.714   0.916 -27.696  1.00  0.00     0.000 C 
BRANCH   4   5
ATOM      5  C   UNL     1      99.135   0.113 -26.521  1.00  0.00     0.006 C 
BRANCH   5   6
ATOM      6  C   UNL     1     100.014   0.185 -25.264  1.00  0.00     0.053 C 
BRANCH   6   7
ATOM      7  C   UNL     1      99.307   0.932 -24.177  1.00  0.00     0.041 C 
ATOM      8  O   UNL     1      99.399   2.185 -24.106  1.00  0.00    -0.550 OA
ATOM      9  O   UNL     1      98.510   0.246 -23.268  1.00  0.00    -0.550 OA
ENDBRANCH   6   7
ENDBRANCH   5   6
ENDBRANCH   4   5
ENDBRANCH   3   4
ENDBRANCH   2   3
ENDBRANCH   1   2
BRANCH   1  10
ATOM     10  C   UNL     1      99.527   4.355 -29.246  1.00  0.00     0.027 C 
BRANCH  10  11
ATOM     11  C   UNL     1      99.701   4.569 -27.760  1.00  0.00    -0.031 C 
ATOM     12  C   UNL     1      98.711   4.478 -26.853  1.00  0.00    -0.031 C 
BRANCH  12  13
ATOM     13  C   UNL     1      97.287   4.120 -27.201  1.00  0.00     0.027 C 
BRANCH  13  14
ATOM     14  C   UNL     1      96.774   2.906 -26.408  1.00  0.00     0.004 C 
BRANCH  14  15
ATOM     15  C   UNL     1      95.305   3.018 -25.959  1.00  0.00     0.000 C 
BRANCH  15  16
ATOM     16  C   UNL     1      94.686   4.388 -26.274  1.00  0.00    -0.000 C 
BRANCH  16  17
ATOM     17  C   UNL     1      93.399   4.605 -25.469  1.00  0.00    -0.003 C 
ATOM     18  C   UNL     1      92.782   5.968 -25.768  1.00  0.00     0.004 C 
ENDBRANCH  16  17
ENDBRANCH  15  16
ENDBRANCH  14  15
ENDBRANCH  13  14
ENDBRANCH  12  13
ENDBRANCH  10  11
ENDBRANCH   1  10
TORSDOF 13
ENDMDL
MODEL 5
REMARK VINA RESULT:    -3.937      1.342      3.651
REMARK INTER + INTRA:          -9.014
REMARK INTER:                  -7.023
REMARK INTRA:                  -1.991
REMARK UNBOUND:                -2.085
REMARK SMILES CCCCCCC=CCCCCCCCC(=O)[O-]
REMARK SMILES IDX 10 1 11 2 12 3 13 4 14 5 15 6 16 7 17 8 18 9 9 10 8 11 7 12
REMARK SMILES IDX 6 13 5 14 4 15 3 16 2 17 1 18
REMARK H PARENT
REMARK Flexibility Score: inf
ROOT
ATOM      1  C   UNL     1      98.493   3.579 -24.796  1.00  0.00     0.004 C 
ENDROOT
BRANCH   1   2
ATOM      2  C   UNL     1      98.831   3.857 -26.271  1.00  0.00     0.000 C 
BRANCH   2   3
ATOM      3  C   UNL     1      97.599   4.272 -27.091  1.00  0.00     0.000 C 
BRANCH   3   4
ATOM      4  C   UNL     1      96.620   3.105 -27.315  1.00  0.00     0.000 C 
BRANCH   4   5
ATOM      5  C   UNL     1      95.189   3.440 -26.866  1.00  0.00     0.006 C 
BRANCH   5   6
ATOM      6  C   UNL     1      94.946   3.130 -25.383  1.00  0.00     0.053 C 
BRANCH   6   7
ATOM      7  C   UNL     1      93.773   3.907 -24.874  1.00  0.00     0.041 C 
ATOM      8  O   UNL     1      93.444   4.991 -25.423  1.00  0.00    -0.550 OA
ATOM      9  O   UNL     1      93.016   3.410 -23.820  1.00  0.00    -0.550 OA
ENDBRANCH   6   7
ENDBRANCH   5   6
ENDBRANCH   4   5
ENDBRANCH   3   4
ENDBRANCH   2   3
ENDBRANCH   1   2
BRANCH   1  10
ATOM     10  C   UNL     1      99.116   2.269 -24.297  1.00  0.00     0.027 C 
BRANCH  10  11
ATOM     11  C   UNL     1      98.196   1.094 -24.532  1.00  0.00    -0.031 C 
ATOM     12  C   UNL     1      98.345   0.190 -25.518  1.00  0.00    -0.031 C 
BRANCH  12  13
ATOM     13  C   UNL     1      99.480   0.218 -26.513  1.00  0.00     0.027 C 
BRANCH  13  14
ATOM     14  C   UNL     1      98.987   0.340 -27.965  1.00  0.00     0.004 C 
BRANCH  14  15
ATOM     15  C   UNL     1      99.815   1.304 -28.835  1.00  0.00     0.000 C 
BRANCH  15  16
ATOM     16  C   UNL     1      99.769   0.951 -30.329  1.00  0.00    -0.000 C 
BRANCH  16  17
ATOM     17  C   UNL     1      98.530   0.107 -30.654  1.00  0.00    -0.003 C 
ATOM     18  C   UNL     1      97.621   0.819 -31.652  1.00  0.00     0.004 C 
ENDBRANCH  16  17
ENDBRANCH  15  16
ENDBRANCH  14  15
ENDBRANCH  13  14
ENDBRANCH  12  13
ENDBRANCH  10  11
ENDBRANCH   1  10
TORSDOF 13
ENDMDL
MODEL 6
REMARK VINA RESULT:    -3.916      2.908      5.263
REMARK INTER + INTRA:          -8.976
REMARK INTER:                  -7.224
REMARK INTRA:                  -1.752
REMARK UNBOUND:                -2.085
REMARK SMILES CCCCCCC=CCCCCCCCC(=O)[O-]
REMARK SMILES IDX 10 1 11 2 12 3 13 4 14 5 15 6 16 7 17 8 18 9 9 10 8 11 7 12
REMARK SMILES IDX 6 13 5 14 4 15 3 16 2 17 1 18
REMARK H PARENT
REMARK Flexibility Score: inf
ROOT
ATOM      1  C   UNL     1      98.440   4.068 -29.529  1.00  0.00     0.004 C 
ENDROOT
BRANCH   1   2
ATOM      2  C   UNL     1      99.806   3.419 -29.811  1.00  0.00     0.000 C 
BRANCH   2   3
ATOM      3  C   UNL     1      99.720   1.889 -29.925  1.00  0.00     0.000 C 
BRANCH   3   4
ATOM      4  C   UNL     1      98.901   1.259 -28.785  1.00  0.00     0.000 C 
BRANCH   4   5
ATOM      5  C   UNL     1      99.765   0.895 -27.567  1.00  0.00     0.006 C 
BRANCH   5   6
ATOM      6  C   UNL     1      99.084  -0.121 -26.640  1.00  0.00     0.053 C 
BRANCH   6   7
ATOM      7  C   UNL     1      99.702  -0.080 -25.278  1.00  0.00     0.041 C 
ATOM      8  O   UNL     1     100.068  -1.145 -24.715  1.00  0.00    -0.550 OA
ATOM      9  O   UNL     1      99.917   1.140 -24.650  1.00  0.00    -0.550 OA
ENDBRANCH   6   7
ENDBRANCH   5   6
ENDBRANCH   4   5
ENDBRANCH   3   4
ENDBRANCH   2   3
ENDBRANCH   1   2
BRANCH   1  10
ATOM     10  C   UNL     1      98.526   5.148 -28.443  1.00  0.00     0.027 C 
BRANCH  10  11
ATOM     11  C   UNL     1      99.198   4.625 -27.195  1.00  0.00    -0.031 C 
ATOM     12  C   UNL     1      98.556   4.045 -26.165  1.00  0.00    -0.031 C 
BRANCH  12  13
ATOM     13  C   UNL     1      97.065   3.812 -26.133  1.00  0.00     0.027 C 
BRANCH  13  14
ATOM     14  C   UNL     1      96.702   2.371 -25.737  1.00  0.00     0.004 C 
BRANCH  14  15
ATOM     15  C   UNL     1      96.020   2.245 -24.361  1.00  0.00     0.000 C 
BRANCH  15  16
ATOM     16  C   UNL     1      94.729   3.070 -24.256  1.00  0.00    -0.000 C 
BRANCH  16  17
ATOM     17  C   UNL     1      93.959   2.720 -22.977  1.00  0.00    -0.003 C 
ATOM     18  C   UNL     1      94.107   3.815 -21.924  1.00  0.00     0.004 C 
ENDBRANCH  16  17
ENDBRANCH  15  16
ENDBRANCH  14  15
ENDBRANCH  13  14
ENDBRANCH  12  13
ENDBRANCH  10  11
ENDBRANCH   1  10
TORSDOF 13
ENDMDL
MODEL 7
REMARK VINA RESULT:    -3.886      3.580      6.056
REMARK INTER + INTRA:          -8.924
REMARK INTER:                  -7.666
REMARK INTRA:                  -1.258
REMARK UNBOUND:                -2.085
REMARK SMILES CCCCCCC=CCCCCCCCC(=O)[O-]
REMARK SMILES IDX 10 1 11 2 12 3 13 4 14 5 15 6 16 7 17 8 18 9 9 10 8 11 7 12
REMARK SMILES IDX 6 13 5 14 4 15 3 16 2 17 1 18
REMARK H PARENT
REMARK Flexibility Score: inf
ROOT
ATOM      1  C   UNL     1      92.632   4.479 -25.436  1.00  0.00     0.004 C 
ENDROOT
BRANCH   1   2
ATOM      2  C   UNL     1      92.974   5.979 -25.395  1.00  0.00     0.000 C 
BRANCH   2   3
ATOM      3  C   UNL     1      92.334   6.763 -26.551  1.00  0.00     0.000 C 
BRANCH   3   4
ATOM      4  C   UNL     1      91.292   5.932 -27.320  1.00  0.00     0.000 C 
BRANCH   4   5
ATOM      5  C   UNL     1      91.669   5.731 -28.797  1.00  0.00     0.006 C 
BRANCH   5   6
ATOM      6  C   UNL     1      90.940   6.706 -29.732  1.00  0.00     0.053 C 
BRANCH   6   7
ATOM      7  C   UNL     1      89.623   6.136 -30.154  1.00  0.00     0.041 C 
ATOM      8  O   UNL     1      88.578   6.405 -29.505  1.00  0.00    -0.550 OA
ATOM      9  O   UNL     1      89.542   5.345 -31.293  1.00  0.00    -0.550 OA
ENDBRANCH   6   7
ENDBRANCH   5   6
ENDBRANCH   4   5
ENDBRANCH   3   4
ENDBRANCH   2   3
ENDBRANCH   1   2
BRANCH   1  10
ATOM     10  C   UNL     1      93.883   3.598 -25.329  1.00  0.00     0.027 C 
BRANCH  10  11
ATOM     11  C   UNL     1      94.742   3.701 -26.567  1.00  0.00    -0.031 C 
ATOM     12  C   UNL     1      96.077   3.537 -26.588  1.00  0.00    -0.031 C 
BRANCH  12  13
ATOM     13  C   UNL     1      96.898   3.197 -25.368  1.00  0.00     0.027 C 
BRANCH  13  14
ATOM     14  C   UNL     1      98.370   3.614 -25.514  1.00  0.00     0.004 C 
BRANCH  14  15
ATOM     15  C   UNL     1      98.898   3.583 -26.961  1.00  0.00     0.000 C 
BRANCH  15  16
ATOM     16  C   UNL     1      99.416   4.948 -27.438  1.00  0.00    -0.000 C 
BRANCH  16  17
ATOM     17  C   UNL     1      98.635   5.430 -28.667  1.00  0.00    -0.003 C 
ATOM     18  C   UNL     1      98.122   4.253 -29.494  1.00  0.00     0.004 C 
ENDBRANCH  16  17
ENDBRANCH  15  16
ENDBRANCH  14  15
ENDBRANCH  13  14
ENDBRANCH  12  13
ENDBRANCH  10  11
ENDBRANCH   1  10
TORSDOF 13
ENDMDL
MODEL 8
REMARK VINA RESULT:    -3.858      3.738      5.718
REMARK INTER + INTRA:          -8.874
REMARK INTER:                  -7.210
REMARK INTRA:                  -1.664
REMARK UNBOUND:                -2.085
REMARK SMILES CCCCCCC=CCCCCCCCC(=O)[O-]
REMARK SMILES IDX 10 1 11 2 12 3 13 4 14 5 15 6 16 7 17 8 18 9 9 10 8 11 7 12
REMARK SMILES IDX 6 13 5 14 4 15 3 16 2 17 1 18
REMARK H PARENT
REMARK Flexibility Score: inf
ROOT
ATOM      1  C   UNL     1      99.908   0.758 -26.747  1.00  0.00     0.004 C 
ENDROOT
BRANCH   1   2
ATOM      2  C   UNL     1      99.655  -0.327 -25.686  1.00  0.00     0.000 C 
BRANCH   2   3
ATOM      3  C   UNL     1      98.555   0.069 -24.688  1.00  0.00     0.000 C 
BRANCH   3   4
ATOM      4  C   UNL     1      97.470  -1.013 -24.546  1.00  0.00     0.000 C 
BRANCH   4   5
ATOM      5  C   UNL     1      97.908  -2.173 -23.638  1.00  0.00     0.006 C 
BRANCH   5   6
ATOM      6  C   UNL     1      96.797  -3.211 -23.426  1.00  0.00     0.053 C 
BRANCH   6   7
ATOM      7  C   UNL     1      97.360  -4.464 -22.834  1.00  0.00     0.041 C 
ATOM      8  O   UNL     1      96.994  -5.589 -23.265  1.00  0.00    -0.550 OA
ATOM      9  O   UNL     1      98.325  -4.388 -21.838  1.00  0.00    -0.550 OA
ENDBRANCH   6   7
ENDBRANCH   5   6
ENDBRANCH   4   5
ENDBRANCH   3   4
ENDBRANCH   2   3
ENDBRANCH   1   2
BRANCH   1  10
ATOM     10  C   UNL     1      99.009   0.584 -27.978  1.00  0.00     0.027 C 
BRANCH  10  11
ATOM     11  C   UNL     1      99.669   1.121 -29.226  1.00  0.00    -0.031 C 
ATOM     12  C   UNL     1      99.214   2.165 -29.943  1.00  0.00    -0.031 C 
BRANCH  12  13
ATOM     13  C   UNL     1      97.987   2.963 -29.574  1.00  0.00     0.027 C 
BRANCH  13  14
ATOM     14  C   UNL     1      98.303   4.447 -29.323  1.00  0.00     0.004 C 
BRANCH  14  15
ATOM     15  C   UNL     1      98.056   4.911 -27.875  1.00  0.00     0.000 C 
BRANCH  15  16
ATOM     16  C   UNL     1      99.025   4.273 -26.869  1.00  0.00    -0.000 C 
BRANCH  16  17
ATOM     17  C   UNL     1      98.275   3.778 -25.625  1.00  0.00    -0.003 C 
ATOM     18  C   UNL     1      96.939   3.144 -26.001  1.00  0.00     0.004 C 
ENDBRANCH  16  17
ENDBRANCH  15  16
ENDBRANCH  14  15
ENDBRANCH  13  14
ENDBRANCH  12  13
ENDBRANCH  10  11
ENDBRANCH   1  10
TORSDOF 13
ENDMDL
MODEL 9
REMARK VINA RESULT:    -3.848      2.085      2.521
REMARK INTER + INTRA:          -8.858
REMARK INTER:                  -6.286
REMARK INTRA:                  -2.572
REMARK UNBOUND:                -2.085
REMARK SMILES CCCCCCC=CCCCCCCCC(=O)[O-]
REMARK SMILES IDX 10 1 11 2 12 3 13 4 14 5 15 6 16 7 17 8 18 9 9 10 8 11 7 12
REMARK SMILES IDX 6 13 5 14 4 15 3 16 2 17 1 18
REMARK H PARENT
REMARK Flexibility Score: inf
ROOT
ATOM      1  C   UNL     1      98.543   4.891 -28.215  1.00  0.00     0.004 C 
ENDROOT
BRANCH   1   2
ATOM      2  C   UNL     1      99.427   4.457 -27.034  1.00  0.00     0.000 C 
BRANCH   2   3
ATOM      3  C   UNL     1      98.614   4.181 -25.758  1.00  0.00     0.000 C 
BRANCH   3   4
ATOM      4  C   UNL     1      97.358   3.336 -26.032  1.00  0.00     0.000 C 
BRANCH   4   5
ATOM      5  C   UNL     1      96.685   2.843 -24.741  1.00  0.00     0.006 C 
BRANCH   5   6
ATOM      6  C   UNL     1      96.044   1.457 -24.898  1.00  0.00     0.053 C 
BRANCH   6   7
ATOM      7  C   UNL     1      95.938   0.778 -23.569  1.00  0.00     0.041 C 
ATOM      8  O   UNL     1      95.331   1.337 -22.619  1.00  0.00    -0.550 OA
ATOM      9  O   UNL     1      96.471  -0.493 -23.395  1.00  0.00    -0.550 OA
ENDBRANCH   6   7
ENDBRANCH   5   6
ENDBRANCH   4   5
ENDBRANCH   3   4
ENDBRANCH   2   3
ENDBRANCH   1   2
BRANCH   1  10
ATOM     10  C   UNL     1      98.877   4.123 -29.500  1.00  0.00     0.027 C 
BRANCH  10  11
ATOM     11  C   UNL     1      97.918   2.978 -29.727  1.00  0.00    -0.031 C 
ATOM     12  C   UNL     1      98.162   1.698 -29.393  1.00  0.00    -0.031 C 
BRANCH  12  13
ATOM     13  C   UNL     1      99.428   1.237 -28.714  1.00  0.00     0.027 C 
BRANCH  13  14
ATOM     14  C   UNL     1      99.151   0.443 -27.426  1.00  0.00     0.004 C 
BRANCH  14  15
ATOM     15  C   UNL     1     100.125   0.748 -26.272  1.00  0.00     0.000 C 
BRANCH  15  16
ATOM     16  C   UNL     1      99.611   0.259 -24.910  1.00  0.00    -0.000 C 
BRANCH  16  17
ATOM     17  C   UNL     1      99.919   1.281 -23.809  1.00  0.00    -0.003 C 
ATOM     18  C   UNL     1      99.629   0.708 -22.425  1.00  0.00     0.004 C 
ENDBRANCH  16  17
ENDBRANCH  15  16
ENDBRANCH  14  15
ENDBRANCH  13  14
ENDBRANCH  12  13
ENDBRANCH  10  11
ENDBRANCH   1  10
TORSDOF 13
ENDMDL
