MODEL 1
REMARK VINA RESULT:    -5.058      0.000      0.000
REMARK INTER + INTRA:          -5.880
REMARK INTER:                  -5.797
REMARK INTRA:                  -0.083
REMARK UNBOUND:                -0.083
REMARK SMILES COc1cc(C(=O)[O-])ccc1O
REMARK SMILES IDX 5 1 9 2 4 3 10 4 3 5 11 6 6 7 7 8 8 9 2 10 1 11 12 12
REMARK H PARENT 12 13
REMARK Flexibility Score: inf
ROOT
ATOM      1  C   UNL     1      37.013  -2.280  65.385  1.00  0.00     0.001 A 
ATOM      2  C   UNL     1      37.221  -1.106  64.641  1.00  0.00     0.014 A 
ATOM      3  C   UNL     1      38.123  -2.940  65.943  1.00  0.00     0.060 A 
ATOM      4  C   UNL     1      38.510  -0.602  64.460  1.00  0.00     0.051 A 
ATOM      5  C   UNL     1      39.426  -2.434  65.762  1.00  0.00     0.161 A 
ATOM      6  C   UNL     1      39.611  -1.262  65.017  1.00  0.00     0.157 A 
ENDROOT
BRANCH   1   7
ATOM      7  C   UNL     1      35.648  -2.816  65.580  1.00  0.00     0.072 C 
ATOM      8  O   UNL     1      35.449  -3.797  66.346  1.00  0.00    -0.545 OA
ATOM      9  O   UNL     1      34.565  -2.246  64.921  1.00  0.00    -0.545 OA
ENDBRANCH   1   7
BRANCH   5  10
ATOM     10  O   UNL     1      40.556  -3.068  66.304  1.00  0.00    -0.493 OA
ATOM     11  C   UNL     1      40.522  -3.994  67.384  1.00  0.00     0.278 C 
ENDBRANCH   5  10
BRANCH   6  12
ATOM     12  O   UNL     1      40.899  -0.759  64.835  1.00  0.00    -0.504 OA
ATOM     13  H   UNL     1      41.678  -1.366  64.607  1.00  0.00     0.293 HD
ENDBRANCH   6  12
TORSDOF 3
ENDMDL
MODEL 2
REMARK VINA RESULT:    -4.862     12.637     14.074
REMARK INTER + INTRA:          -5.656
REMARK INTER:                  -5.580
REMARK INTRA:                  -0.076
REMARK UNBOUND:                -0.083
REMARK SMILES COc1cc(C(=O)[O-])ccc1O
REMARK SMILES IDX 5 1 9 2 4 3 10 4 3 5 11 6 6 7 7 8 8 9 2 10 1 11 12 12
REMARK H PARENT 12 13
REMARK Flexibility Score: inf
ROOT
ATOM      1  C   UNL     1      40.228  -0.291  79.718  1.00  0.00     0.001 A 
ATOM      2  C   UNL     1      41.251   0.645  79.942  1.00  0.00     0.014 A 
ATOM      3  C   UNL     1      40.475  -1.380  78.862  1.00  0.00     0.060 A 
ATOM      4  C   UNL     1      42.495   0.497  79.325  1.00  0.00     0.051 A 
ATOM      5  C   UNL     1      41.729  -1.533  78.237  1.00  0.00     0.161 A 
ATOM      6  C   UNL     1      42.736  -0.587  78.474  1.00  0.00     0.157 A 
ENDROOT
BRANCH   1   7
ATOM      7  C   UNL     1      38.909  -0.138  80.371  1.00  0.00     0.072 C 
ATOM      8  O   UNL     1      37.873   0.059  79.681  1.00  0.00    -0.545 OA
ATOM      9  O   UNL     1      38.794  -0.208  81.754  1.00  0.00    -0.545 OA
ENDBRANCH   1   7
BRANCH   5  10
ATOM     10  O   UNL     1      42.011  -2.607  77.376  1.00  0.00    -0.493 OA
ATOM     11  C   UNL     1      41.074  -3.616  77.012  1.00  0.00     0.278 C 
ENDBRANCH   5  10
BRANCH   6  12
ATOM     12  O   UNL     1      43.978  -0.735  77.858  1.00  0.00    -0.504 OA
ATOM     13  H   UNL     1      44.768  -0.154  78.114  1.00  0.00     0.293 HD
ENDBRANCH   6  12
TORSDOF 3
ENDMDL
MODEL 3
REMARK VINA RESULT:    -4.760      1.367      2.850
REMARK INTER + INTRA:          -5.539
REMARK INTER:                  -5.438
REMARK INTRA:                  -0.101
REMARK UNBOUND:                -0.083
REMARK SMILES COc1cc(C(=O)[O-])ccc1O
REMARK SMILES IDX 5 1 9 2 4 3 10 4 3 5 11 6 6 7 7 8 8 9 2 10 1 11 12 12
REMARK H PARENT 12 13
REMARK Flexibility Score: inf
ROOT
ATOM      1  C   UNL     1      37.901  -2.831  66.046  1.00  0.00     0.001 A 
ATOM      2  C   UNL     1      39.161  -3.430  66.211  1.00  0.00     0.014 A 
ATOM      3  C   UNL     1      37.807  -1.623  65.330  1.00  0.00     0.060 A 
ATOM      4  C   UNL     1      40.303  -2.834  65.674  1.00  0.00     0.051 A 
ATOM      5  C   UNL     1      38.958  -1.019  64.786  1.00  0.00     0.161 A 
ATOM      6  C   UNL     1      40.206  -1.632  64.963  1.00  0.00     0.157 A 
ENDROOT
BRANCH   1   7
ATOM      7  C   UNL     1      36.687  -3.459  66.614  1.00  0.00     0.072 C 
ATOM      8  O   UNL     1      36.742  -4.083  67.707  1.00  0.00    -0.545 OA
ATOM      9  O   UNL     1      35.470  -3.371  65.950  1.00  0.00    -0.545 OA
ENDBRANCH   1   7
BRANCH   5  10
ATOM     10  O   UNL     1      38.902   0.187  64.067  1.00  0.00    -0.493 OA
ATOM     11  C   UNL     1      38.687   1.466  64.653  1.00  0.00     0.278 C 
ENDBRANCH   5  10
BRANCH   6  12
ATOM     12  O   UNL     1      41.347  -1.038  64.427  1.00  0.00    -0.504 OA
ATOM     13  H   UNL     1      41.668  -1.257  63.491  1.00  0.00     0.293 HD
ENDBRANCH   6  12
TORSDOF 3
ENDMDL
MODEL 4
REMARK VINA RESULT:    -4.725     13.587     14.654
REMARK INTER + INTRA:          -5.499
REMARK INTER:                  -5.421
REMARK INTRA:                  -0.078
REMARK UNBOUND:                -0.083
REMARK SMILES COc1cc(C(=O)[O-])ccc1O
REMARK SMILES IDX 5 1 9 2 4 3 10 4 3 5 11 6 6 7 7 8 8 9 2 10 1 11 12 12
REMARK H PARENT 12 13
REMARK Flexibility Score: inf
ROOT
ATOM      1  C   UNL     1      41.260   0.083  78.915  1.00  0.00     0.001 A 
ATOM      2  C   UNL     1      40.417   1.013  79.547  1.00  0.00     0.014 A 
ATOM      3  C   UNL     1      40.945  -1.286  78.990  1.00  0.00     0.060 A 
ATOM      4  C   UNL     1      39.284   0.584  80.240  1.00  0.00     0.051 A 
ATOM      5  C   UNL     1      39.801  -1.723  79.689  1.00  0.00     0.161 A 
ATOM      6  C   UNL     1      38.974  -0.779  80.313  1.00  0.00     0.157 A 
ENDROOT
BRANCH   1   7
ATOM      7  C   UNL     1      42.462   0.534  78.179  1.00  0.00     0.072 C 
ATOM      8  O   UNL     1      42.377   1.441  77.308  1.00  0.00    -0.545 OA
ATOM      9  O   UNL     1      43.703  -0.035  78.438  1.00  0.00    -0.545 OA
ENDBRANCH   1   7
BRANCH   5  10
ATOM     10  O   UNL     1      39.457  -3.081  79.785  1.00  0.00    -0.493 OA
ATOM     11  C   UNL     1      40.029  -4.117  78.994  1.00  0.00     0.278 C 
ENDBRANCH   5  10
BRANCH   6  12
ATOM     12  O   UNL     1      37.842  -1.207  81.005  1.00  0.00    -0.504 OA
ATOM     13  H   UNL     1      37.916  -1.699  81.888  1.00  0.00     0.293 HD
ENDBRANCH   6  12
TORSDOF 3
ENDMDL
MODEL 5
REMARK VINA RESULT:    -4.675      1.715      4.140
REMARK INTER + INTRA:          -5.441
REMARK INTER:                  -5.344
REMARK INTRA:                  -0.097
REMARK UNBOUND:                -0.083
REMARK SMILES COc1cc(C(=O)[O-])ccc1O
REMARK SMILES IDX 5 1 9 2 4 3 10 4 3 5 11 6 6 7 7 8 8 9 2 10 1 11 12 12
REMARK H PARENT 12 13
REMARK Flexibility Score: inf
ROOT
ATOM      1  C   UNL     1      37.772  -1.138  64.919  1.00  0.00     0.001 A 
ATOM      2  C   UNL     1      36.525  -0.983  64.291  1.00  0.00     0.014 A 
ATOM      3  C   UNL     1      37.936  -2.163  65.869  1.00  0.00     0.060 A 
ATOM      4  C   UNL     1      35.464  -1.835  64.605  1.00  0.00     0.051 A 
ATOM      5  C   UNL     1      36.868  -3.024  66.188  1.00  0.00     0.161 A 
ATOM      6  C   UNL     1      35.632  -2.853  65.551  1.00  0.00     0.157 A 
ENDROOT
BRANCH   1   7
ATOM      7  C   UNL     1      38.899  -0.237  64.588  1.00  0.00     0.072 C 
ATOM      8  O   UNL     1      38.830   0.995  64.844  1.00  0.00    -0.545 OA
ATOM      9  O   UNL     1      40.050  -0.737  63.991  1.00  0.00    -0.545 OA
ENDBRANCH   1   7
BRANCH   5  10
ATOM     10  O   UNL     1      36.996  -4.057  67.132  1.00  0.00    -0.493 OA
ATOM     11  C   UNL     1      37.031  -3.863  68.541  1.00  0.00     0.278 C 
ENDBRANCH   5  10
BRANCH   6  12
ATOM     12  O   UNL     1      34.572  -3.702  65.864  1.00  0.00    -0.504 OA
ATOM     13  H   UNL     1      34.726  -4.601  66.306  1.00  0.00     0.293 HD
ENDBRANCH   6  12
TORSDOF 3
ENDMDL
MODEL 6
REMARK VINA RESULT:    -4.629      1.474      4.553
REMARK INTER + INTRA:          -5.389
REMARK INTER:                  -5.298
REMARK INTRA:                  -0.091
REMARK UNBOUND:                -0.083
REMARK SMILES COc1cc(C(=O)[O-])ccc1O
REMARK SMILES IDX 5 1 9 2 4 3 10 4 3 5 11 6 6 7 7 8 8 9 2 10 1 11 12 12
REMARK H PARENT 12 13
REMARK Flexibility Score: inf
ROOT
ATOM      1  C   UNL     1      39.001  -1.740  65.596  1.00  0.00     0.001 A 
ATOM      2  C   UNL     1      39.581  -1.877  66.869  1.00  0.00     0.014 A 
ATOM      3  C   UNL     1      37.759  -2.351  65.342  1.00  0.00     0.060 A 
ATOM      4  C   UNL     1      38.934  -2.609  67.866  1.00  0.00     0.051 A 
ATOM      5  C   UNL     1      37.103  -3.091  66.346  1.00  0.00     0.161 A 
ATOM      6  C   UNL     1      37.699  -3.216  67.608  1.00  0.00     0.157 A 
ENDROOT
BRANCH   1   7
ATOM      7  C   UNL     1      39.684  -0.964  64.537  1.00  0.00     0.072 C 
ATOM      8  O   UNL     1      39.073  -0.053  63.915  1.00  0.00    -0.545 OA
ATOM      9  O   UNL     1      41.009  -1.227  64.212  1.00  0.00    -0.545 OA
ENDBRANCH   1   7
BRANCH   5  10
ATOM     10  O   UNL     1      35.863  -3.714  66.126  1.00  0.00    -0.493 OA
ATOM     11  C   UNL     1      34.688  -3.041  65.690  1.00  0.00     0.278 C 
ENDBRANCH   5  10
BRANCH   6  12
ATOM     12  O   UNL     1      37.053  -3.947  68.604  1.00  0.00    -0.504 OA
ATOM     13  H   UNL     1      36.062  -4.152  68.553  1.00  0.00     0.293 HD
ENDBRANCH   6  12
TORSDOF 3
ENDMDL
MODEL 7
REMARK VINA RESULT:    -4.627      2.245      3.287
REMARK INTER + INTRA:          -5.386
REMARK INTER:                  -5.311
REMARK INTRA:                  -0.075
REMARK UNBOUND:                -0.083
REMARK SMILES COc1cc(C(=O)[O-])ccc1O
REMARK SMILES IDX 5 1 9 2 4 3 10 4 3 5 11 6 6 7 7 8 8 9 2 10 1 11 12 12
REMARK H PARENT 12 13
REMARK Flexibility Score: inf
ROOT
ATOM      1  C   UNL     1      38.659  -1.153  65.634  1.00  0.00     0.001 A 
ATOM      2  C   UNL     1      39.807  -1.637  64.984  1.00  0.00     0.014 A 
ATOM      3  C   UNL     1      38.315  -1.676  66.894  1.00  0.00     0.060 A 
ATOM      4  C   UNL     1      40.595  -2.623  65.581  1.00  0.00     0.051 A 
ATOM      5  C   UNL     1      39.109  -2.671  67.500  1.00  0.00     0.161 A 
ATOM      6  C   UNL     1      40.249  -3.141  66.834  1.00  0.00     0.157 A 
ENDROOT
BRANCH   1   7
ATOM      7  C   UNL     1      37.821  -0.108  65.005  1.00  0.00     0.072 C 
ATOM      8  O   UNL     1      36.725  -0.408  64.459  1.00  0.00    -0.545 OA
ATOM      9  O   UNL     1      38.230   1.220  65.006  1.00  0.00    -0.545 OA
ENDBRANCH   1   7
BRANCH   5  10
ATOM     10  O   UNL     1      38.796  -3.216  68.756  1.00  0.00    -0.493 OA
ATOM     11  C   UNL     1      37.706  -2.796  69.569  1.00  0.00     0.278 C 
ENDBRANCH   5  10
BRANCH   6  12
ATOM     12  O   UNL     1      41.037  -4.125  67.430  1.00  0.00    -0.504 OA
ATOM     13  H   UNL     1      41.664  -4.704  66.883  1.00  0.00     0.293 HD
ENDBRANCH   6  12
TORSDOF 3
ENDMDL
MODEL 8
REMARK VINA RESULT:    -4.615     13.365     15.030
REMARK INTER + INTRA:          -5.373
REMARK INTER:                  -5.279
REMARK INTRA:                  -0.093
REMARK UNBOUND:                -0.083
REMARK SMILES COc1cc(C(=O)[O-])ccc1O
REMARK SMILES IDX 5 1 9 2 4 3 10 4 3 5 11 6 6 7 7 8 8 9 2 10 1 11 12 12
REMARK H PARENT 12 13
REMARK Flexibility Score: inf
ROOT
ATOM      1  C   UNL     1      41.521  -0.632  78.886  1.00  0.00     0.001 A 
ATOM      2  C   UNL     1      41.216  -1.882  78.321  1.00  0.00     0.014 A 
ATOM      3  C   UNL     1      40.849  -0.228  80.054  1.00  0.00     0.060 A 
ATOM      4  C   UNL     1      40.259  -2.710  78.911  1.00  0.00     0.051 A 
ATOM      5  C   UNL     1      39.883  -1.062  80.652  1.00  0.00     0.161 A 
ATOM      6  C   UNL     1      39.593  -2.304  80.073  1.00  0.00     0.157 A 
ENDROOT
BRANCH   1   7
ATOM      7  C   UNL     1      42.534   0.249  78.264  1.00  0.00     0.072 C 
ATOM      8  O   UNL     1      43.762   0.065  78.481  1.00  0.00    -0.545 OA
ATOM      9  O   UNL     1      42.147   1.291  77.430  1.00  0.00    -0.545 OA
ENDBRANCH   1   7
BRANCH   5  10
ATOM     10  O   UNL     1      39.193  -0.690  81.818  1.00  0.00    -0.493 OA
ATOM     11  C   UNL     1      38.269   0.390  81.899  1.00  0.00     0.278 C 
ENDBRANCH   5  10
BRANCH   6  12
ATOM     12  O   UNL     1      38.638  -3.132  80.661  1.00  0.00    -0.504 OA
ATOM     13  H   UNL     1      37.678  -3.148  80.336  1.00  0.00     0.293 HD
ENDBRANCH   6  12
TORSDOF 3
ENDMDL
MODEL 9
REMARK VINA RESULT:    -4.326      1.921      4.118
REMARK INTER + INTRA:          -5.042
REMARK INTER:                  -5.022
REMARK INTRA:                  -0.020
REMARK UNBOUND:                -0.083
REMARK SMILES COc1cc(C(=O)[O-])ccc1O
REMARK SMILES IDX 5 1 9 2 4 3 10 4 3 5 11 6 6 7 7 8 8 9 2 10 1 11 12 12
REMARK H PARENT 12 13
REMARK Flexibility Score: inf
ROOT
ATOM      1  C   UNL     1      38.924  -1.758  65.622  1.00  0.00     0.001 A 
ATOM      2  C   UNL     1      37.646  -2.213  65.257  1.00  0.00     0.014 A 
ATOM      3  C   UNL     1      39.421  -2.068  66.901  1.00  0.00     0.060 A 
ATOM      4  C   UNL     1      36.880  -2.963  66.151  1.00  0.00     0.051 A 
ATOM      5  C   UNL     1      38.650  -2.825  67.807  1.00  0.00     0.161 A 
ATOM      6  C   UNL     1      37.377  -3.269  67.423  1.00  0.00     0.157 A 
ENDROOT
BRANCH   1   7
ATOM      7  C   UNL     1      39.740  -0.963  64.676  1.00  0.00     0.072 C 
ATOM      8  O   UNL     1      39.204  -0.081  63.953  1.00  0.00    -0.545 OA
ATOM      9  O   UNL     1      41.109  -1.178  64.572  1.00  0.00    -0.545 OA
ENDBRANCH   1   7
BRANCH   5  10
ATOM     10  O   UNL     1      39.113  -3.153  69.092  1.00  0.00    -0.493 OA
ATOM     11  C   UNL     1      38.767  -2.447  70.279  1.00  0.00     0.278 C 
ENDBRANCH   5  10
BRANCH   6  12
ATOM     12  O   UNL     1      36.612  -4.018  68.316  1.00  0.00    -0.504 OA
ATOM     13  H   UNL     1      36.974  -4.859  68.748  1.00  0.00     0.293 HD
ENDBRANCH   6  12
TORSDOF 3
ENDMDL
