MODEL 1
REMARK VINA RESULT:    -4.468      0.000      0.000
REMARK INTER + INTRA:          -5.108
REMARK INTER:                  -4.859
REMARK INTRA:                  -0.249
REMARK UNBOUND:                -0.249
REMARK SMILES O=C([O-])c1ccccc1O
REMARK SMILES IDX 4 1 9 2 5 3 8 4 6 5 7 6 2 7 1 8 3 9 10 10
REMARK H PARENT 10 11
REMARK Flexibility Score: inf
ROOT
ATOM      1  C   UNL     1      20.978 -31.010  20.316  1.00  0.00     0.039 A 
ATOM      2  C   UNL     1      21.204 -29.837  19.551  1.00  0.00     0.124 A 
ATOM      3  C   UNL     1      19.858 -31.810  20.019  1.00  0.00     0.014 A 
ATOM      4  C   UNL     1      20.352 -29.530  18.483  1.00  0.00     0.047 A 
ATOM      5  C   UNL     1      19.005 -31.478  18.965  1.00  0.00     0.001 A 
ATOM      6  C   UNL     1      19.257 -30.345  18.192  1.00  0.00     0.004 A 
ENDROOT
BRANCH   1   7
ATOM      7  C   UNL     1      21.898 -31.449  21.389  1.00  0.00     0.075 C 
ATOM      8  O   UNL     1      22.346 -30.612  22.217  1.00  0.00    -0.545 OA
ATOM      9  O   UNL     1      22.225 -32.791  21.541  1.00  0.00    -0.545 OA
ENDBRANCH   1   7
BRANCH   2  10
ATOM     10  O   UNL     1      22.234 -28.939  19.840  1.00  0.00    -0.507 OA
ATOM     11  H   UNL     1      22.507 -28.690  20.780  1.00  0.00     0.293 HD
ENDBRANCH   2  10
TORSDOF 2
ENDMDL
MODEL 2
REMARK VINA RESULT:    -4.463     12.696     14.107
REMARK INTER + INTRA:          -5.103
REMARK INTER:                  -4.853
REMARK INTRA:                  -0.250
REMARK UNBOUND:                -0.249
REMARK SMILES O=C([O-])c1ccccc1O
REMARK SMILES IDX 4 1 9 2 5 3 8 4 6 5 7 6 2 7 1 8 3 9 10 10
REMARK H PARENT 10 11
REMARK Flexibility Score: inf
ROOT
ATOM      1  C   UNL     1      24.221 -43.820  20.084  1.00  0.00     0.039 A 
ATOM      2  C   UNL     1      23.202 -44.687  19.613  1.00  0.00     0.124 A 
ATOM      3  C   UNL     1      24.776 -44.052  21.356  1.00  0.00     0.014 A 
ATOM      4  C   UNL     1      22.813 -45.787  20.388  1.00  0.00     0.047 A 
ATOM      5  C   UNL     1      24.362 -45.141  22.126  1.00  0.00     0.001 A 
ATOM      6  C   UNL     1      23.389 -46.013  21.639  1.00  0.00     0.004 A 
ENDROOT
BRANCH   1   7
ATOM      7  C   UNL     1      24.751 -42.703  19.271  1.00  0.00     0.075 C 
ATOM      8  O   UNL     1      25.986 -42.456  19.267  1.00  0.00    -0.545 OA
ATOM      9  O   UNL     1      23.910 -41.957  18.454  1.00  0.00    -0.545 OA
ENDBRANCH   1   7
BRANCH   2  10
ATOM     10  O   UNL     1      22.530 -44.473  18.407  1.00  0.00    -0.507 OA
ATOM     11  H   UNL     1      21.978 -45.182  17.945  1.00  0.00     0.293 HD
ENDBRANCH   2  10
TORSDOF 2
ENDMDL
MODEL 3
REMARK VINA RESULT:    -4.426     14.074     14.582
REMARK INTER + INTRA:          -5.063
REMARK INTER:                  -4.815
REMARK INTRA:                  -0.248
REMARK UNBOUND:                -0.249
REMARK SMILES O=C([O-])c1ccccc1O
REMARK SMILES IDX 4 1 9 2 5 3 8 4 6 5 7 6 2 7 1 8 3 9 10 10
REMARK H PARENT 10 11
REMARK Flexibility Score: inf
ROOT
ATOM      1  C   UNL     1      22.170 -44.947  20.713  1.00  0.00     0.039 A 
ATOM      2  C   UNL     1      23.034 -44.598  19.644  1.00  0.00     0.124 A 
ATOM      3  C   UNL     1      22.729 -45.249  21.970  1.00  0.00     0.014 A 
ATOM      4  C   UNL     1      24.413 -44.499  19.871  1.00  0.00     0.047 A 
ATOM      5  C   UNL     1      24.108 -45.166  22.173  1.00  0.00     0.001 A 
ATOM      6  C   UNL     1      24.948 -44.782  21.129  1.00  0.00     0.004 A 
ENDROOT
BRANCH   1   7
ATOM      7  C   UNL     1      20.697 -44.969  20.569  1.00  0.00     0.075 C 
ATOM      8  O   UNL     1      20.166 -45.579  19.604  1.00  0.00    -0.545 OA
ATOM      9  O   UNL     1      19.880 -44.378  21.527  1.00  0.00    -0.545 OA
ENDBRANCH   1   7
BRANCH   2  10
ATOM     10  O   UNL     1      22.572 -44.379  18.345  1.00  0.00    -0.507 OA
ATOM     11  H   UNL     1      23.016 -43.743  17.697  1.00  0.00     0.293 HD
ENDBRANCH   2  10
TORSDOF 2
ENDMDL
MODEL 4
REMARK VINA RESULT:    -4.376     12.607     13.435
REMARK INTER + INTRA:          -5.008
REMARK INTER:                  -4.762
REMARK INTRA:                  -0.246
REMARK UNBOUND:                -0.249
REMARK SMILES O=C([O-])c1ccccc1O
REMARK SMILES IDX 4 1 9 2 5 3 8 4 6 5 7 6 2 7 1 8 3 9 10 10
REMARK H PARENT 10 11
REMARK Flexibility Score: inf
ROOT
ATOM      1  C   UNL     1      23.144 -43.497  20.426  1.00  0.00     0.039 A 
ATOM      2  C   UNL     1      22.278 -44.320  19.661  1.00  0.00     0.124 A 
ATOM      3  C   UNL     1      22.847 -43.277  21.784  1.00  0.00     0.014 A 
ATOM      4  C   UNL     1      21.188 -44.944  20.280  1.00  0.00     0.047 A 
ATOM      5  C   UNL     1      21.744 -43.889  22.381  1.00  0.00     0.001 A 
ATOM      6  C   UNL     1      20.921 -44.730  21.633  1.00  0.00     0.004 A 
ENDROOT
BRANCH   1   7
ATOM      7  C   UNL     1      24.370 -42.892  19.860  1.00  0.00     0.075 C 
ATOM      8  O   UNL     1      25.484 -43.090  20.413  1.00  0.00    -0.545 OA
ATOM      9  O   UNL     1      24.322 -42.158  18.681  1.00  0.00    -0.545 OA
ENDBRANCH   1   7
BRANCH   2  10
ATOM     10  O   UNL     1      22.443 -44.513  18.288  1.00  0.00    -0.507 OA
ATOM     11  H   UNL     1      23.340 -44.687  17.855  1.00  0.00     0.293 HD
ENDBRANCH   2  10
TORSDOF 2
ENDMDL
MODEL 5
REMARK VINA RESULT:    -4.283     12.337     13.185
REMARK INTER + INTRA:          -4.907
REMARK INTER:                  -4.657
REMARK INTRA:                  -0.250
REMARK UNBOUND:                -0.249
REMARK SMILES O=C([O-])c1ccccc1O
REMARK SMILES IDX 4 1 9 2 5 3 8 4 6 5 7 6 2 7 1 8 3 9 10 10
REMARK H PARENT 10 11
REMARK Flexibility Score: inf
ROOT
ATOM      1  C   UNL     1      22.959 -43.649  20.284  1.00  0.00     0.039 A 
ATOM      2  C   UNL     1      23.135 -43.366  18.906  1.00  0.00     0.124 A 
ATOM      3  C   UNL     1      23.621 -42.847  21.233  1.00  0.00     0.014 A 
ATOM      4  C   UNL     1      23.909 -42.265  18.517  1.00  0.00     0.047 A 
ATOM      5  C   UNL     1      24.406 -41.766  20.828  1.00  0.00     0.001 A 
ATOM      6  C   UNL     1      24.542 -41.469  19.473  1.00  0.00     0.004 A 
ENDROOT
BRANCH   1   7
ATOM      7  C   UNL     1      22.073 -44.731  20.766  1.00  0.00     0.075 C 
ATOM      8  O   UNL     1      22.311 -45.302  21.863  1.00  0.00    -0.545 OA
ATOM      9  O   UNL     1      20.933 -45.087  20.054  1.00  0.00    -0.545 OA
ENDBRANCH   1   7
BRANCH   2  10
ATOM     10  O   UNL     1      22.595 -44.168  17.898  1.00  0.00    -0.507 OA
ATOM     11  H   UNL     1      21.671 -44.575  17.948  1.00  0.00     0.293 HD
ENDBRANCH   2  10
TORSDOF 2
ENDMDL
MODEL 6
REMARK VINA RESULT:    -4.282     12.959     14.387
REMARK INTER + INTRA:          -4.906
REMARK INTER:                  -4.672
REMARK INTRA:                  -0.234
REMARK UNBOUND:                -0.249
REMARK SMILES O=C([O-])c1ccccc1O
REMARK SMILES IDX 4 1 9 2 5 3 8 4 6 5 7 6 2 7 1 8 3 9 10 10
REMARK H PARENT 10 11
REMARK Flexibility Score: inf
ROOT
ATOM      1  C   UNL     1      21.856 -44.336  22.360  1.00  0.00     0.039 A 
ATOM      2  C   UNL     1      22.810 -45.194  22.964  1.00  0.00     0.124 A 
ATOM      3  C   UNL     1      21.687 -44.382  20.963  1.00  0.00     0.014 A 
ATOM      4  C   UNL     1      23.517 -46.110  22.174  1.00  0.00     0.047 A 
ATOM      5  C   UNL     1      22.416 -45.285  20.188  1.00  0.00     0.001 A 
ATOM      6  C   UNL     1      23.322 -46.155  20.793  1.00  0.00     0.004 A 
ENDROOT
BRANCH   1   7
ATOM      7  C   UNL     1      21.002 -43.419  23.148  1.00  0.00     0.075 C 
ATOM      8  O   UNL     1      21.527 -42.547  23.889  1.00  0.00    -0.545 OA
ATOM      9  O   UNL     1      19.617 -43.461  23.030  1.00  0.00    -0.545 OA
ENDBRANCH   1   7
BRANCH   2  10
ATOM     10  O   UNL     1      23.109 -45.145  24.327  1.00  0.00    -0.507 OA
ATOM     11  H   UNL     1      23.142 -45.964  24.918  1.00  0.00     0.293 HD
ENDBRANCH   2  10
TORSDOF 2
ENDMDL
MODEL 7
REMARK VINA RESULT:    -4.227     16.743     17.486
REMARK INTER + INTRA:          -4.846
REMARK INTER:                  -4.599
REMARK INTRA:                  -0.247
REMARK UNBOUND:                -0.249
REMARK SMILES O=C([O-])c1ccccc1O
REMARK SMILES IDX 4 1 9 2 5 3 8 4 6 5 7 6 2 7 1 8 3 9 10 10
REMARK H PARENT 10 11
REMARK Flexibility Score: inf
ROOT
ATOM      1  C   UNL     1      25.640 -30.488  36.405  1.00  0.00     0.039 A 
ATOM      2  C   UNL     1      25.818 -31.736  37.056  1.00  0.00     0.124 A 
ATOM      3  C   UNL     1      26.583 -30.082  35.442  1.00  0.00     0.014 A 
ATOM      4  C   UNL     1      26.886 -32.564  36.687  1.00  0.00     0.047 A 
ATOM      5  C   UNL     1      27.654 -30.911  35.102  1.00  0.00     0.001 A 
ATOM      6  C   UNL     1      27.800 -32.154  35.716  1.00  0.00     0.004 A 
ENDROOT
BRANCH   1   7
ATOM      7  C   UNL     1      24.477 -29.612  36.671  1.00  0.00     0.075 C 
ATOM      8  O   UNL     1      24.566 -28.370  36.483  1.00  0.00    -0.545 OA
ATOM      9  O   UNL     1      23.257 -30.150  37.065  1.00  0.00    -0.545 OA
ENDBRANCH   1   7
BRANCH   2  10
ATOM     10  O   UNL     1      24.986 -32.170  38.089  1.00  0.00    -0.507 OA
ATOM     11  H   UNL     1      24.739 -33.139  38.234  1.00  0.00     0.293 HD
ENDBRANCH   2  10
TORSDOF 2
ENDMDL
MODEL 8
REMARK VINA RESULT:    -4.142     12.657     13.971
REMARK INTER + INTRA:          -4.754
REMARK INTER:                  -4.518
REMARK INTRA:                  -0.236
REMARK UNBOUND:                -0.249
REMARK SMILES O=C([O-])c1ccccc1O
REMARK SMILES IDX 4 1 9 2 5 3 8 4 6 5 7 6 2 7 1 8 3 9 10 10
REMARK H PARENT 10 11
REMARK Flexibility Score: inf
ROOT
ATOM      1  C   UNL     1      24.417 -44.343  20.232  1.00  0.00     0.039 A 
ATOM      2  C   UNL     1      23.509 -43.559  19.476  1.00  0.00     0.124 A 
ATOM      3  C   UNL     1      25.784 -44.008  20.214  1.00  0.00     0.014 A 
ATOM      4  C   UNL     1      23.975 -42.436  18.780  1.00  0.00     0.047 A 
ATOM      5  C   UNL     1      26.236 -42.898  19.497  1.00  0.00     0.001 A 
ATOM      6  C   UNL     1      25.331 -42.107  18.790  1.00  0.00     0.004 A 
ENDROOT
BRANCH   1   7
ATOM      7  C   UNL     1      23.977 -45.479  21.072  1.00  0.00     0.075 C 
ATOM      8  O   UNL     1      23.341 -46.436  20.557  1.00  0.00    -0.545 OA
ATOM      9  O   UNL     1      24.316 -45.541  22.419  1.00  0.00    -0.545 OA
ENDBRANCH   1   7
BRANCH   2  10
ATOM     10  O   UNL     1      22.155 -43.878  19.361  1.00  0.00    -0.507 OA
ATOM     11  H   UNL     1      21.512 -43.861  20.141  1.00  0.00     0.293 HD
ENDBRANCH   2  10
TORSDOF 2
ENDMDL
MODEL 9
REMARK VINA RESULT:    -4.066     13.229     14.166
REMARK INTER + INTRA:          -4.671
REMARK INTER:                  -4.433
REMARK INTRA:                  -0.237
REMARK UNBOUND:                -0.249
REMARK SMILES O=C([O-])c1ccccc1O
REMARK SMILES IDX 4 1 9 2 5 3 8 4 6 5 7 6 2 7 1 8 3 9 10 10
REMARK H PARENT 10 11
REMARK Flexibility Score: inf
ROOT
ATOM      1  C   UNL     1      22.043 -44.406  22.000  1.00  0.00     0.039 A 
ATOM      2  C   UNL     1      21.636 -44.616  20.658  1.00  0.00     0.124 A 
ATOM      3  C   UNL     1      23.304 -44.880  22.410  1.00  0.00     0.014 A 
ATOM      4  C   UNL     1      22.512 -45.230  19.754  1.00  0.00     0.047 A 
ATOM      5  C   UNL     1      24.157 -45.511  21.502  1.00  0.00     0.001 A 
ATOM      6  C   UNL     1      23.767 -45.676  20.174  1.00  0.00     0.004 A 
ENDROOT
BRANCH   1   7
ATOM      7  C   UNL     1      21.209 -43.672  22.977  1.00  0.00     0.075 C 
ATOM      8  O   UNL     1      21.754 -42.997  23.890  1.00  0.00    -0.545 OA
ATOM      9  O   UNL     1      19.824 -43.661  22.863  1.00  0.00    -0.545 OA
ENDBRANCH   1   7
BRANCH   2  10
ATOM     10  O   UNL     1      20.366 -44.265  20.193  1.00  0.00    -0.507 OA
ATOM     11  H   UNL     1      19.972 -44.618  19.332  1.00  0.00     0.293 HD
ENDBRANCH   2  10
TORSDOF 2
ENDMDL
