MODEL 1
REMARK VINA RESULT:    -4.956      0.000      0.000
REMARK INTER + INTRA:          -5.101
REMARK INTER:                  -5.101
REMARK INTRA:                   0.000
REMARK UNBOUND:                 0.000
REMARK SMILES C=C1[C@H](O)C[C@]23C[C@H]1C(C)(C)[C@H]2CC[C@@H]3C
REMARK SMILES IDX 16 1 15 2 14 3 13 4 12 5 6 6 7 7 8 8 9 9 10 10 11 11 2 12
REMARK SMILES IDX 1 13 3 14 5 15 4 16
REMARK H PARENT 4 17
REMARK Flexibility Score: inf
ROOT
ATOM      1  C   UNL     1     141.751 143.759 144.472  1.00  0.00     0.008 C 
ATOM      2  C   UNL     1     140.860 144.299 143.344  1.00  0.00    -0.008 C 
ATOM      3  C   UNL     1     141.685 144.757 142.143  1.00  0.00     0.004 C 
ATOM      4  C   UNL     1     140.707 144.763 140.985  1.00  0.00     0.005 C 
ATOM      5  C   UNL     1     139.821 143.532 141.227  1.00  0.00     0.002 C 
ATOM      6  C   UNL     1     139.800 143.314 142.759  1.00  0.00    -0.020 C 
ATOM      7  C   UNL     1     138.368 143.658 143.179  1.00  0.00     0.016 C 
ATOM      8  C   UNL     1     137.565 143.066 142.031  1.00  0.00     0.023 C 
ATOM      9  C   UNL     1     138.324 143.565 140.765  1.00  0.00    -0.025 C 
ATOM     10  C   UNL     1     138.103 142.658 139.528  1.00  0.00     0.012 C 
ATOM     11  C   UNL     1     137.802 144.976 140.381  1.00  0.00     0.012 C 
ATOM     12  C   UNL     1     137.620 141.546 142.179  1.00  0.00    -0.045 C 
ATOM     13  C   UNL     1     136.539 140.811 141.869  1.00  0.00     0.011 C 
ATOM     14  C   UNL     1     138.948 140.855 142.497  1.00  0.00     0.140 C 
ATOM     15  C   UNL     1     140.026 141.808 143.100  1.00  0.00     0.044 C 
ENDROOT
BRANCH  14  16
ATOM     16  O   UNL     1     138.720 139.792 143.389  1.00  0.00    -0.389 OA
ATOM     17  H   UNL     1     137.774 139.514 143.267  1.00  0.00     0.211 HD
ENDBRANCH  14  16
TORSDOF 1
ENDMDL
MODEL 2
REMARK VINA RESULT:    -4.892      8.531     10.368
REMARK INTER + INTRA:          -5.035
REMARK INTER:                  -5.035
REMARK INTRA:                   0.000
REMARK UNBOUND:                 0.000
REMARK SMILES C=C1[C@H](O)C[C@]23C[C@H]1C(C)(C)[C@H]2CC[C@@H]3C
REMARK SMILES IDX 16 1 15 2 14 3 13 4 12 5 6 6 7 7 8 8 9 9 10 10 11 11 2 12
REMARK SMILES IDX 1 13 3 14 5 15 4 16
REMARK H PARENT 4 17
REMARK Flexibility Score: inf
ROOT
ATOM      1  C   UNL     1     128.875 138.801 138.553  1.00  0.00     0.008 C 
ATOM      2  C   UNL     1     129.992 139.691 137.987  1.00  0.00    -0.008 C 
ATOM      3  C   UNL     1     130.724 140.450 139.091  1.00  0.00     0.004 C 
ATOM      4  C   UNL     1     132.051 140.843 138.471  1.00  0.00     0.005 C 
ATOM      5  C   UNL     1     132.441 139.634 137.607  1.00  0.00     0.002 C 
ATOM      6  C   UNL     1     131.113 138.970 137.173  1.00  0.00    -0.020 C 
ATOM      7  C   UNL     1     131.023 139.235 135.667  1.00  0.00     0.016 C 
ATOM      8  C   UNL     1     132.470 139.047 135.239  1.00  0.00     0.023 C 
ATOM      9  C   UNL     1     133.268 139.868 136.296  1.00  0.00    -0.025 C 
ATOM     10  C   UNL     1     134.730 139.381 136.466  1.00  0.00     0.012 C 
ATOM     11  C   UNL     1     133.342 141.350 135.840  1.00  0.00     0.012 C 
ATOM     12  C   UNL     1     132.772 137.551 135.317  1.00  0.00    -0.045 C 
ATOM     13  C   UNL     1     133.573 136.989 134.396  1.00  0.00     0.011 C 
ATOM     14  C   UNL     1     132.320 136.740 136.533  1.00  0.00     0.140 C 
ATOM     15  C   UNL     1     131.188 137.424 137.360  1.00  0.00     0.044 C 
ENDROOT
BRANCH  14  16
ATOM     16  O   UNL     1     131.885 135.471 136.114  1.00  0.00    -0.389 OA
ATOM     17  H   UNL     1     131.870 135.487 135.121  1.00  0.00     0.211 HD
ENDBRANCH  14  16
TORSDOF 1
ENDMDL
MODEL 3
REMARK VINA RESULT:    -4.887      9.473     11.963
REMARK INTER + INTRA:          -5.029
REMARK INTER:                  -5.029
REMARK INTRA:                   0.000
REMARK UNBOUND:                 0.000
REMARK SMILES C=C1[C@H](O)C[C@]23C[C@H]1C(C)(C)[C@H]2CC[C@@H]3C
REMARK SMILES IDX 16 1 15 2 14 3 13 4 12 5 6 6 7 7 8 8 9 9 10 10 11 11 2 12
REMARK SMILES IDX 1 13 3 14 5 15 4 16
REMARK H PARENT 4 17
REMARK Flexibility Score: inf
ROOT
ATOM      1  C   UNL     1     135.614 130.980 149.245  1.00  0.00     0.008 C 
ATOM      2  C   UNL     1     136.429 131.345 147.996  1.00  0.00    -0.008 C 
ATOM      3  C   UNL     1     135.528 131.635 146.798  1.00  0.00     0.004 C 
ATOM      4  C   UNL     1     136.394 132.446 145.853  1.00  0.00     0.005 C 
ATOM      5  C   UNL     1     137.218 133.355 146.777  1.00  0.00     0.002 C 
ATOM      6  C   UNL     1     137.366 132.588 148.113  1.00  0.00    -0.020 C 
ATOM      7  C   UNL     1     138.850 132.215 148.182  1.00  0.00     0.016 C 
ATOM      8  C   UNL     1     139.505 133.468 147.622  1.00  0.00     0.023 C 
ATOM      9  C   UNL     1     138.665 133.773 146.344  1.00  0.00    -0.025 C 
ATOM     10  C   UNL     1     138.713 135.265 145.929  1.00  0.00     0.012 C 
ATOM     11  C   UNL     1     139.238 132.960 145.152  1.00  0.00     0.012 C 
ATOM     12  C   UNL     1     139.366 134.560 148.681  1.00  0.00    -0.045 C 
ATOM     13  C   UNL     1     140.366 135.441 148.858  1.00  0.00     0.011 C 
ATOM     14  C   UNL     1     138.032 134.763 149.403  1.00  0.00     0.140 C 
ATOM     15  C   UNL     1     137.078 133.533 149.321  1.00  0.00     0.044 C 
ENDROOT
BRANCH  14  16
ATOM     16  O   UNL     1     138.273 135.072 150.754  1.00  0.00    -0.389 OA
ATOM     17  H   UNL     1     137.859 134.346 151.292  1.00  0.00     0.211 HD
ENDBRANCH  14  16
TORSDOF 1
ENDMDL
MODEL 4
REMARK VINA RESULT:    -4.852      9.160     11.064
REMARK INTER + INTRA:          -4.994
REMARK INTER:                  -4.994
REMARK INTRA:                   0.000
REMARK UNBOUND:                 0.000
REMARK SMILES C=C1[C@H](O)C[C@]23C[C@H]1C(C)(C)[C@H]2CC[C@@H]3C
REMARK SMILES IDX 16 1 15 2 14 3 13 4 12 5 6 6 7 7 8 8 9 9 10 10 11 11 2 12
REMARK SMILES IDX 1 13 3 14 5 15 4 16
REMARK H PARENT 4 17
REMARK Flexibility Score: inf
ROOT
ATOM      1  C   UNL     1     140.490 135.123 150.375  1.00  0.00     0.008 C 
ATOM      2  C   UNL     1     141.050 134.198 149.284  1.00  0.00    -0.008 C 
ATOM      3  C   UNL     1     139.941 133.620 148.408  1.00  0.00     0.004 C 
ATOM      4  C   UNL     1     140.642 133.187 147.136  1.00  0.00     0.005 C 
ATOM      5  C   UNL     1     141.696 134.277 146.891  1.00  0.00     0.002 C 
ATOM      6  C   UNL     1     142.068 134.835 148.286  1.00  0.00    -0.020 C 
ATOM      7  C   UNL     1     143.508 134.365 148.518  1.00  0.00     0.016 C 
ATOM      8  C   UNL     1     144.111 134.536 147.133  1.00  0.00     0.023 C 
ATOM      9  C   UNL     1     143.046 133.892 146.194  1.00  0.00    -0.025 C 
ATOM     10  C   UNL     1     143.102 134.442 144.746  1.00  0.00     0.012 C 
ATOM     11  C   UNL     1     143.307 132.365 146.101  1.00  0.00     0.012 C 
ATOM     12  C   UNL     1     144.264 136.037 146.892  1.00  0.00    -0.045 C 
ATOM     13  C   UNL     1     145.332 136.493 146.216  1.00  0.00     0.011 C 
ATOM     14  C   UNL     1     143.124 136.993 147.252  1.00  0.00     0.140 C 
ATOM     15  C   UNL     1     142.097 136.394 148.262  1.00  0.00     0.044 C 
ENDROOT
BRANCH  14  16
ATOM     16  O   UNL     1     143.659 138.179 147.785  1.00  0.00    -0.389 OA
ATOM     17  H   UNL     1     144.533 137.942 148.192  1.00  0.00     0.211 HD
ENDBRANCH  14  16
TORSDOF 1
ENDMDL
MODEL 5
REMARK VINA RESULT:    -4.818      7.310      9.822
REMARK INTER + INTRA:          -4.959
REMARK INTER:                  -4.959
REMARK INTRA:                   0.000
REMARK UNBOUND:                 0.000
REMARK SMILES C=C1[C@H](O)C[C@]23C[C@H]1C(C)(C)[C@H]2CC[C@@H]3C
REMARK SMILES IDX 16 1 15 2 14 3 13 4 12 5 6 6 7 7 8 8 9 9 10 10 11 11 2 12
REMARK SMILES IDX 1 13 3 14 5 15 4 16
REMARK H PARENT 4 17
REMARK Flexibility Score: inf
ROOT
ATOM      1  C   UNL     1     135.095 141.454 137.445  1.00  0.00     0.008 C 
ATOM      2  C   UNL     1     134.765 140.086 136.829  1.00  0.00    -0.008 C 
ATOM      3  C   UNL     1     135.505 138.954 137.537  1.00  0.00     0.004 C 
ATOM      4  C   UNL     1     134.719 137.705 137.190  1.00  0.00     0.005 C 
ATOM      5  C   UNL     1     133.252 138.160 137.211  1.00  0.00     0.002 C 
ATOM      6  C   UNL     1     133.263 139.662 136.839  1.00  0.00    -0.020 C 
ATOM      7  C   UNL     1     132.615 139.720 135.452  1.00  0.00     0.016 C 
ATOM      8  C   UNL     1     131.506 138.690 135.591  1.00  0.00     0.023 C 
ATOM      9  C   UNL     1     132.225 137.472 136.247  1.00  0.00    -0.025 C 
ATOM     10  C   UNL     1     131.259 136.547 137.030  1.00  0.00     0.012 C 
ATOM     11  C   UNL     1     132.872 136.603 135.136  1.00  0.00     0.012 C 
ATOM     12  C   UNL     1     130.440 139.295 136.504  1.00  0.00    -0.045 C 
ATOM     13  C   UNL     1     129.142 139.049 136.259  1.00  0.00     0.011 C 
ATOM     14  C   UNL     1     130.852 140.017 137.789  1.00  0.00     0.140 C 
ATOM     15  C   UNL     1     132.344 140.471 137.806  1.00  0.00     0.044 C 
ENDROOT
BRANCH  14  16
ATOM     16  O   UNL     1     130.025 141.138 137.981  1.00  0.00    -0.389 OA
ATOM     17  H   UNL     1     130.146 141.722 137.186  1.00  0.00     0.211 HD
ENDBRANCH  14  16
TORSDOF 1
ENDMDL
MODEL 6
REMARK VINA RESULT:    -4.805      1.767      3.033
REMARK INTER + INTRA:          -4.946
REMARK INTER:                  -4.946
REMARK INTRA:                   0.000
REMARK UNBOUND:                 0.000
REMARK SMILES C=C1[C@H](O)C[C@]23C[C@H]1C(C)(C)[C@H]2CC[C@@H]3C
REMARK SMILES IDX 16 1 15 2 14 3 13 4 12 5 6 6 7 7 8 8 9 9 10 10 11 11 2 12
REMARK SMILES IDX 1 13 3 14 5 15 4 16
REMARK H PARENT 4 17
REMARK Flexibility Score: inf
ROOT
ATOM      1  C   UNL     1     141.651 145.240 142.783  1.00  0.00     0.008 C 
ATOM      2  C   UNL     1     141.622 143.779 142.311  1.00  0.00    -0.008 C 
ATOM      3  C   UNL     1     142.542 142.896 143.150  1.00  0.00     0.004 C 
ATOM      4  C   UNL     1     142.033 141.486 142.924  1.00  0.00     0.005 C 
ATOM      5  C   UNL     1     140.505 141.636 142.868  1.00  0.00     0.002 C 
ATOM      6  C   UNL     1     140.234 143.065 142.337  1.00  0.00    -0.020 C 
ATOM      7  C   UNL     1     139.645 142.851 140.939  1.00  0.00     0.016 C 
ATOM      8  C   UNL     1     138.756 141.638 141.166  1.00  0.00     0.023 C 
ATOM      9  C   UNL     1     139.675 140.663 141.963  1.00  0.00    -0.025 C 
ATOM     10  C   UNL     1     138.880 139.647 142.822  1.00  0.00     0.012 C 
ATOM     11  C   UNL     1     140.525 139.834 140.964  1.00  0.00     0.012 C 
ATOM     12  C   UNL     1     137.556 142.107 141.988  1.00  0.00    -0.045 C 
ATOM     13  C   UNL     1     136.343 141.582 141.745  1.00  0.00     0.011 C 
ATOM     14  C   UNL     1     137.764 143.023 143.196  1.00  0.00     0.140 C 
ATOM     15  C   UNL     1     139.136 143.767 143.193  1.00  0.00     0.044 C 
ENDROOT
BRANCH  14  16
ATOM     16  O   UNL     1     136.725 143.969 143.250  1.00  0.00    -0.389 OA
ATOM     17  H   UNL     1     137.155 144.865 143.273  1.00  0.00     0.211 HD
ENDBRANCH  14  16
TORSDOF 1
ENDMDL
MODEL 7
REMARK VINA RESULT:    -4.797      2.038      3.301
REMARK INTER + INTRA:          -4.938
REMARK INTER:                  -4.938
REMARK INTRA:                   0.000
REMARK UNBOUND:                 0.000
REMARK SMILES C=C1[C@H](O)C[C@]23C[C@H]1C(C)(C)[C@H]2CC[C@@H]3C
REMARK SMILES IDX 16 1 15 2 14 3 13 4 12 5 6 6 7 7 8 8 9 9 10 10 11 11 2 12
REMARK SMILES IDX 1 13 3 14 5 15 4 16
REMARK H PARENT 4 17
REMARK Flexibility Score: inf
ROOT
ATOM      1  C   UNL     1     140.609 138.390 143.087  1.00  0.00     0.008 C 
ATOM      2  C   UNL     1     140.046 139.811 143.238  1.00  0.00    -0.008 C 
ATOM      3  C   UNL     1     141.113 140.872 142.983  1.00  0.00     0.004 C 
ATOM      4  C   UNL     1     140.334 142.133 142.664  1.00  0.00     0.005 C 
ATOM      5  C   UNL     1     139.139 141.642 141.833  1.00  0.00     0.002 C 
ATOM      6  C   UNL     1     138.857 140.194 142.300  1.00  0.00    -0.020 C 
ATOM      7  C   UNL     1     137.517 140.280 143.037  1.00  0.00     0.016 C 
ATOM      8  C   UNL     1     136.751 141.259 142.162  1.00  0.00     0.023 C 
ATOM      9  C   UNL     1     137.776 142.410 141.927  1.00  0.00    -0.025 C 
ATOM     10  C   UNL     1     137.499 143.214 140.632  1.00  0.00     0.012 C 
ATOM     11  C   UNL     1     137.688 143.418 143.105  1.00  0.00     0.012 C 
ATOM     12  C   UNL     1     136.397 140.526 140.869  1.00  0.00    -0.045 C 
ATOM     13  C   UNL     1     135.215 140.765 140.275  1.00  0.00     0.011 C 
ATOM     14  C   UNL     1     137.449 139.670 140.160  1.00  0.00     0.140 C 
ATOM     15  C   UNL     1     138.643 139.255 141.073  1.00  0.00     0.044 C 
ENDROOT
BRANCH  14  16
ATOM     16  O   UNL     1     136.840 138.514 139.641  1.00  0.00    -0.389 OA
ATOM     17  H   UNL     1     136.108 138.820 139.042  1.00  0.00     0.211 HD
ENDBRANCH  14  16
TORSDOF 1
ENDMDL
MODEL 8
REMARK VINA RESULT:    -4.754      9.580     11.282
REMARK INTER + INTRA:          -4.893
REMARK INTER:                  -4.893
REMARK INTRA:                   0.000
REMARK UNBOUND:                 0.000
REMARK SMILES C=C1[C@H](O)C[C@]23C[C@H]1C(C)(C)[C@H]2CC[C@@H]3C
REMARK SMILES IDX 16 1 15 2 14 3 13 4 12 5 6 6 7 7 8 8 9 9 10 10 11 11 2 12
REMARK SMILES IDX 1 13 3 14 5 15 4 16
REMARK H PARENT 4 17
REMARK Flexibility Score: inf
ROOT
ATOM      1  C   UNL     1     136.825 133.881 148.645  1.00  0.00     0.008 C 
ATOM      2  C   UNL     1     138.090 134.723 148.871  1.00  0.00    -0.008 C 
ATOM      3  C   UNL     1     138.462 134.799 150.350  1.00  0.00     0.004 C 
ATOM      4  C   UNL     1     139.928 135.185 150.358  1.00  0.00     0.005 C 
ATOM      5  C   UNL     1     140.532 134.416 149.173  1.00  0.00     0.002 C 
ATOM      6  C   UNL     1     139.387 134.240 148.148  1.00  0.00    -0.020 C 
ATOM      7  C   UNL     1     139.783 135.134 146.969  1.00  0.00     0.016 C 
ATOM      8  C   UNL     1     141.285 134.903 146.904  1.00  0.00     0.023 C 
ATOM      9  C   UNL     1     141.736 135.042 148.389  1.00  0.00    -0.025 C 
ATOM     10  C   UNL     1     143.054 134.288 148.697  1.00  0.00     0.012 C 
ATOM     11  C   UNL     1     141.996 136.540 148.704  1.00  0.00     0.012 C 
ATOM     12  C   UNL     1     141.500 133.490 146.363  1.00  0.00    -0.045 C 
ATOM     13  C   UNL     1     142.532 133.248 145.537  1.00  0.00     0.011 C 
ATOM     14  C   UNL     1     140.663 132.327 146.901  1.00  0.00     0.140 C 
ATOM     15  C   UNL     1     139.350 132.774 147.615  1.00  0.00     0.044 C 
ENDROOT
BRANCH  14  16
ATOM     16  O   UNL     1     140.342 131.454 145.847  1.00  0.00    -0.389 OA
ATOM     17  H   UNL     1     140.885 130.633 145.979  1.00  0.00     0.211 HD
ENDBRANCH  14  16
TORSDOF 1
ENDMDL
MODEL 9
REMARK VINA RESULT:    -4.688      9.299     11.193
REMARK INTER + INTRA:          -4.825
REMARK INTER:                  -4.825
REMARK INTRA:                   0.000
REMARK UNBOUND:                 0.000
REMARK SMILES C=C1[C@H](O)C[C@]23C[C@H]1C(C)(C)[C@H]2CC[C@@H]3C
REMARK SMILES IDX 16 1 15 2 14 3 13 4 12 5 6 6 7 7 8 8 9 9 10 10 11 11 2 12
REMARK SMILES IDX 1 13 3 14 5 15 4 16
REMARK H PARENT 4 17
REMARK Flexibility Score: inf
ROOT
ATOM      1  C   UNL     1     136.223 132.330 146.567  1.00  0.00     0.008 C 
ATOM      2  C   UNL     1     137.687 132.635 146.216  1.00  0.00    -0.008 C 
ATOM      3  C   UNL     1     137.806 133.386 144.893  1.00  0.00     0.004 C 
ATOM      4  C   UNL     1     139.173 134.042 144.945  1.00  0.00     0.005 C 
ATOM      5  C   UNL     1     139.328 134.484 146.408  1.00  0.00     0.002 C 
ATOM      6  C   UNL     1     138.486 133.493 147.247  1.00  0.00    -0.020 C 
ATOM      7  C   UNL     1     139.519 132.677 148.032  1.00  0.00     0.016 C 
ATOM      8  C   UNL     1     140.538 133.746 148.394  1.00  0.00     0.023 C 
ATOM      9  C   UNL     1     140.757 134.506 147.051  1.00  0.00    -0.025 C 
ATOM     10  C   UNL     1     141.255 135.960 147.251  1.00  0.00     0.012 C 
ATOM     11  C   UNL     1     141.845 133.772 146.222  1.00  0.00     0.012 C 
ATOM     12  C   UNL     1     139.901 134.631 149.464  1.00  0.00    -0.045 C 
ATOM     13  C   UNL     1     140.662 135.120 150.458  1.00  0.00     0.011 C 
ATOM     14  C   UNL     1     138.455 135.107 149.305  1.00  0.00     0.140 C 
ATOM     15  C   UNL     1     137.621 134.260 148.294  1.00  0.00     0.044 C 
ENDROOT
BRANCH  14  16
ATOM     16  O   UNL     1     137.816 135.092 150.557  1.00  0.00    -0.389 OA
ATOM     17  H   UNL     1     137.701 136.041 150.831  1.00  0.00     0.211 HD
ENDBRANCH  14  16
TORSDOF 1
ENDMDL
