MODEL 1
REMARK VINA RESULT:    -3.828      0.000      0.000
REMARK INTER + INTRA:          -7.213
REMARK INTER:                  -6.065
REMARK INTRA:                  -1.148
REMARK UNBOUND:                -1.148
REMARK SMILES CCCCCCCCCCCC(=O)[O-]
REMARK SMILES IDX 7 1 8 2 9 3 10 4 11 5 12 6 13 7 14 8 6 9 5 10 4 11 3 12 2 13
REMARK SMILES IDX 1 14
REMARK H PARENT
REMARK Flexibility Score: inf
ROOT
ATOM      1  C   UNL     1      -4.469  -3.799   5.022  1.00  0.00     0.000 C 
ENDROOT
BRANCH   1   2
ATOM      2  C   UNL     1      -3.794  -2.578   5.671  1.00  0.00     0.000 C 
BRANCH   2   3
ATOM      3  C   UNL     1      -3.880  -2.599   7.205  1.00  0.00     0.000 C 
BRANCH   3   4
ATOM      4  C   UNL     1      -4.564  -1.345   7.776  1.00  0.00     0.006 C 
BRANCH   4   5
ATOM      5  C   UNL     1      -5.310  -0.549   6.697  1.00  0.00     0.053 C 
BRANCH   5   6
ATOM      6  C   UNL     1      -5.618   0.846   7.145  1.00  0.00     0.041 C 
ATOM      7  O   UNL     1      -4.696   1.697   7.243  1.00  0.00    -0.550 OA
ATOM      8  O   UNL     1      -6.928   1.214   7.427  1.00  0.00    -0.550 OA
ENDBRANCH   5   6
ENDBRANCH   4   5
ENDBRANCH   3   4
ENDBRANCH   2   3
ENDBRANCH   1   2
BRANCH   1   9
ATOM      9  C   UNL     1      -4.413  -5.051   5.913  1.00  0.00     0.000 C 
BRANCH   9  10
ATOM     10  C   UNL     1      -5.811  -5.577   6.279  1.00  0.00    -0.000 C 
BRANCH  10  11
ATOM     11  C   UNL     1      -6.938  -4.784   5.598  1.00  0.00    -0.000 C 
BRANCH  11  12
ATOM     12  C   UNL     1      -7.863  -4.084   6.604  1.00  0.00    -0.000 C 
BRANCH  12  13
ATOM     13  C   UNL     1      -8.121  -2.629   6.190  1.00  0.00    -0.003 C 
ATOM     14  C   UNL     1      -9.403  -2.095   6.823  1.00  0.00     0.004 C 
ENDBRANCH  12  13
ENDBRANCH  11  12
ENDBRANCH  10  11
ENDBRANCH   9  10
ENDBRANCH   1   9
TORSDOF 10
ENDMDL
MODEL 2
REMARK VINA RESULT:    -3.781      0.891      3.300
REMARK INTER + INTRA:          -7.140
REMARK INTER:                  -5.856
REMARK INTRA:                  -1.284
REMARK UNBOUND:                -1.148
REMARK SMILES CCCCCCCCCCCC(=O)[O-]
REMARK SMILES IDX 7 1 8 2 9 3 10 4 11 5 12 6 13 7 14 8 6 9 5 10 4 11 3 12 2 13
REMARK SMILES IDX 1 14
REMARK H PARENT
REMARK Flexibility Score: inf
ROOT
ATOM      1  C   UNL     1      -7.978  -4.395   6.201  1.00  0.00     0.000 C 
ENDROOT
BRANCH   1   2
ATOM      2  C   UNL     1      -7.693  -2.900   5.973  1.00  0.00     0.000 C 
BRANCH   2   3
ATOM      3  C   UNL     1      -7.629  -2.104   7.286  1.00  0.00     0.000 C 
BRANCH   3   4
ATOM      4  C   UNL     1      -6.206  -1.621   7.614  1.00  0.00     0.006 C 
BRANCH   4   5
ATOM      5  C   UNL     1      -5.693  -0.594   6.597  1.00  0.00     0.053 C 
BRANCH   5   6
ATOM      6  C   UNL     1      -5.794   0.807   7.118  1.00  0.00     0.041 C 
ATOM      7  O   UNL     1      -4.774   1.543   7.158  1.00  0.00    -0.550 OA
ATOM      8  O   UNL     1      -7.021   1.308   7.534  1.00  0.00    -0.550 OA
ENDBRANCH   5   6
ENDBRANCH   4   5
ENDBRANCH   3   4
ENDBRANCH   2   3
ENDBRANCH   1   2
BRANCH   1   9
ATOM      9  C   UNL     1      -6.810  -5.295   5.763  1.00  0.00     0.000 C 
BRANCH   9  10
ATOM     10  C   UNL     1      -5.610  -5.211   6.722  1.00  0.00    -0.000 C 
BRANCH  10  11
ATOM     11  C   UNL     1      -4.273  -5.046   5.981  1.00  0.00    -0.000 C 
BRANCH  11  12
ATOM     12  C   UNL     1      -4.197  -3.740   5.177  1.00  0.00    -0.000 C 
BRANCH  12  13
ATOM     13  C   UNL     1      -2.953  -2.930   5.565  1.00  0.00    -0.003 C 
ATOM     14  C   UNL     1      -2.480  -3.287   6.972  1.00  0.00     0.004 C 
ENDBRANCH  12  13
ENDBRANCH  11  12
ENDBRANCH  10  11
ENDBRANCH   9  10
ENDBRANCH   1   9
TORSDOF 10
ENDMDL
MODEL 3
REMARK VINA RESULT:    -3.730      0.510      1.030
REMARK INTER + INTRA:          -7.059
REMARK INTER:                  -5.869
REMARK INTRA:                  -1.189
REMARK UNBOUND:                -1.148
REMARK SMILES CCCCCCCCCCCC(=O)[O-]
REMARK SMILES IDX 7 1 8 2 9 3 10 4 11 5 12 6 13 7 14 8 6 9 5 10 4 11 3 12 2 13
REMARK SMILES IDX 1 14
REMARK H PARENT
REMARK Flexibility Score: inf
ROOT
ATOM      1  C   UNL     1      -4.664  -3.857   4.992  1.00  0.00     0.000 C 
ENDROOT
BRANCH   1   2
ATOM      2  C   UNL     1      -3.933  -2.584   5.454  1.00  0.00     0.000 C 
BRANCH   2   3
ATOM      3  C   UNL     1      -3.784  -2.508   6.981  1.00  0.00     0.000 C 
BRANCH   3   4
ATOM      4  C   UNL     1      -4.769  -1.515   7.622  1.00  0.00     0.006 C 
BRANCH   4   5
ATOM      5  C   UNL     1      -5.382  -0.558   6.592  1.00  0.00     0.053 C 
BRANCH   5   6
ATOM      6  C   UNL     1      -5.617   0.805   7.166  1.00  0.00     0.041 C 
ATOM      7  O   UNL     1      -6.788   1.193   7.417  1.00  0.00    -0.550 OA
ATOM      8  O   UNL     1      -4.540   1.636   7.452  1.00  0.00    -0.550 OA
ENDBRANCH   5   6
ENDBRANCH   4   5
ENDBRANCH   3   4
ENDBRANCH   2   3
ENDBRANCH   1   2
BRANCH   1   9
ATOM      9  C   UNL     1      -4.762  -4.919   6.099  1.00  0.00     0.000 C 
BRANCH   9  10
ATOM     10  C   UNL     1      -6.204  -5.117   6.600  1.00  0.00    -0.000 C 
BRANCH  10  11
ATOM     11  C   UNL     1      -7.225  -5.169   5.452  1.00  0.00    -0.000 C 
BRANCH  11  12
ATOM     12  C   UNL     1      -8.539  -4.451   5.794  1.00  0.00    -0.000 C 
BRANCH  12  13
ATOM     13  C   UNL     1      -8.354  -3.512   6.992  1.00  0.00    -0.003 C 
ATOM     14  C   UNL     1      -8.791  -2.090   6.650  1.00  0.00     0.004 C 
ENDBRANCH  12  13
ENDBRANCH  11  12
ENDBRANCH  10  11
ENDBRANCH   9  10
ENDBRANCH   1   9
TORSDOF 10
ENDMDL
MODEL 4
REMARK VINA RESULT:    -3.702      1.354      2.208
REMARK INTER + INTRA:          -7.015
REMARK INTER:                  -5.612
REMARK INTRA:                  -1.402
REMARK UNBOUND:                -1.148
REMARK SMILES CCCCCCCCCCCC(=O)[O-]
REMARK SMILES IDX 7 1 8 2 9 3 10 4 11 5 12 6 13 7 14 8 6 9 5 10 4 11 3 12 2 13
REMARK SMILES IDX 1 14
REMARK H PARENT
REMARK Flexibility Score: inf
ROOT
ATOM      1  C   UNL     1      -4.725  -3.625   4.767  1.00  0.00     0.000 C 
ENDROOT
BRANCH   1   2
ATOM      2  C   UNL     1      -4.936  -2.306   5.532  1.00  0.00     0.000 C 
BRANCH   2   3
ATOM      3  C   UNL     1      -6.403  -1.848   5.527  1.00  0.00     0.000 C 
BRANCH   3   4
ATOM      4  C   UNL     1      -6.930  -1.542   6.940  1.00  0.00     0.006 C 
BRANCH   4   5
ATOM      5  C   UNL     1      -5.924  -0.738   7.773  1.00  0.00     0.053 C 
BRANCH   5   6
ATOM      6  C   UNL     1      -6.012   0.730   7.489  1.00  0.00     0.041 C 
ATOM      7  O   UNL     1      -7.119   1.324   7.564  1.00  0.00    -0.550 OA
ATOM      8  O   UNL     1      -4.866   1.447   7.170  1.00  0.00    -0.550 OA
ENDBRANCH   5   6
ENDBRANCH   4   5
ENDBRANCH   3   4
ENDBRANCH   2   3
ENDBRANCH   1   2
BRANCH   1   9
ATOM      9  C   UNL     1      -3.785  -4.593   5.504  1.00  0.00     0.000 C 
BRANCH   9  10
ATOM     10  C   UNL     1      -4.252  -4.892   6.939  1.00  0.00    -0.000 C 
BRANCH  10  11
ATOM     11  C   UNL     1      -5.423  -5.887   6.984  1.00  0.00    -0.000 C 
BRANCH  11  12
ATOM     12  C   UNL     1      -6.742  -5.232   7.422  1.00  0.00    -0.000 C 
BRANCH  12  13
ATOM     13  C   UNL     1      -7.933  -5.853   6.683  1.00  0.00    -0.003 C 
ATOM     14  C   UNL     1      -8.028  -5.329   5.252  1.00  0.00     0.004 C 
ENDBRANCH  12  13
ENDBRANCH  11  12
ENDBRANCH  10  11
ENDBRANCH   9  10
ENDBRANCH   1   9
TORSDOF 10
ENDMDL
MODEL 5
REMARK VINA RESULT:    -3.668      3.038      4.524
REMARK INTER + INTRA:          -6.961
REMARK INTER:                  -5.664
REMARK INTRA:                  -1.297
REMARK UNBOUND:                -1.148
REMARK SMILES CCCCCCCCCCCC(=O)[O-]
REMARK SMILES IDX 7 1 8 2 9 3 10 4 11 5 12 6 13 7 14 8 6 9 5 10 4 11 3 12 2 13
REMARK SMILES IDX 1 14
REMARK H PARENT
REMARK Flexibility Score: inf
ROOT
ATOM      1  C   UNL     1      -6.945  -1.372   5.653  1.00  0.00     0.000 C 
ENDROOT
BRANCH   1   2
ATOM      2  C   UNL     1      -5.578  -0.751   5.988  1.00  0.00     0.000 C 
BRANCH   2   3
ATOM      3  C   UNL     1      -4.598  -1.769   6.591  1.00  0.00     0.000 C 
BRANCH   3   4
ATOM      4  C   UNL     1      -3.955  -2.673   5.524  1.00  0.00     0.006 C 
BRANCH   4   5
ATOM      5  C   UNL     1      -2.624  -3.271   5.996  1.00  0.00     0.053 C 
BRANCH   5   6
ATOM      6  C   UNL     1      -2.739  -4.738   6.276  1.00  0.00     0.041 C 
ATOM      7  O   UNL     1      -3.193  -5.138   7.380  1.00  0.00    -0.550 OA
ATOM      8  O   UNL     1      -2.371  -5.662   5.306  1.00  0.00    -0.550 OA
ENDBRANCH   5   6
ENDBRANCH   4   5
ENDBRANCH   3   4
ENDBRANCH   2   3
ENDBRANCH   1   2
BRANCH   1   9
ATOM      9  C   UNL     1      -7.923  -1.333   6.839  1.00  0.00     0.000 C 
BRANCH   9  10
ATOM     10  C   UNL     1      -9.167  -2.209   6.608  1.00  0.00    -0.000 C 
BRANCH  10  11
ATOM     11  C   UNL     1      -8.816  -3.692   6.408  1.00  0.00    -0.000 C 
BRANCH  11  12
ATOM     12  C   UNL     1      -8.007  -4.273   7.578  1.00  0.00    -0.000 C 
BRANCH  12  13
ATOM     13  C   UNL     1      -6.703  -4.907   7.080  1.00  0.00    -0.003 C 
ATOM     14  C   UNL     1      -6.719  -5.083   5.563  1.00  0.00     0.004 C 
ENDBRANCH  12  13
ENDBRANCH  11  12
ENDBRANCH  10  11
ENDBRANCH   9  10
ENDBRANCH   1   9
TORSDOF 10
ENDMDL
MODEL 6
REMARK VINA RESULT:    -3.640      1.590      2.415
REMARK INTER + INTRA:          -6.916
REMARK INTER:                  -6.243
REMARK INTRA:                  -0.673
REMARK UNBOUND:                -1.148
REMARK SMILES CCCCCCCCCCCC(=O)[O-]
REMARK SMILES IDX 7 1 8 2 9 3 10 4 11 5 12 6 13 7 14 8 6 9 5 10 4 11 3 12 2 13
REMARK SMILES IDX 1 14
REMARK H PARENT
REMARK Flexibility Score: inf
ROOT
ATOM      1  C   UNL     1      -5.014  -3.664   4.890  1.00  0.00     0.000 C 
ENDROOT
BRANCH   1   2
ATOM      2  C   UNL     1      -3.957  -2.787   5.584  1.00  0.00     0.000 C 
BRANCH   2   3
ATOM      3  C   UNL     1      -4.151  -2.720   7.107  1.00  0.00     0.000 C 
BRANCH   3   4
ATOM      4  C   UNL     1      -4.457  -1.296   7.601  1.00  0.00     0.006 C 
BRANCH   4   5
ATOM      5  C   UNL     1      -5.386  -0.537   6.646  1.00  0.00     0.053 C 
BRANCH   5   6
ATOM      6  C   UNL     1      -5.652   0.860   7.117  1.00  0.00     0.041 C 
ATOM      7  O   UNL     1      -4.719   1.704   7.156  1.00  0.00    -0.550 OA
ATOM      8  O   UNL     1      -6.937   1.236   7.488  1.00  0.00    -0.550 OA
ENDBRANCH   5   6
ENDBRANCH   4   5
ENDBRANCH   3   4
ENDBRANCH   2   3
ENDBRANCH   1   2
BRANCH   1   9
ATOM      9  C   UNL     1      -5.971  -4.340   5.885  1.00  0.00     0.000 C 
BRANCH   9  10
ATOM     10  C   UNL     1      -7.401  -3.778   5.802  1.00  0.00    -0.000 C 
BRANCH  10  11
ATOM     11  C   UNL     1      -8.473  -4.873   5.925  1.00  0.00    -0.000 C 
BRANCH  11  12
ATOM     12  C   UNL     1      -8.147  -6.120   5.090  1.00  0.00    -0.000 C 
BRANCH  12  13
ATOM     13  C   UNL     1      -9.146  -6.284   3.938  1.00  0.00    -0.003 C 
ATOM     14  C   UNL     1      -8.984  -7.641   3.258  1.00  0.00     0.004 C 
ENDBRANCH  12  13
ENDBRANCH  11  12
ENDBRANCH  10  11
ENDBRANCH   9  10
ENDBRANCH   1   9
TORSDOF 10
ENDMDL
MODEL 7
REMARK VINA RESULT:    -3.370      2.933      5.011
REMARK INTER + INTRA:          -6.488
REMARK INTER:                  -5.261
REMARK INTRA:                  -1.227
REMARK UNBOUND:                -1.148
REMARK SMILES CCCCCCCCCCCC(=O)[O-]
REMARK SMILES IDX 7 1 8 2 9 3 10 4 11 5 12 6 13 7 14 8 6 9 5 10 4 11 3 12 2 13
REMARK SMILES IDX 1 14
REMARK H PARENT
REMARK Flexibility Score: inf
ROOT
ATOM      1  C   UNL     1      -9.131  -4.566   5.879  1.00  0.00     0.000 C 
ENDROOT
BRANCH   1   2
ATOM      2  C   UNL     1      -7.874  -5.412   5.612  1.00  0.00     0.000 C 
BRANCH   2   3
ATOM      3  C   UNL     1      -6.694  -5.020   6.515  1.00  0.00     0.000 C 
BRANCH   3   4
ATOM      4  C   UNL     1      -5.360  -4.959   5.752  1.00  0.00     0.006 C 
BRANCH   4   5
ATOM      5  C   UNL     1      -4.156  -4.857   6.697  1.00  0.00     0.053 C 
BRANCH   5   6
ATOM      6  C   UNL     1      -2.864  -4.749   5.946  1.00  0.00     0.041 C 
ATOM      7  O   UNL     1      -2.260  -3.646   5.881  1.00  0.00    -0.550 OA
ATOM      8  O   UNL     1      -2.314  -5.872   5.341  1.00  0.00    -0.550 OA
ENDBRANCH   5   6
ENDBRANCH   4   5
ENDBRANCH   3   4
ENDBRANCH   2   3
ENDBRANCH   1   2
BRANCH   1   9
ATOM      9  C   UNL     1      -8.971  -3.629   7.087  1.00  0.00     0.000 C 
BRANCH   9  10
ATOM     10  C   UNL     1      -9.059  -2.143   6.697  1.00  0.00    -0.000 C 
BRANCH  10  11
ATOM     11  C   UNL     1      -7.716  -1.412   6.853  1.00  0.00    -0.000 C 
BRANCH  11  12
ATOM     12  C   UNL     1      -6.890  -1.405   5.558  1.00  0.00    -0.000 C 
BRANCH  12  13
ATOM     13  C   UNL     1      -5.391  -1.296   5.866  1.00  0.00    -0.003 C 
ATOM     14  C   UNL     1      -5.152  -0.578   7.192  1.00  0.00     0.004 C 
ENDBRANCH  12  13
ENDBRANCH  11  12
ENDBRANCH  10  11
ENDBRANCH   9  10
ENDBRANCH   1   9
TORSDOF 10
ENDMDL
MODEL 8
REMARK VINA RESULT:    -3.238      2.407      4.136
REMARK INTER + INTRA:          -6.280
REMARK INTER:                  -4.656
REMARK INTRA:                  -1.624
REMARK UNBOUND:                -1.148
REMARK SMILES CCCCCCCCCCCC(=O)[O-]
REMARK SMILES IDX 7 1 8 2 9 3 10 4 11 5 12 6 13 7 14 8 6 9 5 10 4 11 3 12 2 13
REMARK SMILES IDX 1 14
REMARK H PARENT
REMARK Flexibility Score: inf
ROOT
ATOM      1  C   UNL     1      -8.849  -2.140   6.311  1.00  0.00     0.000 C 
ENDROOT
BRANCH   1   2
ATOM      2  C   UNL     1      -7.645  -1.276   6.727  1.00  0.00     0.000 C 
BRANCH   2   3
ATOM      3  C   UNL     1      -6.750  -1.968   7.766  1.00  0.00     0.000 C 
BRANCH   3   4
ATOM      4  C   UNL     1      -5.294  -2.111   7.290  1.00  0.00     0.006 C 
BRANCH   4   5
ATOM      5  C   UNL     1      -5.190  -2.209   5.763  1.00  0.00     0.053 C 
BRANCH   5   6
ATOM      6  C   UNL     1      -3.910  -2.856   5.331  1.00  0.00     0.041 C 
ATOM      7  O   UNL     1      -3.912  -3.707   4.403  1.00  0.00    -0.550 OA
ATOM      8  O   UNL     1      -2.711  -2.500   5.935  1.00  0.00    -0.550 OA
ENDBRANCH   5   6
ENDBRANCH   4   5
ENDBRANCH   3   4
ENDBRANCH   2   3
ENDBRANCH   1   2
BRANCH   1   9
ATOM      9  C   UNL     1      -9.288  -3.116   7.415  1.00  0.00     0.000 C 
BRANCH   9  10
ATOM     10  C   UNL     1      -9.110  -4.588   7.006  1.00  0.00    -0.000 C 
BRANCH  10  11
ATOM     11  C   UNL     1      -8.539  -4.741   5.587  1.00  0.00    -0.000 C 
BRANCH  11  12
ATOM     12  C   UNL     1      -7.134  -5.362   5.576  1.00  0.00    -0.000 C 
BRANCH  12  13
ATOM     13  C   UNL     1      -6.665  -5.680   7.001  1.00  0.00    -0.003 C 
ATOM     14  C   UNL     1      -5.157  -5.915   7.045  1.00  0.00     0.004 C 
ENDBRANCH  12  13
ENDBRANCH  11  12
ENDBRANCH  10  11
ENDBRANCH   9  10
ENDBRANCH   1   9
TORSDOF 10
ENDMDL
MODEL 9
REMARK VINA RESULT:    -3.214      3.170      4.759
REMARK INTER + INTRA:          -6.241
REMARK INTER:                  -5.175
REMARK INTRA:                  -1.066
REMARK UNBOUND:                -1.148
REMARK SMILES CCCCCCCCCCCC(=O)[O-]
REMARK SMILES IDX 7 1 8 2 9 3 10 4 11 5 12 6 13 7 14 8 6 9 5 10 4 11 3 12 2 13
REMARK SMILES IDX 1 14
REMARK H PARENT
REMARK Flexibility Score: inf
ROOT
ATOM      1  C   UNL     1      -7.601  -2.380   6.719  1.00  0.00     0.000 C 
ENDROOT
BRANCH   1   2
ATOM      2  C   UNL     1      -6.777  -1.630   5.657  1.00  0.00     0.000 C 
BRANCH   2   3
ATOM      3  C   UNL     1      -5.323  -2.120   5.583  1.00  0.00     0.000 C 
BRANCH   3   4
ATOM      4  C   UNL     1      -5.212  -3.566   5.070  1.00  0.00     0.006 C 
BRANCH   4   5
ATOM      5  C   UNL     1      -4.522  -4.489   6.082  1.00  0.00     0.053 C 
BRANCH   5   6
ATOM      6  C   UNL     1      -3.087  -4.732   5.728  1.00  0.00     0.041 C 
ATOM      7  O   UNL     1      -2.706  -5.881   5.382  1.00  0.00    -0.550 OA
ATOM      8  O   UNL     1      -2.176  -3.684   5.754  1.00  0.00    -0.550 OA
ENDBRANCH   5   6
ENDBRANCH   4   5
ENDBRANCH   3   4
ENDBRANCH   2   3
ENDBRANCH   1   2
BRANCH   1   9
ATOM      9  C   UNL     1      -9.031  -2.693   6.249  1.00  0.00     0.000 C 
BRANCH   9  10
ATOM     10  C   UNL     1      -9.412  -4.169   6.460  1.00  0.00    -0.000 C 
BRANCH  10  11
ATOM     11  C   UNL     1      -8.183  -5.076   6.632  1.00  0.00    -0.000 C 
BRANCH  11  12
ATOM     12  C   UNL     1      -8.280  -6.369   5.809  1.00  0.00    -0.000 C 
BRANCH  12  13
ATOM     13  C   UNL     1      -8.614  -6.062   4.344  1.00  0.00    -0.003 C 
ATOM     14  C   UNL     1      -8.887  -7.343   3.561  1.00  0.00     0.004 C 
ENDBRANCH  12  13
ENDBRANCH  11  12
ENDBRANCH  10  11
ENDBRANCH   9  10
ENDBRANCH   1   9
TORSDOF 10
ENDMDL
