MODEL 1
REMARK VINA RESULT:    -3.853      0.000      0.000
REMARK INTER + INTRA:          -6.375
REMARK INTER:                  -5.655
REMARK INTRA:                  -0.720
REMARK UNBOUND:                -0.720
REMARK SMILES O=C([O-])CCCCCCCC(=O)[O-]
REMARK SMILES IDX 7 1 6 2 5 3 4 4 2 5 1 6 3 7 8 8 9 9 10 10 11 11 12 12 13 13
REMARK H PARENT
REMARK Flexibility Score: inf
ROOT
ATOM      1  C   UNL     1       3.513  24.754  13.362  1.00  0.00     0.000 C 
ENDROOT
BRANCH   1   2
ATOM      2  C   UNL     1       2.562  25.845  12.840  1.00  0.00     0.000 C 
BRANCH   2   3
ATOM      3  C   UNL     1       3.243  26.801  11.843  1.00  0.00     0.006 C 
BRANCH   3   4
ATOM      4  C   UNL     1       3.246  28.273  12.284  1.00  0.00     0.053 C 
BRANCH   4   5
ATOM      5  C   UNL     1       4.251  28.532  13.365  1.00  0.00     0.041 C 
ATOM      6  O   UNL     1       3.886  28.594  14.568  1.00  0.00    -0.550 OA
ATOM      7  O   UNL     1       5.596  28.670  13.045  1.00  0.00    -0.550 OA
ENDBRANCH   4   5
ENDBRANCH   3   4
ENDBRANCH   2   3
ENDBRANCH   1   2
BRANCH   1   8
ATOM      8  C   UNL     1       3.378  24.530  14.876  1.00  0.00     0.000 C 
BRANCH   8   9
ATOM      9  C   UNL     1       4.328  25.421  15.692  1.00  0.00     0.006 C 
BRANCH   9  10
ATOM     10  C   UNL     1       5.683  25.560  14.993  1.00  0.00     0.053 C 
BRANCH  10  11
ATOM     11  C   UNL     1       6.644  26.314  15.857  1.00  0.00     0.041 C 
ATOM     12  O   UNL     1       7.878  26.276  15.615  1.00  0.00    -0.550 OA
ATOM     13  O   UNL     1       6.181  27.019  16.961  1.00  0.00    -0.550 OA
ENDBRANCH  10  11
ENDBRANCH   9  10
ENDBRANCH   8   9
ENDBRANCH   1   8
TORSDOF 8
ENDMDL
MODEL 2
REMARK VINA RESULT:    -3.815      0.914      3.777
REMARK INTER + INTRA:          -6.319
REMARK INTER:                  -5.631
REMARK INTRA:                  -0.688
REMARK UNBOUND:                -0.720
REMARK SMILES O=C([O-])CCCCCCCC(=O)[O-]
REMARK SMILES IDX 7 1 6 2 5 3 4 4 2 5 1 6 3 7 8 8 9 9 10 10 11 11 12 12 13 13
REMARK H PARENT
REMARK Flexibility Score: inf
ROOT
ATOM      1  C   UNL     1       2.092  24.747  13.069  1.00  0.00     0.000 C 
ENDROOT
BRANCH   1   2
ATOM      2  C   UNL     1       2.513  24.909  14.540  1.00  0.00     0.000 C 
BRANCH   2   3
ATOM      3  C   UNL     1       3.992  24.552  14.778  1.00  0.00     0.006 C 
BRANCH   3   4
ATOM      4  C   UNL     1       4.744  25.549  15.673  1.00  0.00     0.053 C 
BRANCH   4   5
ATOM      5  C   UNL     1       6.145  25.783  15.196  1.00  0.00     0.041 C 
ATOM      6  O   UNL     1       7.087  25.891  16.024  1.00  0.00    -0.550 OA
ATOM      7  O   UNL     1       6.415  25.846  13.834  1.00  0.00    -0.550 OA
ENDBRANCH   4   5
ENDBRANCH   3   4
ENDBRANCH   2   3
ENDBRANCH   1   2
BRANCH   1   8
ATOM      8  C   UNL     1       2.021  26.088  12.323  1.00  0.00     0.000 C 
BRANCH   8   9
ATOM      9  C   UNL     1       3.407  26.606  11.906  1.00  0.00     0.006 C 
BRANCH   9  10
ATOM     10  C   UNL     1       3.464  28.135  11.973  1.00  0.00     0.053 C 
BRANCH  10  11
ATOM     11  C   UNL     1       4.275  28.578  13.149  1.00  0.00     0.041 C 
ATOM     12  O   UNL     1       5.464  28.961  12.990  1.00  0.00    -0.550 OA
ATOM     13  O   UNL     1       3.737  28.521  14.428  1.00  0.00    -0.550 OA
ENDBRANCH  10  11
ENDBRANCH   9  10
ENDBRANCH   8   9
ENDBRANCH   1   8
TORSDOF 8
ENDMDL
MODEL 3
REMARK VINA RESULT:    -3.761      2.305      3.246
REMARK INTER + INTRA:          -6.239
REMARK INTER:                  -5.463
REMARK INTRA:                  -0.776
REMARK UNBOUND:                -0.720
REMARK SMILES O=C([O-])CCCCCCCC(=O)[O-]
REMARK SMILES IDX 7 1 6 2 5 3 4 4 2 5 1 6 3 7 8 8 9 9 10 10 11 11 12 12 13 13
REMARK H PARENT
REMARK Flexibility Score: inf
ROOT
ATOM      1  C   UNL     1       6.198  26.265  14.127  1.00  0.00     0.000 C 
ENDROOT
BRANCH   1   2
ATOM      2  C   UNL     1       5.185  25.166  13.760  1.00  0.00     0.000 C 
BRANCH   2   3
ATOM      3  C   UNL     1       3.969  25.711  12.989  1.00  0.00     0.006 C 
BRANCH   3   4
ATOM      4  C   UNL     1       4.113  27.172  12.537  1.00  0.00     0.053 C 
BRANCH   4   5
ATOM      5  C   UNL     1       2.964  27.609  11.680  1.00  0.00     0.041 C 
ATOM      6  O   UNL     1       2.629  28.821  11.638  1.00  0.00    -0.550 OA
ATOM      7  O   UNL     1       2.286  26.680  10.900  1.00  0.00    -0.550 OA
ENDBRANCH   4   5
ENDBRANCH   3   4
ENDBRANCH   2   3
ENDBRANCH   1   2
BRANCH   1   8
ATOM      8  C   UNL     1       6.649  26.187  15.593  1.00  0.00     0.000 C 
BRANCH   8   9
ATOM      9  C   UNL     1       5.466  26.159  16.573  1.00  0.00     0.006 C 
BRANCH   9  10
ATOM     10  C   UNL     1       4.832  27.547  16.707  1.00  0.00     0.053 C 
BRANCH  10  11
ATOM     11  C   UNL     1       3.433  27.538  16.177  1.00  0.00     0.041 C 
ATOM     12  O   UNL     1       2.716  26.510  16.299  1.00  0.00    -0.550 OA
ATOM     13  O   UNL     1       2.938  28.646  15.502  1.00  0.00    -0.550 OA
ENDBRANCH  10  11
ENDBRANCH   9  10
ENDBRANCH   8   9
ENDBRANCH   1   8
TORSDOF 8
ENDMDL
MODEL 4
REMARK VINA RESULT:    -3.746      2.122      4.643
REMARK INTER + INTRA:          -6.217
REMARK INTER:                  -5.524
REMARK INTRA:                  -0.693
REMARK UNBOUND:                -0.720
REMARK SMILES O=C([O-])CCCCCCCC(=O)[O-]
REMARK SMILES IDX 7 1 6 2 5 3 4 4 2 5 1 6 3 7 8 8 9 9 10 10 11 11 12 12 13 13
REMARK H PARENT
REMARK Flexibility Score: inf
ROOT
ATOM      1  C   UNL     1       6.012  25.948  13.755  1.00  0.00     0.000 C 
ENDROOT
BRANCH   1   2
ATOM      2  C   UNL     1       6.682  26.306  15.094  1.00  0.00     0.000 C 
BRANCH   2   3
ATOM      3  C   UNL     1       5.770  26.039  16.305  1.00  0.00     0.006 C 
BRANCH   3   4
ATOM      4  C   UNL     1       5.271  27.310  17.010  1.00  0.00     0.053 C 
BRANCH   4   5
ATOM      5  C   UNL     1       3.951  27.770  16.468  1.00  0.00     0.041 C 
ATOM      6  O   UNL     1       3.902  28.439  15.404  1.00  0.00    -0.550 OA
ATOM      7  O   UNL     1       2.774  27.428  17.123  1.00  0.00    -0.550 OA
ENDBRANCH   4   5
ENDBRANCH   3   4
ENDBRANCH   2   3
ENDBRANCH   1   2
BRANCH   1   8
ATOM      8  C   UNL     1       4.739  25.107  13.938  1.00  0.00     0.000 C 
BRANCH   8   9
ATOM      9  C   UNL     1       3.587  25.578  13.037  1.00  0.00     0.006 C 
BRANCH   9  10
ATOM     10  C   UNL     1       3.956  26.874  12.308  1.00  0.00     0.053 C 
BRANCH  10  11
ATOM     11  C   UNL     1       2.758  27.447  11.619  1.00  0.00     0.041 C 
ATOM     12  O   UNL     1       1.933  26.688  11.046  1.00  0.00    -0.550 OA
ATOM     13  O   UNL     1       2.578  28.823  11.565  1.00  0.00    -0.550 OA
ENDBRANCH  10  11
ENDBRANCH   9  10
ENDBRANCH   8   9
ENDBRANCH   1   8
TORSDOF 8
ENDMDL
MODEL 5
REMARK VINA RESULT:    -3.644      1.288      4.112
REMARK INTER + INTRA:          -6.068
REMARK INTER:                  -5.302
REMARK INTRA:                  -0.766
REMARK UNBOUND:                -0.720
REMARK SMILES O=C([O-])CCCCCCCC(=O)[O-]
REMARK SMILES IDX 7 1 6 2 5 3 4 4 2 5 1 6 3 7 8 8 9 9 10 10 11 11 12 12 13 13
REMARK H PARENT
REMARK Flexibility Score: inf
ROOT
ATOM      1  C   UNL     1       3.304  24.472  14.862  1.00  0.00     0.000 C 
ENDROOT
BRANCH   1   2
ATOM      2  C   UNL     1       3.010  25.603  15.863  1.00  0.00     0.000 C 
BRANCH   2   3
ATOM      3  C   UNL     1       4.275  26.099  16.588  1.00  0.00     0.006 C 
BRANCH   3   4
ATOM      4  C   UNL     1       5.209  26.950  15.714  1.00  0.00     0.053 C 
BRANCH   4   5
ATOM      5  C   UNL     1       6.428  26.189  15.291  1.00  0.00     0.041 C 
ATOM      6  O   UNL     1       6.562  25.822  14.095  1.00  0.00    -0.550 OA
ATOM      7  O   UNL     1       7.432  25.917  16.212  1.00  0.00    -0.550 OA
ENDBRANCH   4   5
ENDBRANCH   3   4
ENDBRANCH   2   3
ENDBRANCH   1   2
BRANCH   1   8
ATOM      8  C   UNL     1       2.637  24.703  13.498  1.00  0.00     0.000 C 
BRANCH   8   9
ATOM      9  C   UNL     1       2.561  26.191  13.123  1.00  0.00     0.006 C 
BRANCH   9  10
ATOM     10  C   UNL     1       3.743  26.594  12.237  1.00  0.00     0.053 C 
BRANCH  10  11
ATOM     11  C   UNL     1       3.910  28.081  12.228  1.00  0.00     0.041 C 
ATOM     12  O   UNL     1       2.972  28.821  11.832  1.00  0.00    -0.550 OA
ATOM     13  O   UNL     1       5.119  28.648  12.609  1.00  0.00    -0.550 OA
ENDBRANCH  10  11
ENDBRANCH   9  10
ENDBRANCH   8   9
ENDBRANCH   1   8
TORSDOF 8
ENDMDL
MODEL 6
REMARK VINA RESULT:    -3.508      2.804      4.886
REMARK INTER + INTRA:          -5.869
REMARK INTER:                  -5.049
REMARK INTRA:                  -0.820
REMARK UNBOUND:                -0.720
REMARK SMILES O=C([O-])CCCCCCCC(=O)[O-]
REMARK SMILES IDX 7 1 6 2 5 3 4 4 2 5 1 6 3 7 8 8 9 9 10 10 11 11 12 12 13 13
REMARK H PARENT
REMARK Flexibility Score: inf
ROOT
ATOM      1  C   UNL     1       5.912  27.159  14.231  1.00  0.00     0.000 C 
ENDROOT
BRANCH   1   2
ATOM      2  C   UNL     1       5.984  25.705  14.727  1.00  0.00     0.000 C 
BRANCH   2   3
ATOM      3  C   UNL     1       5.083  24.754  13.918  1.00  0.00     0.006 C 
BRANCH   3   4
ATOM      4  C   UNL     1       3.835  24.273  14.674  1.00  0.00     0.053 C 
BRANCH   4   5
ATOM      5  C   UNL     1       2.570  24.750  14.029  1.00  0.00     0.041 C 
ATOM      6  O   UNL     1       2.114  24.160  13.015  1.00  0.00    -0.550 OA
ATOM      7  O   UNL     1       1.876  25.826  14.570  1.00  0.00    -0.550 OA
ENDBRANCH   4   5
ENDBRANCH   3   4
ENDBRANCH   2   3
ENDBRANCH   1   2
BRANCH   1   8
ATOM      8  C   UNL     1       4.650  27.888  14.719  1.00  0.00     0.000 C 
BRANCH   8   9
ATOM      9  C   UNL     1       3.877  28.560  13.575  1.00  0.00     0.006 C 
BRANCH   9  10
ATOM     10  C   UNL     1       4.027  27.768  12.272  1.00  0.00     0.053 C 
BRANCH  10  11
ATOM     11  C   UNL     1       2.719  27.692  11.551  1.00  0.00     0.041 C 
ATOM     12  O   UNL     1       2.397  26.645  10.931  1.00  0.00    -0.550 OA
ATOM     13  O   UNL     1       1.876  28.796  11.520  1.00  0.00    -0.550 OA
ENDBRANCH  10  11
ENDBRANCH   9  10
ENDBRANCH   8   9
ENDBRANCH   1   8
TORSDOF 8
ENDMDL
MODEL 7
REMARK VINA RESULT:    -3.436      2.012      2.741
REMARK INTER + INTRA:          -5.763
REMARK INTER:                  -5.197
REMARK INTRA:                  -0.566
REMARK UNBOUND:                -0.720
REMARK SMILES O=C([O-])CCCCCCCC(=O)[O-]
REMARK SMILES IDX 7 1 6 2 5 3 4 4 2 5 1 6 3 7 8 8 9 9 10 10 11 11 12 12 13 13
REMARK H PARENT
REMARK Flexibility Score: inf
ROOT
ATOM      1  C   UNL     1       3.678  28.484  15.706  1.00  0.00     0.000 C 
ENDROOT
BRANCH   1   2
ATOM      2  C   UNL     1       3.050  28.207  14.328  1.00  0.00     0.000 C 
BRANCH   2   3
ATOM      3  C   UNL     1       3.965  28.624  13.162  1.00  0.00     0.006 C 
BRANCH   3   4
ATOM      4  C   UNL     1       4.369  27.468  12.235  1.00  0.00     0.053 C 
BRANCH   4   5
ATOM      5  C   UNL     1       3.295  26.427  12.135  1.00  0.00     0.041 C 
ATOM      6  O   UNL     1       3.376  25.366  12.807  1.00  0.00    -0.550 OA
ATOM      7  O   UNL     1       2.187  26.647  11.326  1.00  0.00    -0.550 OA
ENDBRANCH   4   5
ENDBRANCH   3   4
ENDBRANCH   2   3
ENDBRANCH   1   2
BRANCH   1   8
ATOM      8  C   UNL     1       3.601  27.271  16.645  1.00  0.00     0.000 C 
BRANCH   8   9
ATOM      9  C   UNL     1       4.398  26.067  16.119  1.00  0.00     0.006 C 
BRANCH   9  10
ATOM     10  C   UNL     1       5.850  26.118  16.603  1.00  0.00     0.053 C 
BRANCH  10  11
ATOM     11  C   UNL     1       6.783  26.290  15.446  1.00  0.00     0.041 C 
ATOM     12  O   UNL     1       6.478  25.831  14.313  1.00  0.00    -0.550 OA
ATOM     13  O   UNL     1       8.012  26.911  15.628  1.00  0.00    -0.550 OA
ENDBRANCH  10  11
ENDBRANCH   9  10
ENDBRANCH   8   9
ENDBRANCH   1   8
TORSDOF 8
ENDMDL
MODEL 8
REMARK VINA RESULT:    -3.404      2.464      4.350
REMARK INTER + INTRA:          -5.715
REMARK INTER:                  -4.883
REMARK INTRA:                  -0.833
REMARK UNBOUND:                -0.720
REMARK SMILES O=C([O-])CCCCCCCC(=O)[O-]
REMARK SMILES IDX 7 1 6 2 5 3 4 4 2 5 1 6 3 7 8 8 9 9 10 10 11 11 12 12 13 13
REMARK H PARENT
REMARK Flexibility Score: inf
ROOT
ATOM      1  C   UNL     1       5.918  26.845  16.387  1.00  0.00     0.000 C 
ENDROOT
BRANCH   1   2
ATOM      2  C   UNL     1       4.690  26.244  17.093  1.00  0.00     0.000 C 
BRANCH   2   3
ATOM      3  C   UNL     1       3.361  26.793  16.545  1.00  0.00     0.006 C 
BRANCH   3   4
ATOM      4  C   UNL     1       2.273  25.726  16.344  1.00  0.00     0.053 C 
BRANCH   4   5
ATOM      5  C   UNL     1       2.474  24.955  15.075  1.00  0.00     0.041 C 
ATOM      6  O   UNL     1       2.082  25.428  13.977  1.00  0.00    -0.550 OA
ATOM      7  O   UNL     1       3.125  23.727  15.103  1.00  0.00    -0.550 OA
ENDBRANCH   4   5
ENDBRANCH   3   4
ENDBRANCH   2   3
ENDBRANCH   1   2
BRANCH   1   8
ATOM      8  C   UNL     1       6.525  25.894  15.344  1.00  0.00     0.000 C 
BRANCH   8   9
ATOM      9  C   UNL     1       5.910  26.079  13.948  1.00  0.00     0.006 C 
BRANCH   9  10
ATOM     10  C   UNL     1       5.637  27.559  13.662  1.00  0.00     0.053 C 
BRANCH  10  11
ATOM     11  C   UNL     1       4.315  27.726  12.982  1.00  0.00     0.041 C 
ATOM     12  O   UNL     1       4.094  27.162  11.878  1.00  0.00    -0.550 OA
ATOM     13  O   UNL     1       3.343  28.546  13.541  1.00  0.00    -0.550 OA
ENDBRANCH  10  11
ENDBRANCH   9  10
ENDBRANCH   8   9
ENDBRANCH   1   8
TORSDOF 8
ENDMDL
MODEL 9
REMARK VINA RESULT:    -3.393     11.372     12.577
REMARK INTER + INTRA:          -5.699
REMARK INTER:                  -4.964
REMARK INTRA:                  -0.735
REMARK UNBOUND:                -0.720
REMARK SMILES O=C([O-])CCCCCCCC(=O)[O-]
REMARK SMILES IDX 7 1 6 2 5 3 4 4 2 5 1 6 3 7 8 8 9 9 10 10 11 11 12 12 13 13
REMARK H PARENT
REMARK Flexibility Score: inf
ROOT
ATOM      1  C   UNL     1       2.213  18.770   5.802  1.00  0.00     0.000 C 
ENDROOT
BRANCH   1   2
ATOM      2  C   UNL     1       2.624  17.840   4.648  1.00  0.00     0.000 C 
BRANCH   2   3
ATOM      3  C   UNL     1       4.096  17.396   4.737  1.00  0.00     0.006 C 
BRANCH   3   4
ATOM      4  C   UNL     1       4.318  15.896   4.490  1.00  0.00     0.053 C 
BRANCH   4   5
ATOM      5  C   UNL     1       4.692  15.170   5.746  1.00  0.00     0.041 C 
ATOM      6  O   UNL     1       3.851  14.440   6.332  1.00  0.00    -0.550 OA
ATOM      7  O   UNL     1       5.983  15.275   6.251  1.00  0.00    -0.550 OA
ENDBRANCH   4   5
ENDBRANCH   3   4
ENDBRANCH   2   3
ENDBRANCH   1   2
BRANCH   1   8
ATOM      8  C   UNL     1       3.391  19.129   6.720  1.00  0.00     0.000 C 
BRANCH   8   9
ATOM      9  C   UNL     1       3.125  18.769   8.190  1.00  0.00     0.006 C 
BRANCH   9  10
ATOM     10  C   UNL     1       3.257  17.261   8.417  1.00  0.00     0.053 C 
BRANCH  10  11
ATOM     11  C   UNL     1       4.464  16.959   9.248  1.00  0.00     0.041 C 
ATOM     12  O   UNL     1       5.602  17.350   8.878  1.00  0.00    -0.550 OA
ATOM     13  O   UNL     1       4.340  16.203  10.406  1.00  0.00    -0.550 OA
ENDBRANCH  10  11
ENDBRANCH   9  10
ENDBRANCH   8   9
ENDBRANCH   1   8
TORSDOF 8
ENDMDL
