MODEL 1
REMARK VINA RESULT:    -4.387      0.000      0.000
REMARK INTER + INTRA:          -6.233
REMARK INTER:                  -5.669
REMARK INTRA:                  -0.563
REMARK UNBOUND:                -0.563
REMARK SMILES CO[C@]1(CO)O[C@H](CO)[C@H](O)[C@@H]1O
REMARK SMILES IDX 3 1 12 2 10 3 7 4 6 5 2 6 1 7 4 8 5 9 13 11 11 13 8 15 9 16
REMARK H PARENT 5 10 13 12 11 14 9 17
REMARK Flexibility Score: inf
ROOT
ATOM      1  C   UNL     1     -12.623  43.774  36.766  1.00  0.00     0.221 C 
ATOM      2  C   UNL     1     -13.378  43.479  38.071  1.00  0.00     0.207 C 
ATOM      3  C   UNL     1     -14.608  42.760  37.577  1.00  0.00     0.180 C 
ATOM      4  C   UNL     1     -14.049  42.025  36.356  1.00  0.00     0.179 C 
ATOM      5  O   UNL     1     -12.913  42.712  35.872  1.00  0.00    -0.337 OA
ENDROOT
BRANCH   1   6
ATOM      6  O   UNL     1     -13.116  45.011  36.249  1.00  0.00    -0.349 OA
ATOM      7  C   UNL     1     -12.680  45.285  34.933  1.00  0.00     0.198 C 
ENDBRANCH   1   6
BRANCH   1   8
ATOM      8  C   UNL     1     -11.099  43.836  37.048  1.00  0.00     0.224 C 
BRANCH   8   9
ATOM      9  O   UNL     1     -10.854  44.098  38.403  1.00  0.00    -0.391 OA
ATOM     10  H   UNL     1     -11.124  45.041  38.555  1.00  0.00     0.210 HD
ENDBRANCH   8   9
ENDBRANCH   1   8
BRANCH   2  11
ATOM     11  O   UNL     1     -13.688  44.655  38.776  1.00  0.00    -0.385 OA
ATOM     12  H   UNL     1     -13.457  44.483  39.725  1.00  0.00     0.211 HD
ENDBRANCH   2  11
BRANCH   3  13
ATOM     13  O   UNL     1     -15.612  43.677  37.212  1.00  0.00    -0.387 OA
ATOM     14  H   UNL     1     -16.405  43.470  37.771  1.00  0.00     0.211 HD
ENDBRANCH   3  13
BRANCH   4  15
ATOM     15  C   UNL     1     -15.064  41.808  35.224  1.00  0.00     0.191 C 
BRANCH  15  16
ATOM     16  O   UNL     1     -16.067  40.915  35.626  1.00  0.00    -0.394 OA
ATOM     17  H   UNL     1     -16.899  41.216  35.177  1.00  0.00     0.210 HD
ENDBRANCH  15  16
ENDBRANCH   4  15
TORSDOF 7
ENDMDL
MODEL 2
REMARK VINA RESULT:    -4.102      1.512      3.818
REMARK INTER + INTRA:          -5.865
REMARK INTER:                  -5.272
REMARK INTRA:                  -0.593
REMARK UNBOUND:                -0.563
REMARK SMILES CO[C@]1(CO)O[C@H](CO)[C@H](O)[C@@H]1O
REMARK SMILES IDX 3 1 12 2 10 3 7 4 6 5 2 6 1 7 4 8 5 9 13 11 11 13 8 15 9 16
REMARK H PARENT 5 10 13 12 11 14 9 17
REMARK Flexibility Score: inf
ROOT
ATOM      1  C   UNL     1     -13.841  43.662  35.839  1.00  0.00     0.221 C 
ATOM      2  C   UNL     1     -14.809  44.225  36.891  1.00  0.00     0.207 C 
ATOM      3  C   UNL     1     -13.952  44.268  38.130  1.00  0.00     0.180 C 
ATOM      4  C   UNL     1     -12.577  44.565  37.527  1.00  0.00     0.179 C 
ATOM      5  O   UNL     1     -12.543  44.118  36.187  1.00  0.00    -0.337 OA
ENDROOT
BRANCH   1   6
ATOM      6  O   UNL     1     -13.904  42.237  35.910  1.00  0.00    -0.349 OA
ATOM      7  C   UNL     1     -13.811  41.606  34.648  1.00  0.00     0.198 C 
ENDBRANCH   1   6
BRANCH   1   8
ATOM      8  C   UNL     1     -14.234  44.186  34.434  1.00  0.00     0.224 C 
BRANCH   8   9
ATOM      9  O   UNL     1     -15.285  45.110  34.523  1.00  0.00    -0.391 OA
ATOM     10  H   UNL     1     -14.896  45.993  34.291  1.00  0.00     0.210 HD
ENDBRANCH   8   9
ENDBRANCH   1   8
BRANCH   2  11
ATOM     11  O   UNL     1     -15.944  43.411  37.048  1.00  0.00    -0.385 OA
ATOM     12  H   UNL     1     -16.732  43.991  36.881  1.00  0.00     0.211 HD
ENDBRANCH   2  11
BRANCH   3  13
ATOM     13  O   UNL     1     -13.967  43.025  38.793  1.00  0.00    -0.387 OA
ATOM     14  H   UNL     1     -14.911  42.719  38.804  1.00  0.00     0.211 HD
ENDBRANCH   3  13
BRANCH   4  15
ATOM     15  C   UNL     1     -11.397  43.978  38.315  1.00  0.00     0.191 C 
BRANCH  15  16
ATOM     16  O   UNL     1     -11.474  44.344  39.666  1.00  0.00    -0.394 OA
ATOM     17  H   UNL     1     -12.181  43.773  40.065  1.00  0.00     0.210 HD
ENDBRANCH  15  16
ENDBRANCH   4  15
TORSDOF 7
ENDMDL
MODEL 3
REMARK VINA RESULT:    -4.035      2.033      3.256
REMARK INTER + INTRA:          -5.778
REMARK INTER:                  -5.048
REMARK INTRA:                  -0.730
REMARK UNBOUND:                -0.563
REMARK SMILES CO[C@]1(CO)O[C@H](CO)[C@H](O)[C@@H]1O
REMARK SMILES IDX 3 1 12 2 10 3 7 4 6 5 2 6 1 7 4 8 5 9 13 11 11 13 8 15 9 16
REMARK H PARENT 5 10 13 12 11 14 9 17
REMARK Flexibility Score: inf
ROOT
ATOM      1  C   UNL     1     -13.973  42.895  35.226  1.00  0.00     0.221 C 
ATOM      2  C   UNL     1     -14.121  44.361  35.660  1.00  0.00     0.207 C 
ATOM      3  C   UNL     1     -14.579  44.231  37.090  1.00  0.00     0.180 C 
ATOM      4  C   UNL     1     -13.854  42.951  37.516  1.00  0.00     0.179 C 
ATOM      5  O   UNL     1     -13.583  42.162  36.375  1.00  0.00    -0.337 OA
ENDROOT
BRANCH   1   6
ATOM      6  O   UNL     1     -15.247  42.451  34.758  1.00  0.00    -0.349 OA
ATOM      7  C   UNL     1     -15.280  41.074  34.438  1.00  0.00     0.198 C 
ENDBRANCH   1   6
BRANCH   1   8
ATOM      8  C   UNL     1     -12.885  42.785  34.126  1.00  0.00     0.224 C 
BRANCH   8   9
ATOM      9  O   UNL     1     -13.164  43.652  33.061  1.00  0.00    -0.391 OA
ATOM     10  H   UNL     1     -12.293  44.043  32.788  1.00  0.00     0.210 HD
ENDBRANCH   8   9
ENDBRANCH   1   8
BRANCH   2  11
ATOM     11  O   UNL     1     -15.044  45.055  34.859  1.00  0.00    -0.385 OA
ATOM     12  H   UNL     1     -15.917  45.008  35.330  1.00  0.00     0.211 HD
ENDBRANCH   2  11
BRANCH   3  13
ATOM     13  O   UNL     1     -15.977  44.078  37.157  1.00  0.00    -0.387 OA
ATOM     14  H   UNL     1     -16.318  44.167  36.229  1.00  0.00     0.211 HD
ENDBRANCH   3  13
BRANCH   4  15
ATOM     15  C   UNL     1     -14.595  42.122  38.575  1.00  0.00     0.191 C 
BRANCH  15  16
ATOM     16  O   UNL     1     -15.556  41.298  37.973  1.00  0.00    -0.394 OA
ATOM     17  H   UNL     1     -15.434  40.397  38.370  1.00  0.00     0.210 HD
ENDBRANCH  15  16
ENDBRANCH   4  15
TORSDOF 7
ENDMDL
MODEL 4
REMARK VINA RESULT:    -3.992      1.742      3.426
REMARK INTER + INTRA:          -5.723
REMARK INTER:                  -5.011
REMARK INTRA:                  -0.712
REMARK UNBOUND:                -0.563
REMARK SMILES CO[C@]1(CO)O[C@H](CO)[C@H](O)[C@@H]1O
REMARK SMILES IDX 3 1 12 2 10 3 7 4 6 5 2 6 1 7 4 8 5 9 13 11 11 13 8 15 9 16
REMARK H PARENT 5 10 13 12 11 14 9 17
REMARK Flexibility Score: inf
ROOT
ATOM      1  C   UNL     1     -13.915  43.141  37.797  1.00  0.00     0.221 C 
ATOM      2  C   UNL     1     -15.003  43.481  36.767  1.00  0.00     0.207 C 
ATOM      3  C   UNL     1     -14.198  43.746  35.521  1.00  0.00     0.180 C 
ATOM      4  C   UNL     1     -13.030  42.775  35.713  1.00  0.00     0.179 C 
ATOM      5  O   UNL     1     -12.861  42.507  37.090  1.00  0.00    -0.337 OA
ENDROOT
BRANCH   1   6
ATOM      6  O   UNL     1     -13.463  44.368  38.372  1.00  0.00    -0.349 OA
ATOM      7  C   UNL     1     -12.325  44.218  39.197  1.00  0.00     0.198 C 
ENDBRANCH   1   6
BRANCH   1   8
ATOM      8  C   UNL     1     -14.493  42.182  38.869  1.00  0.00     0.224 C 
BRANCH   8   9
ATOM      9  O   UNL     1     -15.840  41.895  38.607  1.00  0.00    -0.391 OA
ATOM     10  H   UNL     1     -16.345  42.176  39.414  1.00  0.00     0.210 HD
ENDBRANCH   8   9
ENDBRANCH   1   8
BRANCH   2  11
ATOM     11  O   UNL     1     -15.769  44.592  37.161  1.00  0.00    -0.385 OA
ATOM     12  H   UNL     1     -15.328  45.391  36.771  1.00  0.00     0.211 HD
ENDBRANCH   2  11
BRANCH   3  13
ATOM     13  O   UNL     1     -13.756  45.083  35.484  1.00  0.00    -0.387 OA
ATOM     14  H   UNL     1     -13.526  45.333  36.416  1.00  0.00     0.211 HD
ENDBRANCH   3  13
BRANCH   4  15
ATOM     15  C   UNL     1     -11.705  43.243  35.094  1.00  0.00     0.191 C 
BRANCH  15  16
ATOM     16  O   UNL     1     -11.087  44.197  35.915  1.00  0.00    -0.394 OA
ATOM     17  H   UNL     1     -10.781  44.923  35.312  1.00  0.00     0.210 HD
ENDBRANCH  15  16
ENDBRANCH   4  15
TORSDOF 7
ENDMDL
MODEL 5
REMARK VINA RESULT:    -3.958     10.849     12.232
REMARK INTER + INTRA:          -5.678
REMARK INTER:                  -4.955
REMARK INTRA:                  -0.722
REMARK UNBOUND:                -0.563
REMARK SMILES CO[C@]1(CO)O[C@H](CO)[C@H](O)[C@@H]1O
REMARK SMILES IDX 3 1 12 2 10 3 7 4 6 5 2 6 1 7 4 8 5 9 13 11 11 13 8 15 9 16
REMARK H PARENT 5 10 13 12 11 14 9 17
REMARK Flexibility Score: inf
ROOT
ATOM      1  C   UNL     1      -5.367  40.509  27.850  1.00  0.00     0.221 C 
ATOM      2  C   UNL     1      -4.217  41.255  28.544  1.00  0.00     0.207 C 
ATOM      3  C   UNL     1      -4.950  42.248  29.409  1.00  0.00     0.180 C 
ATOM      4  C   UNL     1      -6.213  41.457  29.760  1.00  0.00     0.179 C 
ATOM      5  O   UNL     1      -6.453  40.486  28.762  1.00  0.00    -0.337 OA
ENDROOT
BRANCH   1   6
ATOM      6  O   UNL     1      -5.716  41.246  26.677  1.00  0.00    -0.349 OA
ATOM      7  C   UNL     1      -6.868  40.752  26.024  1.00  0.00     0.198 C 
ENDBRANCH   1   6
BRANCH   1   8
ATOM      8  C   UNL     1      -4.922  39.064  27.510  1.00  0.00     0.224 C 
BRANCH   8   9
ATOM      9  O   UNL     1      -3.545  38.904  27.720  1.00  0.00    -0.391 OA
ATOM     10  H   UNL     1      -3.399  37.932  27.862  1.00  0.00     0.210 HD
ENDBRANCH   8   9
ENDBRANCH   1   8
BRANCH   2  11
ATOM     11  O   UNL     1      -3.360  41.875  27.619  1.00  0.00    -0.385 OA
ATOM     12  H   UNL     1      -3.659  41.584  26.719  1.00  0.00     0.211 HD
ENDBRANCH   2  11
BRANCH   3  13
ATOM     13  O   UNL     1      -5.257  43.414  28.683  1.00  0.00    -0.387 OA
ATOM     14  H   UNL     1      -6.244  43.515  28.709  1.00  0.00     0.211 HD
ENDBRANCH   3  13
BRANCH   4  15
ATOM     15  C   UNL     1      -7.464  42.320  29.977  1.00  0.00     0.191 C 
BRANCH  15  16
ATOM     16  O   UNL     1      -8.038  42.675  28.749  1.00  0.00    -0.394 OA
ATOM     17  H   UNL     1      -7.848  43.641  28.626  1.00  0.00     0.210 HD
ENDBRANCH  15  16
ENDBRANCH   4  15
TORSDOF 7
ENDMDL
MODEL 6
REMARK VINA RESULT:    -3.947      1.497      2.081
REMARK INTER + INTRA:          -5.664
REMARK INTER:                  -5.308
REMARK INTRA:                  -0.356
REMARK UNBOUND:                -0.563
REMARK SMILES CO[C@]1(CO)O[C@H](CO)[C@H](O)[C@@H]1O
REMARK SMILES IDX 3 1 12 2 10 3 7 4 6 5 2 6 1 7 4 8 5 9 13 11 11 13 8 15 9 16
REMARK H PARENT 5 10 13 12 11 14 9 17
REMARK Flexibility Score: inf
ROOT
ATOM      1  C   UNL     1     -13.245  43.754  37.055  1.00  0.00     0.221 C 
ATOM      2  C   UNL     1     -14.720  43.326  37.030  1.00  0.00     0.207 C 
ATOM      3  C   UNL     1     -14.810  42.549  35.741  1.00  0.00     0.180 C 
ATOM      4  C   UNL     1     -13.410  41.932  35.671  1.00  0.00     0.179 C 
ATOM      5  O   UNL     1     -12.507  42.729  36.409  1.00  0.00    -0.337 OA
ENDROOT
BRANCH   1   6
ATOM      6  O   UNL     1     -13.136  44.980  36.330  1.00  0.00    -0.349 OA
ATOM      7  C   UNL     1     -11.942  45.088  35.582  1.00  0.00     0.198 C 
ENDBRANCH   1   6
BRANCH   1   8
ATOM      8  C   UNL     1     -12.772  43.911  38.523  1.00  0.00     0.224 C 
BRANCH   8   9
ATOM      9  O   UNL     1     -13.775  43.507  39.416  1.00  0.00    -0.391 OA
ATOM     10  H   UNL     1     -13.944  42.548  39.226  1.00  0.00     0.210 HD
ENDBRANCH   8   9
ENDBRANCH   1   8
BRANCH   2  11
ATOM     11  O   UNL     1     -15.588  44.432  37.055  1.00  0.00    -0.385 OA
ATOM     12  H   UNL     1     -16.469  44.105  36.738  1.00  0.00     0.211 HD
ENDBRANCH   2  11
BRANCH   3  13
ATOM     13  O   UNL     1     -15.049  43.410  34.653  1.00  0.00    -0.387 OA
ATOM     14  H   UNL     1     -15.746  44.054  34.945  1.00  0.00     0.211 HD
ENDBRANCH   3  13
BRANCH   4  15
ATOM     15  C   UNL     1     -12.884  41.710  34.246  1.00  0.00     0.191 C 
BRANCH  15  16
ATOM     16  O   UNL     1     -12.958  40.354  33.899  1.00  0.00    -0.394 OA
ATOM     17  H   UNL     1     -13.922  40.155  33.768  1.00  0.00     0.210 HD
ENDBRANCH  15  16
ENDBRANCH   4  15
TORSDOF 7
ENDMDL
MODEL 7
REMARK VINA RESULT:    -3.915     10.658     12.264
REMARK INTER + INTRA:          -5.623
REMARK INTER:                  -4.915
REMARK INTRA:                  -0.708
REMARK UNBOUND:                -0.563
REMARK SMILES CO[C@]1(CO)O[C@H](CO)[C@H](O)[C@@H]1O
REMARK SMILES IDX 3 1 12 2 10 3 7 4 6 5 2 6 1 7 4 8 5 9 13 11 11 13 8 15 9 16
REMARK H PARENT 5 10 13 12 11 14 9 17
REMARK Flexibility Score: inf
ROOT
ATOM      1  C   UNL     1      -6.566  41.433  28.241  1.00  0.00     0.221 C 
ATOM      2  C   UNL     1      -5.632  40.487  27.471  1.00  0.00     0.207 C 
ATOM      3  C   UNL     1      -4.364  40.552  28.283  1.00  0.00     0.180 C 
ATOM      4  C   UNL     1      -4.926  40.750  29.693  1.00  0.00     0.179 C 
ATOM      5  O   UNL     1      -6.206  41.343  29.610  1.00  0.00    -0.337 OA
ENDROOT
BRANCH   1   6
ATOM      6  O   UNL     1      -6.343  42.756  27.752  1.00  0.00    -0.349 OA
ATOM      7  C   UNL     1      -6.942  43.759  28.547  1.00  0.00     0.198 C 
ENDBRANCH   1   6
BRANCH   1   8
ATOM      8  C   UNL     1      -8.038  40.987  28.044  1.00  0.00     0.224 C 
BRANCH   8   9
ATOM      9  O   UNL     1      -8.214  40.392  26.787  1.00  0.00    -0.391 OA
ATOM     10  H   UNL     1      -7.399  39.851  26.621  1.00  0.00     0.210 HD
ENDBRANCH   8   9
ENDBRANCH   1   8
BRANCH   2  11
ATOM     11  O   UNL     1      -5.443  40.903  26.142  1.00  0.00    -0.385 OA
ATOM     12  H   UNL     1      -5.481  41.894  26.149  1.00  0.00     0.211 HD
ENDBRANCH   2  11
BRANCH   3  13
ATOM     13  O   UNL     1      -3.570  41.646  27.886  1.00  0.00    -0.387 OA
ATOM     14  H   UNL     1      -4.121  42.187  27.263  1.00  0.00     0.211 HD
ENDBRANCH   3  13
BRANCH   4  15
ATOM     15  C   UNL     1      -4.022  41.563  30.631  1.00  0.00     0.191 C 
BRANCH  15  16
ATOM     16  O   UNL     1      -4.161  42.935  30.384  1.00  0.00    -0.394 OA
ATOM     17  H   UNL     1      -5.079  43.175  30.674  1.00  0.00     0.210 HD
ENDBRANCH  15  16
ENDBRANCH   4  15
TORSDOF 7
ENDMDL
MODEL 8
REMARK VINA RESULT:    -3.862      1.763      3.589
REMARK INTER + INTRA:          -5.555
REMARK INTER:                  -5.164
REMARK INTRA:                  -0.391
REMARK UNBOUND:                -0.563
REMARK SMILES CO[C@]1(CO)O[C@H](CO)[C@H](O)[C@@H]1O
REMARK SMILES IDX 3 1 12 2 10 3 7 4 6 5 2 6 1 7 4 8 5 9 13 11 11 13 8 15 9 16
REMARK H PARENT 5 10 13 12 11 14 9 17
REMARK Flexibility Score: inf
ROOT
ATOM      1  C   UNL     1     -12.731  43.769  35.972  1.00  0.00     0.221 C 
ATOM      2  C   UNL     1     -14.204  44.193  36.074  1.00  0.00     0.207 C 
ATOM      3  C   UNL     1     -14.479  44.060  37.550  1.00  0.00     0.180 C 
ATOM      4  C   UNL     1     -13.113  44.423  38.138  1.00  0.00     0.179 C 
ATOM      5  O   UNL     1     -12.105  44.162  37.183  1.00  0.00    -0.337 OA
ENDROOT
BRANCH   1   6
ATOM      6  O   UNL     1     -12.697  42.348  35.831  1.00  0.00    -0.349 OA
ATOM      7  C   UNL     1     -11.717  41.896  34.920  1.00  0.00     0.198 C 
ENDBRANCH   1   6
BRANCH   1   8
ATOM      8  C   UNL     1     -12.065  44.483  34.768  1.00  0.00     0.224 C 
BRANCH   8   9
ATOM      9  O   UNL     1     -12.994  45.279  34.085  1.00  0.00    -0.391 OA
ATOM     10  H   UNL     1     -13.877  45.087  34.495  1.00  0.00     0.210 HD
ENDBRANCH   8   9
ENDBRANCH   1   8
BRANCH   2  11
ATOM     11  O   UNL     1     -15.041  43.376  35.294  1.00  0.00    -0.385 OA
ATOM     12  H   UNL     1     -15.274  42.593  35.857  1.00  0.00     0.211 HD
ENDBRANCH   2  11
BRANCH   3  13
ATOM     13  O   UNL     1     -14.845  42.739  37.874  1.00  0.00    -0.387 OA
ATOM     14  H   UNL     1     -14.260  42.456  38.624  1.00  0.00     0.211 HD
ENDBRANCH   3  13
BRANCH   4  15
ATOM     15  C   UNL     1     -12.785  43.724  39.465  1.00  0.00     0.191 C 
BRANCH  15  16
ATOM     16  O   UNL     1     -11.605  44.242  40.017  1.00  0.00    -0.394 OA
ATOM     17  H   UNL     1     -10.867  43.678  39.669  1.00  0.00     0.210 HD
ENDBRANCH  15  16
ENDBRANCH   4  15
TORSDOF 7
ENDMDL
MODEL 9
REMARK VINA RESULT:    -3.860     10.445     11.849
REMARK INTER + INTRA:          -5.552
REMARK INTER:                  -4.911
REMARK INTRA:                  -0.641
REMARK UNBOUND:                -0.563
REMARK SMILES CO[C@]1(CO)O[C@H](CO)[C@H](O)[C@@H]1O
REMARK SMILES IDX 3 1 12 2 10 3 7 4 6 5 2 6 1 7 4 8 5 9 13 11 11 13 8 15 9 16
REMARK H PARENT 5 10 13 12 11 14 9 17
REMARK Flexibility Score: inf
ROOT
ATOM      1  C   UNL     1      -6.368  42.461  28.738  1.00  0.00     0.221 C 
ATOM      2  C   UNL     1      -4.832  42.474  28.782  1.00  0.00     0.207 C 
ATOM      3  C   UNL     1      -4.477  41.186  28.085  1.00  0.00     0.180 C 
ATOM      4  C   UNL     1      -5.618  41.076  27.070  1.00  0.00     0.179 C 
ATOM      5  O   UNL     1      -6.740  41.792  27.544  1.00  0.00    -0.337 OA
ENDROOT
BRANCH   1   6
ATOM      6  O   UNL     1      -6.828  41.737  29.881  1.00  0.00    -0.349 OA
ATOM      7  C   UNL     1      -8.149  41.254  29.746  1.00  0.00     0.198 C 
ENDBRANCH   1   6
BRANCH   1   8
ATOM      8  C   UNL     1      -6.902  43.916  28.726  1.00  0.00     0.224 C 
BRANCH   8   9
ATOM      9  O   UNL     1      -5.896  44.819  29.099  1.00  0.00    -0.391 OA
ATOM     10  H   UNL     1      -5.060  44.490  28.678  1.00  0.00     0.210 HD
ENDBRANCH   8   9
ENDBRANCH   1   8
BRANCH   2  11
ATOM     11  O   UNL     1      -4.345  42.526  30.100  1.00  0.00    -0.385 OA
ATOM     12  H   UNL     1      -4.408  41.604  30.460  1.00  0.00     0.211 HD
ENDBRANCH   2  11
BRANCH   3  13
ATOM     13  O   UNL     1      -4.486  40.107  28.990  1.00  0.00    -0.387 OA
ATOM     14  H   UNL     1      -3.720  39.524  28.747  1.00  0.00     0.211 HD
ENDBRANCH   3  13
BRANCH   4  15
ATOM     15  C   UNL     1      -6.016  39.636  26.714  1.00  0.00     0.191 C 
BRANCH  15  16
ATOM     16  O   UNL     1      -4.883  38.880  26.382  1.00  0.00    -0.394 OA
ATOM     17  H   UNL     1      -4.393  38.731  27.231  1.00  0.00     0.210 HD
ENDBRANCH  15  16
ENDBRANCH   4  15
TORSDOF 7
ENDMDL
