MODEL 1
REMARK VINA RESULT:    -6.267      0.000      0.000
REMARK INTER + INTRA:          -9.097
REMARK INTER:                  -8.466
REMARK INTRA:                  -0.631
REMARK UNBOUND:                -0.631
REMARK SMILES CC(=O)CCC=C(C)CCC=C(C)C
REMARK SMILES IDX 7 1 6 2 8 3 9 4 10 5 11 6 13 7 12 8 14 9 5 10 4 11 2 12 3 13
REMARK SMILES IDX 1 14
REMARK H PARENT
REMARK Flexibility Score: inf
ROOT
ATOM      1  C   UNL     1     -18.612  37.634  15.494  1.00  0.00    -0.077 C 
ATOM      2  C   UNL     1     -18.022  38.216  14.427  1.00  0.00    -0.028 C 
ATOM      3  C   UNL     1     -18.125  37.893  16.900  1.00  0.00     0.039 C 
ENDROOT
BRANCH   1   4
ATOM      4  C   UNL     1     -19.787  36.703  15.277  1.00  0.00     0.034 C 
BRANCH   4   5
ATOM      5  C   UNL     1     -19.941  36.310  13.800  1.00  0.00     0.032 C 
BRANCH   5   6
ATOM      6  C   UNL     1     -18.914  35.284  13.384  1.00  0.00    -0.028 C 
ATOM      7  C   UNL     1     -19.330  35.611  10.935  1.00  0.00     0.039 C 
ATOM      8  C   UNL     1     -18.608  34.981  12.103  1.00  0.00    -0.080 C 
ATOM      9  C   UNL     1     -17.522  33.969  11.845  1.00  0.00     0.039 C 
ENDBRANCH   5   6
ENDBRANCH   4   5
ENDBRANCH   1   4
BRANCH   2  10
ATOM     10  C   UNL     1     -16.852  39.163  14.547  1.00  0.00     0.035 C 
BRANCH  10  11
ATOM     11  C   UNL     1     -16.140  39.337  13.202  1.00  0.00     0.079 C 
BRANCH  11  12
ATOM     12  C   UNL     1     -16.057  38.022  12.470  1.00  0.00     0.130 C 
ATOM     13  O   UNL     1     -16.773  37.828  11.500  1.00  0.00    -0.300 OA
ATOM     14  C   UNL     1     -15.103  36.946  12.900  1.00  0.00     0.087 C 
ENDBRANCH  11  12
ENDBRANCH  10  11
ENDBRANCH   2  10
TORSDOF 6
ENDMDL
MODEL 2
REMARK VINA RESULT:    -6.266     16.589     18.645
REMARK INTER + INTRA:          -9.095
REMARK INTER:                  -8.428
REMARK INTRA:                  -0.667
REMARK UNBOUND:                -0.631
REMARK SMILES CC(=O)CCC=C(C)CCC=C(C)C
REMARK SMILES IDX 7 1 6 2 8 3 9 4 10 5 11 6 13 7 12 8 14 9 5 10 4 11 2 12 3 13
REMARK SMILES IDX 1 14
REMARK H PARENT
REMARK Flexibility Score: inf
ROOT
ATOM      1  C   UNL     1     -28.021  21.779  15.358  1.00  0.00    -0.077 C 
ATOM      2  C   UNL     1     -28.641  21.220  14.296  1.00  0.00    -0.028 C 
ATOM      3  C   UNL     1     -28.542  21.590  16.763  1.00  0.00     0.039 C 
ENDROOT
BRANCH   1   4
ATOM      4  C   UNL     1     -26.776  22.613  15.137  1.00  0.00     0.034 C 
BRANCH   4   5
ATOM      5  C   UNL     1     -26.715  23.184  13.713  1.00  0.00     0.032 C 
BRANCH   5   6
ATOM      6  C   UNL     1     -27.763  24.249  13.491  1.00  0.00    -0.028 C 
ATOM      7  C   UNL     1     -27.495  24.237  11.000  1.00  0.00     0.039 C 
ATOM      8  C   UNL     1     -28.145  24.710  12.279  1.00  0.00    -0.080 C 
ATOM      9  C   UNL     1     -29.242  25.741  12.218  1.00  0.00     0.039 C 
ENDBRANCH   5   6
ENDBRANCH   4   5
ENDBRANCH   1   4
BRANCH   2  10
ATOM     10  C   UNL     1     -29.882  20.368  14.421  1.00  0.00     0.035 C 
BRANCH  10  11
ATOM     11  C   UNL     1     -30.592  20.223  13.071  1.00  0.00     0.079 C 
BRANCH  11  12
ATOM     12  C   UNL     1     -30.611  21.537  12.335  1.00  0.00     0.130 C 
ATOM     13  O   UNL     1     -29.824  21.726  11.421  1.00  0.00    -0.300 OA
ATOM     14  C   UNL     1     -31.586  22.620  12.694  1.00  0.00     0.087 C 
ENDBRANCH  11  12
ENDBRANCH  10  11
ENDBRANCH   2  10
TORSDOF 6
ENDMDL
MODEL 3
REMARK VINA RESULT:    -6.089     16.276     18.244
REMARK INTER + INTRA:          -8.856
REMARK INTER:                  -7.721
REMARK INTRA:                  -1.134
REMARK UNBOUND:                -0.631
REMARK SMILES CC(=O)CCC=C(C)CCC=C(C)C
REMARK SMILES IDX 7 1 6 2 8 3 9 4 10 5 11 6 13 7 12 8 14 9 5 10 4 11 2 12 3 13
REMARK SMILES IDX 1 14
REMARK H PARENT
REMARK Flexibility Score: inf
ROOT
ATOM      1  C   UNL     1     -27.605  24.085  12.127  1.00  0.00    -0.077 C 
ATOM      2  C   UNL     1     -26.888  23.313  12.973  1.00  0.00    -0.028 C 
ATOM      3  C   UNL     1     -28.219  25.388  12.580  1.00  0.00     0.039 C 
ENDROOT
BRANCH   1   4
ATOM      4  C   UNL     1     -27.797  23.635  10.693  1.00  0.00     0.034 C 
BRANCH   4   5
ATOM      5  C   UNL     1     -28.559  22.305  10.606  1.00  0.00     0.032 C 
BRANCH   5   6
ATOM      6  C   UNL     1     -29.939  22.410  11.211  1.00  0.00    -0.028 C 
ATOM      7  C   UNL     1     -29.557  20.537  12.831  1.00  0.00     0.039 C 
ATOM      8  C   UNL     1     -30.391  21.644  12.230  1.00  0.00    -0.080 C 
ATOM      9  C   UNL     1     -31.777  21.902  12.760  1.00  0.00     0.039 C 
ENDBRANCH   5   6
ENDBRANCH   4   5
ENDBRANCH   1   4
BRANCH   2  10
ATOM     10  C   UNL     1     -26.639  23.683  14.415  1.00  0.00     0.035 C 
BRANCH  10  11
ATOM     11  C   UNL     1     -26.797  22.468  15.334  1.00  0.00     0.079 C 
BRANCH  11  12
ATOM     12  C   UNL     1     -28.234  22.303  15.757  1.00  0.00     0.130 C 
ATOM     13  O   UNL     1     -29.081  23.068  15.322  1.00  0.00    -0.300 OA
ATOM     14  C   UNL     1     -28.652  21.208  16.695  1.00  0.00     0.087 C 
ENDBRANCH  11  12
ENDBRANCH  10  11
ENDBRANCH   2  10
TORSDOF 6
ENDMDL
MODEL 4
REMARK VINA RESULT:    -5.997      1.925      3.810
REMARK INTER + INTRA:          -8.731
REMARK INTER:                  -7.667
REMARK INTRA:                  -1.064
REMARK UNBOUND:                -0.631
REMARK SMILES CC(=O)CCC=C(C)CCC=C(C)C
REMARK SMILES IDX 7 1 6 2 8 3 9 4 10 5 11 6 13 7 12 8 14 9 5 10 4 11 2 12 3 13
REMARK SMILES IDX 1 14
REMARK H PARENT
REMARK Flexibility Score: inf
ROOT
ATOM      1  C   UNL     1     -16.637  37.661  11.928  1.00  0.00    -0.077 C 
ATOM      2  C   UNL     1     -16.784  38.708  12.770  1.00  0.00    -0.028 C 
ATOM      3  C   UNL     1     -15.369  36.840  11.907  1.00  0.00     0.039 C 
ENDROOT
BRANCH   1   4
ATOM      4  C   UNL     1     -17.767  37.301  10.986  1.00  0.00     0.034 C 
BRANCH   4   5
ATOM      5  C   UNL     1     -18.455  35.989  11.391  1.00  0.00     0.032 C 
BRANCH   5   6
ATOM      6  C   UNL     1     -19.542  36.220  12.414  1.00  0.00    -0.028 C 
ATOM      7  C   UNL     1     -18.057  35.694  14.362  1.00  0.00     0.039 C 
ATOM      8  C   UNL     1     -19.371  36.120  13.751  1.00  0.00    -0.080 C 
ATOM      9  C   UNL     1     -20.541  36.430  14.648  1.00  0.00     0.039 C 
ENDBRANCH   5   6
ENDBRANCH   4   5
ENDBRANCH   1   4
BRANCH   2  10
ATOM     10  C   UNL     1     -15.715  39.135  13.748  1.00  0.00     0.035 C 
BRANCH  10  11
ATOM     11  C   UNL     1     -16.301  40.011  14.860  1.00  0.00     0.079 C 
BRANCH  11  12
ATOM     12  C   UNL     1     -16.622  39.183  16.077  1.00  0.00     0.130 C 
ATOM     13  O   UNL     1     -15.736  38.914  16.873  1.00  0.00    -0.300 OA
ATOM     14  C   UNL     1     -18.015  38.688  16.340  1.00  0.00     0.087 C 
ENDBRANCH  11  12
ENDBRANCH  10  11
ENDBRANCH   2  10
TORSDOF 6
ENDMDL
MODEL 5
REMARK VINA RESULT:    -5.995      1.447      4.327
REMARK INTER + INTRA:          -8.728
REMARK INTER:                  -7.630
REMARK INTRA:                  -1.099
REMARK UNBOUND:                -0.631
REMARK SMILES CC(=O)CCC=C(C)CCC=C(C)C
REMARK SMILES IDX 7 1 6 2 8 3 9 4 10 5 11 6 13 7 12 8 14 9 5 10 4 11 2 12 3 13
REMARK SMILES IDX 1 14
REMARK H PARENT
REMARK Flexibility Score: inf
ROOT
ATOM      1  C   UNL     1     -19.078  35.451  12.180  1.00  0.00    -0.077 C 
ATOM      2  C   UNL     1     -19.736  36.234  13.064  1.00  0.00    -0.028 C 
ATOM      3  C   UNL     1     -18.490  34.123  12.592  1.00  0.00     0.039 C 
ENDROOT
BRANCH   1   4
ATOM      4  C   UNL     1     -18.928  35.915  10.746  1.00  0.00     0.034 C 
BRANCH   4   5
ATOM      5  C   UNL     1     -18.134  37.226  10.648  1.00  0.00     0.032 C 
BRANCH   5   6
ATOM      6  C   UNL     1     -16.757  37.094  11.253  1.00  0.00    -0.028 C 
ATOM      7  C   UNL     1     -17.070  39.028  12.815  1.00  0.00     0.039 C 
ATOM      8  C   UNL     1     -16.276  37.875  12.246  1.00  0.00    -0.080 C 
ATOM      9  C   UNL     1     -14.898  37.587  12.781  1.00  0.00     0.039 C 
ENDBRANCH   5   6
ENDBRANCH   4   5
ENDBRANCH   1   4
BRANCH   2  10
ATOM     10  C   UNL     1     -19.941  35.851  14.510  1.00  0.00     0.035 C 
BRANCH  10  11
ATOM     11  C   UNL     1     -19.768  37.062  15.433  1.00  0.00     0.079 C 
BRANCH  11  12
ATOM     12  C   UNL     1     -18.316  37.265  15.778  1.00  0.00     0.130 C 
ATOM     13  O   UNL     1     -17.473  36.525  15.294  1.00  0.00    -0.300 OA
ATOM     14  C   UNL     1     -17.877  38.367  16.697  1.00  0.00     0.087 C 
ENDBRANCH  11  12
ENDBRANCH  10  11
ENDBRANCH   2  10
TORSDOF 6
ENDMDL
MODEL 6
REMARK VINA RESULT:    -5.947      1.549      5.002
REMARK INTER + INTRA:          -8.663
REMARK INTER:                  -7.941
REMARK INTRA:                  -0.722
REMARK UNBOUND:                -0.631
REMARK SMILES CC(=O)CCC=C(C)CCC=C(C)C
REMARK SMILES IDX 7 1 6 2 8 3 9 4 10 5 11 6 13 7 12 8 14 9 5 10 4 11 2 12 3 13
REMARK SMILES IDX 1 14
REMARK H PARENT
REMARK Flexibility Score: inf
ROOT
ATOM      1  C   UNL     1     -16.111  37.718  12.159  1.00  0.00    -0.077 C 
ATOM      2  C   UNL     1     -17.340  37.856  11.612  1.00  0.00    -0.028 C 
ATOM      3  C   UNL     1     -15.295  36.464  11.953  1.00  0.00     0.039 C 
ENDROOT
BRANCH   1   4
ATOM      4  C   UNL     1     -15.539  38.845  12.994  1.00  0.00     0.034 C 
BRANCH   4   5
ATOM      5  C   UNL     1     -16.637  39.628  13.728  1.00  0.00     0.032 C 
BRANCH   5   6
ATOM      6  C   UNL     1     -17.396  38.752  14.698  1.00  0.00    -0.028 C 
ATOM      7  C   UNL     1     -16.257  39.706  16.716  1.00  0.00     0.039 C 
ATOM      8  C   UNL     1     -17.258  38.797  16.042  1.00  0.00    -0.080 C 
ATOM      9  C   UNL     1     -18.123  37.894  16.881  1.00  0.00     0.039 C 
ENDBRANCH   5   6
ENDBRANCH   4   5
ENDBRANCH   1   4
BRANCH   2  10
ATOM     10  C   UNL     1     -17.987  36.791  10.760  1.00  0.00     0.035 C 
BRANCH  10  11
ATOM     11  C   UNL     1     -19.244  36.231  11.434  1.00  0.00     0.079 C 
BRANCH  11  12
ATOM     12  C   UNL     1     -18.877  35.380  12.622  1.00  0.00     0.130 C 
ATOM     13  O   UNL     1     -19.201  35.739  13.743  1.00  0.00    -0.300 OA
ATOM     14  C   UNL     1     -18.128  34.089  12.458  1.00  0.00     0.087 C 
ENDBRANCH  11  12
ENDBRANCH  10  11
ENDBRANCH   2  10
TORSDOF 6
ENDMDL
MODEL 7
REMARK VINA RESULT:    -5.905     17.168     19.331
REMARK INTER + INTRA:          -8.607
REMARK INTER:                  -7.661
REMARK INTRA:                  -0.946
REMARK UNBOUND:                -0.631
REMARK SMILES CC(=O)CCC=C(C)CCC=C(C)C
REMARK SMILES IDX 7 1 6 2 8 3 9 4 10 5 11 6 13 7 12 8 14 9 5 10 4 11 2 12 3 13
REMARK SMILES IDX 1 14
REMARK H PARENT
REMARK Flexibility Score: inf
ROOT
ATOM      1  C   UNL     1     -29.689  21.749  11.779  1.00  0.00    -0.077 C 
ATOM      2  C   UNL     1     -29.417  20.754  12.653  1.00  0.00    -0.028 C 
ATOM      3  C   UNL     1     -31.023  22.456  11.783  1.00  0.00     0.039 C 
ENDROOT
BRANCH   1   4
ATOM      4  C   UNL     1     -28.633  22.165  10.776  1.00  0.00     0.034 C 
BRANCH   4   5
ATOM      5  C   UNL     1     -27.940  23.473  11.183  1.00  0.00     0.032 C 
BRANCH   5   6
ATOM      6  C   UNL     1     -27.007  23.271  12.355  1.00  0.00    -0.028 C 
ATOM      7  C   UNL     1     -28.623  24.214  14.021  1.00  0.00     0.039 C 
ATOM      8  C   UNL     1     -27.311  23.571  13.637  1.00  0.00    -0.080 C 
ATOM      9  C   UNL     1     -26.293  23.265  14.705  1.00  0.00     0.039 C 
ENDBRANCH   5   6
ENDBRANCH   4   5
ENDBRANCH   1   4
BRANCH   2  10
ATOM     10  C   UNL     1     -30.404  20.278  13.692  1.00  0.00     0.035 C 
BRANCH  10  11
ATOM     11  C   UNL     1     -30.503  21.269  14.856  1.00  0.00     0.079 C 
BRANCH  11  12
ATOM     12  C   UNL     1     -30.001  20.643  16.132  1.00  0.00     0.130 C 
ATOM     13  O   UNL     1     -30.722  19.875  16.750  1.00  0.00    -0.300 OA
ATOM     14  C   UNL     1     -28.625  20.934  16.657  1.00  0.00     0.087 C 
ENDBRANCH  11  12
ENDBRANCH  10  11
ENDBRANCH   2  10
TORSDOF 6
ENDMDL
MODEL 8
REMARK VINA RESULT:    -5.862     16.815     18.837
REMARK INTER + INTRA:          -8.549
REMARK INTER:                  -8.120
REMARK INTRA:                  -0.428
REMARK UNBOUND:                -0.631
REMARK SMILES CC(=O)CCC=C(C)CCC=C(C)C
REMARK SMILES IDX 7 1 6 2 8 3 9 4 10 5 11 6 13 7 12 8 14 9 5 10 4 11 2 12 3 13
REMARK SMILES IDX 1 14
REMARK H PARENT
REMARK Flexibility Score: inf
ROOT
ATOM      1  C   UNL     1     -30.564  21.238  12.446  1.00  0.00    -0.077 C 
ATOM      2  C   UNL     1     -29.361  21.381  11.849  1.00  0.00    -0.028 C 
ATOM      3  C   UNL     1     -31.690  22.212  12.191  1.00  0.00     0.039 C 
ENDROOT
BRANCH   1   4
ATOM      4  C   UNL     1     -30.791  20.076  13.391  1.00  0.00     0.034 C 
BRANCH   4   5
ATOM      5  C   UNL     1     -30.030  20.257  14.713  1.00  0.00     0.032 C 
BRANCH   5   6
ATOM      6  C   UNL     1     -28.938  21.294  14.594  1.00  0.00    -0.028 C 
ATOM      7  C   UNL     1     -28.529  21.394  17.064  1.00  0.00     0.039 C 
ATOM      8  C   UNL     1     -28.236  21.791  15.636  1.00  0.00    -0.080 C 
ATOM      9  C   UNL     1     -27.140  22.786  15.352  1.00  0.00     0.039 C 
ENDBRANCH   5   6
ENDBRANCH   4   5
ENDBRANCH   1   4
BRANCH   2  10
ATOM     10  C   UNL     1     -29.046  22.502  10.887  1.00  0.00     0.035 C 
BRANCH  10  11
ATOM     11  C   UNL     1     -27.858  23.336  11.379  1.00  0.00     0.079 C 
BRANCH  11  12
ATOM     12  C   UNL     1     -28.317  24.694  11.842  1.00  0.00     0.130 C 
ATOM     13  O   UNL     1     -27.881  25.695  11.294  1.00  0.00    -0.300 OA
ATOM     14  C   UNL     1     -29.309  24.846  12.958  1.00  0.00     0.087 C 
ENDBRANCH  11  12
ENDBRANCH  10  11
ENDBRANCH   2  10
TORSDOF 6
ENDMDL
MODEL 9
REMARK VINA RESULT:    -5.813      2.209      3.598
REMARK INTER + INTRA:          -8.483
REMARK INTER:                  -7.427
REMARK INTRA:                  -1.056
REMARK UNBOUND:                -0.631
REMARK SMILES CC(=O)CCC=C(C)CCC=C(C)C
REMARK SMILES IDX 7 1 6 2 8 3 9 4 10 5 11 6 13 7 12 8 14 9 5 10 4 11 2 12 3 13
REMARK SMILES IDX 1 14
REMARK H PARENT
REMARK Flexibility Score: inf
ROOT
ATOM      1  C   UNL     1     -17.181  36.130  13.789  1.00  0.00    -0.077 C 
ATOM      2  C   UNL     1     -18.200  36.493  14.597  1.00  0.00    -0.028 C 
ATOM      3  C   UNL     1     -16.191  37.144  13.266  1.00  0.00     0.039 C 
ENDROOT
BRANCH   1   4
ATOM      4  C   UNL     1     -17.025  34.674  13.399  1.00  0.00     0.034 C 
BRANCH   4   5
ATOM      5  C   UNL     1     -18.206  34.178  12.553  1.00  0.00     0.032 C 
BRANCH   5   6
ATOM      6  C   UNL     1     -18.170  34.745  11.154  1.00  0.00    -0.028 C 
ATOM      7  C   UNL     1     -20.062  36.336  11.566  1.00  0.00     0.039 C 
ATOM      8  C   UNL     1     -18.976  35.734  10.705  1.00  0.00    -0.080 C 
ATOM      9  C   UNL     1     -18.785  36.229   9.296  1.00  0.00     0.039 C 
ENDBRANCH   5   6
ENDBRANCH   4   5
ENDBRANCH   1   4
BRANCH   2  10
ATOM     10  C   UNL     1     -18.430  37.917  15.044  1.00  0.00     0.035 C 
BRANCH  10  11
ATOM     11  C   UNL     1     -18.116  38.088  16.534  1.00  0.00     0.079 C 
BRANCH  11  12
ATOM     12  C   UNL     1     -17.352  39.365  16.774  1.00  0.00     0.130 C 
ATOM     13  O   UNL     1     -17.594  40.032  17.768  1.00  0.00    -0.300 OA
ATOM     14  C   UNL     1     -16.290  39.831  15.822  1.00  0.00     0.087 C 
ENDBRANCH  11  12
ENDBRANCH  10  11
ENDBRANCH   2  10
TORSDOF 6
ENDMDL
