MODEL 1
REMARK VINA RESULT:    -4.309      0.000      0.000
REMARK INTER + INTRA:          -4.583
REMARK INTER:                  -4.561
REMARK INTRA:                  -0.022
REMARK UNBOUND:                -0.022
REMARK SMILES O=C([O-])c1cccnc1
REMARK SMILES IDX 4 1 5 2 9 3 6 4 8 5 7 6 2 7 1 8 3 9
REMARK H PARENT
REMARK Flexibility Score: inf
ROOT
ATOM      1  C   UNL     1      12.777 -30.481  22.500  1.00  0.00     0.016 A 
ATOM      2  C   UNL     1      13.268 -29.755  23.597  1.00  0.00     0.013 A 
ATOM      3  C   UNL     1      11.567 -30.069  21.914  1.00  0.00     0.120 A 
ATOM      4  C   UNL     1      12.562 -28.654  24.082  1.00  0.00     0.021 A 
ATOM      5  N   UNL     1      10.898 -28.991  22.406  1.00  0.00    -0.264 NA
ATOM      6  C   UNL     1      11.366 -28.283  23.467  1.00  0.00     0.111 A 
ENDROOT
BRANCH   1   7
ATOM      7  C   UNL     1      13.516 -31.650  21.977  1.00  0.00     0.073 C 
ATOM      8  O   UNL     1      14.260 -32.329  22.733  1.00  0.00    -0.545 OA
ATOM      9  O   UNL     1      13.399 -32.016  20.640  1.00  0.00    -0.545 OA
ENDBRANCH   1   7
TORSDOF 1
ENDMDL
MODEL 2
REMARK VINA RESULT:    -4.248      1.114      1.989
REMARK INTER + INTRA:          -4.519
REMARK INTER:                  -4.496
REMARK INTRA:                  -0.022
REMARK UNBOUND:                -0.022
REMARK SMILES O=C([O-])c1cccnc1
REMARK SMILES IDX 4 1 5 2 9 3 6 4 8 5 7 6 2 7 1 8 3 9
REMARK H PARENT
REMARK Flexibility Score: inf
ROOT
ATOM      1  C   UNL     1      12.593 -30.098  22.549  1.00  0.00     0.016 A 
ATOM      2  C   UNL     1      11.382 -29.502  22.160  1.00  0.00     0.013 A 
ATOM      3  C   UNL     1      13.271 -29.569  23.662  1.00  0.00     0.120 A 
ATOM      4  C   UNL     1      10.878 -28.412  22.871  1.00  0.00     0.021 A 
ATOM      5  N   UNL     1      12.757 -28.506  24.336  1.00  0.00    -0.264 NA
ATOM      6  C   UNL     1      11.587 -27.922  23.968  1.00  0.00     0.111 A 
ENDROOT
BRANCH   1   7
ATOM      7  C   UNL     1      13.138 -31.254  21.804  1.00  0.00     0.073 C 
ATOM      8  O   UNL     1      12.840 -31.434  20.594  1.00  0.00    -0.545 OA
ATOM      9  O   UNL     1      13.989 -32.157  22.432  1.00  0.00    -0.545 OA
ENDBRANCH   1   7
TORSDOF 1
ENDMDL
MODEL 3
REMARK VINA RESULT:    -4.180      3.150      4.169
REMARK INTER + INTRA:          -4.446
REMARK INTER:                  -4.422
REMARK INTRA:                  -0.024
REMARK UNBOUND:                -0.022
REMARK SMILES O=C([O-])c1cccnc1
REMARK SMILES IDX 4 1 5 2 9 3 6 4 8 5 7 6 2 7 1 8 3 9
REMARK H PARENT
REMARK Flexibility Score: inf
ROOT
ATOM      1  C   UNL     1      12.333 -28.952  23.336  1.00  0.00     0.016 A 
ATOM      2  C   UNL     1      11.506 -29.424  22.304  1.00  0.00     0.013 A 
ATOM      3  C   UNL     1      13.509 -29.666  23.628  1.00  0.00     0.120 A 
ATOM      4  C   UNL     1      11.856 -30.575  21.596  1.00  0.00     0.021 A 
ATOM      5  N   UNL     1      13.827 -30.784  22.923  1.00  0.00    -0.264 NA
ATOM      6  C   UNL     1      13.032 -31.249  21.923  1.00  0.00     0.111 A 
ENDROOT
BRANCH   1   7
ATOM      7  C   UNL     1      11.974 -27.734  24.093  1.00  0.00     0.073 C 
ATOM      8  O   UNL     1      10.987 -27.032  23.748  1.00  0.00    -0.545 OA
ATOM      9  O   UNL     1      12.723 -27.348  25.200  1.00  0.00    -0.545 OA
ENDBRANCH   1   7
TORSDOF 1
ENDMDL
MODEL 4
REMARK VINA RESULT:    -4.122      2.802      3.864
REMARK INTER + INTRA:          -4.386
REMARK INTER:                  -4.366
REMARK INTRA:                  -0.020
REMARK UNBOUND:                -0.022
REMARK SMILES O=C([O-])c1cccnc1
REMARK SMILES IDX 4 1 5 2 9 3 6 4 8 5 7 6 2 7 1 8 3 9
REMARK H PARENT
REMARK Flexibility Score: inf
ROOT
ATOM      1  C   UNL     1      12.993 -31.181  22.241  1.00  0.00     0.016 A 
ATOM      2  C   UNL     1      13.496 -31.561  23.496  1.00  0.00     0.013 A 
ATOM      3  C   UNL     1      13.498 -31.824  21.097  1.00  0.00     0.120 A 
ATOM      4  C   UNL     1      14.473 -32.553  23.589  1.00  0.00     0.021 A 
ATOM      5  N   UNL     1      14.450 -32.789  21.216  1.00  0.00    -0.264 NA
ATOM      6  C   UNL     1      14.942 -33.162  22.426  1.00  0.00     0.111 A 
ENDROOT
BRANCH   1   7
ATOM      7  C   UNL     1      11.959 -30.131  22.130  1.00  0.00     0.073 C 
ATOM      8  O   UNL     1      10.970 -30.284  21.364  1.00  0.00    -0.545 OA
ATOM      9  O   UNL     1      12.064 -28.958  22.871  1.00  0.00    -0.545 OA
ENDBRANCH   1   7
TORSDOF 1
ENDMDL
MODEL 5
REMARK VINA RESULT:    -4.114     10.659     11.094
REMARK INTER + INTRA:          -4.377
REMARK INTER:                  -4.360
REMARK INTRA:                  -0.016
REMARK UNBOUND:                -0.022
REMARK SMILES O=C([O-])c1cccnc1
REMARK SMILES IDX 4 1 5 2 9 3 6 4 8 5 7 6 2 7 1 8 3 9
REMARK H PARENT
REMARK Flexibility Score: inf
ROOT
ATOM      1  C   UNL     1      22.162 -25.670  19.940  1.00  0.00     0.016 A 
ATOM      2  C   UNL     1      20.788 -25.379  19.954  1.00  0.00     0.013 A 
ATOM      3  C   UNL     1      22.576 -26.957  20.331  1.00  0.00     0.120 A 
ATOM      4  C   UNL     1      19.869 -26.353  20.347  1.00  0.00     0.021 A 
ATOM      5  N   UNL     1      21.660 -27.887  20.709  1.00  0.00    -0.264 NA
ATOM      6  C   UNL     1      20.328 -27.615  20.726  1.00  0.00     0.111 A 
ENDROOT
BRANCH   1   7
ATOM      7  C   UNL     1      23.146 -24.647  19.525  1.00  0.00     0.073 C 
ATOM      8  O   UNL     1      23.584 -24.622  18.345  1.00  0.00    -0.545 OA
ATOM      9  O   UNL     1      23.599 -23.698  20.435  1.00  0.00    -0.545 OA
ENDBRANCH   1   7
TORSDOF 1
ENDMDL
MODEL 6
REMARK VINA RESULT:    -4.110     11.874     12.254
REMARK INTER + INTRA:          -4.373
REMARK INTER:                  -4.356
REMARK INTRA:                  -0.017
REMARK UNBOUND:                -0.022
REMARK SMILES O=C([O-])c1cccnc1
REMARK SMILES IDX 4 1 5 2 9 3 6 4 8 5 7 6 2 7 1 8 3 9
REMARK H PARENT
REMARK Flexibility Score: inf
ROOT
ATOM      1  C   UNL     1      22.720 -24.453  20.568  1.00  0.00     0.016 A 
ATOM      2  C   UNL     1      22.456 -23.938  21.848  1.00  0.00     0.013 A 
ATOM      3  C   UNL     1      23.726 -23.843  19.798  1.00  0.00     0.120 A 
ATOM      4  C   UNL     1      23.183 -22.848  22.329  1.00  0.00     0.021 A 
ATOM      5  N   UNL     1      24.420 -22.782  20.290  1.00  0.00    -0.264 NA
ATOM      6  C   UNL     1      24.171 -22.277  21.527  1.00  0.00     0.111 A 
ENDROOT
BRANCH   1   7
ATOM      7  C   UNL     1      21.957 -25.608  20.048  1.00  0.00     0.073 C 
ATOM      8  O   UNL     1      20.756 -25.475  19.693  1.00  0.00    -0.545 OA
ATOM      9  O   UNL     1      22.558 -26.857  19.942  1.00  0.00    -0.545 OA
ENDBRANCH   1   7
TORSDOF 1
ENDMDL
MODEL 7
REMARK VINA RESULT:    -4.100     11.347     11.783
REMARK INTER + INTRA:          -4.362
REMARK INTER:                  -4.346
REMARK INTRA:                  -0.016
REMARK UNBOUND:                -0.022
REMARK SMILES O=C([O-])c1cccnc1
REMARK SMILES IDX 4 1 5 2 9 3 6 4 8 5 7 6 2 7 1 8 3 9
REMARK H PARENT
REMARK Flexibility Score: inf
ROOT
ATOM      1  C   UNL     1      22.207 -24.934  20.387  1.00  0.00     0.016 A 
ATOM      2  C   UNL     1      23.032 -24.670  19.282  1.00  0.00     0.013 A 
ATOM      3  C   UNL     1      22.401 -24.182  21.560  1.00  0.00     0.120 A 
ATOM      4  C   UNL     1      24.017 -23.684  19.361  1.00  0.00     0.021 A 
ATOM      5  N   UNL     1      23.367 -23.227  21.611  1.00  0.00    -0.264 NA
ATOM      6  C   UNL     1      24.171 -22.965  20.547  1.00  0.00     0.111 A 
ENDROOT
BRANCH   1   7
ATOM      7  C   UNL     1      21.160 -25.976  20.315  1.00  0.00     0.073 C 
ATOM      8  O   UNL     1      19.977 -25.676  20.003  1.00  0.00    -0.545 OA
ATOM      9  O   UNL     1      21.470 -27.303  20.590  1.00  0.00    -0.545 OA
ENDBRANCH   1   7
TORSDOF 1
ENDMDL
MODEL 8
REMARK VINA RESULT:    -4.044      2.758      3.717
REMARK INTER + INTRA:          -4.303
REMARK INTER:                  -4.279
REMARK INTRA:                  -0.024
REMARK UNBOUND:                -0.022
REMARK SMILES O=C([O-])c1cccnc1
REMARK SMILES IDX 4 1 5 2 9 3 6 4 8 5 7 6 2 7 1 8 3 9
REMARK H PARENT
REMARK Flexibility Score: inf
ROOT
ATOM      1  C   UNL     1      12.720 -29.849  22.913  1.00  0.00     0.016 A 
ATOM      2  C   UNL     1      13.832 -30.343  23.612  1.00  0.00     0.013 A 
ATOM      3  C   UNL     1      12.352 -30.481  21.711  1.00  0.00     0.120 A 
ATOM      4  C   UNL     1      14.546 -31.435  23.114  1.00  0.00     0.021 A 
ATOM      5  N   UNL     1      13.064 -31.542  21.248  1.00  0.00    -0.264 NA
ATOM      6  C   UNL     1      14.143 -32.027  21.917  1.00  0.00     0.111 A 
ENDROOT
BRANCH   1   7
ATOM      7  C   UNL     1      11.955 -28.694  23.430  1.00  0.00     0.073 C 
ATOM      8  O   UNL     1      10.876 -28.342  22.883  1.00  0.00    -0.545 OA
ATOM      9  O   UNL     1      12.418 -27.980  24.530  1.00  0.00    -0.545 OA
ENDBRANCH   1   7
TORSDOF 1
ENDMDL
MODEL 9
REMARK VINA RESULT:    -3.945      2.224      3.252
REMARK INTER + INTRA:          -4.198
REMARK INTER:                  -4.174
REMARK INTRA:                  -0.024
REMARK UNBOUND:                -0.022
REMARK SMILES O=C([O-])c1cccnc1
REMARK SMILES IDX 4 1 5 2 9 3 6 4 8 5 7 6 2 7 1 8 3 9
REMARK H PARENT
REMARK Flexibility Score: inf
ROOT
ATOM      1  C   UNL     1      14.202 -32.548  21.673  1.00  0.00     0.016 A 
ATOM      2  C   UNL     1      13.354 -31.715  20.925  1.00  0.00     0.013 A 
ATOM      3  C   UNL     1      14.331 -32.304  23.052  1.00  0.00     0.120 A 
ATOM      4  C   UNL     1      12.664 -30.675  21.549  1.00  0.00     0.021 A 
ATOM      5  N   UNL     1      13.647 -31.284  23.635  1.00  0.00    -0.264 NA
ATOM      6  C   UNL     1      12.825 -30.472  22.920  1.00  0.00     0.111 A 
ENDROOT
BRANCH   1   7
ATOM      7  C   UNL     1      14.938 -33.653  21.023  1.00  0.00     0.073 C 
ATOM      8  O   UNL     1      14.671 -33.993  19.840  1.00  0.00    -0.545 OA
ATOM      9  O   UNL     1      15.939 -34.331  21.711  1.00  0.00    -0.545 OA
ENDBRANCH   1   7
TORSDOF 1
ENDMDL
