MODEL 1
REMARK VINA RESULT:    -3.106      0.000      0.000
REMARK INTER + INTRA:          -3.915
REMARK INTER:                  -3.833
REMARK INTRA:                  -0.082
REMARK UNBOUND:                -0.082
REMARK SMILES CCCCCC=O
REMARK SMILES IDX 4 1 3 2 2 3 1 4 5 5 6 6 7 7
REMARK H PARENT
REMARK Flexibility Score: inf
ROOT
ATOM      1  C   UNL     1       4.324  -4.331   7.319  1.00  0.00     0.008 C 
ENDROOT
BRANCH   1   2
ATOM      2  C   UNL     1       5.016  -3.137   8.008  1.00  0.00     0.000 C 
BRANCH   2   3
ATOM      3  C   UNL     1       5.857  -3.500   9.245  1.00  0.00    -0.003 C 
ATOM      4  C   UNL     1       5.856  -2.404  10.309  1.00  0.00     0.004 C 
ENDBRANCH   2   3
ENDBRANCH   1   2
BRANCH   1   5
ATOM      5  C   UNL     1       4.595  -5.691   7.981  1.00  0.00     0.072 C 
BRANCH   5   6
ATOM      6  C   UNL     1       3.601  -6.735   7.563  1.00  0.00     0.224 C 
ATOM      7  O   UNL     1       2.541  -6.855   8.157  1.00  0.00    -0.303 OA
ENDBRANCH   5   6
ENDBRANCH   1   5
TORSDOF 4
ENDMDL
MODEL 2
REMARK VINA RESULT:    -3.026      3.086      4.021
REMARK INTER + INTRA:          -3.816
REMARK INTER:                  -3.741
REMARK INTRA:                  -0.074
REMARK UNBOUND:                -0.082
REMARK SMILES CCCCCC=O
REMARK SMILES IDX 4 1 3 2 2 3 1 4 5 5 6 6 7 7
REMARK H PARENT
REMARK Flexibility Score: inf
ROOT
ATOM      1  C   UNL     1       5.369  -8.422   8.100  1.00  0.00     0.008 C 
ENDROOT
BRANCH   1   2
ATOM      2  C   UNL     1       6.880  -8.569   7.834  1.00  0.00     0.000 C 
BRANCH   2   3
ATOM      3  C   UNL     1       7.782  -7.666   8.695  1.00  0.00    -0.003 C 
ATOM      4  C   UNL     1       9.030  -7.188   7.953  1.00  0.00     0.004 C 
ENDBRANCH   2   3
ENDBRANCH   1   2
BRANCH   1   5
ATOM      5  C   UNL     1       4.837  -6.985   7.966  1.00  0.00     0.072 C 
BRANCH   5   6
ATOM      6  C   UNL     1       3.429  -6.946   7.446  1.00  0.00     0.224 C 
ATOM      7  O   UNL     1       2.484  -6.929   8.218  1.00  0.00    -0.303 OA
ENDBRANCH   5   6
ENDBRANCH   1   5
TORSDOF 4
ENDMDL
MODEL 3
REMARK VINA RESULT:    -2.975      1.472      2.040
REMARK INTER + INTRA:          -3.753
REMARK INTER:                  -3.678
REMARK INTRA:                  -0.075
REMARK UNBOUND:                -0.082
REMARK SMILES CCCCCC=O
REMARK SMILES IDX 4 1 3 2 2 3 1 4 5 5 6 6 7 7
REMARK H PARENT
REMARK Flexibility Score: inf
ROOT
ATOM      1  C   UNL     1       4.139  -4.741   6.183  1.00  0.00     0.008 C 
ENDROOT
BRANCH   1   2
ATOM      2  C   UNL     1       4.406  -4.151   7.582  1.00  0.00     0.000 C 
BRANCH   2   3
ATOM      3  C   UNL     1       5.011  -2.736   7.584  1.00  0.00    -0.003 C 
ATOM      4  C   UNL     1       4.796  -1.993   6.267  1.00  0.00     0.004 C 
ENDBRANCH   2   3
ENDBRANCH   1   2
BRANCH   1   5
ATOM      5  C   UNL     1       3.651  -6.199   6.190  1.00  0.00     0.072 C 
BRANCH   5   6
ATOM      6  C   UNL     1       3.550  -6.758   7.580  1.00  0.00     0.224 C 
ATOM      7  O   UNL     1       2.460  -6.923   8.103  1.00  0.00    -0.303 OA
ENDBRANCH   5   6
ENDBRANCH   1   5
TORSDOF 4
ENDMDL
MODEL 4
REMARK VINA RESULT:    -2.949      3.156      5.457
REMARK INTER + INTRA:          -3.721
REMARK INTER:                  -3.516
REMARK INTRA:                  -0.205
REMARK UNBOUND:                -0.082
REMARK SMILES CCCCCC=O
REMARK SMILES IDX 4 1 3 2 2 3 1 4 5 5 6 6 7 7
REMARK H PARENT
REMARK Flexibility Score: inf
ROOT
ATOM      1  C   UNL     1       5.087  -8.601   8.112  1.00  0.00     0.008 C 
ENDROOT
BRANCH   1   2
ATOM      2  C   UNL     1       4.787  -9.496   6.892  1.00  0.00     0.000 C 
BRANCH   2   3
ATOM      3  C   UNL     1       3.927 -10.736   7.193  1.00  0.00    -0.003 C 
ATOM      4  C   UNL     1       2.438 -10.415   7.311  1.00  0.00     0.004 C 
ENDBRANCH   2   3
ENDBRANCH   1   2
BRANCH   1   5
ATOM      5  C   UNL     1       4.845  -7.101   7.875  1.00  0.00     0.072 C 
BRANCH   5   6
ATOM      6  C   UNL     1       3.443  -6.817   7.422  1.00  0.00     0.224 C 
ATOM      7  O   UNL     1       2.510  -6.904   8.203  1.00  0.00    -0.303 OA
ENDBRANCH   5   6
ENDBRANCH   1   5
TORSDOF 4
ENDMDL
MODEL 5
REMARK VINA RESULT:    -2.887      3.839      4.868
REMARK INTER + INTRA:          -3.644
REMARK INTER:                  -3.496
REMARK INTRA:                  -0.148
REMARK UNBOUND:                -0.082
REMARK SMILES CCCCCC=O
REMARK SMILES IDX 4 1 3 2 2 3 1 4 5 5 6 6 7 7
REMARK H PARENT
REMARK Flexibility Score: inf
ROOT
ATOM      1  C   UNL     1       4.320  -9.451   6.279  1.00  0.00     0.008 C 
ENDROOT
BRANCH   1   2
ATOM      2  C   UNL     1       5.703  -9.953   6.741  1.00  0.00     0.000 C 
BRANCH   2   3
ATOM      3  C   UNL     1       6.796  -8.871   6.810  1.00  0.00    -0.003 C 
ATOM      4  C   UNL     1       7.063  -8.382   8.232  1.00  0.00     0.004 C 
ENDBRANCH   2   3
ENDBRANCH   1   2
BRANCH   1   5
ATOM      5  C   UNL     1       3.415  -8.948   7.415  1.00  0.00     0.072 C 
BRANCH   5   6
ATOM      6  C   UNL     1       3.333  -7.450   7.455  1.00  0.00     0.224 C 
ATOM      7  O   UNL     1       2.518  -6.893   8.174  1.00  0.00    -0.303 OA
ENDBRANCH   5   6
ENDBRANCH   1   5
TORSDOF 4
ENDMDL
MODEL 6
REMARK VINA RESULT:    -2.885     15.656     16.820
REMARK INTER + INTRA:          -3.642
REMARK INTER:                  -3.529
REMARK INTRA:                  -0.113
REMARK UNBOUND:                -0.082
REMARK SMILES CCCCCC=O
REMARK SMILES IDX 4 1 3 2 2 3 1 4 5 5 6 6 7 7
REMARK H PARENT
REMARK Flexibility Score: inf
ROOT
ATOM      1  C   UNL     1      17.466  -7.367  16.100  1.00  0.00     0.008 C 
ENDROOT
BRANCH   1   2
ATOM      2  C   UNL     1      17.695  -8.546  17.067  1.00  0.00     0.000 C 
BRANCH   2   3
ATOM      3  C   UNL     1      18.621  -9.654  16.534  1.00  0.00    -0.003 C 
ATOM      4  C   UNL     1      20.060  -9.182  16.330  1.00  0.00     0.004 C 
ENDBRANCH   2   3
ENDBRANCH   1   2
BRANCH   1   5
ATOM      5  C   UNL     1      17.048  -6.056  16.783  1.00  0.00     0.072 C 
BRANCH   5   6
ATOM      6  C   UNL     1      18.067  -5.582  17.778  1.00  0.00     0.224 C 
ATOM      7  O   UNL     1      19.136  -5.130  17.401  1.00  0.00    -0.303 OA
ENDBRANCH   5   6
ENDBRANCH   1   5
TORSDOF 4
ENDMDL
MODEL 7
REMARK VINA RESULT:    -2.835      1.483      2.292
REMARK INTER + INTRA:          -3.580
REMARK INTER:                  -3.332
REMARK INTRA:                  -0.248
REMARK UNBOUND:                -0.082
REMARK SMILES CCCCCC=O
REMARK SMILES IDX 4 1 3 2 2 3 1 4 5 5 6 6 7 7
REMARK H PARENT
REMARK Flexibility Score: inf
ROOT
ATOM      1  C   UNL     1       5.287  -6.675   6.923  1.00  0.00     0.008 C 
ENDROOT
BRANCH   1   2
ATOM      2  C   UNL     1       5.913  -5.930   8.119  1.00  0.00     0.000 C 
BRANCH   2   3
ATOM      3  C   UNL     1       5.148  -4.674   8.573  1.00  0.00    -0.003 C 
ATOM      4  C   UNL     1       4.402  -3.984   7.432  1.00  0.00     0.004 C 
ENDBRANCH   2   3
ENDBRANCH   1   2
BRANCH   1   5
ATOM      5  C   UNL     1       4.397  -7.867   7.312  1.00  0.00     0.072 C 
BRANCH   5   6
ATOM      6  C   UNL     1       2.938  -7.516   7.295  1.00  0.00     0.224 C 
ATOM      7  O   UNL     1       2.430  -6.929   8.237  1.00  0.00    -0.303 OA
ENDBRANCH   5   6
ENDBRANCH   1   5
TORSDOF 4
ENDMDL
MODEL 8
REMARK VINA RESULT:    -2.825      2.749      4.365
REMARK INTER + INTRA:          -3.568
REMARK INTER:                  -3.458
REMARK INTRA:                  -0.110
REMARK UNBOUND:                -0.082
REMARK SMILES CCCCCC=O
REMARK SMILES IDX 4 1 3 2 2 3 1 4 5 5 6 6 7 7
REMARK H PARENT
REMARK Flexibility Score: inf
ROOT
ATOM      1  C   UNL     1       4.113  -5.598   5.440  1.00  0.00     0.008 C 
ENDROOT
BRANCH   1   2
ATOM      2  C   UNL     1       2.769  -5.728   4.697  1.00  0.00     0.000 C 
BRANCH   2   3
ATOM      3  C   UNL     1       2.711  -5.019   3.332  1.00  0.00    -0.003 C 
ATOM      4  C   UNL     1       3.667  -3.831   3.235  1.00  0.00     0.004 C 
ENDBRANCH   2   3
ENDBRANCH   1   2
BRANCH   1   5
ATOM      5  C   UNL     1       3.989  -5.523   6.971  1.00  0.00     0.072 C 
BRANCH   5   6
ATOM      6  C   UNL     1       3.500  -6.811   7.566  1.00  0.00     0.224 C 
ATOM      7  O   UNL     1       2.434  -6.854   8.160  1.00  0.00    -0.303 OA
ENDBRANCH   5   6
ENDBRANCH   1   5
TORSDOF 4
ENDMDL
MODEL 9
REMARK VINA RESULT:    -2.803      3.704      6.150
REMARK INTER + INTRA:          -3.541
REMARK INTER:                  -3.359
REMARK INTRA:                  -0.183
REMARK UNBOUND:                -0.082
REMARK SMILES CCCCCC=O
REMARK SMILES IDX 4 1 3 2 2 3 1 4 5 5 6 6 7 7
REMARK H PARENT
REMARK Flexibility Score: inf
ROOT
ATOM      1  C   UNL     1       2.629  -8.974   5.706  1.00  0.00     0.008 C 
ENDROOT
BRANCH   1   2
ATOM      2  C   UNL     1       1.403  -9.695   6.301  1.00  0.00     0.000 C 
BRANCH   2   3
ATOM      3  C   UNL     1       1.730 -10.792   7.329  1.00  0.00    -0.003 C 
ATOM      4  C   UNL     1       3.198 -11.215   7.303  1.00  0.00     0.004 C 
ENDBRANCH   2   3
ENDBRANCH   1   2
BRANCH   1   5
ATOM      5  C   UNL     1       2.680  -7.464   5.992  1.00  0.00     0.072 C 
BRANCH   5   6
ATOM      6  C   UNL     1       3.225  -7.162   7.357  1.00  0.00     0.224 C 
ATOM      7  O   UNL     1       2.472  -6.892   8.280  1.00  0.00    -0.303 OA
ENDBRANCH   5   6
ENDBRANCH   1   5
TORSDOF 4
ENDMDL
