MODEL 1
REMARK VINA RESULT:    -1.458      0.000      0.000
REMARK INTER + INTRA:          -4.018
REMARK INTER:                  -2.183
REMARK INTRA:                  -1.835
REMARK UNBOUND:                -1.835
REMARK SMILES C=C(CC[C@@H](C(=O)[O-])[C@H]1[C@@H](O)C[C@]2(C)C3=C(CC[C@]12C)[C@@]1(C)CC[C@@H](OC(C)=O)C(C)(C)[C@@H]1CC3)C(C)C
REMARK SMILES IDX 4 1 5 2 6 3 7 4 8 5 9 6 10 7 19 8 12 9 13 10 18 11 20 12
REMARK SMILES IDX 14 13 15 14 17 15 16 16 35 17 21 18 34 19 33 20 23 21 22 22
REMARK SMILES IDX 30 23 24 24 25 25 31 26 32 27 11 28 26 30 27 31 29 32 28 33
REMARK SMILES IDX 3 34 2 35 1 36 36 37 37 38 38 39
REMARK H PARENT 11 29
REMARK Flexibility Score: inf
ROOT
ATOM      1  C   UNL     1      93.388  28.975   6.862  1.00  0.00     0.014 C 
ENDROOT
BRANCH   1   2
ATOM      2  C   UNL     1      92.683  28.775   8.228  1.00  0.00     0.042 C 
BRANCH   2   3
ATOM      3  C   UNL     1      92.878  27.347   8.682  1.00  0.00     0.045 C 
ATOM      4  O   UNL     1      91.903  26.685   9.121  1.00  0.00    -0.550 OA
ATOM      5  O   UNL     1      94.140  26.764   8.646  1.00  0.00    -0.550 OA
ENDBRANCH   2   3
BRANCH   2   6
ATOM      6  C   UNL     1      93.118  29.758   9.376  1.00  0.00     0.033 C 
ATOM      7  C   UNL     1      94.348  30.636   9.148  1.00  0.00     0.119 C 
ATOM      8  C   UNL     1      92.037  30.695   9.997  1.00  0.00    -0.017 C 
ATOM      9  C   UNL     1      94.377  31.518  10.391  1.00  0.00     0.043 C 
ATOM     10  C   UNL     1      92.904  31.694  10.905  1.00  0.00    -0.003 C 
ATOM     11  C   UNL     1      91.026  29.848  10.824  1.00  0.00     0.012 C 
ATOM     12  C   UNL     1      91.230  31.429   8.883  1.00  0.00     0.013 C 
ATOM     13  C   UNL     1      92.508  33.189  10.740  1.00  0.00     0.017 C 
ATOM     14  C   UNL     1      92.790  31.399  12.431  1.00  0.00    -0.064 C 
ATOM     15  C   UNL     1      90.484  30.644  11.996  1.00  0.00     0.032 C 
ATOM     16  C   UNL     1      91.620  30.915  12.965  1.00  0.00    -0.064 C 
ATOM     17  C   UNL     1      93.978  31.758  13.325  1.00  0.00     0.032 C 
ATOM     18  C   UNL     1      91.354  30.854  14.497  1.00  0.00    -0.008 C 
ATOM     19  C   UNL     1      93.640  31.946  14.799  1.00  0.00     0.009 C 
ATOM     20  C   UNL     1      92.728  30.794  15.257  1.00  0.00     0.009 C 
ATOM     21  C   UNL     1      90.550  29.573  14.881  1.00  0.00     0.015 C 
ATOM     22  C   UNL     1      90.494  32.106  14.819  1.00  0.00     0.016 C 
ATOM     23  C   UNL     1      92.682  30.541  16.816  1.00  0.00     0.005 C 
ATOM     24  C   UNL     1      90.433  29.347  16.399  1.00  0.00     0.047 C 
ATOM     25  C   UNL     1      91.794  29.286  17.104  1.00  0.00     0.182 C 
ATOM     26  C   UNL     1      94.115  30.239  17.341  1.00  0.00     0.015 C 
ATOM     27  C   UNL     1      92.163  31.761  17.627  1.00  0.00     0.015 C 
BRANCH   7  28
ATOM     28  O   UNL     1      94.227  31.441   8.005  1.00  0.00    -0.393 OA
ATOM     29  H   UNL     1      95.010  32.056   8.005  1.00  0.00     0.210 HD
ENDBRANCH   7  28
BRANCH  25  30
ATOM     30  O   UNL     1      92.455  28.084  16.684  1.00  0.00    -0.462 OA
BRANCH  30  31
ATOM     31  C   UNL     1      91.983  26.793  16.944  1.00  0.00     0.302 C 
ATOM     32  O   UNL     1      91.856  26.375  18.125  1.00  0.00    -0.253 OA
ATOM     33  C   UNL     1      91.685  25.876  15.804  1.00  0.00     0.139 C 
ENDBRANCH  30  31
ENDBRANCH  25  30
ENDBRANCH   2   6
ENDBRANCH   1   2
BRANCH   1  34
ATOM     34  C   UNL     1      92.559  28.401   5.698  1.00  0.00     0.031 C 
BRANCH  34  35
ATOM     35  C   UNL     1      91.212  29.084   5.602  1.00  0.00    -0.075 C 
ATOM     36  C   UNL     1      91.153  30.389   5.268  1.00  0.00     0.008 C 
BRANCH  35  37
ATOM     37  C   UNL     1      89.943  28.284   5.861  1.00  0.00     0.008 C 
ATOM     38  C   UNL     1      89.208  28.790   7.106  1.00  0.00     0.012 C 
ATOM     39  C   UNL     1      90.233  26.781   5.959  1.00  0.00     0.012 C 
ENDBRANCH  35  37
ENDBRANCH  34  35
ENDBRANCH   1  34
TORSDOF 9
ENDMDL
MODEL 2
REMARK VINA RESULT:    -1.433      2.958      9.069
REMARK INTER + INTRA:          -3.980
REMARK INTER:                  -2.204
REMARK INTRA:                  -1.776
REMARK UNBOUND:                -1.835
REMARK SMILES C=C(CC[C@@H](C(=O)[O-])[C@H]1[C@@H](O)C[C@]2(C)C3=C(CC[C@]12C)[C@@]1(C)CC[C@@H](OC(C)=O)C(C)(C)[C@@H]1CC3)C(C)C
REMARK SMILES IDX 4 1 5 2 6 3 7 4 8 5 9 6 10 7 19 8 12 9 13 10 18 11 20 12
REMARK SMILES IDX 14 13 15 14 17 15 16 16 35 17 21 18 34 19 33 20 23 21 22 22
REMARK SMILES IDX 30 23 24 24 25 25 31 26 32 27 11 28 26 30 27 31 29 32 28 33
REMARK SMILES IDX 3 34 2 35 1 36 36 37 37 38 38 39
REMARK H PARENT 11 29
REMARK Flexibility Score: inf
ROOT
ATOM      1  C   UNL     1      91.506  29.935  14.793  1.00  0.00     0.014 C 
ENDROOT
BRANCH   1   2
ATOM      2  C   UNL     1      90.608  29.278  13.715  1.00  0.00     0.042 C 
BRANCH   2   3
ATOM      3  C   UNL     1      89.284  30.006  13.664  1.00  0.00     0.045 C 
ATOM      4  O   UNL     1      88.321  29.615  14.373  1.00  0.00    -0.550 OA
ATOM      5  O   UNL     1      89.111  31.092  12.813  1.00  0.00    -0.550 OA
ENDBRANCH   2   3
BRANCH   2   6
ATOM      6  C   UNL     1      91.220  29.193  12.269  1.00  0.00     0.033 C 
ATOM      7  C   UNL     1      92.594  29.818  12.029  1.00  0.00     0.119 C 
ATOM      8  C   UNL     1      91.255  27.804  11.561  1.00  0.00    -0.017 C 
ATOM      9  C   UNL     1      92.899  29.433  10.585  1.00  0.00     0.043 C 
ATOM     10  C   UNL     1      92.167  28.081  10.270  1.00  0.00    -0.003 C 
ATOM     11  C   UNL     1      89.806  27.368  11.196  1.00  0.00     0.012 C 
ATOM     12  C   UNL     1      91.847  26.713  12.504  1.00  0.00     0.013 C 
ATOM     13  C   UNL     1      93.248  26.990  10.026  1.00  0.00     0.017 C 
ATOM     14  C   UNL     1      91.353  28.164   8.944  1.00  0.00    -0.064 C 
ATOM     15  C   UNL     1      89.794  26.530   9.932  1.00  0.00     0.032 C 
ATOM     16  C   UNL     1      90.223  27.403   8.767  1.00  0.00    -0.064 C 
ATOM     17  C   UNL     1      91.903  29.037   7.815  1.00  0.00     0.032 C 
ATOM     18  C   UNL     1      89.524  27.239   7.386  1.00  0.00    -0.008 C 
ATOM     19  C   UNL     1      91.393  28.684   6.422  1.00  0.00     0.009 C 
ATOM     20  C   UNL     1      89.869  28.478   6.483  1.00  0.00     0.009 C 
ATOM     21  C   UNL     1      87.972  27.188   7.540  1.00  0.00     0.015 C 
ATOM     22  C   UNL     1      90.022  25.878   6.828  1.00  0.00     0.016 C 
ATOM     23  C   UNL     1      89.109  28.601   5.103  1.00  0.00     0.005 C 
ATOM     24  C   UNL     1      87.216  27.234   6.201  1.00  0.00     0.047 C 
ATOM     25  C   UNL     1      87.572  28.462   5.351  1.00  0.00     0.182 C 
ATOM     26  C   UNL     1      89.366  30.006   4.487  1.00  0.00     0.015 C 
ATOM     27  C   UNL     1      89.576  27.563   4.044  1.00  0.00     0.015 C 
BRANCH   7  28
ATOM     28  O   UNL     1      93.580  29.286  12.874  1.00  0.00    -0.393 OA
ATOM     29  H   UNL     1      94.391  29.147  12.313  1.00  0.00     0.210 HD
ENDBRANCH   7  28
BRANCH  25  30
ATOM     30  O   UNL     1      87.054  29.623   6.015  1.00  0.00    -0.462 OA
BRANCH  30  31
ATOM     31  C   UNL     1      85.695  29.853   6.256  1.00  0.00     0.302 C 
ATOM     32  O   UNL     1      84.870  29.916   5.307  1.00  0.00    -0.253 OA
ATOM     33  C   UNL     1      85.225  30.088   7.654  1.00  0.00     0.139 C 
ENDBRANCH  30  31
ENDBRANCH  25  30
ENDBRANCH   2   6
ENDBRANCH   1   2
BRANCH   1  34
ATOM     34  C   UNL     1      92.034  28.904  15.809  1.00  0.00     0.031 C 
BRANCH  34  35
ATOM     35  C   UNL     1      90.899  28.305  16.613  1.00  0.00    -0.075 C 
ATOM     36  C   UNL     1      90.118  29.111  17.359  1.00  0.00     0.008 C 
BRANCH  35  37
ATOM     37  C   UNL     1      90.643  26.805  16.548  1.00  0.00     0.008 C 
ATOM     38  C   UNL     1      91.921  26.036  16.203  1.00  0.00     0.012 C 
ATOM     39  C   UNL     1      89.510  26.467  15.572  1.00  0.00     0.012 C 
ENDBRANCH  35  37
ENDBRANCH  34  35
ENDBRANCH   1  34
TORSDOF 9
ENDMDL
MODEL 3
REMARK VINA RESULT:    -1.403      3.002      9.046
REMARK INTER + INTRA:          -3.936
REMARK INTER:                  -2.326
REMARK INTRA:                  -1.610
REMARK UNBOUND:                -1.835
REMARK SMILES C=C(CC[C@@H](C(=O)[O-])[C@H]1[C@@H](O)C[C@]2(C)C3=C(CC[C@]12C)[C@@]1(C)CC[C@@H](OC(C)=O)C(C)(C)[C@@H]1CC3)C(C)C
REMARK SMILES IDX 4 1 5 2 6 3 7 4 8 5 9 6 10 7 19 8 12 9 13 10 18 11 20 12
REMARK SMILES IDX 14 13 15 14 17 15 16 16 35 17 21 18 34 19 33 20 23 21 22 22
REMARK SMILES IDX 30 23 24 24 25 25 31 26 32 27 11 28 26 30 27 31 29 32 28 33
REMARK SMILES IDX 3 34 2 35 1 36 36 37 37 38 38 39
REMARK H PARENT 11 29
REMARK Flexibility Score: inf
ROOT
ATOM      1  C   UNL     1      91.632  30.225  14.936  1.00  0.00     0.014 C 
ENDROOT
BRANCH   1   2
ATOM      2  C   UNL     1      90.781  29.328  14.001  1.00  0.00     0.042 C 
BRANCH   2   3
ATOM      3  C   UNL     1      89.342  29.790  14.048  1.00  0.00     0.045 C 
ATOM      4  O   UNL     1      88.947  30.703  13.278  1.00  0.00    -0.550 OA
ATOM      5  O   UNL     1      88.454  29.230  14.959  1.00  0.00    -0.550 OA
ENDBRANCH   2   3
BRANCH   2   6
ATOM      6  C   UNL     1      91.261  29.244  12.506  1.00  0.00     0.033 C 
ATOM      7  C   UNL     1      92.632  29.821  12.154  1.00  0.00     0.119 C 
ATOM      8  C   UNL     1      91.179  27.868  11.778  1.00  0.00    -0.017 C 
ATOM      9  C   UNL     1      92.794  29.449  10.684  1.00  0.00     0.043 C 
ATOM     10  C   UNL     1      91.985  28.131  10.416  1.00  0.00    -0.003 C 
ATOM     11  C   UNL     1      89.686  27.494  11.537  1.00  0.00     0.012 C 
ATOM     12  C   UNL     1      91.807  26.738  12.651  1.00  0.00     0.013 C 
ATOM     13  C   UNL     1      92.996  27.004  10.063  1.00  0.00     0.017 C 
ATOM     14  C   UNL     1      91.062  28.269   9.168  1.00  0.00    -0.064 C 
ATOM     15  C   UNL     1      89.531  26.678  10.267  1.00  0.00     0.032 C 
ATOM     16  C   UNL     1      89.891  27.555   9.080  1.00  0.00    -0.064 C 
ATOM     17  C   UNL     1      91.545  29.139   8.007  1.00  0.00     0.032 C 
ATOM     18  C   UNL     1      89.068  27.441   7.765  1.00  0.00    -0.008 C 
ATOM     19  C   UNL     1      90.901  28.830   6.660  1.00  0.00     0.009 C 
ATOM     20  C   UNL     1      89.382  28.681   6.852  1.00  0.00     0.009 C 
ATOM     21  C   UNL     1      87.535  27.447   8.054  1.00  0.00     0.015 C 
ATOM     22  C   UNL     1      89.461  26.072   7.146  1.00  0.00     0.016 C 
ATOM     23  C   UNL     1      88.510  28.857   5.546  1.00  0.00     0.005 C 
ATOM     24  C   UNL     1      86.667  27.545   6.787  1.00  0.00     0.047 C 
ATOM     25  C   UNL     1      86.996  28.772   5.926  1.00  0.00     0.182 C 
ATOM     26  C   UNL     1      88.767  30.261   4.929  1.00  0.00     0.015 C 
ATOM     27  C   UNL     1      88.841  27.820   4.436  1.00  0.00     0.015 C 
BRANCH   7  28
ATOM     28  O   UNL     1      93.666  29.236  12.902  1.00  0.00    -0.393 OA
ATOM     29  H   UNL     1      94.247  28.752  12.254  1.00  0.00     0.210 HD
ENDBRANCH   7  28
BRANCH  25  30
ATOM     30  O   UNL     1      86.584  29.942   6.649  1.00  0.00    -0.462 OA
BRANCH  30  31
ATOM     31  C   UNL     1      85.263  30.215   7.020  1.00  0.00     0.302 C 
ATOM     32  O   UNL     1      84.353  30.305   6.154  1.00  0.00    -0.253 OA
ATOM     33  C   UNL     1      84.938  30.464   8.456  1.00  0.00     0.139 C 
ENDBRANCH  30  31
ENDBRANCH  25  30
ENDBRANCH   2   6
ENDBRANCH   1   2
BRANCH   1  34
ATOM     34  C   UNL     1      92.472  29.392  15.923  1.00  0.00     0.031 C 
BRANCH  34  35
ATOM     35  C   UNL     1      91.588  28.516  16.784  1.00  0.00    -0.075 C 
ATOM     36  C   UNL     1      90.718  29.090  17.640  1.00  0.00     0.008 C 
BRANCH  35  37
ATOM     37  C   UNL     1      91.676  27.002  16.655  1.00  0.00     0.008 C 
ATOM     38  C   UNL     1      90.369  26.412  16.115  1.00  0.00     0.012 C 
ATOM     39  C   UNL     1      92.076  26.343  17.980  1.00  0.00     0.012 C 
ENDBRANCH  35  37
ENDBRANCH  34  35
ENDBRANCH   1  34
TORSDOF 9
ENDMDL
MODEL 4
REMARK VINA RESULT:    -1.384      3.286      8.899
REMARK INTER + INTRA:          -3.907
REMARK INTER:                  -2.182
REMARK INTRA:                  -1.726
REMARK UNBOUND:                -1.835
REMARK SMILES C=C(CC[C@@H](C(=O)[O-])[C@H]1[C@@H](O)C[C@]2(C)C3=C(CC[C@]12C)[C@@]1(C)CC[C@@H](OC(C)=O)C(C)(C)[C@@H]1CC3)C(C)C
REMARK SMILES IDX 4 1 5 2 6 3 7 4 8 5 9 6 10 7 19 8 12 9 13 10 18 11 20 12
REMARK SMILES IDX 14 13 15 14 17 15 16 16 35 17 21 18 34 19 33 20 23 21 22 22
REMARK SMILES IDX 30 23 24 24 25 25 31 26 32 27 11 28 26 30 27 31 29 32 28 33
REMARK SMILES IDX 3 34 2 35 1 36 36 37 37 38 38 39
REMARK H PARENT 11 29
REMARK Flexibility Score: inf
ROOT
ATOM      1  C   UNL     1      92.681  31.985  14.535  1.00  0.00     0.014 C 
ENDROOT
BRANCH   1   2
ATOM      2  C   UNL     1      91.387  31.289  14.043  1.00  0.00     0.042 C 
BRANCH   2   3
ATOM      3  C   UNL     1      90.347  32.341  13.732  1.00  0.00     0.045 C 
ATOM      4  O   UNL     1      90.282  32.844  12.580  1.00  0.00    -0.550 OA
ATOM      5  O   UNL     1      89.475  32.782  14.721  1.00  0.00    -0.550 OA
ENDBRANCH   2   3
BRANCH   2   6
ATOM      6  C   UNL     1      91.549  30.327  12.810  1.00  0.00     0.033 C 
ATOM      7  C   UNL     1      92.952  30.115  12.239  1.00  0.00     0.119 C 
ATOM      8  C   UNL     1      90.904  28.910  12.886  1.00  0.00    -0.017 C 
ATOM      9  C   UNL     1      92.730  29.052  11.169  1.00  0.00     0.043 C 
ATOM     10  C   UNL     1      91.505  28.169  11.597  1.00  0.00    -0.003 C 
ATOM     11  C   UNL     1      89.353  29.041  12.841  1.00  0.00     0.012 C 
ATOM     12  C   UNL     1      91.273  28.201  14.225  1.00  0.00     0.013 C 
ATOM     13  C   UNL     1      92.021  26.731  11.888  1.00  0.00     0.017 C 
ATOM     14  C   UNL     1      90.476  28.015  10.436  1.00  0.00    -0.064 C 
ATOM     15  C   UNL     1      88.726  27.836  12.164  1.00  0.00     0.032 C 
ATOM     16  C   UNL     1      89.141  27.832  10.703  1.00  0.00    -0.064 C 
ATOM     17  C   UNL     1      91.008  27.971   9.003  1.00  0.00     0.032 C 
ATOM     18  C   UNL     1      88.113  27.408   9.615  1.00  0.00    -0.008 C 
ATOM     19  C   UNL     1      90.079  27.312   7.991  1.00  0.00     0.009 C 
ATOM     20  C   UNL     1      88.649  27.842   8.203  1.00  0.00     0.009 C 
ATOM     21  C   UNL     1      86.738  28.112   9.831  1.00  0.00     0.015 C 
ATOM     22  C   UNL     1      87.930  25.876   9.791  1.00  0.00     0.016 C 
ATOM     23  C   UNL     1      87.671  27.671   6.974  1.00  0.00     0.005 C 
ATOM     24  C   UNL     1      85.744  27.898   8.676  1.00  0.00     0.047 C 
ATOM     25  C   UNL     1      86.299  28.340   7.315  1.00  0.00     0.182 C 
ATOM     26  C   UNL     1      88.258  28.398   5.731  1.00  0.00     0.015 C 
ATOM     27  C   UNL     1      87.453  26.190   6.556  1.00  0.00     0.015 C 
BRANCH   7  28
ATOM     28  O   UNL     1      93.853  29.632  13.200  1.00  0.00    -0.393 OA
ATOM     29  H   UNL     1      94.031  30.384  13.828  1.00  0.00     0.210 HD
ENDBRANCH   7  28
BRANCH  25  30
ATOM     30  O   UNL     1      86.418  29.770   7.331  1.00  0.00    -0.462 OA
BRANCH  30  31
ATOM     31  C   UNL     1      85.339  30.649   7.472  1.00  0.00     0.302 C 
ATOM     32  O   UNL     1      84.388  30.645   6.647  1.00  0.00    -0.253 OA
ATOM     33  C   UNL     1      85.345  31.649   8.581  1.00  0.00     0.139 C 
ENDBRANCH  30  31
ENDBRANCH  25  30
ENDBRANCH   2   6
ENDBRANCH   1   2
BRANCH   1  34
ATOM     34  C   UNL     1      92.709  32.131  16.068  1.00  0.00     0.031 C 
BRANCH  34  35
ATOM     35  C   UNL     1      93.203  30.861  16.726  1.00  0.00    -0.075 C 
ATOM     36  C   UNL     1      94.447  30.415  16.457  1.00  0.00     0.008 C 
BRANCH  35  37
ATOM     37  C   UNL     1      92.298  30.118  17.699  1.00  0.00     0.008 C 
ATOM     38  C   UNL     1      92.565  28.610  17.668  1.00  0.00     0.012 C 
ATOM     39  C   UNL     1      90.818  30.425  17.442  1.00  0.00     0.012 C 
ENDBRANCH  35  37
ENDBRANCH  34  35
ENDBRANCH   1  34
TORSDOF 9
ENDMDL
MODEL 5
REMARK VINA RESULT:    -1.334      3.993      6.472
REMARK INTER + INTRA:          -3.831
REMARK INTER:                  -2.032
REMARK INTRA:                  -1.799
REMARK UNBOUND:                -1.835
REMARK SMILES C=C(CC[C@@H](C(=O)[O-])[C@H]1[C@@H](O)C[C@]2(C)C3=C(CC[C@]12C)[C@@]1(C)CC[C@@H](OC(C)=O)C(C)(C)[C@@H]1CC3)C(C)C
REMARK SMILES IDX 4 1 5 2 6 3 7 4 8 5 9 6 10 7 19 8 12 9 13 10 18 11 20 12
REMARK SMILES IDX 14 13 15 14 17 15 16 16 35 17 21 18 34 19 33 20 23 21 22 22
REMARK SMILES IDX 30 23 24 24 25 25 31 26 32 27 11 28 26 30 27 31 29 32 28 33
REMARK SMILES IDX 3 34 2 35 1 36 36 37 37 38 38 39
REMARK H PARENT 11 29
REMARK Flexibility Score: inf
ROOT
ATOM      1  C   UNL     1      92.537  26.908  10.843  1.00  0.00     0.014 C 
ENDROOT
BRANCH   1   2
ATOM      2  C   UNL     1      91.569  28.000  10.321  1.00  0.00     0.042 C 
BRANCH   2   3
ATOM      3  C   UNL     1      90.169  27.434  10.265  1.00  0.00     0.045 C 
ATOM      4  O   UNL     1      89.425  27.685   9.282  1.00  0.00    -0.550 OA
ATOM      5  O   UNL     1      89.681  26.657  11.310  1.00  0.00    -0.550 OA
ENDBRANCH   2   3
BRANCH   2   6
ATOM      6  C   UNL     1      91.561  29.352  11.125  1.00  0.00     0.033 C 
ATOM      7  C   UNL     1      92.169  29.361  12.527  1.00  0.00     0.119 C 
ATOM      8  C   UNL     1      92.096  30.635  10.421  1.00  0.00    -0.017 C 
ATOM      9  C   UNL     1      92.094  30.832  12.924  1.00  0.00     0.043 C 
ATOM     10  C   UNL     1      92.171  31.700  11.619  1.00  0.00    -0.003 C 
ATOM     11  C   UNL     1      91.110  31.060   9.293  1.00  0.00     0.012 C 
ATOM     12  C   UNL     1      93.480  30.368   9.753  1.00  0.00     0.013 C 
ATOM     13  C   UNL     1      93.499  32.508  11.651  1.00  0.00     0.017 C 
ATOM     14  C   UNL     1      91.035  32.766  11.571  1.00  0.00    -0.064 C 
ATOM     15  C   UNL     1      91.108  32.567   9.114  1.00  0.00     0.032 C 
ATOM     16  C   UNL     1      90.536  33.204  10.368  1.00  0.00    -0.064 C 
ATOM     17  C   UNL     1      90.568  33.380  12.891  1.00  0.00     0.032 C 
ATOM     18  C   UNL     1      89.604  34.444  10.242  1.00  0.00    -0.008 C 
ATOM     19  C   UNL     1      89.877  34.733  12.763  1.00  0.00     0.009 C 
ATOM     20  C   UNL     1      88.861  34.670  11.608  1.00  0.00     0.009 C 
ATOM     21  C   UNL     1      88.515  34.224   9.146  1.00  0.00     0.015 C 
ATOM     22  C   UNL     1      90.528  35.615   9.810  1.00  0.00     0.016 C 
ATOM     23  C   UNL     1      87.726  35.769  11.640  1.00  0.00     0.005 C 
ATOM     24  C   UNL     1      87.438  35.323   9.115  1.00  0.00     0.047 C 
ATOM     25  C   UNL     1      86.730  35.510  10.463  1.00  0.00     0.182 C 
ATOM     26  C   UNL     1      86.928  35.659  12.971  1.00  0.00     0.015 C 
ATOM     27  C   UNL     1      88.269  37.224  11.570  1.00  0.00     0.015 C 
BRANCH   7  28
ATOM     28  O   UNL     1      93.509  28.943  12.532  1.00  0.00    -0.393 OA
ATOM     29  H   UNL     1      94.064  29.766  12.595  1.00  0.00     0.210 HD
ENDBRANCH   7  28
BRANCH  25  30
ATOM     30  O   UNL     1      85.938  34.339  10.711  1.00  0.00    -0.462 OA
BRANCH  30  31
ATOM     31  C   UNL     1      84.824  33.965   9.953  1.00  0.00     0.302 C 
ATOM     32  O   UNL     1      84.803  32.873   9.326  1.00  0.00    -0.253 OA
ATOM     33  C   UNL     1      83.667  34.902   9.834  1.00  0.00     0.139 C 
ENDBRANCH  30  31
ENDBRANCH  25  30
ENDBRANCH   2   6
ENDBRANCH   1   2
BRANCH   1  34
ATOM     34  C   UNL     1      92.907  25.894   9.743  1.00  0.00     0.031 C 
BRANCH  34  35
ATOM     35  C   UNL     1      93.637  26.572   8.603  1.00  0.00    -0.075 C 
ATOM     36  C   UNL     1      94.886  27.040   8.801  1.00  0.00     0.008 C 
BRANCH  35  37
ATOM     37  C   UNL     1      92.961  26.693   7.245  1.00  0.00     0.008 C 
ATOM     38  C   UNL     1      92.710  28.159   6.876  1.00  0.00     0.012 C 
ATOM     39  C   UNL     1      91.665  25.876   7.183  1.00  0.00     0.012 C 
ENDBRANCH  35  37
ENDBRANCH  34  35
ENDBRANCH   1  34
TORSDOF 9
ENDMDL
MODEL 6
REMARK VINA RESULT:    -1.323      2.958      9.373
REMARK INTER + INTRA:          -3.815
REMARK INTER:                  -2.542
REMARK INTRA:                  -1.273
REMARK UNBOUND:                -1.835
REMARK SMILES C=C(CC[C@@H](C(=O)[O-])[C@H]1[C@@H](O)C[C@]2(C)C3=C(CC[C@]12C)[C@@]1(C)CC[C@@H](OC(C)=O)C(C)(C)[C@@H]1CC3)C(C)C
REMARK SMILES IDX 4 1 5 2 6 3 7 4 8 5 9 6 10 7 19 8 12 9 13 10 18 11 20 12
REMARK SMILES IDX 14 13 15 14 17 15 16 16 35 17 21 18 34 19 33 20 23 21 22 22
REMARK SMILES IDX 30 23 24 24 25 25 31 26 32 27 11 28 26 30 27 31 29 32 28 33
REMARK SMILES IDX 3 34 2 35 1 36 36 37 37 38 38 39
REMARK H PARENT 11 29
REMARK Flexibility Score: inf
ROOT
ATOM      1  C   UNL     1      91.247  29.742  14.353  1.00  0.00     0.014 C 
ENDROOT
BRANCH   1   2
ATOM      2  C   UNL     1      90.628  28.809  13.281  1.00  0.00     0.042 C 
BRANCH   2   3
ATOM      3  C   UNL     1      89.145  29.081  13.184  1.00  0.00     0.045 C 
ATOM      4  O   UNL     1      88.349  28.538  13.993  1.00  0.00    -0.550 OA
ATOM      5  O   UNL     1      88.646  29.909  12.185  1.00  0.00    -0.550 OA
ENDBRANCH   2   3
BRANCH   2   6
ATOM      6  C   UNL     1      91.274  28.883  11.849  1.00  0.00     0.033 C 
ATOM      7  C   UNL     1      92.590  29.646  11.690  1.00  0.00     0.119 C 
ATOM      8  C   UNL     1      91.451  27.559  11.046  1.00  0.00    -0.017 C 
ATOM      9  C   UNL     1      92.957  29.395  10.231  1.00  0.00     0.043 C 
ATOM     10  C   UNL     1      92.359  28.009   9.803  1.00  0.00    -0.003 C 
ATOM     11  C   UNL     1      90.054  27.022  10.614  1.00  0.00     0.012 C 
ATOM     12  C   UNL     1      92.121  26.459  11.926  1.00  0.00     0.013 C 
ATOM     13  C   UNL     1      93.539  27.040   9.511  1.00  0.00     0.017 C 
ATOM     14  C   UNL     1      91.567  28.115   8.465  1.00  0.00    -0.064 C 
ATOM     15  C   UNL     1      90.144  26.279   9.294  1.00  0.00     0.032 C 
ATOM     16  C   UNL     1      90.515  27.270   8.205  1.00  0.00    -0.064 C 
ATOM     17  C   UNL     1      92.056  29.112   7.414  1.00  0.00     0.032 C 
ATOM     18  C   UNL     1      89.861  27.144   6.798  1.00  0.00    -0.008 C 
ATOM     19  C   UNL     1      91.608  28.818   5.988  1.00  0.00     0.009 C 
ATOM     20  C   UNL     1      90.109  28.471   5.994  1.00  0.00     0.009 C 
ATOM     21  C   UNL     1      88.318  26.943   6.908  1.00  0.00     0.015 C 
ATOM     22  C   UNL     1      90.493  25.877   6.159  1.00  0.00     0.016 C 
ATOM     23  C   UNL     1      89.369  28.625   4.607  1.00  0.00     0.005 C 
ATOM     24  C   UNL     1      87.586  27.018   5.555  1.00  0.00     0.047 C 
ATOM     25  C   UNL     1      87.846  28.330   4.804  1.00  0.00     0.182 C 
ATOM     26  C   UNL     1      89.507  30.088   4.098  1.00  0.00     0.015 C 
ATOM     27  C   UNL     1      89.949  27.713   3.490  1.00  0.00     0.015 C 
BRANCH   7  28
ATOM     28  O   UNL     1      93.603  29.144  12.521  1.00  0.00    -0.393 OA
ATOM     29  H   UNL     1      94.095  28.460  11.989  1.00  0.00     0.210 HD
ENDBRANCH   7  28
BRANCH  25  30
ATOM     30  O   UNL     1      87.210  29.390   5.534  1.00  0.00    -0.462 OA
BRANCH  30  31
ATOM     31  C   UNL     1      85.974  29.950   5.195  1.00  0.00     0.302 C 
ATOM     32  O   UNL     1      85.349  30.681   6.008  1.00  0.00    -0.253 OA
ATOM     33  C   UNL     1      85.356  29.626   3.875  1.00  0.00     0.139 C 
ENDBRANCH  30  31
ENDBRANCH  25  30
ENDBRANCH   2   6
ENDBRANCH   1   2
BRANCH   1  34
ATOM     34  C   UNL     1      91.742  28.957  15.582  1.00  0.00     0.031 C 
BRANCH  34  35
ATOM     35  C   UNL     1      92.831  29.718  16.309  1.00  0.00    -0.075 C 
ATOM     36  C   UNL     1      93.172  29.353  17.561  1.00  0.00     0.008 C 
BRANCH  35  37
ATOM     37  C   UNL     1      93.542  30.867  15.607  1.00  0.00     0.008 C 
ATOM     38  C   UNL     1      95.044  30.598  15.479  1.00  0.00     0.012 C 
ATOM     39  C   UNL     1      93.274  32.206  16.303  1.00  0.00     0.012 C 
ENDBRANCH  35  37
ENDBRANCH  34  35
ENDBRANCH   1  34
TORSDOF 9
ENDMDL
MODEL 7
REMARK VINA RESULT:    -1.275      4.125      6.862
REMARK INTER + INTRA:          -3.743
REMARK INTER:                  -2.005
REMARK INTRA:                  -1.738
REMARK UNBOUND:                -1.835
REMARK SMILES C=C(CC[C@@H](C(=O)[O-])[C@H]1[C@@H](O)C[C@]2(C)C3=C(CC[C@]12C)[C@@]1(C)CC[C@@H](OC(C)=O)C(C)(C)[C@@H]1CC3)C(C)C
REMARK SMILES IDX 4 1 5 2 6 3 7 4 8 5 9 6 10 7 19 8 12 9 13 10 18 11 20 12
REMARK SMILES IDX 14 13 15 14 17 15 16 16 35 17 21 18 34 19 33 20 23 21 22 22
REMARK SMILES IDX 30 23 24 24 25 25 31 26 32 27 11 28 26 30 27 31 29 32 28 33
REMARK SMILES IDX 3 34 2 35 1 36 36 37 37 38 38 39
REMARK H PARENT 11 29
REMARK Flexibility Score: inf
ROOT
ATOM      1  C   UNL     1      89.665  27.758  13.856  1.00  0.00     0.014 C 
ENDROOT
BRANCH   1   2
ATOM      2  C   UNL     1      89.965  29.226  13.461  1.00  0.00     0.042 C 
BRANCH   2   3
ATOM      3  C   UNL     1      88.676  30.015  13.474  1.00  0.00     0.045 C 
ATOM      4  O   UNL     1      88.107  30.313  12.392  1.00  0.00    -0.550 OA
ATOM      5  O   UNL     1      88.124  30.442  14.677  1.00  0.00    -0.550 OA
ENDBRANCH   2   3
BRANCH   2   6
ATOM      6  C   UNL     1      91.045  29.966  14.333  1.00  0.00     0.033 C 
ATOM      7  C   UNL     1      91.601  29.243  15.560  1.00  0.00     0.119 C 
ATOM      8  C   UNL     1      92.279  30.588  13.611  1.00  0.00    -0.017 C 
ATOM      9  C   UNL     1      92.683  30.195  16.058  1.00  0.00     0.043 C 
ATOM     10  C   UNL     1      93.243  30.994  14.828  1.00  0.00    -0.003 C 
ATOM     11  C   UNL     1      91.825  31.813  12.764  1.00  0.00     0.012 C 
ATOM     12  C   UNL     1      92.929  29.562  12.634  1.00  0.00     0.013 C 
ATOM     13  C   UNL     1      94.726  30.578  14.614  1.00  0.00     0.017 C 
ATOM     14  C   UNL     1      93.276  32.526  15.107  1.00  0.00    -0.064 C 
ATOM     15  C   UNL     1      92.923  32.857  12.689  1.00  0.00     0.032 C 
ATOM     16  C   UNL     1      93.146  33.428  14.078  1.00  0.00    -0.064 C 
ATOM     17  C   UNL     1      93.558  32.993  16.535  1.00  0.00     0.032 C 
ATOM     18  C   UNL     1      93.435  34.948  14.246  1.00  0.00    -0.008 C 
ATOM     19  C   UNL     1      94.091  34.416  16.654  1.00  0.00     0.009 C 
ATOM     20  C   UNL     1      93.252  35.343  15.756  1.00  0.00     0.009 C 
ATOM     21  C   UNL     1      92.437  35.809  13.411  1.00  0.00     0.015 C 
ATOM     22  C   UNL     1      94.871  35.160  13.695  1.00  0.00     0.016 C 
ATOM     23  C   UNL     1      93.318  36.881  16.114  1.00  0.00     0.005 C 
ATOM     24  C   UNL     1      92.536  37.319  13.694  1.00  0.00     0.047 C 
ATOM     25  C   UNL     1      92.344  37.667  15.177  1.00  0.00     0.182 C 
ATOM     26  C   UNL     1      92.846  37.098  17.580  1.00  0.00     0.015 C 
ATOM     27  C   UNL     1      94.750  37.478  16.019  1.00  0.00     0.015 C 
BRANCH   7  28
ATOM     28  O   UNL     1      92.178  28.006  15.236  1.00  0.00    -0.393 OA
ATOM     29  H   UNL     1      91.464  27.321  15.347  1.00  0.00     0.210 HD
ENDBRANCH   7  28
BRANCH  25  30
ATOM     30  O   UNL     1      90.977  37.398  15.520  1.00  0.00    -0.462 OA
BRANCH  30  31
ATOM     31  C   UNL     1      89.878  38.046  14.944  1.00  0.00     0.302 C 
ATOM     32  O   UNL     1      89.749  39.296  15.023  1.00  0.00    -0.253 OA
ATOM     33  C   UNL     1      88.812  37.238  14.282  1.00  0.00     0.139 C 
ENDBRANCH  30  31
ENDBRANCH  25  30
ENDBRANCH   2   6
ENDBRANCH   1   2
BRANCH   1  34
ATOM     34  C   UNL     1      89.468  26.859  12.621  1.00  0.00     0.031 C 
BRANCH  34  35
ATOM     35  C   UNL     1      90.798  26.493  11.997  1.00  0.00    -0.075 C 
ATOM     36  C   UNL     1      91.733  25.875  12.746  1.00  0.00     0.008 C 
BRANCH  35  37
ATOM     37  C   UNL     1      91.051  26.806  10.529  1.00  0.00     0.008 C 
ATOM     38  C   UNL     1      92.548  26.807  10.209  1.00  0.00     0.012 C 
ATOM     39  C   UNL     1      90.393  28.127  10.111  1.00  0.00     0.012 C 
ENDBRANCH  35  37
ENDBRANCH  34  35
ENDBRANCH   1  34
TORSDOF 9
ENDMDL
MODEL 8
REMARK VINA RESULT:    -1.267      3.792      9.013
REMARK INTER + INTRA:          -3.733
REMARK INTER:                  -1.907
REMARK INTRA:                  -1.825
REMARK UNBOUND:                -1.835
REMARK SMILES C=C(CC[C@@H](C(=O)[O-])[C@H]1[C@@H](O)C[C@]2(C)C3=C(CC[C@]12C)[C@@]1(C)CC[C@@H](OC(C)=O)C(C)(C)[C@@H]1CC3)C(C)C
REMARK SMILES IDX 4 1 5 2 6 3 7 4 8 5 9 6 10 7 19 8 12 9 13 10 18 11 20 12
REMARK SMILES IDX 14 13 15 14 17 15 16 16 35 17 21 18 34 19 33 20 23 21 22 22
REMARK SMILES IDX 30 23 24 24 25 25 31 26 32 27 11 28 26 30 27 31 29 32 28 33
REMARK SMILES IDX 3 34 2 35 1 36 36 37 37 38 38 39
REMARK H PARENT 11 29
REMARK Flexibility Score: inf
ROOT
ATOM      1  C   UNL     1      94.554  30.691  14.566  1.00  0.00     0.014 C 
ENDROOT
BRANCH   1   2
ATOM      2  C   UNL     1      93.443  31.691  14.158  1.00  0.00     0.042 C 
BRANCH   2   3
ATOM      3  C   UNL     1      94.031  33.082  14.082  1.00  0.00     0.045 C 
ATOM      4  O   UNL     1      95.125  33.273  13.492  1.00  0.00    -0.550 OA
ATOM      5  O   UNL     1      93.383  34.153  14.688  1.00  0.00    -0.550 OA
ENDBRANCH   2   3
BRANCH   2   6
ATOM      6  C   UNL     1      92.682  31.366  12.820  1.00  0.00     0.033 C 
ATOM      7  C   UNL     1      93.225  30.243  11.937  1.00  0.00     0.119 C 
ATOM      8  C   UNL     1      91.139  31.153  12.879  1.00  0.00    -0.017 C 
ATOM      9  C   UNL     1      92.181  30.142  10.830  1.00  0.00     0.043 C 
ATOM     10  C   UNL     1      90.796  30.594  11.415  1.00  0.00    -0.003 C 
ATOM     11  C   UNL     1      90.438  32.508  13.190  1.00  0.00     0.012 C 
ATOM     12  C   UNL     1      90.757  30.159  14.017  1.00  0.00     0.013 C 
ATOM     13  C   UNL     1      89.848  29.361  11.425  1.00  0.00     0.017 C 
ATOM     14  C   UNL     1      90.101  31.645  10.498  1.00  0.00    -0.064 C 
ATOM     15  C   UNL     1      89.069  32.572  12.536  1.00  0.00     0.032 C 
ATOM     16  C   UNL     1      89.252  32.585  11.029  1.00  0.00    -0.064 C 
ATOM     17  C   UNL     1      90.313  31.536   8.988  1.00  0.00     0.032 C 
ATOM     18  C   UNL     1      88.329  33.481  10.153  1.00  0.00    -0.008 C 
ATOM     19  C   UNL     1      89.244  32.211   8.137  1.00  0.00     0.009 C 
ATOM     20  C   UNL     1      88.950  33.607   8.714  1.00  0.00     0.009 C 
ATOM     21  C   UNL     1      88.214  34.921  10.742  1.00  0.00     0.015 C 
ATOM     22  C   UNL     1      86.932  32.804  10.193  1.00  0.00     0.016 C 
ATOM     23  C   UNL     1      88.266  34.626   7.719  1.00  0.00     0.005 C 
ATOM     24  C   UNL     1      87.486  35.912   9.816  1.00  0.00     0.047 C 
ATOM     25  C   UNL     1      88.125  36.014   8.424  1.00  0.00     0.182 C 
ATOM     26  C   UNL     1      89.167  34.819   6.466  1.00  0.00     0.015 C 
ATOM     27  C   UNL     1      86.882  34.148   7.197  1.00  0.00     0.015 C 
BRANCH   7  28
ATOM     28  O   UNL     1      93.305  29.018  12.617  1.00  0.00    -0.393 OA
ATOM     29  H   UNL     1      94.258  28.900  12.880  1.00  0.00     0.210 HD
ENDBRANCH   7  28
BRANCH  25  30
ATOM     30  O   UNL     1      89.405  36.645   8.572  1.00  0.00    -0.462 OA
BRANCH  30  31
ATOM     31  C   UNL     1      89.589  37.968   8.990  1.00  0.00     0.302 C 
ATOM     32  O   UNL     1      90.232  38.232  10.040  1.00  0.00    -0.253 OA
ATOM     33  C   UNL     1      88.962  39.078   8.214  1.00  0.00     0.139 C 
ENDBRANCH  30  31
ENDBRANCH  25  30
ENDBRANCH   2   6
ENDBRANCH   1   2
BRANCH   1  34
ATOM     34  C   UNL     1      94.814  30.708  16.084  1.00  0.00     0.031 C 
BRANCH  34  35
ATOM     35  C   UNL     1      93.537  30.450  16.856  1.00  0.00    -0.075 C 
ATOM     36  C   UNL     1      92.953  29.237  16.784  1.00  0.00     0.008 C 
BRANCH  35  37
ATOM     37  C   UNL     1      92.946  31.555  17.720  1.00  0.00     0.008 C 
ATOM     38  C   UNL     1      91.585  32.013  17.185  1.00  0.00     0.012 C 
ATOM     39  C   UNL     1      93.912  32.737  17.865  1.00  0.00     0.012 C 
ENDBRANCH  35  37
ENDBRANCH  34  35
ENDBRANCH   1  34
TORSDOF 9
ENDMDL
MODEL 9
REMARK VINA RESULT:     1.243      4.432      8.408
REMARK INTER + INTRA:           0.025
REMARK INTER:                   1.791
REMARK INTRA:                  -1.766
REMARK UNBOUND:                -1.835
REMARK SMILES C=C(CC[C@@H](C(=O)[O-])[C@H]1[C@@H](O)C[C@]2(C)C3=C(CC[C@]12C)[C@@]1(C)CC[C@@H](OC(C)=O)C(C)(C)[C@@H]1CC3)C(C)C
REMARK SMILES IDX 4 1 5 2 6 3 7 4 8 5 9 6 10 7 19 8 12 9 13 10 18 11 20 12
REMARK SMILES IDX 14 13 15 14 17 15 16 16 35 17 21 18 34 19 33 20 23 21 22 22
REMARK SMILES IDX 30 23 24 24 25 25 31 26 32 27 11 28 26 30 27 31 29 32 28 33
REMARK SMILES IDX 3 34 2 35 1 36 36 37 37 38 38 39
REMARK H PARENT 11 29
REMARK Flexibility Score: inf
ROOT
ATOM      1  C   UNL     1      94.139  31.140  13.120  1.00  0.00     0.014 C 
ENDROOT
BRANCH   1   2
ATOM      2  C   UNL     1      92.613  31.369  13.263  1.00  0.00     0.042 C 
BRANCH   2   3
ATOM      3  C   UNL     1      92.264  32.737  12.722  1.00  0.00     0.045 C 
ATOM      4  O   UNL     1      92.276  32.947  11.482  1.00  0.00    -0.550 OA
ATOM      5  O   UNL     1      91.957  33.778  13.590  1.00  0.00    -0.550 OA
ENDBRANCH   2   3
BRANCH   2   6
ATOM      6  C   UNL     1      91.689  30.286  12.594  1.00  0.00     0.033 C 
ATOM      7  C   UNL     1      92.333  29.276  11.644  1.00  0.00     0.119 C 
ATOM      8  C   UNL     1      90.734  29.460  13.509  1.00  0.00    -0.017 C 
ATOM      9  C   UNL     1      91.179  28.338  11.307  1.00  0.00     0.043 C 
ATOM     10  C   UNL     1      90.186  28.320  12.522  1.00  0.00    -0.003 C 
ATOM     11  C   UNL     1      89.605  30.385  14.053  1.00  0.00     0.012 C 
ATOM     12  C   UNL     1      91.500  28.886  14.740  1.00  0.00     0.013 C 
ATOM     13  C   UNL     1      90.206  26.895  13.144  1.00  0.00     0.017 C 
ATOM     14  C   UNL     1      88.714  28.553  12.064  1.00  0.00    -0.064 C 
ATOM     15  C   UNL     1      88.319  29.606  14.258  1.00  0.00     0.032 C 
ATOM     16  C   UNL     1      87.806  29.151  12.904  1.00  0.00    -0.064 C 
ATOM     17  C   UNL     1      88.289  28.009  10.700  1.00  0.00     0.032 C 
ATOM     18  C   UNL     1      86.277  29.171  12.617  1.00  0.00    -0.008 C 
ATOM     19  C   UNL     1      86.790  27.792  10.532  1.00  0.00     0.009 C 
ATOM     20  C   UNL     1      86.041  29.025  11.070  1.00  0.00     0.009 C 
ATOM     21  C   UNL     1      85.635  30.522  13.063  1.00  0.00     0.015 C 
ATOM     22  C   UNL     1      85.679  28.020  13.470  1.00  0.00     0.016 C 
ATOM     23  C   UNL     1      84.563  29.207  10.543  1.00  0.00     0.005 C 
ATOM     24  C   UNL     1      84.170  30.687  12.620  1.00  0.00     0.047 C 
ATOM     25  C   UNL     1      83.981  30.546  11.104  1.00  0.00     0.182 C 
ATOM     26  C   UNL     1      84.568  29.305   8.991  1.00  0.00     0.015 C 
ATOM     27  C   UNL     1      83.625  28.022  10.907  1.00  0.00     0.015 C 
BRANCH   7  28
ATOM     28  O   UNL     1      93.364  28.547  12.256  1.00  0.00    -0.393 OA
ATOM     29  H   UNL     1      92.927  27.858  12.827  1.00  0.00     0.210 HD
ENDBRANCH   7  28
BRANCH  25  30
ATOM     30  O   UNL     1      84.602  31.676  10.475  1.00  0.00    -0.462 OA
BRANCH  30  31
ATOM     31  C   UNL     1      84.206  33.003  10.672  1.00  0.00     0.302 C 
ATOM     32  O   UNL     1      83.035  33.378  10.399  1.00  0.00    -0.253 OA
ATOM     33  C   UNL     1      85.204  34.005  11.154  1.00  0.00     0.139 C 
ENDBRANCH  30  31
ENDBRANCH  25  30
ENDBRANCH   2   6
ENDBRANCH   1   2
BRANCH   1  34
ATOM     34  C   UNL     1      94.791  30.753  14.461  1.00  0.00     0.031 C 
BRANCH  34  35
ATOM     35  C   UNL     1      94.637  31.863  15.479  1.00  0.00    -0.075 C 
ATOM     36  C   UNL     1      95.125  33.089  15.202  1.00  0.00     0.008 C 
BRANCH  35  37
ATOM     37  C   UNL     1      93.914  31.585  16.790  1.00  0.00     0.008 C 
ATOM     38  C   UNL     1      94.000  30.104  17.171  1.00  0.00     0.012 C 
ATOM     39  C   UNL     1      92.458  32.063  16.744  1.00  0.00     0.012 C 
ENDBRANCH  35  37
ENDBRANCH  34  35
ENDBRANCH   1  34
TORSDOF 9
ENDMDL
