MODEL 1
REMARK VINA RESULT:    -6.905      0.000      0.000
REMARK INTER + INTRA:          -8.378
REMARK INTER:                  -8.116
REMARK INTRA:                  -0.262
REMARK UNBOUND:                -0.262
REMARK SMILES O=c1cc(-c2ccc(O)c(O)c2)oc2cc(O)cc(O)c12
REMARK SMILES IDX 4 1 3 2 2 3 1 4 21 5 19 6 18 7 16 8 15 9 14 10 13 11 5 12
REMARK SMILES IDX 6 13 7 14 8 15 12 16 10 17 9 18 11 20 20 22 17 24
REMARK H PARENT 9 19 11 21 20 23 17 25
REMARK Flexibility Score: inf
ROOT
ATOM      1  C   UNL     1     -10.798  -7.688  -6.035  1.00  0.00     0.138 A 
ATOM      2  C   UNL     1     -10.889  -6.756  -4.994  1.00  0.00     0.100 A 
ATOM      3  C   UNL     1     -11.011  -5.398  -5.292  1.00  0.00     0.197 A 
ATOM      4  O   UNL     1     -11.028  -4.579  -4.337  1.00  0.00    -0.289 OA
ATOM      5  C   UNL     1     -11.076  -4.977  -6.642  1.00  0.00     0.107 A 
ATOM      6  C   UNL     1     -11.241  -3.624  -7.064  1.00  0.00     0.134 A 
ATOM      7  C   UNL     1     -11.174  -3.314  -8.429  1.00  0.00     0.093 A 
ATOM      8  C   UNL     1     -11.008  -4.312  -9.387  1.00  0.00     0.123 A 
ATOM      9  C   UNL     1     -10.898  -5.645  -8.988  1.00  0.00     0.094 A 
ATOM     10  C   UNL     1     -10.927  -5.983  -7.633  1.00  0.00     0.146 A 
ATOM     11  O   UNL     1     -10.805  -7.262  -7.294  1.00  0.00    -0.456 OA
ENDROOT
BRANCH   1  12
ATOM     12  C   UNL     1     -10.667  -9.144  -5.774  1.00  0.00     0.021 A 
ATOM     13  C   UNL     1     -11.755 -10.025  -5.926  1.00  0.00     0.016 A 
ATOM     14  C   UNL     1     -11.600 -11.392  -5.683  1.00  0.00     0.051 A 
ATOM     15  C   UNL     1     -10.357 -11.905  -5.294  1.00  0.00     0.157 A 
ATOM     16  C   UNL     1      -9.418  -9.670  -5.396  1.00  0.00     0.062 A 
ATOM     17  C   UNL     1      -9.263 -11.043  -5.151  1.00  0.00     0.158 A 
BRANCH  15  18
ATOM     18  O   UNL     1     -10.200 -13.267  -5.049  1.00  0.00    -0.504 OA
ATOM     19  H   UNL     1      -9.283 -13.698  -5.021  1.00  0.00     0.293 HD
ENDBRANCH  15  18
BRANCH  17  20
ATOM     20  O   UNL     1      -8.026 -11.556  -4.768  1.00  0.00    -0.504 OA
ATOM     21  H   UNL     1      -7.475 -11.121  -4.037  1.00  0.00     0.293 HD
ENDBRANCH  17  20
ENDBRANCH   1  12
BRANCH   6  22
ATOM     22  O   UNL     1     -11.499  -2.560  -6.194  1.00  0.00    -0.507 OA
ATOM     23  H   UNL     1     -11.436  -2.609  -5.189  1.00  0.00     0.293 HD
ENDBRANCH   6  22
BRANCH   8  24
ATOM     24  O   UNL     1     -10.960  -3.969 -10.736  1.00  0.00    -0.508 OA
ATOM     25  H   UNL     1     -10.549  -4.586 -11.427  1.00  0.00     0.293 HD
ENDBRANCH   8  24
TORSDOF 5
ENDMDL
MODEL 2
REMARK VINA RESULT:    -6.249      0.588      1.464
REMARK INTER + INTRA:          -7.607
REMARK INTER:                  -7.339
REMARK INTRA:                  -0.268
REMARK UNBOUND:                -0.262
REMARK SMILES O=c1cc(-c2ccc(O)c(O)c2)oc2cc(O)cc(O)c12
REMARK SMILES IDX 4 1 3 2 2 3 1 4 21 5 19 6 18 7 16 8 15 9 14 10 13 11 5 12
REMARK SMILES IDX 6 13 7 14 8 15 12 16 10 17 9 18 11 20 20 22 17 24
REMARK H PARENT 9 19 11 21 20 23 17 25
REMARK Flexibility Score: inf
ROOT
ATOM      1  C   UNL     1     -10.703  -7.643  -6.048  1.00  0.00     0.138 A 
ATOM      2  C   UNL     1     -10.864  -6.728  -4.999  1.00  0.00     0.100 A 
ATOM      3  C   UNL     1     -11.078  -5.379  -5.288  1.00  0.00     0.197 A 
ATOM      4  O   UNL     1     -11.157  -4.572  -4.325  1.00  0.00    -0.289 OA
ATOM      5  C   UNL     1     -11.162  -4.952  -6.634  1.00  0.00     0.107 A 
ATOM      6  C   UNL     1     -11.417  -3.610  -7.047  1.00  0.00     0.134 A 
ATOM      7  C   UNL     1     -11.363  -3.284  -8.408  1.00  0.00     0.093 A 
ATOM      8  C   UNL     1     -11.122  -4.261  -9.373  1.00  0.00     0.123 A 
ATOM      9  C   UNL     1     -10.924  -5.586  -8.984  1.00  0.00     0.094 A 
ATOM     10  C   UNL     1     -10.939  -5.937  -7.632  1.00  0.00     0.146 A 
ATOM     11  O   UNL     1     -10.732  -7.208  -7.303  1.00  0.00    -0.456 OA
ENDROOT
BRANCH   1  12
ATOM     12  C   UNL     1     -10.474  -9.089  -5.798  1.00  0.00     0.021 A 
ATOM     13  C   UNL     1      -9.233  -9.574  -5.343  1.00  0.00     0.016 A 
ATOM     14  C   UNL     1      -9.049 -10.940  -5.106  1.00  0.00     0.051 A 
ATOM     15  C   UNL     1     -10.101 -11.840  -5.311  1.00  0.00     0.157 A 
ATOM     16  C   UNL     1     -11.529 -10.000  -5.988  1.00  0.00     0.062 A 
ATOM     17  C   UNL     1     -11.344 -11.370  -5.752  1.00  0.00     0.158 A 
BRANCH  15  18
ATOM     18  O   UNL     1      -9.920 -13.202  -5.077  1.00  0.00    -0.504 OA
ATOM     19  H   UNL     1     -10.441 -13.902  -5.594  1.00  0.00     0.293 HD
ENDBRANCH  15  18
BRANCH  17  20
ATOM     20  O   UNL     1     -12.390 -12.268  -5.951  1.00  0.00    -0.504 OA
ATOM     21  H   UNL     1     -12.484 -13.107  -5.390  1.00  0.00     0.293 HD
ENDBRANCH  17  20
ENDBRANCH   1  12
BRANCH   6  22
ATOM     22  O   UNL     1     -11.752  -2.574  -6.169  1.00  0.00    -0.507 OA
ATOM     23  H   UNL     1     -12.155  -2.701  -5.254  1.00  0.00     0.293 HD
ENDBRANCH   6  22
BRANCH   8  24
ATOM     24  O   UNL     1     -11.090  -3.903 -10.719  1.00  0.00    -0.508 OA
ATOM     25  H   UNL     1     -11.823  -3.342 -11.137  1.00  0.00     0.293 HD
ENDBRANCH   8  24
TORSDOF 5
ENDMDL
MODEL 3
REMARK VINA RESULT:    -6.158      1.426      7.124
REMARK INTER + INTRA:          -7.500
REMARK INTER:                  -7.232
REMARK INTRA:                  -0.268
REMARK UNBOUND:                -0.262
REMARK SMILES O=c1cc(-c2ccc(O)c(O)c2)oc2cc(O)cc(O)c12
REMARK SMILES IDX 4 1 3 2 2 3 1 4 21 5 19 6 18 7 16 8 15 9 14 10 13 11 5 12
REMARK SMILES IDX 6 13 7 14 8 15 12 16 10 17 9 18 11 20 20 22 17 24
REMARK H PARENT 9 19 11 21 20 23 17 25
REMARK Flexibility Score: inf
ROOT
ATOM      1  C   UNL     1     -10.590  -7.703  -6.343  1.00  0.00     0.138 A 
ATOM      2  C   UNL     1      -9.364  -8.125  -5.812  1.00  0.00     0.100 A 
ATOM      3  C   UNL     1      -9.259  -9.394  -5.240  1.00  0.00     0.197 A 
ATOM      4  O   UNL     1      -8.163  -9.721  -4.717  1.00  0.00    -0.289 OA
ATOM      5  C   UNL     1     -10.382 -10.256  -5.230  1.00  0.00     0.107 A 
ATOM      6  C   UNL     1     -10.381 -11.585  -4.711  1.00  0.00     0.134 A 
ATOM      7  C   UNL     1     -11.583 -12.302  -4.649  1.00  0.00     0.093 A 
ATOM      8  C   UNL     1     -12.770 -11.762  -5.140  1.00  0.00     0.123 A 
ATOM      9  C   UNL     1     -12.772 -10.483  -5.699  1.00  0.00     0.094 A 
ATOM     10  C   UNL     1     -11.596  -9.730  -5.744  1.00  0.00     0.146 A 
ATOM     11  O   UNL     1     -11.643  -8.511  -6.271  1.00  0.00    -0.456 OA
ENDROOT
BRANCH   1  12
ATOM     12  C   UNL     1     -10.756  -6.364  -6.963  1.00  0.00     0.021 A 
ATOM     13  C   UNL     1     -10.403  -6.121  -8.304  1.00  0.00     0.016 A 
ATOM     14  C   UNL     1     -10.580  -4.853  -8.865  1.00  0.00     0.051 A 
ATOM     15  C   UNL     1     -11.119  -3.811  -8.102  1.00  0.00     0.157 A 
ATOM     16  C   UNL     1     -11.309  -5.315  -6.207  1.00  0.00     0.062 A 
ATOM     17  C   UNL     1     -11.485  -4.042  -6.770  1.00  0.00     0.158 A 
BRANCH  15  18
ATOM     18  O   UNL     1     -11.295  -2.546  -8.657  1.00  0.00    -0.504 OA
ATOM     19  H   UNL     1     -11.499  -2.423  -9.643  1.00  0.00     0.293 HD
ENDBRANCH  15  18
BRANCH  17  20
ATOM     20  O   UNL     1     -12.025  -3.005  -6.013  1.00  0.00    -0.504 OA
ATOM     21  H   UNL     1     -11.738  -2.043  -6.150  1.00  0.00     0.293 HD
ENDBRANCH  17  20
ENDBRANCH   1  12
BRANCH   6  22
ATOM     22  O   UNL     1      -9.233 -12.252  -4.271  1.00  0.00    -0.507 OA
ATOM     23  H   UNL     1      -8.750 -12.971  -4.788  1.00  0.00     0.293 HD
ENDBRANCH   6  22
BRANCH   8  24
ATOM     24  O   UNL     1     -13.944 -12.510  -5.075  1.00  0.00    -0.508 OA
ATOM     25  H   UNL     1     -14.462 -12.758  -5.910  1.00  0.00     0.293 HD
ENDBRANCH   8  24
TORSDOF 5
ENDMDL
MODEL 4
REMARK VINA RESULT:    -6.009      1.576      7.150
REMARK INTER + INTRA:          -7.325
REMARK INTER:                  -7.061
REMARK INTRA:                  -0.264
REMARK UNBOUND:                -0.262
REMARK SMILES O=c1cc(-c2ccc(O)c(O)c2)oc2cc(O)cc(O)c12
REMARK SMILES IDX 4 1 3 2 2 3 1 4 21 5 19 6 18 7 16 8 15 9 14 10 13 11 5 12
REMARK SMILES IDX 6 13 7 14 8 15 12 16 10 17 9 18 11 20 20 22 17 24
REMARK H PARENT 9 19 11 21 20 23 17 25
REMARK Flexibility Score: inf
ROOT
ATOM      1  C   UNL     1     -10.744  -7.960  -5.947  1.00  0.00     0.138 A 
ATOM      2  C   UNL     1      -9.427  -8.133  -5.503  1.00  0.00     0.100 A 
ATOM      3  C   UNL     1      -9.000  -9.395  -5.086  1.00  0.00     0.197 A 
ATOM      4  O   UNL     1      -7.831  -9.507  -4.634  1.00  0.00    -0.289 OA
ATOM      5  C   UNL     1      -9.890 -10.494  -5.144  1.00  0.00     0.107 A 
ATOM      6  C   UNL     1      -9.553 -11.833  -4.784  1.00  0.00     0.134 A 
ATOM      7  C   UNL     1     -10.550 -12.816  -4.772  1.00  0.00     0.093 A 
ATOM      8  C   UNL     1     -11.855 -12.523  -5.165  1.00  0.00     0.123 A 
ATOM      9  C   UNL     1     -12.184 -11.229  -5.571  1.00  0.00     0.094 A 
ATOM     10  C   UNL     1     -11.219 -10.219  -5.561  1.00  0.00     0.146 A 
ATOM     11  O   UNL     1     -11.576  -8.996  -5.941  1.00  0.00    -0.456 OA
ENDROOT
BRANCH   1  12
ATOM     12  C   UNL     1     -11.250  -6.640  -6.403  1.00  0.00     0.021 A 
ATOM     13  C   UNL     1     -12.213  -5.922  -5.668  1.00  0.00     0.016 A 
ATOM     14  C   UNL     1     -12.663  -4.677  -6.116  1.00  0.00     0.051 A 
ATOM     15  C   UNL     1     -12.155  -4.125  -7.298  1.00  0.00     0.157 A 
ATOM     16  C   UNL     1     -10.735  -6.071  -7.582  1.00  0.00     0.062 A 
ATOM     17  C   UNL     1     -11.188  -4.822  -8.032  1.00  0.00     0.158 A 
BRANCH  15  18
ATOM     18  O   UNL     1     -12.603  -2.884  -7.748  1.00  0.00    -0.504 OA
ATOM     19  H   UNL     1     -13.360  -2.394  -7.285  1.00  0.00     0.293 HD
ENDBRANCH  15  18
BRANCH  17  20
ATOM     20  O   UNL     1     -10.681  -4.269  -9.206  1.00  0.00    -0.504 OA
ATOM     21  H   UNL     1     -10.899  -3.319  -9.482  1.00  0.00     0.293 HD
ENDBRANCH  17  20
ENDBRANCH   1  12
BRANCH   6  22
ATOM     22  O   UNL     1      -8.259 -12.252  -4.457  1.00  0.00    -0.507 OA
ATOM     23  H   UNL     1      -7.420 -11.952  -4.928  1.00  0.00     0.293 HD
ENDBRANCH   6  22
BRANCH   8  24
ATOM     24  O   UNL     1     -12.818 -13.530  -5.155  1.00  0.00    -0.508 OA
ATOM     25  H   UNL     1     -12.716 -14.357  -4.578  1.00  0.00     0.293 HD
ENDBRANCH   8  24
TORSDOF 5
ENDMDL
MODEL 5
REMARK VINA RESULT:    -5.698      1.922      7.177
REMARK INTER + INTRA:          -6.959
REMARK INTER:                  -6.645
REMARK INTRA:                  -0.314
REMARK UNBOUND:                -0.262
REMARK SMILES O=c1cc(-c2ccc(O)c(O)c2)oc2cc(O)cc(O)c12
REMARK SMILES IDX 4 1 3 2 2 3 1 4 21 5 19 6 18 7 16 8 15 9 14 10 13 11 5 12
REMARK SMILES IDX 6 13 7 14 8 15 12 16 10 17 9 18 11 20 20 22 17 24
REMARK H PARENT 9 19 11 21 20 23 17 25
REMARK Flexibility Score: inf
ROOT
ATOM      1  C   UNL     1     -12.024  -8.592  -5.505  1.00  0.00     0.138 A 
ATOM      2  C   UNL     1     -13.135  -9.283  -5.005  1.00  0.00     0.100 A 
ATOM      3  C   UNL     1     -13.090 -10.673  -4.894  1.00  0.00     0.197 A 
ATOM      4  O   UNL     1     -14.125 -11.272  -4.500  1.00  0.00    -0.289 OA
ATOM      5  C   UNL     1     -11.912 -11.371  -5.256  1.00  0.00     0.107 A 
ATOM      6  C   UNL     1     -11.738 -12.782  -5.146  1.00  0.00     0.134 A 
ATOM      7  C   UNL     1     -10.570 -13.374  -5.643  1.00  0.00     0.093 A 
ATOM      8  C   UNL     1      -9.548 -12.600  -6.191  1.00  0.00     0.123 A 
ATOM      9  C   UNL     1      -9.686 -11.213  -6.255  1.00  0.00     0.094 A 
ATOM     10  C   UNL     1     -10.853 -10.597  -5.798  1.00  0.00     0.146 A 
ATOM     11  O   UNL     1     -10.951  -9.274  -5.889  1.00  0.00    -0.456 OA
ENDROOT
BRANCH   1  12
ATOM     12  C   UNL     1     -12.019  -7.113  -5.644  1.00  0.00     0.021 A 
ATOM     13  C   UNL     1     -12.943  -6.302  -4.958  1.00  0.00     0.016 A 
ATOM     14  C   UNL     1     -12.908  -4.912  -5.099  1.00  0.00     0.051 A 
ATOM     15  C   UNL     1     -11.947  -4.309  -5.919  1.00  0.00     0.157 A 
ATOM     16  C   UNL     1     -11.047  -6.497  -6.454  1.00  0.00     0.062 A 
ATOM     17  C   UNL     1     -11.014  -5.102  -6.597  1.00  0.00     0.158 A 
BRANCH  15  18
ATOM     18  O   UNL     1     -11.910  -2.923  -6.063  1.00  0.00    -0.504 OA
ATOM     19  H   UNL     1     -11.034  -2.425  -6.177  1.00  0.00     0.293 HD
ENDBRANCH  15  18
BRANCH  17  20
ATOM     20  O   UNL     1     -10.055  -4.500  -7.408  1.00  0.00    -0.504 OA
ATOM     21  H   UNL     1      -9.094  -4.394  -7.105  1.00  0.00     0.293 HD
ENDBRANCH  17  20
ENDBRANCH   1  12
BRANCH   6  22
ATOM     22  O   UNL     1     -12.661 -13.639  -4.538  1.00  0.00    -0.507 OA
ATOM     23  H   UNL     1     -13.308 -13.369  -3.813  1.00  0.00     0.293 HD
ENDBRANCH   6  22
BRANCH   8  24
ATOM     24  O   UNL     1      -8.393 -13.221  -6.664  1.00  0.00    -0.508 OA
ATOM     25  H   UNL     1      -8.396 -14.190  -6.960  1.00  0.00     0.293 HD
ENDBRANCH   8  24
TORSDOF 5
ENDMDL
MODEL 6
REMARK VINA RESULT:    -5.548      1.547      7.130
REMARK INTER + INTRA:          -6.783
REMARK INTER:                  -6.516
REMARK INTRA:                  -0.267
REMARK UNBOUND:                -0.262
REMARK SMILES O=c1cc(-c2ccc(O)c(O)c2)oc2cc(O)cc(O)c12
REMARK SMILES IDX 4 1 3 2 2 3 1 4 21 5 19 6 18 7 16 8 15 9 14 10 13 11 5 12
REMARK SMILES IDX 6 13 7 14 8 15 12 16 10 17 9 18 11 20 20 22 17 24
REMARK H PARENT 9 19 11 21 20 23 17 25
REMARK Flexibility Score: inf
ROOT
ATOM      1  C   UNL     1     -10.623  -7.695  -5.722  1.00  0.00     0.138 A 
ATOM      2  C   UNL     1     -11.576  -8.708  -5.881  1.00  0.00     0.100 A 
ATOM      3  C   UNL     1     -11.177 -10.045  -5.831  1.00  0.00     0.197 A 
ATOM      4  O   UNL     1     -12.046 -10.932  -6.040  1.00  0.00    -0.289 OA
ATOM      5  C   UNL     1      -9.820 -10.366  -5.589  1.00  0.00     0.107 A 
ATOM      6  C   UNL     1      -9.307 -11.692  -5.477  1.00  0.00     0.134 A 
ATOM      7  C   UNL     1      -7.925 -11.889  -5.351  1.00  0.00     0.093 A 
ATOM      8  C   UNL     1      -7.048 -10.808  -5.274  1.00  0.00     0.123 A 
ATOM      9  C   UNL     1      -7.546  -9.506  -5.329  1.00  0.00     0.094 A 
ATOM     10  C   UNL     1      -8.914  -9.277  -5.488  1.00  0.00     0.146 A 
ATOM     11  O   UNL     1      -9.347  -8.022  -5.550  1.00  0.00    -0.456 OA
ENDROOT
BRANCH   1  12
ATOM     12  C   UNL     1     -10.993  -6.257  -5.765  1.00  0.00     0.021 A 
ATOM     13  C   UNL     1     -11.559  -5.605  -4.653  1.00  0.00     0.016 A 
ATOM     14  C   UNL     1     -11.888  -4.248  -4.718  1.00  0.00     0.051 A 
ATOM     15  C   UNL     1     -11.651  -3.519  -5.890  1.00  0.00     0.157 A 
ATOM     16  C   UNL     1     -10.746  -5.513  -6.933  1.00  0.00     0.062 A 
ATOM     17  C   UNL     1     -11.078  -4.152  -6.999  1.00  0.00     0.158 A 
BRANCH  15  18
ATOM     18  O   UNL     1     -11.980  -2.166  -5.959  1.00  0.00    -0.504 OA
ATOM     19  H   UNL     1     -12.256  -1.733  -6.833  1.00  0.00     0.293 HD
ENDBRANCH  15  18
BRANCH  17  20
ATOM     20  O   UNL     1     -10.839  -3.423  -8.162  1.00  0.00    -0.504 OA
ATOM     21  H   UNL     1      -9.918  -3.063  -8.383  1.00  0.00     0.293 HD
ENDBRANCH  17  20
ENDBRANCH   1  12
BRANCH   6  22
ATOM     22  O   UNL     1     -10.105 -12.840  -5.457  1.00  0.00    -0.507 OA
ATOM     23  H   UNL     1     -10.215 -13.480  -6.228  1.00  0.00     0.293 HD
ENDBRANCH   6  22
BRANCH   8  24
ATOM     24  O   UNL     1      -5.682 -11.041  -5.135  1.00  0.00    -0.508 OA
ATOM     25  H   UNL     1      -5.185 -11.670  -5.755  1.00  0.00     0.293 HD
ENDBRANCH   8  24
TORSDOF 5
ENDMDL
MODEL 7
REMARK VINA RESULT:    -5.530      1.760      7.174
REMARK INTER + INTRA:          -6.762
REMARK INTER:                  -6.497
REMARK INTRA:                  -0.265
REMARK UNBOUND:                -0.262
REMARK SMILES O=c1cc(-c2ccc(O)c(O)c2)oc2cc(O)cc(O)c12
REMARK SMILES IDX 4 1 3 2 2 3 1 4 21 5 19 6 18 7 16 8 15 9 14 10 13 11 5 12
REMARK SMILES IDX 6 13 7 14 8 15 12 16 10 17 9 18 11 20 20 22 17 24
REMARK H PARENT 9 19 11 21 20 23 17 25
REMARK Flexibility Score: inf
ROOT
ATOM      1  C   UNL     1     -11.110  -8.679  -6.064  1.00  0.00     0.138 A 
ATOM      2  C   UNL     1      -9.950  -9.254  -5.527  1.00  0.00     0.100 A 
ATOM      3  C   UNL     1      -9.789 -10.640  -5.558  1.00  0.00     0.197 A 
ATOM      4  O   UNL     1      -8.766 -11.131  -5.013  1.00  0.00    -0.289 OA
ATOM      5  C   UNL     1     -10.780 -11.451  -6.161  1.00  0.00     0.107 A 
ATOM      6  C   UNL     1     -10.703 -12.869  -6.287  1.00  0.00     0.134 A 
ATOM      7  C   UNL     1     -11.799 -13.577  -6.798  1.00  0.00     0.093 A 
ATOM      8  C   UNL     1     -12.942 -12.914  -7.241  1.00  0.00     0.123 A 
ATOM      9  C   UNL     1     -13.006 -11.522  -7.171  1.00  0.00     0.094 A 
ATOM     10  C   UNL     1     -11.944 -10.790  -6.636  1.00  0.00     0.146 A 
ATOM     11  O   UNL     1     -12.051  -9.466  -6.574  1.00  0.00    -0.456 OA
ENDROOT
BRANCH   1  12
ATOM     12  C   UNL     1     -11.332  -7.211  -6.057  1.00  0.00     0.021 A 
ATOM     13  C   UNL     1     -10.805  -6.378  -7.062  1.00  0.00     0.016 A 
ATOM     14  C   UNL     1     -11.039  -5.000  -7.036  1.00  0.00     0.051 A 
ATOM     15  C   UNL     1     -11.808  -4.433  -6.013  1.00  0.00     0.157 A 
ATOM     16  C   UNL     1     -12.116  -6.634  -5.041  1.00  0.00     0.062 A 
ATOM     17  C   UNL     1     -12.349  -5.251  -5.014  1.00  0.00     0.158 A 
BRANCH  15  18
ATOM     18  O   UNL     1     -12.042  -3.059  -5.983  1.00  0.00    -0.504 OA
ATOM     19  H   UNL     1     -12.858  -2.651  -6.425  1.00  0.00     0.293 HD
ENDBRANCH  15  18
BRANCH  17  20
ATOM     20  O   UNL     1     -13.118  -4.685  -3.999  1.00  0.00    -0.504 OA
ATOM     21  H   UNL     1     -12.692  -4.196  -3.221  1.00  0.00     0.293 HD
ENDBRANCH  17  20
ENDBRANCH   1  12
BRANCH   6  22
ATOM     22  O   UNL     1      -9.574 -13.623  -5.953  1.00  0.00    -0.507 OA
ATOM     23  H   UNL     1      -9.021 -14.154  -6.608  1.00  0.00     0.293 HD
ENDBRANCH   6  22
BRANCH   8  24
ATOM     24  O   UNL     1     -14.007 -13.649  -7.756  1.00  0.00    -0.508 OA
ATOM     25  H   UNL     1     -14.758 -13.205  -8.272  1.00  0.00     0.293 HD
ENDBRANCH   8  24
TORSDOF 5
ENDMDL
MODEL 8
REMARK VINA RESULT:    -5.188      5.920      7.226
REMARK INTER + INTRA:          -6.359
REMARK INTER:                  -6.056
REMARK INTRA:                  -0.303
REMARK UNBOUND:                -0.262
REMARK SMILES O=c1cc(-c2ccc(O)c(O)c2)oc2cc(O)cc(O)c12
REMARK SMILES IDX 4 1 3 2 2 3 1 4 21 5 19 6 18 7 16 8 15 9 14 10 13 11 5 12
REMARK SMILES IDX 6 13 7 14 8 15 12 16 10 17 9 18 11 20 20 22 17 24
REMARK H PARENT 9 19 11 21 20 23 17 25
REMARK Flexibility Score: inf
ROOT
ATOM      1  C   UNL     1      -9.429 -11.952  -5.942  1.00  0.00     0.138 A 
ATOM      2  C   UNL     1     -10.014 -11.956  -4.669  1.00  0.00     0.100 A 
ATOM      3  C   UNL     1     -11.337 -12.375  -4.519  1.00  0.00     0.197 A 
ATOM      4  O   UNL     1     -11.854 -12.309  -3.374  1.00  0.00    -0.289 OA
ATOM      5  C   UNL     1     -12.065 -12.824  -5.647  1.00  0.00     0.107 A 
ATOM      6  C   UNL     1     -13.405 -13.312  -5.607  1.00  0.00     0.134 A 
ATOM      7  C   UNL     1     -14.064 -13.620  -6.804  1.00  0.00     0.093 A 
ATOM      8  C   UNL     1     -13.412 -13.513  -8.032  1.00  0.00     0.123 A 
ATOM      9  C   UNL     1     -12.085 -13.087  -8.078  1.00  0.00     0.094 A 
ATOM     10  C   UNL     1     -11.411 -12.741  -6.904  1.00  0.00     0.146 A 
ATOM     11  O   UNL     1     -10.152 -12.326  -6.993  1.00  0.00    -0.456 OA
ENDROOT
BRANCH   1  12
ATOM     12  C   UNL     1      -8.026 -11.516  -6.158  1.00  0.00     0.021 A 
ATOM     13  C   UNL     1      -7.430 -10.518  -5.364  1.00  0.00     0.016 A 
ATOM     14  C   UNL     1      -6.104 -10.135  -5.583  1.00  0.00     0.051 A 
ATOM     15  C   UNL     1      -5.349 -10.746  -6.591  1.00  0.00     0.157 A 
ATOM     16  C   UNL     1      -7.255 -12.135  -7.160  1.00  0.00     0.062 A 
ATOM     17  C   UNL     1      -5.925 -11.749  -7.380  1.00  0.00     0.158 A 
BRANCH  15  18
ATOM     18  O   UNL     1      -4.027 -10.365  -6.813  1.00  0.00    -0.504 OA
ATOM     19  H   UNL     1      -3.391 -10.946  -7.348  1.00  0.00     0.293 HD
ENDBRANCH  15  18
BRANCH  17  20
ATOM     20  O   UNL     1      -5.170 -12.359  -8.380  1.00  0.00    -0.504 OA
ATOM     21  H   UNL     1      -5.601 -12.936  -9.092  1.00  0.00     0.293 HD
ENDBRANCH  17  20
ENDBRANCH   1  12
BRANCH   6  22
ATOM     22  O   UNL     1     -14.120 -13.538  -4.426  1.00  0.00    -0.507 OA
ATOM     23  H   UNL     1     -14.439 -14.440  -4.109  1.00  0.00     0.293 HD
ENDBRANCH   6  22
BRANCH   8  24
ATOM     24  O   UNL     1     -14.094 -13.841  -9.202  1.00  0.00    -0.508 OA
ATOM     25  H   UNL     1     -13.997 -14.752  -9.635  1.00  0.00     0.293 HD
ENDBRANCH   8  24
TORSDOF 5
ENDMDL
MODEL 9
REMARK VINA RESULT:    -4.449      6.077      7.931
REMARK INTER + INTRA:          -5.491
REMARK INTER:                  -5.201
REMARK INTRA:                  -0.290
REMARK UNBOUND:                -0.262
REMARK SMILES O=c1cc(-c2ccc(O)c(O)c2)oc2cc(O)cc(O)c12
REMARK SMILES IDX 4 1 3 2 2 3 1 4 21 5 19 6 18 7 16 8 15 9 14 10 13 11 5 12
REMARK SMILES IDX 6 13 7 14 8 15 12 16 10 17 9 18 11 20 20 22 17 24
REMARK H PARENT 9 19 11 21 20 23 17 25
REMARK Flexibility Score: inf
ROOT
ATOM      1  C   UNL     1      -9.293 -12.262  -5.944  1.00  0.00     0.138 A 
ATOM      2  C   UNL     1      -9.991 -12.963  -6.936  1.00  0.00     0.100 A 
ATOM      3  C   UNL     1     -11.281 -13.428  -6.674  1.00  0.00     0.197 A 
ATOM      4  O   UNL     1     -11.858 -14.108  -7.562  1.00  0.00    -0.289 OA
ATOM      5  C   UNL     1     -11.886 -13.160  -5.422  1.00  0.00     0.107 A 
ATOM      6  C   UNL     1     -13.209 -13.549  -5.060  1.00  0.00     0.134 A 
ATOM      7  C   UNL     1     -13.659 -13.330  -3.751  1.00  0.00     0.093 A 
ATOM      8  C   UNL     1     -12.856 -12.684  -2.813  1.00  0.00     0.123 A 
ATOM      9  C   UNL     1     -11.579 -12.252  -3.172  1.00  0.00     0.094 A 
ATOM     10  C   UNL     1     -11.089 -12.486  -4.460  1.00  0.00     0.146 A 
ATOM     11  O   UNL     1      -9.862 -12.071  -4.758  1.00  0.00    -0.456 OA
ENDROOT
BRANCH   1  12
ATOM     12  C   UNL     1      -7.920 -11.744  -6.169  1.00  0.00     0.021 A 
ATOM     13  C   UNL     1      -7.361 -10.745  -5.350  1.00  0.00     0.016 A 
ATOM     14  C   UNL     1      -6.062 -10.284  -5.579  1.00  0.00     0.051 A 
ATOM     15  C   UNL     1      -5.297 -10.817  -6.623  1.00  0.00     0.157 A 
ATOM     16  C   UNL     1      -7.138 -12.284  -7.207  1.00  0.00     0.062 A 
ATOM     17  C   UNL     1      -5.835 -11.820  -7.438  1.00  0.00     0.158 A 
BRANCH  15  18
ATOM     18  O   UNL     1      -4.001 -10.359  -6.855  1.00  0.00    -0.504 OA
ATOM     19  H   UNL     1      -3.214 -10.696  -6.313  1.00  0.00     0.293 HD
ENDBRANCH  15  18
BRANCH  17  20
ATOM     20  O   UNL     1      -5.070 -12.353  -8.473  1.00  0.00    -0.504 OA
ATOM     21  H   UNL     1      -4.065 -12.453  -8.393  1.00  0.00     0.293 HD
ENDBRANCH  17  20
ENDBRANCH   1  12
BRANCH   6  22
ATOM     22  O   UNL     1     -14.125 -14.125  -5.946  1.00  0.00    -0.507 OA
ATOM     23  H   UNL     1     -14.252 -15.116  -6.080  1.00  0.00     0.293 HD
ENDBRANCH   6  22
BRANCH   8  24
ATOM     24  O   UNL     1     -13.341 -12.470  -1.524  1.00  0.00    -0.508 OA
ATOM     25  H   UNL     1     -13.356 -11.546  -1.110  1.00  0.00     0.293 HD
ENDBRANCH   8  24
TORSDOF 5
ENDMDL
