MODEL 1
REMARK VINA RESULT:    -6.595      0.000      0.000
REMARK INTER + INTRA:          -9.580
REMARK INTER:                  -8.909
REMARK INTRA:                  -0.671
REMARK UNBOUND:                -0.671
REMARK SMILES O=c1c(-c2ccc(O)cc2)coc2c([C@@H]3O[C@H](CO)[C@H](O)[C@H](O)[C@@H]3O)c(O)ccc12
REMARK SMILES IDX 3 1 11 2 12 3 13 4 30 5 2 6 1 7 29 8 28 9 26 10 14 11 4 12
REMARK SMILES IDX 5 13 6 14 7 15 10 16 9 17 8 18 15 20 24 21 16 22 22 23 17 24
REMARK SMILES IDX 20 25 25 26 23 28 18 30 19 31 21 33 27 35
REMARK H PARENT 8 19 25 27 23 29 19 32 21 34 27 36
REMARK Flexibility Score: inf
ROOT
ATOM      1  C   UNL     1      25.847   0.633 -32.929  1.00  0.00     0.065 A 
ATOM      2  C   UNL     1      25.739   1.864 -33.591  1.00  0.00     0.208 A 
ATOM      3  O   UNL     1      25.602   2.994 -32.909  1.00  0.00    -0.463 OA
ATOM      4  C   UNL     1      25.558   3.048 -31.580  1.00  0.00     0.147 A 
ATOM      5  C   UNL     1      25.671   1.851 -30.833  1.00  0.00     0.066 A 
ATOM      6  C   UNL     1      25.820   0.634 -31.524  1.00  0.00     0.200 A 
ATOM      7  O   UNL     1      25.951  -0.448 -30.887  1.00  0.00    -0.288 OA
ATOM      8  C   UNL     1      25.646   1.902 -29.434  1.00  0.00     0.020 A 
ATOM      9  C   UNL     1      25.532   3.124 -28.779  1.00  0.00     0.047 A 
ATOM     10  C   UNL     1      25.430   4.318 -29.497  1.00  0.00     0.125 A 
ATOM     11  C   UNL     1      25.401   4.296 -30.919  1.00  0.00     0.069 A 
ENDROOT
BRANCH   1  12
ATOM     12  C   UNL     1      25.990  -0.620 -33.714  1.00  0.00    -0.011 A 
ATOM     13  C   UNL     1      25.382  -1.811 -33.279  1.00  0.00     0.013 A 
ATOM     14  C   UNL     1      25.512  -2.985 -34.027  1.00  0.00     0.047 A 
ATOM     15  C   UNL     1      26.247  -2.982 -35.219  1.00  0.00     0.115 A 
ATOM     16  C   UNL     1      26.720  -0.623 -34.916  1.00  0.00     0.013 A 
ATOM     17  C   UNL     1      26.849  -1.800 -35.660  1.00  0.00     0.047 A 
BRANCH  15  18
ATOM     18  O   UNL     1      26.385  -4.147 -35.972  1.00  0.00    -0.508 OA
ATOM     19  H   UNL     1      27.252  -4.673 -35.979  1.00  0.00     0.293 HD
ENDBRANCH  15  18
ENDBRANCH   1  12
BRANCH  11  20
ATOM     20  C   UNL     1      25.256   5.594 -31.714  1.00  0.00     0.188 C 
ATOM     21  C   UNL     1      23.760   5.982 -31.863  1.00  0.00     0.179 C 
ATOM     22  O   UNL     1      25.993   6.646 -31.107  1.00  0.00    -0.362 OA
ATOM     23  C   UNL     1      23.637   7.326 -32.622  1.00  0.00     0.177 C 
ATOM     24  C   UNL     1      26.017   7.796 -31.939  1.00  0.00     0.176 C 
ATOM     25  C   UNL     1      24.599   8.402 -32.073  1.00  0.00     0.177 C 
BRANCH  21  26
ATOM     26  O   UNL     1      23.098   6.016 -30.621  1.00  0.00    -0.387 OA
ATOM     27  H   UNL     1      23.493   5.319 -30.039  1.00  0.00     0.211 HD
ENDBRANCH  21  26
BRANCH  23  28
ATOM     28  O   UNL     1      22.307   7.783 -32.665  1.00  0.00    -0.387 OA
ATOM     29  H   UNL     1      21.726   7.022 -32.924  1.00  0.00     0.211 HD
ENDBRANCH  23  28
BRANCH  24  30
ATOM     30  C   UNL     1      27.008   8.814 -31.356  1.00  0.00     0.191 C 
BRANCH  30  31
ATOM     31  O   UNL     1      26.777   8.988 -29.983  1.00  0.00    -0.394 OA
ATOM     32  H   UNL     1      26.262   9.831 -29.885  1.00  0.00     0.210 HD
ENDBRANCH  30  31
ENDBRANCH  24  30
BRANCH  25  33
ATOM     33  O   UNL     1      24.145   8.877 -30.829  1.00  0.00    -0.388 OA
ATOM     34  H   UNL     1      23.657   9.724 -30.997  1.00  0.00     0.211 HD
ENDBRANCH  25  33
ENDBRANCH  11  20
BRANCH  10  35
ATOM     35  O   UNL     1      25.372   5.501 -28.752  1.00  0.00    -0.507 OA
ATOM     36  H   UNL     1      24.917   6.349 -29.060  1.00  0.00     0.293 HD
ENDBRANCH  10  35
TORSDOF 9
ENDMDL
MODEL 2
REMARK VINA RESULT:    -6.500      3.085      6.051
REMARK INTER + INTRA:          -9.451
REMARK INTER:                  -8.646
REMARK INTRA:                  -0.805
REMARK UNBOUND:                -0.671
REMARK SMILES O=c1c(-c2ccc(O)cc2)coc2c([C@@H]3O[C@H](CO)[C@H](O)[C@H](O)[C@@H]3O)c(O)ccc12
REMARK SMILES IDX 3 1 11 2 12 3 13 4 30 5 2 6 1 7 29 8 28 9 26 10 14 11 4 12
REMARK SMILES IDX 5 13 6 14 7 15 10 16 9 17 8 18 15 20 24 21 16 22 22 23 17 24
REMARK SMILES IDX 20 25 25 26 23 28 18 30 19 31 21 33 27 35
REMARK H PARENT 8 19 25 27 23 29 19 32 21 34 27 36
REMARK Flexibility Score: inf
ROOT
ATOM      1  C   UNL     1      26.047   5.039 -30.986  1.00  0.00     0.065 A 
ATOM      2  C   UNL     1      27.276   5.533 -31.443  1.00  0.00     0.208 A 
ATOM      3  O   UNL     1      27.390   6.784 -31.871  1.00  0.00    -0.463 OA
ATOM      4  C   UNL     1      26.376   7.646 -31.899  1.00  0.00     0.147 A 
ATOM      5  C   UNL     1      25.102   7.231 -31.443  1.00  0.00     0.066 A 
ATOM      6  C   UNL     1      24.945   5.911 -30.980  1.00  0.00     0.200 A 
ATOM      7  O   UNL     1      23.828   5.518 -30.542  1.00  0.00    -0.288 OA
ATOM      8  C   UNL     1      24.034   8.137 -31.451  1.00  0.00     0.020 A 
ATOM      9  C   UNL     1      24.228   9.445 -31.883  1.00  0.00     0.047 A 
ATOM     10  C   UNL     1      25.480   9.879 -32.325  1.00  0.00     0.125 A 
ATOM     11  C   UNL     1      26.573   8.968 -32.379  1.00  0.00     0.069 A 
ENDROOT
BRANCH   1  12
ATOM     12  C   UNL     1      25.942   3.633 -30.521  1.00  0.00    -0.011 A 
ATOM     13  C   UNL     1      25.638   2.599 -31.425  1.00  0.00     0.013 A 
ATOM     14  C   UNL     1      25.549   1.276 -30.983  1.00  0.00     0.047 A 
ATOM     15  C   UNL     1      25.767   0.968 -29.634  1.00  0.00     0.115 A 
ATOM     16  C   UNL     1      26.166   3.315 -29.169  1.00  0.00     0.013 A 
ATOM     17  C   UNL     1      26.075   1.990 -28.731  1.00  0.00     0.047 A 
BRANCH  15  18
ATOM     18  O   UNL     1      25.680  -0.347 -29.181  1.00  0.00    -0.508 OA
ATOM     19  H   UNL     1      24.784  -0.791 -29.016  1.00  0.00     0.293 HD
ENDBRANCH  15  18
ENDBRANCH   1  12
BRANCH  11  20
ATOM     20  C   UNL     1      27.939   9.423 -32.893  1.00  0.00     0.188 C 
ATOM     21  C   UNL     1      28.151   8.968 -34.362  1.00  0.00     0.179 C 
ATOM     22  O   UNL     1      28.083  10.831 -32.774  1.00  0.00    -0.362 OA
ATOM     23  C   UNL     1      29.514   9.485 -34.883  1.00  0.00     0.177 C 
ATOM     24  C   UNL     1      29.412  11.233 -33.071  1.00  0.00     0.176 C 
ATOM     25  C   UNL     1      29.740  10.979 -34.562  1.00  0.00     0.177 C 
BRANCH  21  26
ATOM     26  O   UNL     1      27.085   9.362 -35.195  1.00  0.00    -0.387 OA
ATOM     27  H   UNL     1      26.331   9.646 -34.622  1.00  0.00     0.211 HD
ENDBRANCH  21  26
BRANCH  23  28
ATOM     28  O   UNL     1      29.691   9.210 -36.252  1.00  0.00    -0.387 OA
ATOM     29  H   UNL     1      30.429   8.553 -36.343  1.00  0.00     0.211 HD
ENDBRANCH  23  28
BRANCH  24  30
ATOM     30  C   UNL     1      29.579  12.715 -32.705  1.00  0.00     0.191 C 
BRANCH  30  31
ATOM     31  O   UNL     1      28.548  13.125 -31.846  1.00  0.00    -0.394 OA
ATOM     32  H   UNL     1      28.513  12.463 -31.107  1.00  0.00     0.210 HD
ENDBRANCH  30  31
ENDBRANCH  24  30
BRANCH  25  33
ATOM     33  O   UNL     1      28.935  11.785 -35.388  1.00  0.00    -0.388 OA
ATOM     34  H   UNL     1      29.339  11.773 -36.294  1.00  0.00     0.211 HD
ENDBRANCH  25  33
ENDBRANCH  11  20
BRANCH  10  35
ATOM     35  O   UNL     1      25.592  11.224 -32.691  1.00  0.00    -0.507 OA
ATOM     36  H   UNL     1      25.138  11.638 -33.492  1.00  0.00     0.293 HD
ENDBRANCH  10  35
TORSDOF 9
ENDMDL
MODEL 3
REMARK VINA RESULT:    -6.368     11.139     14.644
REMARK INTER + INTRA:          -9.273
REMARK INTER:                  -8.522
REMARK INTRA:                  -0.751
REMARK UNBOUND:                -0.671
REMARK SMILES O=c1c(-c2ccc(O)cc2)coc2c([C@@H]3O[C@H](CO)[C@H](O)[C@H](O)[C@@H]3O)c(O)ccc12
REMARK SMILES IDX 3 1 11 2 12 3 13 4 30 5 2 6 1 7 29 8 28 9 26 10 14 11 4 12
REMARK SMILES IDX 5 13 6 14 7 15 10 16 9 17 8 18 15 20 24 21 16 22 22 23 17 24
REMARK SMILES IDX 20 25 25 26 23 28 18 30 19 31 21 33 27 35
REMARK H PARENT 8 19 25 27 23 29 19 32 21 34 27 36
REMARK Flexibility Score: inf
ROOT
ATOM      1  C   UNL     1      35.122   6.364 -20.920  1.00  0.00     0.065 A 
ATOM      2  C   UNL     1      34.871   5.268 -21.757  1.00  0.00     0.208 A 
ATOM      3  O   UNL     1      33.663   5.062 -22.266  1.00  0.00    -0.463 OA
ATOM      4  C   UNL     1      32.622   5.856 -22.030  1.00  0.00     0.147 A 
ATOM      5  C   UNL     1      32.791   6.993 -21.204  1.00  0.00     0.066 A 
ATOM      6  C   UNL     1      34.059   7.244 -20.648  1.00  0.00     0.200 A 
ATOM      7  O   UNL     1      34.250   8.263 -19.929  1.00  0.00    -0.288 OA
ATOM      8  C   UNL     1      31.706   7.845 -20.966  1.00  0.00     0.020 A 
ATOM      9  C   UNL     1      30.472   7.589 -21.556  1.00  0.00     0.047 A 
ATOM     10  C   UNL     1      30.286   6.480 -22.385  1.00  0.00     0.125 A 
ATOM     11  C   UNL     1      31.355   5.567 -22.604  1.00  0.00     0.069 A 
ENDROOT
BRANCH   1  12
ATOM     12  C   UNL     1      36.479   6.569 -20.354  1.00  0.00    -0.011 A 
ATOM     13  C   UNL     1      36.744   6.281 -19.003  1.00  0.00     0.013 A 
ATOM     14  C   UNL     1      38.026   6.467 -18.479  1.00  0.00     0.047 A 
ATOM     15  C   UNL     1      39.060   6.939 -19.298  1.00  0.00     0.115 A 
ATOM     16  C   UNL     1      37.524   7.035 -21.172  1.00  0.00     0.013 A 
ATOM     17  C   UNL     1      38.805   7.221 -20.644  1.00  0.00     0.047 A 
BRANCH  15  18
ATOM     18  O   UNL     1      40.342   7.130 -18.786  1.00  0.00    -0.508 OA
ATOM     19  H   UNL     1      40.510   7.187 -17.788  1.00  0.00     0.293 HD
ENDBRANCH  15  18
ENDBRANCH   1  12
BRANCH  11  20
ATOM     20  C   UNL     1      31.154   4.331 -23.482  1.00  0.00     0.188 C 
ATOM     21  C   UNL     1      31.280   3.033 -22.639  1.00  0.00     0.179 C 
ATOM     22  O   UNL     1      29.901   4.381 -24.149  1.00  0.00    -0.362 OA
ATOM     23  C   UNL     1      31.018   1.796 -23.533  1.00  0.00     0.177 C 
ATOM     24  C   UNL     1      29.792   3.338 -25.105  1.00  0.00     0.176 C 
ATOM     25  C   UNL     1      29.754   1.957 -24.406  1.00  0.00     0.177 C 
BRANCH  21  26
ATOM     26  O   UNL     1      30.438   3.054 -21.510  1.00  0.00    -0.387 OA
ATOM     27  H   UNL     1      29.499   3.065 -21.822  1.00  0.00     0.211 HD
ENDBRANCH  21  26
BRANCH  23  28
ATOM     28  O   UNL     1      30.991   0.605 -22.784  1.00  0.00    -0.387 OA
ATOM     29  H   UNL     1      31.792   0.587 -22.200  1.00  0.00     0.211 HD
ENDBRANCH  23  28
BRANCH  24  30
ATOM     30  C   UNL     1      28.535   3.569 -25.956  1.00  0.00     0.191 C 
BRANCH  30  31
ATOM     31  O   UNL     1      27.640   4.413 -25.284  1.00  0.00    -0.394 OA
ATOM     32  H   UNL     1      28.110   4.740 -24.472  1.00  0.00     0.210 HD
ENDBRANCH  30  31
ENDBRANCH  24  30
BRANCH  25  33
ATOM     33  O   UNL     1      28.594   1.835 -23.618  1.00  0.00    -0.388 OA
ATOM     34  H   UNL     1      28.652   0.967 -23.142  1.00  0.00     0.211 HD
ENDBRANCH  25  33
ENDBRANCH  11  20
BRANCH  10  35
ATOM     35  O   UNL     1      29.027   6.334 -22.975  1.00  0.00    -0.507 OA
ATOM     36  H   UNL     1      28.467   5.494 -22.928  1.00  0.00     0.293 HD
ENDBRANCH  10  35
TORSDOF 9
ENDMDL
MODEL 4
REMARK VINA RESULT:    -6.201      2.996      9.663
REMARK INTER + INTRA:          -9.047
REMARK INTER:                  -7.954
REMARK INTRA:                  -1.094
REMARK UNBOUND:                -0.671
REMARK SMILES O=c1c(-c2ccc(O)cc2)coc2c([C@@H]3O[C@H](CO)[C@H](O)[C@H](O)[C@@H]3O)c(O)ccc12
REMARK SMILES IDX 3 1 11 2 12 3 13 4 30 5 2 6 1 7 29 8 28 9 26 10 14 11 4 12
REMARK SMILES IDX 5 13 6 14 7 15 10 16 9 17 8 18 15 20 24 21 16 22 22 23 17 24
REMARK SMILES IDX 20 25 25 26 23 28 18 30 19 31 21 33 27 35
REMARK H PARENT 8 19 25 27 23 29 19 32 21 34 27 36
REMARK Flexibility Score: inf
ROOT
ATOM      1  C   UNL     1      25.343   1.794 -31.892  1.00  0.00     0.065 A 
ATOM      2  C   UNL     1      25.764   0.878 -30.918  1.00  0.00     0.208 A 
ATOM      3  O   UNL     1      25.998  -0.390 -31.232  1.00  0.00    -0.463 OA
ATOM      4  C   UNL     1      25.857  -0.880 -32.461  1.00  0.00     0.147 A 
ATOM      5  C   UNL     1      25.446  -0.019 -33.507  1.00  0.00     0.066 A 
ATOM      6  C   UNL     1      25.191   1.333 -33.211  1.00  0.00     0.200 A 
ATOM      7  O   UNL     1      24.850   2.132 -34.126  1.00  0.00    -0.288 OA
ATOM      8  C   UNL     1      25.314  -0.522 -34.807  1.00  0.00     0.020 A 
ATOM      9  C   UNL     1      25.606  -1.856 -35.076  1.00  0.00     0.047 A 
ATOM     10  C   UNL     1      26.024  -2.720 -34.061  1.00  0.00     0.125 A 
ATOM     11  C   UNL     1      26.118  -2.252 -32.720  1.00  0.00     0.069 A 
ENDROOT
BRANCH   1  12
ATOM     12  C   UNL     1      25.079   3.206 -31.516  1.00  0.00    -0.011 A 
ATOM     13  C   UNL     1      23.786   3.619 -31.145  1.00  0.00     0.013 A 
ATOM     14  C   UNL     1      23.545   4.947 -30.782  1.00  0.00     0.047 A 
ATOM     15  C   UNL     1      24.592   5.878 -30.781  1.00  0.00     0.115 A 
ATOM     16  C   UNL     1      26.126   4.145 -31.505  1.00  0.00     0.013 A 
ATOM     17  C   UNL     1      25.880   5.472 -31.143  1.00  0.00     0.047 A 
BRANCH  15  18
ATOM     18  O   UNL     1      24.363   7.205 -30.423  1.00  0.00    -0.508 OA
ATOM     19  H   UNL     1      25.106   7.894 -30.442  1.00  0.00     0.293 HD
ENDBRANCH  15  18
ENDBRANCH   1  12
BRANCH  11  20
ATOM     20  C   UNL     1      26.542  -3.198 -31.595  1.00  0.00     0.188 C 
ATOM     21  C   UNL     1      25.300  -3.846 -30.927  1.00  0.00     0.179 C 
ATOM     22  O   UNL     1      27.434  -4.192 -32.077  1.00  0.00    -0.362 OA
ATOM     23  C   UNL     1      25.751  -4.841 -29.829  1.00  0.00     0.177 C 
ATOM     24  C   UNL     1      27.976  -4.950 -31.007  1.00  0.00     0.176 C 
ATOM     25  C   UNL     1      26.872  -5.786 -30.315  1.00  0.00     0.177 C 
BRANCH  21  26
ATOM     26  O   UNL     1      24.450  -4.454 -31.871  1.00  0.00    -0.387 OA
ATOM     27  H   UNL     1      23.579  -3.984 -31.855  1.00  0.00     0.211 HD
ENDBRANCH  21  26
BRANCH  23  28
ATOM     28  O   UNL     1      24.664  -5.551 -29.287  1.00  0.00    -0.387 OA
ATOM     29  H   UNL     1      24.272  -5.007 -28.555  1.00  0.00     0.211 HD
ENDBRANCH  23  28
BRANCH  24  30
ATOM     30  C   UNL     1      29.099  -5.847 -31.548  1.00  0.00     0.191 C 
BRANCH  30  31
ATOM     31  O   UNL     1      29.022  -7.125 -30.975  1.00  0.00    -0.394 OA
ATOM     32  H   UNL     1      29.635  -7.708 -31.493  1.00  0.00     0.210 HD
ENDBRANCH  30  31
ENDBRANCH  24  30
BRANCH  25  33
ATOM     33  O   UNL     1      26.353  -6.748 -31.201  1.00  0.00    -0.388 OA
ATOM     34  H   UNL     1      26.693  -7.632 -30.907  1.00  0.00     0.211 HD
ENDBRANCH  25  33
ENDBRANCH  11  20
BRANCH  10  35
ATOM     35  O   UNL     1      26.344  -4.029 -34.435  1.00  0.00    -0.507 OA
ATOM     36  H   UNL     1      26.779  -4.283 -35.310  1.00  0.00     0.293 HD
ENDBRANCH  10  35
TORSDOF 9
ENDMDL
MODEL 5
REMARK VINA RESULT:    -6.185      4.302      8.529
REMARK INTER + INTRA:          -9.025
REMARK INTER:                  -7.957
REMARK INTRA:                  -1.068
REMARK UNBOUND:                -0.671
REMARK SMILES O=c1c(-c2ccc(O)cc2)coc2c([C@@H]3O[C@H](CO)[C@H](O)[C@H](O)[C@@H]3O)c(O)ccc12
REMARK SMILES IDX 3 1 11 2 12 3 13 4 30 5 2 6 1 7 29 8 28 9 26 10 14 11 4 12
REMARK SMILES IDX 5 13 6 14 7 15 10 16 9 17 8 18 15 20 24 21 16 22 22 23 17 24
REMARK SMILES IDX 20 25 25 26 23 28 18 30 19 31 21 33 27 35
REMARK H PARENT 8 19 25 27 23 29 19 32 21 34 27 36
REMARK Flexibility Score: inf
ROOT
ATOM      1  C   UNL     1      26.513   8.492 -31.775  1.00  0.00     0.065 A 
ATOM      2  C   UNL     1      26.546   7.983 -30.470  1.00  0.00     0.208 A 
ATOM      3  O   UNL     1      25.811   6.932 -30.130  1.00  0.00    -0.463 OA
ATOM      4  C   UNL     1      25.006   6.294 -30.977  1.00  0.00     0.147 A 
ATOM      5  C   UNL     1      24.922   6.736 -32.319  1.00  0.00     0.066 A 
ATOM      6  C   UNL     1      25.690   7.847 -32.715  1.00  0.00     0.200 A 
ATOM      7  O   UNL     1      25.658   8.250 -33.911  1.00  0.00    -0.288 OA
ATOM      8  C   UNL     1      24.093   6.059 -33.222  1.00  0.00     0.020 A 
ATOM      9  C   UNL     1      23.371   4.944 -32.809  1.00  0.00     0.047 A 
ATOM     10  C   UNL     1      23.449   4.483 -31.492  1.00  0.00     0.125 A 
ATOM     11  C   UNL     1      24.242   5.180 -30.538  1.00  0.00     0.069 A 
ENDROOT
BRANCH   1  12
ATOM     12  C   UNL     1      27.338   9.675 -32.130  1.00  0.00    -0.011 A 
ATOM     13  C   UNL     1      27.083  10.928 -31.544  1.00  0.00     0.013 A 
ATOM     14  C   UNL     1      27.869  12.036 -31.875  1.00  0.00     0.047 A 
ATOM     15  C   UNL     1      28.921  11.905 -32.791  1.00  0.00     0.115 A 
ATOM     16  C   UNL     1      28.400   9.550 -33.043  1.00  0.00     0.013 A 
ATOM     17  C   UNL     1      29.183  10.660 -33.372  1.00  0.00     0.047 A 
BRANCH  15  18
ATOM     18  O   UNL     1      29.710  13.002 -33.129  1.00  0.00    -0.508 OA
ATOM     19  H   UNL     1      30.005  13.167 -34.085  1.00  0.00     0.293 HD
ENDBRANCH  15  18
ENDBRANCH   1  12
BRANCH  11  20
ATOM     20  C   UNL     1      24.307   4.705 -29.086  1.00  0.00     0.188 C 
ATOM     21  C   UNL     1      23.114   5.270 -28.270  1.00  0.00     0.179 C 
ATOM     22  O   UNL     1      24.340   3.287 -29.017  1.00  0.00    -0.362 OA
ATOM     23  C   UNL     1      23.167   4.734 -26.818  1.00  0.00     0.177 C 
ATOM     24  C   UNL     1      24.592   2.848 -27.691  1.00  0.00     0.176 C 
ATOM     25  C   UNL     1      23.408   3.210 -26.762  1.00  0.00     0.177 C 
BRANCH  21  26
ATOM     26  O   UNL     1      21.877   4.999 -28.887  1.00  0.00    -0.387 OA
ATOM     27  H   UNL     1      21.173   5.499 -28.404  1.00  0.00     0.211 HD
ENDBRANCH  21  26
BRANCH  23  28
ATOM     28  O   UNL     1      22.032   5.114 -26.077  1.00  0.00    -0.387 OA
ATOM     29  H   UNL     1      21.532   4.293 -25.833  1.00  0.00     0.211 HD
ENDBRANCH  23  28
BRANCH  24  30
ATOM     30  C   UNL     1      24.849   1.334 -27.706  1.00  0.00     0.191 C 
BRANCH  30  31
ATOM     31  O   UNL     1      24.090   0.720 -28.714  1.00  0.00    -0.394 OA
ATOM     32  H   UNL     1      23.897  -0.203 -28.404  1.00  0.00     0.210 HD
ENDBRANCH  30  31
ENDBRANCH  24  30
BRANCH  25  33
ATOM     33  O   UNL     1      22.247   2.515 -27.148  1.00  0.00    -0.388 OA
ATOM     34  H   UNL     1      22.478   1.979 -27.951  1.00  0.00     0.211 HD
ENDBRANCH  25  33
ENDBRANCH  11  20
BRANCH  10  35
ATOM     35  O   UNL     1      22.729   3.324 -31.183  1.00  0.00    -0.507 OA
ATOM     36  H   UNL     1      21.835   3.314 -30.714  1.00  0.00     0.293 HD
ENDBRANCH  10  35
TORSDOF 9
ENDMDL
MODEL 6
REMARK VINA RESULT:    -5.988      4.249      8.562
REMARK INTER + INTRA:          -8.760
REMARK INTER:                  -7.868
REMARK INTRA:                  -0.891
REMARK UNBOUND:                -0.671
REMARK SMILES O=c1c(-c2ccc(O)cc2)coc2c([C@@H]3O[C@H](CO)[C@H](O)[C@H](O)[C@@H]3O)c(O)ccc12
REMARK SMILES IDX 3 1 11 2 12 3 13 4 30 5 2 6 1 7 29 8 28 9 26 10 14 11 4 12
REMARK SMILES IDX 5 13 6 14 7 15 10 16 9 17 8 18 15 20 24 21 16 22 22 23 17 24
REMARK SMILES IDX 20 25 25 26 23 28 18 30 19 31 21 33 27 35
REMARK H PARENT 8 19 25 27 23 29 19 32 21 34 27 36
REMARK Flexibility Score: inf
ROOT
ATOM      1  C   UNL     1      26.958   8.248 -32.076  1.00  0.00     0.065 A 
ATOM      2  C   UNL     1      27.818   7.287 -31.527  1.00  0.00     0.208 A 
ATOM      3  O   UNL     1      27.347   6.304 -30.770  1.00  0.00    -0.463 OA
ATOM      4  C   UNL     1      26.057   6.155 -30.480  1.00  0.00     0.147 A 
ATOM      5  C   UNL     1      25.118   7.076 -31.004  1.00  0.00     0.066 A 
ATOM      6  C   UNL     1      25.582   8.130 -31.813  1.00  0.00     0.200 A 
ATOM      7  O   UNL     1      24.768   8.953 -32.317  1.00  0.00    -0.288 OA
ATOM      8  C   UNL     1      23.756   6.916 -30.720  1.00  0.00     0.020 A 
ATOM      9  C   UNL     1      23.324   5.844 -29.944  1.00  0.00     0.047 A 
ATOM     10  C   UNL     1      24.232   4.917 -29.428  1.00  0.00     0.125 A 
ATOM     11  C   UNL     1      25.627   5.081 -29.655  1.00  0.00     0.069 A 
ENDROOT
BRANCH   1  12
ATOM     12  C   UNL     1      27.510   9.344 -32.912  1.00  0.00    -0.011 A 
ATOM     13  C   UNL     1      27.954  10.541 -32.323  1.00  0.00     0.013 A 
ATOM     14  C   UNL     1      28.481  11.566 -33.114  1.00  0.00     0.047 A 
ATOM     15  C   UNL     1      28.575  11.406 -34.503  1.00  0.00     0.115 A 
ATOM     16  C   UNL     1      27.614   9.188 -34.306  1.00  0.00     0.013 A 
ATOM     17  C   UNL     1      28.141  10.215 -35.094  1.00  0.00     0.047 A 
BRANCH  15  18
ATOM     18  O   UNL     1      29.097  12.421 -35.302  1.00  0.00    -0.508 OA
ATOM     19  H   UNL     1      29.867  12.250 -35.938  1.00  0.00     0.293 HD
ENDBRANCH  15  18
ENDBRANCH   1  12
BRANCH  11  20
ATOM     20  C   UNL     1      26.632   4.092 -29.066  1.00  0.00     0.188 C 
ATOM     21  C   UNL     1      27.388   4.726 -27.867  1.00  0.00     0.179 C 
ATOM     22  O   UNL     1      25.990   2.886 -28.677  1.00  0.00    -0.362 OA
ATOM     23  C   UNL     1      28.361   3.691 -27.250  1.00  0.00     0.177 C 
ATOM     24  C   UNL     1      26.941   1.899 -28.309  1.00  0.00     0.176 C 
ATOM     25  C   UNL     1      27.693   2.318 -27.022  1.00  0.00     0.177 C 
BRANCH  21  26
ATOM     26  O   UNL     1      26.504   5.256 -26.907  1.00  0.00    -0.387 OA
ATOM     27  H   UNL     1      26.456   4.624 -26.146  1.00  0.00     0.211 HD
ENDBRANCH  21  26
BRANCH  23  28
ATOM     28  O   UNL     1      28.970   4.179 -26.079  1.00  0.00    -0.387 OA
ATOM     29  H   UNL     1      28.310   4.738 -25.595  1.00  0.00     0.211 HD
ENDBRANCH  23  28
BRANCH  24  30
ATOM     30  C   UNL     1      26.221   0.555 -28.125  1.00  0.00     0.191 C 
BRANCH  30  31
ATOM     31  O   UNL     1      26.898  -0.235 -27.184  1.00  0.00    -0.394 OA
ATOM     32  H   UNL     1      27.758  -0.502 -27.601  1.00  0.00     0.210 HD
ENDBRANCH  30  31
ENDBRANCH  24  30
BRANCH  25  33
ATOM     33  O   UNL     1      26.806   2.377 -25.931  1.00  0.00    -0.388 OA
ATOM     34  H   UNL     1      26.205   3.151 -26.083  1.00  0.00     0.211 HD
ENDBRANCH  25  33
ENDBRANCH  11  20
BRANCH  10  35
ATOM     35  O   UNL     1      23.700   3.845 -28.704  1.00  0.00    -0.507 OA
ATOM     36  H   UNL     1      24.177   3.370 -27.951  1.00  0.00     0.293 HD
ENDBRANCH  10  35
TORSDOF 9
ENDMDL
MODEL 7
REMARK VINA RESULT:    -5.973     14.731     17.721
REMARK INTER + INTRA:          -8.739
REMARK INTER:                  -8.023
REMARK INTRA:                  -0.715
REMARK UNBOUND:                -0.671
REMARK SMILES O=c1c(-c2ccc(O)cc2)coc2c([C@@H]3O[C@H](CO)[C@H](O)[C@H](O)[C@@H]3O)c(O)ccc12
REMARK SMILES IDX 3 1 11 2 12 3 13 4 30 5 2 6 1 7 29 8 28 9 26 10 14 11 4 12
REMARK SMILES IDX 5 13 6 14 7 15 10 16 9 17 8 18 15 20 24 21 16 22 22 23 17 24
REMARK SMILES IDX 20 25 25 26 23 28 18 30 19 31 21 33 27 35
REMARK H PARENT 8 19 25 27 23 29 19 32 21 34 27 36
REMARK Flexibility Score: inf
ROOT
ATOM      1  C   UNL     1      34.792   6.338 -21.345  1.00  0.00     0.065 A 
ATOM      2  C   UNL     1      35.635   6.324 -20.225  1.00  0.00     0.208 A 
ATOM      3  O   UNL     1      36.954   6.340 -20.364  1.00  0.00    -0.463 OA
ATOM      4  C   UNL     1      37.567   6.372 -21.546  1.00  0.00     0.147 A 
ATOM      5  C   UNL     1      36.790   6.400 -22.729  1.00  0.00     0.066 A 
ATOM      6  C   UNL     1      35.387   6.386 -22.618  1.00  0.00     0.200 A 
ATOM      7  O   UNL     1      34.666   6.437 -23.653  1.00  0.00    -0.288 OA
ATOM      8  C   UNL     1      37.426   6.454 -23.975  1.00  0.00     0.020 A 
ATOM      9  C   UNL     1      38.815   6.501 -24.051  1.00  0.00     0.047 A 
ATOM     10  C   UNL     1      39.600   6.486 -22.896  1.00  0.00     0.125 A 
ATOM     11  C   UNL     1      38.985   6.380 -21.617  1.00  0.00     0.069 A 
ENDROOT
BRANCH   1  12
ATOM     12  C   UNL     1      33.319   6.310 -21.164  1.00  0.00    -0.011 A 
ATOM     13  C   UNL     1      32.622   5.088 -21.150  1.00  0.00     0.013 A 
ATOM     14  C   UNL     1      31.236   5.066 -20.970  1.00  0.00     0.047 A 
ATOM     15  C   UNL     1      30.530   6.264 -20.798  1.00  0.00     0.115 A 
ATOM     16  C   UNL     1      32.604   7.507 -20.983  1.00  0.00     0.013 A 
ATOM     17  C   UNL     1      31.218   7.481 -20.805  1.00  0.00     0.047 A 
BRANCH  15  18
ATOM     18  O   UNL     1      29.148   6.255 -20.619  1.00  0.00    -0.508 OA
ATOM     19  H   UNL     1      28.727   5.904 -19.766  1.00  0.00     0.293 HD
ENDBRANCH  15  18
ENDBRANCH   1  12
BRANCH  11  20
ATOM     20  C   UNL     1      39.837   6.328 -20.348  1.00  0.00     0.188 C 
ATOM     21  C   UNL     1      39.968   7.741 -19.717  1.00  0.00     0.179 C 
ATOM     22  O   UNL     1      39.298   5.405 -19.412  1.00  0.00    -0.362 OA
ATOM     23  C   UNL     1      40.786   7.659 -18.405  1.00  0.00     0.177 C 
ATOM     24  C   UNL     1      40.184   5.214 -18.320  1.00  0.00     0.176 C 
ATOM     25  C   UNL     1      40.312   6.511 -17.487  1.00  0.00     0.177 C 
BRANCH  21  26
ATOM     26  O   UNL     1      38.713   8.348 -19.518  1.00  0.00    -0.387 OA
ATOM     27  H   UNL     1      38.625   8.574 -18.559  1.00  0.00     0.211 HD
ENDBRANCH  21  26
BRANCH  23  28
ATOM     28  O   UNL     1      40.819   8.893 -17.730  1.00  0.00    -0.387 OA
ATOM     29  H   UNL     1      39.936   9.034 -17.299  1.00  0.00     0.211 HD
ENDBRANCH  23  28
BRANCH  24  30
ATOM     30  C   UNL     1      39.674   4.046 -17.462  1.00  0.00     0.191 C 
BRANCH  30  31
ATOM     31  O   UNL     1      38.273   4.068 -17.392  1.00  0.00    -0.394 OA
ATOM     32  H   UNL     1      37.991   4.996 -17.606  1.00  0.00     0.210 HD
ENDBRANCH  30  31
ENDBRANCH  24  30
BRANCH  25  33
ATOM     33  O   UNL     1      39.081   6.838 -16.889  1.00  0.00    -0.388 OA
ATOM     34  H   UNL     1      38.885   7.783 -17.117  1.00  0.00     0.211 HD
ENDBRANCH  25  33
ENDBRANCH  11  20
BRANCH  10  35
ATOM     35  O   UNL     1      40.984   6.589 -23.070  1.00  0.00    -0.507 OA
ATOM     36  H   UNL     1      41.450   7.380 -23.490  1.00  0.00     0.293 HD
ENDBRANCH  10  35
TORSDOF 9
ENDMDL
MODEL 8
REMARK VINA RESULT:    -5.911     12.592     14.254
REMARK INTER + INTRA:          -8.656
REMARK INTER:                  -7.920
REMARK INTRA:                  -0.736
REMARK UNBOUND:                -0.671
REMARK SMILES O=c1c(-c2ccc(O)cc2)coc2c([C@@H]3O[C@H](CO)[C@H](O)[C@H](O)[C@@H]3O)c(O)ccc12
REMARK SMILES IDX 3 1 11 2 12 3 13 4 30 5 2 6 1 7 29 8 28 9 26 10 14 11 4 12
REMARK SMILES IDX 5 13 6 14 7 15 10 16 9 17 8 18 15 20 24 21 16 22 22 23 17 24
REMARK SMILES IDX 20 25 25 26 23 28 18 30 19 31 21 33 27 35
REMARK H PARENT 8 19 25 27 23 29 19 32 21 34 27 36
REMARK Flexibility Score: inf
ROOT
ATOM      1  C   UNL     1      31.150   2.248 -19.333  1.00  0.00     0.065 A 
ATOM      2  C   UNL     1      31.058   3.483 -19.989  1.00  0.00     0.208 A 
ATOM      3  O   UNL     1      32.143   4.096 -20.443  1.00  0.00    -0.463 OA
ATOM      4  C   UNL     1      33.372   3.601 -20.318  1.00  0.00     0.147 A 
ATOM      5  C   UNL     1      33.554   2.352 -19.677  1.00  0.00     0.066 A 
ATOM      6  C   UNL     1      32.424   1.673 -19.185  1.00  0.00     0.200 A 
ATOM      7  O   UNL     1      32.549   0.544 -18.633  1.00  0.00    -0.288 OA
ATOM      8  C   UNL     1      34.842   1.815 -19.558  1.00  0.00     0.020 A 
ATOM      9  C   UNL     1      35.936   2.494 -20.085  1.00  0.00     0.047 A 
ATOM     10  C   UNL     1      35.777   3.722 -20.732  1.00  0.00     0.125 A 
ATOM     11  C   UNL     1      34.489   4.319 -20.823  1.00  0.00     0.069 A 
ENDROOT
BRANCH   1  12
ATOM     12  C   UNL     1      29.922   1.586 -18.824  1.00  0.00    -0.011 A 
ATOM     13  C   UNL     1      29.530   1.736 -17.482  1.00  0.00     0.013 A 
ATOM     14  C   UNL     1      28.368   1.118 -17.011  1.00  0.00     0.047 A 
ATOM     15  C   UNL     1      27.582   0.345 -17.876  1.00  0.00     0.115 A 
ATOM     16  C   UNL     1      29.124   0.814 -19.688  1.00  0.00     0.013 A 
ATOM     17  C   UNL     1      27.963   0.197 -19.213  1.00  0.00     0.047 A 
BRANCH  15  18
ATOM     18  O   UNL     1      26.422  -0.277 -17.417  1.00  0.00    -0.508 OA
ATOM     19  H   UNL     1      26.281  -1.275 -17.521  1.00  0.00     0.293 HD
ENDBRANCH  15  18
ENDBRANCH   1  12
BRANCH  11  20
ATOM     20  C   UNL     1      34.309   5.680 -21.498  1.00  0.00     0.188 C 
ATOM     21  C   UNL     1      33.995   5.505 -23.008  1.00  0.00     0.179 C 
ATOM     22  O   UNL     1      33.293   6.435 -20.855  1.00  0.00    -0.362 OA
ATOM     23  C   UNL     1      33.762   6.890 -23.662  1.00  0.00     0.177 C 
ATOM     24  C   UNL     1      33.254   7.763 -21.353  1.00  0.00     0.176 C 
ATOM     25  C   UNL     1      32.807   7.778 -22.835  1.00  0.00     0.177 C 
BRANCH  21  26
ATOM     26  O   UNL     1      32.911   4.632 -23.224  1.00  0.00    -0.387 OA
ATOM     27  H   UNL     1      32.442   4.916 -24.049  1.00  0.00     0.211 HD
ENDBRANCH  21  26
BRANCH  23  28
ATOM     28  O   UNL     1      33.344   6.774 -25.000  1.00  0.00    -0.387 OA
ATOM     29  H   UNL     1      33.625   7.592 -25.485  1.00  0.00     0.211 HD
ENDBRANCH  23  28
BRANCH  24  30
ATOM     30  C   UNL     1      32.312   8.600 -20.475  1.00  0.00     0.191 C 
BRANCH  30  31
ATOM     31  O   UNL     1      31.207   7.832 -20.077  1.00  0.00    -0.394 OA
ATOM     32  H   UNL     1      30.787   7.485 -20.907  1.00  0.00     0.210 HD
ENDBRANCH  30  31
ENDBRANCH  24  30
BRANCH  25  33
ATOM     33  O   UNL     1      31.482   7.318 -22.954  1.00  0.00    -0.388 OA
ATOM     34  H   UNL     1      31.110   7.250 -22.037  1.00  0.00     0.211 HD
ENDBRANCH  25  33
ENDBRANCH  11  20
BRANCH  10  35
ATOM     35  O   UNL     1      36.927   4.305 -21.275  1.00  0.00    -0.507 OA
ATOM     36  H   UNL     1      37.057   5.298 -21.407  1.00  0.00     0.293 HD
ENDBRANCH  10  35
TORSDOF 9
ENDMDL
MODEL 9
REMARK VINA RESULT:    -5.834     11.589     13.776
REMARK INTER + INTRA:          -8.551
REMARK INTER:                  -7.893
REMARK INTRA:                  -0.658
REMARK UNBOUND:                -0.671
REMARK SMILES O=c1c(-c2ccc(O)cc2)coc2c([C@@H]3O[C@H](CO)[C@H](O)[C@H](O)[C@@H]3O)c(O)ccc12
REMARK SMILES IDX 3 1 11 2 12 3 13 4 30 5 2 6 1 7 29 8 28 9 26 10 14 11 4 12
REMARK SMILES IDX 5 13 6 14 7 15 10 16 9 17 8 18 15 20 24 21 16 22 22 23 17 24
REMARK SMILES IDX 20 25 25 26 23 28 18 30 19 31 21 33 27 35
REMARK H PARENT 8 19 25 27 23 29 19 32 21 34 27 36
REMARK Flexibility Score: inf
ROOT
ATOM      1  C   UNL     1      35.306   1.995 -21.447  1.00  0.00     0.065 A 
ATOM      2  C   UNL     1      34.920   3.101 -22.216  1.00  0.00     0.208 A 
ATOM      3  O   UNL     1      33.788   3.745 -21.963  1.00  0.00    -0.463 OA
ATOM      4  C   UNL     1      32.952   3.403 -20.986  1.00  0.00     0.147 A 
ATOM      5  C   UNL     1      33.271   2.304 -20.153  1.00  0.00     0.066 A 
ATOM      6  C   UNL     1      34.466   1.599 -20.391  1.00  0.00     0.200 A 
ATOM      7  O   UNL     1      34.793   0.631 -19.650  1.00  0.00    -0.288 OA
ATOM      8  C   UNL     1      32.407   1.949 -19.110  1.00  0.00     0.020 A 
ATOM      9  C   UNL     1      31.250   2.686 -18.879  1.00  0.00     0.047 A 
ATOM     10  C   UNL     1      30.922   3.782 -19.680  1.00  0.00     0.125 A 
ATOM     11  C   UNL     1      31.753   4.136 -20.780  1.00  0.00     0.069 A 
ENDROOT
BRANCH   1  12
ATOM     12  C   UNL     1      36.573   1.284 -21.754  1.00  0.00    -0.011 A 
ATOM     13  C   UNL     1      36.593   0.221 -22.675  1.00  0.00     0.013 A 
ATOM     14  C   UNL     1      37.791  -0.438 -22.968  1.00  0.00     0.047 A 
ATOM     15  C   UNL     1      38.983  -0.041 -22.349  1.00  0.00     0.115 A 
ATOM     16  C   UNL     1      37.775   1.682 -21.142  1.00  0.00     0.013 A 
ATOM     17  C   UNL     1      38.971   1.019 -21.437  1.00  0.00     0.047 A 
BRANCH  15  18
ATOM     18  O   UNL     1      40.182  -0.692 -22.632  1.00  0.00    -0.508 OA
ATOM     19  H   UNL     1      40.681  -1.215 -21.921  1.00  0.00     0.293 HD
ENDBRANCH  15  18
ENDBRANCH   1  12
BRANCH  11  20
ATOM     20  C   UNL     1      31.385   5.312 -21.685  1.00  0.00     0.188 C 
ATOM     21  C   UNL     1      32.007   6.631 -21.151  1.00  0.00     0.179 C 
ATOM     22  O   UNL     1      31.789   5.068 -23.024  1.00  0.00    -0.362 OA
ATOM     23  C   UNL     1      31.670   7.799 -22.110  1.00  0.00     0.177 C 
ATOM     24  C   UNL     1      31.283   6.066 -23.898  1.00  0.00     0.176 C 
ATOM     25  C   UNL     1      31.927   7.439 -23.590  1.00  0.00     0.177 C 
BRANCH  21  26
ATOM     26  O   UNL     1      33.394   6.510 -20.936  1.00  0.00    -0.387 OA
ATOM     27  H   UNL     1      33.836   6.398 -21.814  1.00  0.00     0.211 HD
ENDBRANCH  21  26
BRANCH  23  28
ATOM     28  O   UNL     1      32.323   8.988 -21.738  1.00  0.00    -0.387 OA
ATOM     29  H   UNL     1      32.354   9.028 -20.747  1.00  0.00     0.211 HD
ENDBRANCH  23  28
BRANCH  24  30
ATOM     30  C   UNL     1      31.545   5.638 -25.349  1.00  0.00     0.191 C 
BRANCH  30  31
ATOM     31  O   UNL     1      31.978   6.735 -26.110  1.00  0.00    -0.394 OA
ATOM     32  H   UNL     1      32.938   6.583 -26.309  1.00  0.00     0.210 HD
ENDBRANCH  30  31
ENDBRANCH  24  30
BRANCH  25  33
ATOM     33  O   UNL     1      33.309   7.407 -23.854  1.00  0.00    -0.388 OA
ATOM     34  H   UNL     1      33.639   6.511 -23.585  1.00  0.00     0.211 HD
ENDBRANCH  25  33
ENDBRANCH  11  20
BRANCH  10  35
ATOM     35  O   UNL     1      29.767   4.493 -19.339  1.00  0.00    -0.507 OA
ATOM     36  H   UNL     1      29.708   5.160 -18.582  1.00  0.00     0.293 HD
ENDBRANCH  10  35
TORSDOF 9
ENDMDL
