MODEL 1
REMARK VINA RESULT:    -6.677      0.000      0.000
REMARK INTER + INTRA:          -9.074
REMARK INTER:                  -8.434
REMARK INTRA:                  -0.640
REMARK UNBOUND:                -0.640
REMARK SMILES O=C(C=Cc1ccc(O)cc1)c1ccc(O)cc1O
REMARK SMILES IDX 4 1 3 2 5 3 6 4 7 5 8 6 11 7 10 8 9 9 2 11 1 12 12 13 18 14
REMARK SMILES IDX 13 15 17 16 14 17 15 18 19 19 16 21
REMARK H PARENT 9 10 19 20 16 22
REMARK Flexibility Score: inf
ROOT
ATOM      1  C   UNL     1       7.966  -5.718  42.654  1.00  0.00     0.012 C 
ATOM      2  C   UNL     1       8.947  -6.631  42.660  1.00  0.00     0.053 C 
ENDROOT
BRANCH   1   3
ATOM      3  C   UNL     1       8.089  -4.377  42.031  1.00  0.00    -0.025 A 
ATOM      4  C   UNL     1       8.467  -3.293  42.842  1.00  0.00     0.012 A 
ATOM      5  C   UNL     1       8.604  -2.012  42.299  1.00  0.00     0.047 A 
ATOM      6  C   UNL     1       8.376  -1.796  40.937  1.00  0.00     0.115 A 
ATOM      7  C   UNL     1       7.875  -4.154  40.655  1.00  0.00     0.012 A 
ATOM      8  C   UNL     1       8.013  -2.871  40.116  1.00  0.00     0.047 A 
BRANCH   6   9
ATOM      9  O   UNL     1       8.516  -0.515  40.410  1.00  0.00    -0.508 OA
ATOM     10  H   UNL     1       8.773   0.273  40.995  1.00  0.00     0.293 HD
ENDBRANCH   6   9
ENDBRANCH   1   3
BRANCH   2  11
ATOM     11  C   UNL     1       8.799  -7.962  43.288  1.00  0.00     0.189 C 
ATOM     12  O   UNL     1       9.509  -8.229  44.294  1.00  0.00    -0.289 OA
BRANCH  11  13
ATOM     13  C   UNL     1       7.851  -8.987  42.793  1.00  0.00     0.064 A 
ATOM     14  C   UNL     1       7.175  -9.852  43.679  1.00  0.00     0.130 A 
ATOM     15  C   UNL     1       7.589  -9.071  41.416  1.00  0.00     0.020 A 
ATOM     16  C   UNL     1       6.285 -10.813  43.173  1.00  0.00     0.093 A 
ATOM     17  C   UNL     1       6.698 -10.027  40.921  1.00  0.00     0.047 A 
ATOM     18  C   UNL     1       6.047 -10.902  41.799  1.00  0.00     0.119 A 
BRANCH  14  19
ATOM     19  O   UNL     1       7.372  -9.746  45.056  1.00  0.00    -0.507 OA
ATOM     20  H   UNL     1       8.301  -9.695  45.457  1.00  0.00     0.293 HD
ENDBRANCH  14  19
BRANCH  18  21
ATOM     21  O   UNL     1       5.159 -11.861  41.316  1.00  0.00    -0.508 OA
ATOM     22  H   UNL     1       5.254 -12.841  41.558  1.00  0.00     0.293 HD
ENDBRANCH  18  21
ENDBRANCH  11  13
ENDBRANCH   2  11
TORSDOF 6
ENDMDL
MODEL 2
REMARK VINA RESULT:    -6.501      3.303      5.297
REMARK INTER + INTRA:          -8.851
REMARK INTER:                  -8.327
REMARK INTRA:                  -0.524
REMARK UNBOUND:                -0.640
REMARK SMILES O=C(C=Cc1ccc(O)cc1)c1ccc(O)cc1O
REMARK SMILES IDX 4 1 3 2 5 3 6 4 7 5 8 6 11 7 10 8 9 9 2 11 1 12 12 13 18 14
REMARK SMILES IDX 13 15 17 16 14 17 15 18 19 19 16 21
REMARK H PARENT 9 10 19 20 16 22
REMARK Flexibility Score: inf
ROOT
ATOM      1  C   UNL     1       8.266  -3.759  38.048  1.00  0.00     0.012 C 
ATOM      2  C   UNL     1       8.275  -3.840  39.386  1.00  0.00     0.053 C 
ENDROOT
BRANCH   1   3
ATOM      3  C   UNL     1       7.369  -2.858  37.281  1.00  0.00    -0.025 A 
ATOM      4  C   UNL     1       7.479  -2.835  35.881  1.00  0.00     0.012 A 
ATOM      5  C   UNL     1       6.651  -2.010  35.115  1.00  0.00     0.047 A 
ATOM      6  C   UNL     1       5.693  -1.203  35.735  1.00  0.00     0.115 A 
ATOM      7  C   UNL     1       6.389  -2.053  37.899  1.00  0.00     0.012 A 
ATOM      8  C   UNL     1       5.563  -1.228  37.130  1.00  0.00     0.047 A 
BRANCH   6   9
ATOM      9  O   UNL     1       4.875  -0.385  34.960  1.00  0.00    -0.508 OA
ATOM     10  H   UNL     1       3.877  -0.547  34.890  1.00  0.00     0.293 HD
ENDBRANCH   6   9
ENDBRANCH   1   3
BRANCH   2  11
ATOM     11  C   UNL     1       9.180  -4.746  40.126  1.00  0.00     0.189 C 
ATOM     12  O   UNL     1      10.344  -4.923  39.678  1.00  0.00    -0.289 OA
BRANCH  11  13
ATOM     13  C   UNL     1       8.782  -5.446  41.369  1.00  0.00     0.064 A 
ATOM     14  C   UNL     1       9.351  -6.685  41.730  1.00  0.00     0.130 A 
ATOM     15  C   UNL     1       7.849  -4.843  42.227  1.00  0.00     0.020 A 
ATOM     16  C   UNL     1       8.948  -7.320  42.916  1.00  0.00     0.093 A 
ATOM     17  C   UNL     1       7.457  -5.479  43.409  1.00  0.00     0.047 A 
ATOM     18  C   UNL     1       8.003  -6.721  43.753  1.00  0.00     0.119 A 
BRANCH  14  19
ATOM     19  O   UNL     1      10.326  -7.275  40.925  1.00  0.00    -0.507 OA
ATOM     20  H   UNL     1      10.388  -8.280  40.815  1.00  0.00     0.293 HD
ENDBRANCH  14  19
BRANCH  18  21
ATOM     21  O   UNL     1       7.617  -7.366  44.926  1.00  0.00    -0.508 OA
ATOM     22  H   UNL     1       7.644  -8.375  45.009  1.00  0.00     0.293 HD
ENDBRANCH  18  21
ENDBRANCH  11  13
ENDBRANCH   2  11
TORSDOF 6
ENDMDL
MODEL 3
REMARK VINA RESULT:    -6.479      2.719      7.306
REMARK INTER + INTRA:          -8.823
REMARK INTER:                  -8.106
REMARK INTRA:                  -0.717
REMARK UNBOUND:                -0.640
REMARK SMILES O=C(C=Cc1ccc(O)cc1)c1ccc(O)cc1O
REMARK SMILES IDX 4 1 3 2 5 3 6 4 7 5 8 6 11 7 10 8 9 9 2 11 1 12 12 13 18 14
REMARK SMILES IDX 13 15 17 16 14 17 15 18 19 19 16 21
REMARK H PARENT 9 10 19 20 16 22
REMARK Flexibility Score: inf
ROOT
ATOM      1  C   UNL     1       7.808  -5.348  40.936  1.00  0.00     0.012 C 
ATOM      2  C   UNL     1       8.132  -4.066  41.157  1.00  0.00     0.053 C 
ENDROOT
BRANCH   1   3
ATOM      3  C   UNL     1       7.853  -6.403  41.978  1.00  0.00    -0.025 A 
ATOM      4  C   UNL     1       7.861  -7.748  41.571  1.00  0.00     0.012 A 
ATOM      5  C   UNL     1       7.910  -8.777  42.517  1.00  0.00     0.047 A 
ATOM      6  C   UNL     1       7.963  -8.478  43.880  1.00  0.00     0.115 A 
ATOM      7  C   UNL     1       7.922  -6.109  43.356  1.00  0.00     0.012 A 
ATOM      8  C   UNL     1       7.971  -7.142  44.298  1.00  0.00     0.047 A 
BRANCH   6   9
ATOM      9  O   UNL     1       8.011  -9.514  44.811  1.00  0.00    -0.508 OA
ATOM     10  H   UNL     1       8.645 -10.298  44.698  1.00  0.00     0.293 HD
ENDBRANCH   6   9
ENDBRANCH   1   3
BRANCH   2  11
ATOM     11  C   UNL     1       8.079  -3.033  40.100  1.00  0.00     0.189 C 
ATOM     12  O   UNL     1       7.913  -1.833  40.446  1.00  0.00    -0.289 OA
BRANCH  11  13
ATOM     13  C   UNL     1       8.220  -3.345  38.659  1.00  0.00     0.064 A 
ATOM     14  C   UNL     1       7.132  -3.217  37.769  1.00  0.00     0.130 A 
ATOM     15  C   UNL     1       9.473  -3.736  38.161  1.00  0.00     0.020 A 
ATOM     16  C   UNL     1       7.303  -3.523  36.410  1.00  0.00     0.093 A 
ATOM     17  C   UNL     1       9.635  -4.034  36.805  1.00  0.00     0.047 A 
ATOM     18  C   UNL     1       8.549  -3.932  35.928  1.00  0.00     0.119 A 
BRANCH  14  19
ATOM     19  O   UNL     1       5.893  -2.770  38.229  1.00  0.00    -0.507 OA
ATOM     20  H   UNL     1       5.641  -2.821  39.209  1.00  0.00     0.293 HD
ENDBRANCH  14  19
BRANCH  18  21
ATOM     21  O   UNL     1       8.699  -4.231  34.575  1.00  0.00    -0.508 OA
ATOM     22  H   UNL     1       9.579  -4.083  34.095  1.00  0.00     0.293 HD
ENDBRANCH  18  21
ENDBRANCH  11  13
ENDBRANCH   2  11
TORSDOF 6
ENDMDL
MODEL 4
REMARK VINA RESULT:    -6.394      2.843      7.539
REMARK INTER + INTRA:          -8.716
REMARK INTER:                  -8.116
REMARK INTRA:                  -0.600
REMARK UNBOUND:                -0.640
REMARK SMILES O=C(C=Cc1ccc(O)cc1)c1ccc(O)cc1O
REMARK SMILES IDX 4 1 3 2 5 3 6 4 7 5 8 6 11 7 10 8 9 9 2 11 1 12 12 13 18 14
REMARK SMILES IDX 13 15 17 16 14 17 15 18 19 19 16 21
REMARK H PARENT 9 10 19 20 16 22
REMARK Flexibility Score: inf
ROOT
ATOM      1  C   UNL     1       9.259  -6.081  40.886  1.00  0.00     0.012 C 
ATOM      2  C   UNL     1       8.526  -5.084  40.371  1.00  0.00     0.053 C 
ENDROOT
BRANCH   1   3
ATOM      3  C   UNL     1       8.759  -7.030  41.912  1.00  0.00    -0.025 A 
ATOM      4  C   UNL     1       8.672  -6.592  43.245  1.00  0.00     0.012 A 
ATOM      5  C   UNL     1       8.199  -7.446  44.246  1.00  0.00     0.047 A 
ATOM      6  C   UNL     1       7.796  -8.746  43.928  1.00  0.00     0.115 A 
ATOM      7  C   UNL     1       8.335  -8.338  41.598  1.00  0.00     0.012 A 
ATOM      8  C   UNL     1       7.863  -9.189  42.602  1.00  0.00     0.047 A 
BRANCH   6   9
ATOM      9  O   UNL     1       7.328  -9.586  44.936  1.00  0.00    -0.508 OA
ATOM     10  H   UNL     1       7.948 -10.219  45.429  1.00  0.00     0.293 HD
ENDBRANCH   6   9
ENDBRANCH   1   3
BRANCH   2  11
ATOM     11  C   UNL     1       9.049  -4.152  39.349  1.00  0.00     0.189 C 
ATOM     12  O   UNL     1      10.285  -3.911  39.339  1.00  0.00    -0.289 OA
BRANCH  11  13
ATOM     13  C   UNL     1       8.188  -3.499  38.336  1.00  0.00     0.064 A 
ATOM     14  C   UNL     1       8.388  -3.709  36.955  1.00  0.00     0.130 A 
ATOM     15  C   UNL     1       7.124  -2.688  38.761  1.00  0.00     0.020 A 
ATOM     16  C   UNL     1       7.553  -3.071  36.024  1.00  0.00     0.093 A 
ATOM     17  C   UNL     1       6.294  -2.061  37.827  1.00  0.00     0.047 A 
ATOM     18  C   UNL     1       6.509  -2.249  36.456  1.00  0.00     0.119 A 
BRANCH  14  19
ATOM     19  O   UNL     1       9.400  -4.560  36.510  1.00  0.00    -0.507 OA
ATOM     20  H   UNL     1      10.200  -4.211  35.996  1.00  0.00     0.293 HD
ENDBRANCH  14  19
BRANCH  18  21
ATOM     21  O   UNL     1       5.691  -1.626  35.517  1.00  0.00    -0.508 OA
ATOM     22  H   UNL     1       4.680  -1.664  35.587  1.00  0.00     0.293 HD
ENDBRANCH  18  21
ENDBRANCH  11  13
ENDBRANCH   2  11
TORSDOF 6
ENDMDL
MODEL 5
REMARK VINA RESULT:    -6.360      2.944      5.296
REMARK INTER + INTRA:          -8.673
REMARK INTER:                  -7.969
REMARK INTRA:                  -0.704
REMARK UNBOUND:                -0.640
REMARK SMILES O=C(C=Cc1ccc(O)cc1)c1ccc(O)cc1O
REMARK SMILES IDX 4 1 3 2 5 3 6 4 7 5 8 6 11 7 10 8 9 9 2 11 1 12 12 13 18 14
REMARK SMILES IDX 13 15 17 16 14 17 15 18 19 19 16 21
REMARK H PARENT 9 10 19 20 16 22
REMARK Flexibility Score: inf
ROOT
ATOM      1  C   UNL     1       7.904  -3.369  39.503  1.00  0.00     0.012 C 
ATOM      2  C   UNL     1       8.223  -2.479  40.455  1.00  0.00     0.053 C 
ENDROOT
BRANCH   1   3
ATOM      3  C   UNL     1       7.337  -2.999  38.183  1.00  0.00    -0.025 A 
ATOM      4  C   UNL     1       6.477  -1.890  38.110  1.00  0.00     0.012 A 
ATOM      5  C   UNL     1       5.924  -1.497  36.887  1.00  0.00     0.047 A 
ATOM      6  C   UNL     1       6.231  -2.199  35.718  1.00  0.00     0.115 A 
ATOM      7  C   UNL     1       7.654  -3.693  36.996  1.00  0.00     0.012 A 
ATOM      8  C   UNL     1       7.099  -3.297  35.776  1.00  0.00     0.047 A 
BRANCH   6   9
ATOM      9  O   UNL     1       5.673  -1.798  34.507  1.00  0.00    -0.508 OA
ATOM     10  H   UNL     1       6.229  -1.738  33.661  1.00  0.00     0.293 HD
ENDBRANCH   6   9
ENDBRANCH   1   3
BRANCH   2  11
ATOM     11  C   UNL     1       8.788  -2.874  41.763  1.00  0.00     0.189 C 
ATOM     12  O   UNL     1       9.448  -2.018  42.411  1.00  0.00    -0.289 OA
BRANCH  11  13
ATOM     13  C   UNL     1       8.607  -4.223  42.346  1.00  0.00     0.064 A 
ATOM     14  C   UNL     1       9.646  -5.177  42.329  1.00  0.00     0.130 A 
ATOM     15  C   UNL     1       7.389  -4.544  42.966  1.00  0.00     0.020 A 
ATOM     16  C   UNL     1       9.437  -6.447  42.890  1.00  0.00     0.093 A 
ATOM     17  C   UNL     1       7.191  -5.809  43.527  1.00  0.00     0.047 A 
ATOM     18  C   UNL     1       8.213  -6.764  43.486  1.00  0.00     0.119 A 
BRANCH  14  19
ATOM     19  O   UNL     1      10.886  -4.860  41.775  1.00  0.00    -0.507 OA
ATOM     20  H   UNL     1      11.660  -5.514  41.795  1.00  0.00     0.293 HD
ENDBRANCH  14  19
BRANCH  18  21
ATOM     21  O   UNL     1       8.025  -8.029  44.039  1.00  0.00    -0.508 OA
ATOM     22  H   UNL     1       8.010  -8.862  43.462  1.00  0.00     0.293 HD
ENDBRANCH  18  21
ENDBRANCH  11  13
ENDBRANCH   2  11
TORSDOF 6
ENDMDL
MODEL 6
REMARK VINA RESULT:    -6.228      3.384      5.322
REMARK INTER + INTRA:          -8.507
REMARK INTER:                  -7.898
REMARK INTRA:                  -0.608
REMARK UNBOUND:                -0.640
REMARK SMILES O=C(C=Cc1ccc(O)cc1)c1ccc(O)cc1O
REMARK SMILES IDX 4 1 3 2 5 3 6 4 7 5 8 6 11 7 10 8 9 9 2 11 1 12 12 13 18 14
REMARK SMILES IDX 13 15 17 16 14 17 15 18 19 19 16 21
REMARK H PARENT 9 10 19 20 16 22
REMARK Flexibility Score: inf
ROOT
ATOM      1  C   UNL     1       7.199  -2.390  39.042  1.00  0.00     0.012 C 
ATOM      2  C   UNL     1       7.898  -3.447  39.482  1.00  0.00     0.053 C 
ENDROOT
BRANCH   1   3
ATOM      3  C   UNL     1       6.777  -2.208  37.631  1.00  0.00    -0.025 A 
ATOM      4  C   UNL     1       6.072  -1.043  37.287  1.00  0.00     0.012 A 
ATOM      5  C   UNL     1       5.661  -0.822  35.969  1.00  0.00     0.047 A 
ATOM      6  C   UNL     1       5.957  -1.757  34.974  1.00  0.00     0.115 A 
ATOM      7  C   UNL     1       7.086  -3.140  36.618  1.00  0.00     0.012 A 
ATOM      8  C   UNL     1       6.672  -2.916  35.301  1.00  0.00     0.047 A 
BRANCH   6   9
ATOM      9  O   UNL     1       5.540  -1.525  33.665  1.00  0.00    -0.508 OA
ATOM     10  H   UNL     1       4.766  -2.038  33.257  1.00  0.00     0.293 HD
ENDBRANCH   6   9
ENDBRANCH   1   3
BRANCH   2  11
ATOM     11  C   UNL     1       8.306  -3.604  40.895  1.00  0.00     0.189 C 
ATOM     12  O   UNL     1       8.600  -2.568  41.549  1.00  0.00    -0.289 OA
BRANCH  11  13
ATOM     13  C   UNL     1       8.376  -4.919  41.573  1.00  0.00     0.064 A 
ATOM     14  C   UNL     1       7.792  -5.125  42.841  1.00  0.00     0.130 A 
ATOM     15  C   UNL     1       9.001  -5.994  40.921  1.00  0.00     0.020 A 
ATOM     16  C   UNL     1       7.881  -6.384  43.453  1.00  0.00     0.093 A 
ATOM     17  C   UNL     1       9.080  -7.247  41.537  1.00  0.00     0.047 A 
ATOM     18  C   UNL     1       8.523  -7.443  42.806  1.00  0.00     0.119 A 
BRANCH  14  19
ATOM     19  O   UNL     1       7.112  -4.088  43.481  1.00  0.00    -0.507 OA
ATOM     20  H   UNL     1       7.387  -3.760  44.399  1.00  0.00     0.293 HD
ENDBRANCH  14  19
BRANCH  18  21
ATOM     21  O   UNL     1       8.599  -8.686  43.430  1.00  0.00    -0.508 OA
ATOM     22  H   UNL     1       9.487  -9.082  43.715  1.00  0.00     0.293 HD
ENDBRANCH  18  21
ENDBRANCH  11  13
ENDBRANCH   2  11
TORSDOF 6
ENDMDL
MODEL 7
REMARK VINA RESULT:    -6.226      2.103      2.846
REMARK INTER + INTRA:          -8.504
REMARK INTER:                  -7.935
REMARK INTRA:                  -0.568
REMARK UNBOUND:                -0.640
REMARK SMILES O=C(C=Cc1ccc(O)cc1)c1ccc(O)cc1O
REMARK SMILES IDX 4 1 3 2 5 3 6 4 7 5 8 6 11 7 10 8 9 9 2 11 1 12 12 13 18 14
REMARK SMILES IDX 13 15 17 16 14 17 15 18 19 19 16 21
REMARK H PARENT 9 10 19 20 16 22
REMARK Flexibility Score: inf
ROOT
ATOM      1  C   UNL     1       8.717  -4.567  40.219  1.00  0.00     0.012 C 
ATOM      2  C   UNL     1       7.959  -5.348  41.002  1.00  0.00     0.053 C 
ENDROOT
BRANCH   1   3
ATOM      3  C   UNL     1       8.179  -3.730  39.118  1.00  0.00    -0.025 A 
ATOM      4  C   UNL     1       7.407  -2.603  39.449  1.00  0.00     0.012 A 
ATOM      5  C   UNL     1       6.885  -1.779  38.447  1.00  0.00     0.047 A 
ATOM      6  C   UNL     1       7.135  -2.062  37.102  1.00  0.00     0.115 A 
ATOM      7  C   UNL     1       8.439  -4.000  37.758  1.00  0.00     0.012 A 
ATOM      8  C   UNL     1       7.915  -3.174  36.760  1.00  0.00     0.047 A 
BRANCH   6   9
ATOM      9  O   UNL     1       6.608  -1.233  36.115  1.00  0.00    -0.508 OA
ATOM     10  H   UNL     1       6.150  -0.358  36.346  1.00  0.00     0.293 HD
ENDBRANCH   6   9
ENDBRANCH   1   3
BRANCH   2  11
ATOM     11  C   UNL     1       8.521  -6.173  42.093  1.00  0.00     0.189 C 
ATOM     12  O   UNL     1       9.430  -5.675  42.809  1.00  0.00    -0.289 OA
BRANCH  11  13
ATOM     13  C   UNL     1       8.060  -7.549  42.384  1.00  0.00     0.064 A 
ATOM     14  C   UNL     1       8.076  -8.069  43.696  1.00  0.00     0.130 A 
ATOM     15  C   UNL     1       7.556  -8.340  41.339  1.00  0.00     0.020 A 
ATOM     16  C   UNL     1       7.632  -9.379  43.934  1.00  0.00     0.093 A 
ATOM     17  C   UNL     1       7.111  -9.642  41.585  1.00  0.00     0.047 A 
ATOM     18  C   UNL     1       7.152 -10.165  42.883  1.00  0.00     0.119 A 
BRANCH  14  19
ATOM     19  O   UNL     1       8.513  -7.281  44.761  1.00  0.00    -0.507 OA
ATOM     20  H   UNL     1       8.288  -7.513  45.721  1.00  0.00     0.293 HD
ENDBRANCH  14  19
BRANCH  18  21
ATOM     21  O   UNL     1       6.715 -11.463  43.139  1.00  0.00    -0.508 OA
ATOM     22  H   UNL     1       5.862 -11.642  43.656  1.00  0.00     0.293 HD
ENDBRANCH  18  21
ENDBRANCH  11  13
ENDBRANCH   2  11
TORSDOF 6
ENDMDL
MODEL 8
REMARK VINA RESULT:    -6.084      1.603      7.323
REMARK INTER + INTRA:          -8.324
REMARK INTER:                  -7.661
REMARK INTRA:                  -0.663
REMARK UNBOUND:                -0.640
REMARK SMILES O=C(C=Cc1ccc(O)cc1)c1ccc(O)cc1O
REMARK SMILES IDX 4 1 3 2 5 3 6 4 7 5 8 6 11 7 10 8 9 9 2 11 1 12 12 13 18 14
REMARK SMILES IDX 13 15 17 16 14 17 15 18 19 19 16 21
REMARK H PARENT 9 10 19 20 16 22
REMARK Flexibility Score: inf
ROOT
ATOM      1  C   UNL     1       8.613  -7.404  42.135  1.00  0.00     0.012 C 
ATOM      2  C   UNL     1       8.324  -6.181  42.602  1.00  0.00     0.053 C 
ENDROOT
BRANCH   1   3
ATOM      3  C   UNL     1       7.870  -8.631  42.516  1.00  0.00    -0.025 A 
ATOM      4  C   UNL     1       7.923  -9.059  43.854  1.00  0.00     0.012 A 
ATOM      5  C   UNL     1       7.232 -10.204  44.263  1.00  0.00     0.047 A 
ATOM      6  C   UNL     1       6.470 -10.931  43.345  1.00  0.00     0.115 A 
ATOM      7  C   UNL     1       7.086  -9.362  41.599  1.00  0.00     0.012 A 
ATOM      8  C   UNL     1       6.397 -10.507  42.013  1.00  0.00     0.047 A 
BRANCH   6   9
ATOM      9  O   UNL     1       5.788 -12.070  43.767  1.00  0.00    -0.508 OA
ATOM     10  H   UNL     1       6.214 -12.989  43.723  1.00  0.00     0.293 HD
ENDBRANCH   6   9
ENDBRANCH   1   3
BRANCH   2  11
ATOM     11  C   UNL     1       9.081  -4.974  42.205  1.00  0.00     0.189 C 
ATOM     12  O   UNL     1      10.216  -4.786  42.719  1.00  0.00    -0.289 OA
BRANCH  11  13
ATOM     13  C   UNL     1       8.569  -3.984  41.230  1.00  0.00     0.064 A 
ATOM     14  C   UNL     1       8.445  -2.619  41.563  1.00  0.00     0.130 A 
ATOM     15  C   UNL     1       8.239  -4.408  39.932  1.00  0.00     0.020 A 
ATOM     16  C   UNL     1       7.955  -1.710  40.612  1.00  0.00     0.093 A 
ATOM     17  C   UNL     1       7.756  -3.495  38.990  1.00  0.00     0.047 A 
ATOM     18  C   UNL     1       7.609  -2.145  39.330  1.00  0.00     0.119 A 
BRANCH  14  19
ATOM     19  O   UNL     1       8.826  -2.164  42.825  1.00  0.00    -0.507 OA
ATOM     20  H   UNL     1       8.144  -1.833  43.498  1.00  0.00     0.293 HD
ENDBRANCH  14  19
BRANCH  18  21
ATOM     21  O   UNL     1       7.125  -1.228  38.400  1.00  0.00    -0.508 OA
ATOM     22  H   UNL     1       7.718  -0.851  37.669  1.00  0.00     0.293 HD
ENDBRANCH  18  21
ENDBRANCH  11  13
ENDBRANCH   2  11
TORSDOF 6
ENDMDL
MODEL 9
REMARK VINA RESULT:    -6.024      2.245      7.239
REMARK INTER + INTRA:          -8.249
REMARK INTER:                  -7.584
REMARK INTRA:                  -0.666
REMARK UNBOUND:                -0.640
REMARK SMILES O=C(C=Cc1ccc(O)cc1)c1ccc(O)cc1O
REMARK SMILES IDX 4 1 3 2 5 3 6 4 7 5 8 6 11 7 10 8 9 9 2 11 1 12 12 13 18 14
REMARK SMILES IDX 13 15 17 16 14 17 15 18 19 19 16 21
REMARK H PARENT 9 10 19 20 16 22
REMARK Flexibility Score: inf
ROOT
ATOM      1  C   UNL     1       8.446  -6.946  41.715  1.00  0.00     0.012 C 
ATOM      2  C   UNL     1       9.249  -6.127  42.410  1.00  0.00     0.053 C 
ENDROOT
BRANCH   1   3
ATOM      3  C   UNL     1       7.898  -8.217  42.251  1.00  0.00    -0.025 A 
ATOM      4  C   UNL     1       7.264  -9.102  41.362  1.00  0.00     0.012 A 
ATOM      5  C   UNL     1       6.740 -10.315  41.818  1.00  0.00     0.047 A 
ATOM      6  C   UNL     1       6.850 -10.666  43.166  1.00  0.00     0.115 A 
ATOM      7  C   UNL     1       8.018  -8.586  43.607  1.00  0.00     0.012 A 
ATOM      8  C   UNL     1       7.492  -9.799  44.060  1.00  0.00     0.047 A 
BRANCH   6   9
ATOM      9  O   UNL     1       6.321 -11.877  43.607  1.00  0.00    -0.508 OA
ATOM     10  H   UNL     1       6.891 -12.714  43.663  1.00  0.00     0.293 HD
ENDBRANCH   6   9
ENDBRANCH   1   3
BRANCH   2  11
ATOM     11  C   UNL     1       9.782  -4.866  41.852  1.00  0.00     0.189 C 
ATOM     12  O   UNL     1      10.759  -4.322  42.433  1.00  0.00    -0.289 OA
BRANCH  11  13
ATOM     13  C   UNL     1       9.225  -4.220  40.641  1.00  0.00     0.064 A 
ATOM     14  C   UNL     1       9.829  -4.384  39.376  1.00  0.00     0.130 A 
ATOM     15  C   UNL     1       8.048  -3.463  40.747  1.00  0.00     0.020 A 
ATOM     16  C   UNL     1       9.273  -3.755  38.251  1.00  0.00     0.093 A 
ATOM     17  C   UNL     1       7.499  -2.844  39.621  1.00  0.00     0.047 A 
ATOM     18  C   UNL     1       8.113  -2.986  38.371  1.00  0.00     0.119 A 
BRANCH  14  19
ATOM     19  O   UNL     1      10.963  -5.183  39.235  1.00  0.00    -0.507 OA
ATOM     20  H   UNL     1      11.632  -5.295  39.988  1.00  0.00     0.293 HD
ENDBRANCH  14  19
BRANCH  18  21
ATOM     21  O   UNL     1       7.576  -2.371  37.242  1.00  0.00    -0.508 OA
ATOM     22  H   UNL     1       7.775  -2.710  36.308  1.00  0.00     0.293 HD
ENDBRANCH  18  21
ENDBRANCH  11  13
ENDBRANCH   2  11
TORSDOF 6
ENDMDL
