MODEL 1
REMARK VINA RESULT:    -2.795      0.000      0.000
REMARK INTER + INTRA:          -2.877
REMARK INTER:                  -2.877
REMARK INTRA:                   0.000
REMARK UNBOUND:                 0.000
REMARK SMILES Oc1ccc2[nH]ccc2c1
REMARK SMILES IDX 3 1 4 2 5 3 9 4 8 5 7 6 6 7 10 8 2 9 1 11
REMARK H PARENT 6 10 1 12
REMARK Flexibility Score: inf
ROOT
ATOM      1  C   UNL     1     -13.505  -2.616  18.398  1.00  0.00     0.048 A 
ATOM      2  C   UNL     1     -14.660  -1.880  18.718  1.00  0.00     0.030 A 
ATOM      3  C   UNL     1     -15.547  -1.579  17.686  1.00  0.00     0.046 A 
ATOM      4  C   UNL     1     -15.315  -1.980  16.398  1.00  0.00     0.003 A 
ATOM      5  C   UNL     1     -16.366  -1.529  15.630  1.00  0.00     0.028 A 
ATOM      6  C   UNL     1     -17.204  -0.861  16.517  1.00  0.00     0.083 A 
ATOM      7  N   UNL     1     -16.700  -0.895  17.773  1.00  0.00    -0.361 N 
ATOM      8  C   UNL     1     -14.181  -2.709  16.047  1.00  0.00     0.056 A 
ATOM      9  C   UNL     1     -13.262  -3.030  17.065  1.00  0.00     0.116 A 
ATOM     10  H   UNL     1     -17.122  -0.473  18.630  1.00  0.00     0.166 HD
ENDROOT
BRANCH   9  11
ATOM     11  O   UNL     1     -12.118  -3.758  16.749  1.00  0.00    -0.508 OA
ATOM     12  H   UNL     1     -11.241  -3.298  16.536  1.00  0.00     0.293 HD
ENDBRANCH   9  11
TORSDOF 1
ENDMDL
MODEL 2
REMARK VINA RESULT:    -2.734      2.593      3.533
REMARK INTER + INTRA:          -2.814
REMARK INTER:                  -2.814
REMARK INTRA:                   0.000
REMARK UNBOUND:                 0.000
REMARK SMILES Oc1ccc2[nH]ccc2c1
REMARK SMILES IDX 3 1 4 2 5 3 9 4 8 5 7 6 6 7 10 8 2 9 1 11
REMARK H PARENT 6 10 1 12
REMARK Flexibility Score: inf
ROOT
ATOM      1  C   UNL     1     -15.469  -1.647  18.723  1.00  0.00     0.048 A 
ATOM      2  C   UNL     1     -14.240  -2.329  18.662  1.00  0.00     0.030 A 
ATOM      3  C   UNL     1     -13.718  -2.617  17.402  1.00  0.00     0.046 A 
ATOM      4  C   UNL     1     -14.368  -2.254  16.254  1.00  0.00     0.003 A 
ATOM      5  C   UNL     1     -13.599  -2.679  15.193  1.00  0.00     0.028 A 
ATOM      6  C   UNL     1     -12.492  -3.294  15.769  1.00  0.00     0.083 A 
ATOM      7  N   UNL     1     -12.569  -3.254  17.120  1.00  0.00    -0.361 N 
ATOM      8  C   UNL     1     -15.586  -1.577  16.279  1.00  0.00     0.056 A 
ATOM      9  C   UNL     1     -16.143  -1.271  17.536  1.00  0.00     0.116 A 
ATOM     10  H   UNL     1     -11.877  -3.640  17.799  1.00  0.00     0.166 HD
ENDROOT
BRANCH   9  11
ATOM     11  O   UNL     1     -17.360  -0.595  17.598  1.00  0.00    -0.508 OA
ATOM     12  H   UNL     1     -17.443   0.371  17.307  1.00  0.00     0.293 HD
ENDBRANCH   9  11
TORSDOF 1
ENDMDL
MODEL 3
REMARK VINA RESULT:    -2.509      2.630      4.050
REMARK INTER + INTRA:          -2.583
REMARK INTER:                  -2.583
REMARK INTRA:                   0.000
REMARK UNBOUND:                 0.000
REMARK SMILES Oc1ccc2[nH]ccc2c1
REMARK SMILES IDX 3 1 4 2 5 3 9 4 8 5 7 6 6 7 10 8 2 9 1 11
REMARK H PARENT 6 10 1 12
REMARK Flexibility Score: inf
ROOT
ATOM      1  C   UNL     1     -16.964  -1.378  16.006  1.00  0.00     0.048 A 
ATOM      2  C   UNL     1     -16.126  -2.374  15.473  1.00  0.00     0.030 A 
ATOM      3  C   UNL     1     -14.964  -2.691  16.175  1.00  0.00     0.046 A 
ATOM      4  C   UNL     1     -14.637  -2.062  17.346  1.00  0.00     0.003 A 
ATOM      5  C   UNL     1     -13.445  -2.596  17.782  1.00  0.00     0.028 A 
ATOM      6  C   UNL     1     -13.102  -3.549  16.828  1.00  0.00     0.083 A 
ATOM      7  N   UNL     1     -14.034  -3.603  15.848  1.00  0.00    -0.361 N 
ATOM      8  C   UNL     1     -15.445  -1.071  17.900  1.00  0.00     0.056 A 
ATOM      9  C   UNL     1     -16.626  -0.725  17.217  1.00  0.00     0.116 A 
ATOM     10  H   UNL     1     -14.027  -4.226  15.010  1.00  0.00     0.166 HD
ENDROOT
BRANCH   9  11
ATOM     11  O   UNL     1     -17.457   0.261  17.743  1.00  0.00    -0.508 OA
ATOM     12  H   UNL     1     -17.417   1.217  17.413  1.00  0.00     0.293 HD
ENDBRANCH   9  11
TORSDOF 1
ENDMDL
MODEL 4
REMARK VINA RESULT:    -2.415      2.258      3.563
REMARK INTER + INTRA:          -2.485
REMARK INTER:                  -2.485
REMARK INTRA:                   0.000
REMARK UNBOUND:                 0.000
REMARK SMILES Oc1ccc2[nH]ccc2c1
REMARK SMILES IDX 3 1 4 2 5 3 9 4 8 5 7 6 6 7 10 8 2 9 1 11
REMARK H PARENT 6 10 1 12
REMARK Flexibility Score: inf
ROOT
ATOM      1  C   UNL     1     -14.418  -2.528  15.936  1.00  0.00     0.048 A 
ATOM      2  C   UNL     1     -13.521  -2.817  16.981  1.00  0.00     0.030 A 
ATOM      3  C   UNL     1     -13.912  -2.499  18.281  1.00  0.00     0.046 A 
ATOM      4  C   UNL     1     -15.125  -1.923  18.547  1.00  0.00     0.003 A 
ATOM      5  C   UNL     1     -15.203  -1.738  19.909  1.00  0.00     0.028 A 
ATOM      6  C   UNL     1     -14.001  -2.227  20.412  1.00  0.00     0.083 A 
ATOM      7  N   UNL     1     -13.216  -2.691  19.413  1.00  0.00    -0.361 N 
ATOM      8  C   UNL     1     -16.035  -1.623  17.535  1.00  0.00     0.056 A 
ATOM      9  C   UNL     1     -15.673  -1.931  16.210  1.00  0.00     0.116 A 
ATOM     10  H   UNL     1     -12.264  -3.110  19.507  1.00  0.00     0.166 HD
ENDROOT
BRANCH   9  11
ATOM     11  O   UNL     1     -16.559  -1.644  15.174  1.00  0.00    -0.508 OA
ATOM     12  H   UNL     1     -16.508  -0.773  14.660  1.00  0.00     0.293 HD
ENDBRANCH   9  11
TORSDOF 1
ENDMDL
MODEL 5
REMARK VINA RESULT:    -2.351      1.439      1.687
REMARK INTER + INTRA:          -2.420
REMARK INTER:                  -2.420
REMARK INTRA:                   0.000
REMARK UNBOUND:                 0.000
REMARK SMILES Oc1ccc2[nH]ccc2c1
REMARK SMILES IDX 3 1 4 2 5 3 9 4 8 5 7 6 6 7 10 8 2 9 1 11
REMARK H PARENT 6 10 1 12
REMARK Flexibility Score: inf
ROOT
ATOM      1  C   UNL     1     -13.585  -3.609  16.767  1.00  0.00     0.048 A 
ATOM      2  C   UNL     1     -13.797  -2.362  17.381  1.00  0.00     0.030 A 
ATOM      3  C   UNL     1     -14.992  -1.697  17.107  1.00  0.00     0.046 A 
ATOM      4  C   UNL     1     -15.936  -2.229  16.271  1.00  0.00     0.003 A 
ATOM      5  C   UNL     1     -16.984  -1.337  16.211  1.00  0.00     0.028 A 
ATOM      6  C   UNL     1     -16.611  -0.282  17.038  1.00  0.00     0.083 A 
ATOM      7  N   UNL     1     -15.393  -0.507  17.584  1.00  0.00    -0.361 N 
ATOM      8  C   UNL     1     -15.756  -3.462  15.647  1.00  0.00     0.056 A 
ATOM      9  C   UNL     1     -14.560  -4.161  15.901  1.00  0.00     0.116 A 
ATOM     10  H   UNL     1     -14.874   0.119  18.239  1.00  0.00     0.166 HD
ENDROOT
BRANCH   9  11
ATOM     11  O   UNL     1     -14.348  -5.396  15.294  1.00  0.00    -0.508 OA
ATOM     12  H   UNL     1     -13.427  -5.813  15.251  1.00  0.00     0.293 HD
ENDBRANCH   9  11
TORSDOF 1
ENDMDL
MODEL 6
REMARK VINA RESULT:    -2.324      1.625      2.280
REMARK INTER + INTRA:          -2.392
REMARK INTER:                  -2.392
REMARK INTRA:                   0.000
REMARK UNBOUND:                 0.000
REMARK SMILES Oc1ccc2[nH]ccc2c1
REMARK SMILES IDX 3 1 4 2 5 3 9 4 8 5 7 6 6 7 10 8 2 9 1 11
REMARK H PARENT 6 10 1 12
REMARK Flexibility Score: inf
ROOT
ATOM      1  C   UNL     1     -13.374  -2.916  17.915  1.00  0.00     0.048 A 
ATOM      2  C   UNL     1     -13.968  -2.843  16.643  1.00  0.00     0.030 A 
ATOM      3  C   UNL     1     -15.148  -2.110  16.516  1.00  0.00     0.046 A 
ATOM      4  C   UNL     1     -15.719  -1.477  17.587  1.00  0.00     0.003 A 
ATOM      5  C   UNL     1     -16.859  -0.850  17.134  1.00  0.00     0.028 A 
ATOM      6  C   UNL     1     -16.920  -1.142  15.775  1.00  0.00     0.083 A 
ATOM      7  N   UNL     1     -15.872  -1.912  15.402  1.00  0.00    -0.361 N 
ATOM      8  C   UNL     1     -15.157  -1.530  18.860  1.00  0.00     0.056 A 
ATOM      9  C   UNL     1     -13.965  -2.263  19.024  1.00  0.00     0.116 A 
ATOM     10  H   UNL     1     -15.670  -2.277  14.445  1.00  0.00     0.166 HD
ENDROOT
BRANCH   9  11
ATOM     11  O   UNL     1     -13.376  -2.337  20.284  1.00  0.00    -0.508 OA
ATOM     12  H   UNL     1     -13.001  -1.515  20.742  1.00  0.00     0.293 HD
ENDBRANCH   9  11
TORSDOF 1
ENDMDL
MODEL 7
REMARK VINA RESULT:    -2.009      3.424      4.425
REMARK INTER + INTRA:          -2.068
REMARK INTER:                  -2.068
REMARK INTRA:                   0.000
REMARK UNBOUND:                 0.000
REMARK SMILES Oc1ccc2[nH]ccc2c1
REMARK SMILES IDX 3 1 4 2 5 3 9 4 8 5 7 6 6 7 10 8 2 9 1 11
REMARK H PARENT 6 10 1 12
REMARK Flexibility Score: inf
ROOT
ATOM      1  C   UNL     1     -13.080  -1.998  21.993  1.00  0.00     0.048 A 
ATOM      2  C   UNL     1     -12.629  -2.203  20.677  1.00  0.00     0.030 A 
ATOM      3  C   UNL     1     -13.586  -2.296  19.668  1.00  0.00     0.046 A 
ATOM      4  C   UNL     1     -14.925  -2.194  19.935  1.00  0.00     0.003 A 
ATOM      5  C   UNL     1     -15.595  -2.328  18.739  1.00  0.00     0.028 A 
ATOM      6  C   UNL     1     -14.601  -2.508  17.783  1.00  0.00     0.083 A 
ATOM      7  N   UNL     1     -13.375  -2.488  18.355  1.00  0.00    -0.361 N 
ATOM      8  C   UNL     1     -15.405  -1.991  21.227  1.00  0.00     0.056 A 
ATOM      9  C   UNL     1     -14.465  -1.893  22.271  1.00  0.00     0.116 A 
ATOM     10  H   UNL     1     -12.455  -2.599  17.873  1.00  0.00     0.166 HD
ENDROOT
BRANCH   9  11
ATOM     11  O   UNL     1     -14.911  -1.690  23.575  1.00  0.00    -0.508 OA
ATOM     12  H   UNL     1     -14.263  -1.622  24.351  1.00  0.00     0.293 HD
ENDBRANCH   9  11
TORSDOF 1
ENDMDL
MODEL 8
REMARK VINA RESULT:    -2.005      2.993      3.738
REMARK INTER + INTRA:          -2.064
REMARK INTER:                  -2.064
REMARK INTRA:                   0.000
REMARK UNBOUND:                 0.000
REMARK SMILES Oc1ccc2[nH]ccc2c1
REMARK SMILES IDX 3 1 4 2 5 3 9 4 8 5 7 6 6 7 10 8 2 9 1 11
REMARK H PARENT 6 10 1 12
REMARK Flexibility Score: inf
ROOT
ATOM      1  C   UNL     1     -14.485  -1.782  17.063  1.00  0.00     0.048 A 
ATOM      2  C   UNL     1     -13.803  -2.980  16.781  1.00  0.00     0.030 A 
ATOM      3  C   UNL     1     -14.471  -3.948  16.032  1.00  0.00     0.046 A 
ATOM      4  C   UNL     1     -15.748  -3.753  15.580  1.00  0.00     0.003 A 
ATOM      5  C   UNL     1     -16.115  -4.882  14.883  1.00  0.00     0.028 A 
ATOM      6  C   UNL     1     -15.011  -5.726  14.949  1.00  0.00     0.083 A 
ATOM      7  N   UNL     1     -14.008  -5.150  15.652  1.00  0.00    -0.361 N 
ATOM      8  C   UNL     1     -16.451  -2.579  15.842  1.00  0.00     0.056 A 
ATOM      9  C   UNL     1     -15.807  -1.580  16.597  1.00  0.00     0.116 A 
ATOM     10  H   UNL     1     -13.070  -5.560  15.857  1.00  0.00     0.166 HD
ENDROOT
BRANCH   9  11
ATOM     11  O   UNL     1     -16.481  -0.393  16.878  1.00  0.00    -0.508 OA
ATOM     12  H   UNL     1     -17.335  -0.387  17.421  1.00  0.00     0.293 HD
ENDBRANCH   9  11
TORSDOF 1
ENDMDL
MODEL 9
REMARK VINA RESULT:    -1.211      1.417      2.980
REMARK INTER + INTRA:          -1.246
REMARK INTER:                  -1.246
REMARK INTRA:                   0.000
REMARK UNBOUND:                 0.000
REMARK SMILES Oc1ccc2[nH]ccc2c1
REMARK SMILES IDX 3 1 4 2 5 3 9 4 8 5 7 6 6 7 10 8 2 9 1 11
REMARK H PARENT 6 10 1 12
REMARK Flexibility Score: inf
ROOT
ATOM      1  C   UNL     1     -14.946  -2.336  16.249  1.00  0.00     0.048 A 
ATOM      2  C   UNL     1     -15.772  -2.155  17.373  1.00  0.00     0.030 A 
ATOM      3  C   UNL     1     -15.180  -2.221  18.633  1.00  0.00     0.046 A 
ATOM      4  C   UNL     1     -13.839  -2.455  18.786  1.00  0.00     0.003 A 
ATOM      5  C   UNL     1     -13.575  -2.460  20.138  1.00  0.00     0.028 A 
ATOM      6  C   UNL     1     -14.801  -2.222  20.751  1.00  0.00     0.083 A 
ATOM      7  N   UNL     1     -15.779  -2.077  19.826  1.00  0.00    -0.361 N 
ATOM      8  C   UNL     1     -12.994  -2.639  17.694  1.00  0.00     0.056 A 
ATOM      9  C   UNL     1     -13.559  -2.579  16.406  1.00  0.00     0.116 A 
ATOM     10  H   UNL     1     -16.790  -1.891  20.007  1.00  0.00     0.166 HD
ENDROOT
BRANCH   9  11
ATOM     11  O   UNL     1     -12.743  -2.759  15.292  1.00  0.00    -0.508 OA
ATOM     12  H   UNL     1     -12.933  -2.289  14.416  1.00  0.00     0.293 HD
ENDBRANCH   9  11
TORSDOF 1
ENDMDL
