MODEL 1
REMARK VINA RESULT:    -4.244      0.000      0.000
REMARK INTER + INTRA:          -6.571
REMARK INTER:                  -5.857
REMARK INTRA:                  -0.714
REMARK UNBOUND:                -0.714
REMARK SMILES OC[C@@H](O)[C@@H](O)[C@@H](O)CO
REMARK SMILES IDX 5 1 3 2 2 3 1 4 4 6 7 8 9 9 10 10 8 12 6 14
REMARK H PARENT 1 5 4 7 10 11 8 13 6 15
REMARK Flexibility Score: inf
ROOT
ATOM      1  C   UNL     1      21.861  32.978 101.486  1.00  0.00     0.176 C 
ENDROOT
BRANCH   1   2
ATOM      2  C   UNL     1      21.005  31.962 100.683  1.00  0.00     0.171 C 
BRANCH   2   3
ATOM      3  C   UNL     1      19.533  32.005 101.126  1.00  0.00     0.190 C 
BRANCH   3   4
ATOM      4  O   UNL     1      19.437  32.401 102.469  1.00  0.00    -0.394 OA
ATOM      5  H   UNL     1      20.267  32.090 102.917  1.00  0.00     0.210 HD
ENDBRANCH   3   4
ENDBRANCH   2   3
BRANCH   2   6
ATOM      6  O   UNL     1      21.062  32.264  99.311  1.00  0.00    -0.388 OA
ATOM      7  H   UNL     1      21.334  33.215  99.226  1.00  0.00     0.211 HD
ENDBRANCH   2   6
ENDBRANCH   1   2
BRANCH   1   8
ATOM      8  C   UNL     1      23.000  33.596 100.630  1.00  0.00     0.171 C 
BRANCH   8   9
ATOM      9  C   UNL     1      24.233  33.948 101.483  1.00  0.00     0.190 C 
BRANCH   9  10
ATOM     10  O   UNL     1      23.917  34.948 102.412  1.00  0.00    -0.394 OA
ATOM     11  H   UNL     1      23.138  34.610 102.927  1.00  0.00     0.210 HD
ENDBRANCH   9  10
ENDBRANCH   8   9
BRANCH   8  12
ATOM     12  O   UNL     1      22.536  34.771 100.013  1.00  0.00    -0.388 OA
ATOM     13  H   UNL     1      21.554  34.672  99.903  1.00  0.00     0.211 HD
ENDBRANCH   8  12
ENDBRANCH   1   8
BRANCH   1  14
ATOM     14  O   UNL     1      22.388  32.366 102.639  1.00  0.00    -0.388 OA
ATOM     15  H   UNL     1      21.835  31.564 102.830  1.00  0.00     0.211 HD
ENDBRANCH   1  14
TORSDOF 9
ENDMDL
MODEL 2
REMARK VINA RESULT:    -4.110     14.703     16.209
REMARK INTER + INTRA:          -6.386
REMARK INTER:                  -5.609
REMARK INTRA:                  -0.777
REMARK UNBOUND:                -0.714
REMARK SMILES OC[C@@H](O)[C@@H](O)[C@@H](O)CO
REMARK SMILES IDX 5 1 3 2 2 3 1 4 4 6 7 8 9 9 10 10 8 12 6 14
REMARK H PARENT 1 5 4 7 10 11 8 13 6 15
REMARK Flexibility Score: inf
ROOT
ATOM      1  C   UNL     1      10.647  42.048 107.610  1.00  0.00     0.176 C 
ENDROOT
BRANCH   1   2
ATOM      2  C   UNL     1      12.099  41.807 108.103  1.00  0.00     0.171 C 
BRANCH   2   3
ATOM      3  C   UNL     1      12.112  41.101 109.469  1.00  0.00     0.190 C 
BRANCH   3   4
ATOM      4  O   UNL     1      11.715  39.763 109.332  1.00  0.00    -0.394 OA
ATOM      5  H   UNL     1      10.950  39.629 109.950  1.00  0.00     0.210 HD
ENDBRANCH   3   4
ENDBRANCH   2   3
BRANCH   2   6
ATOM      6  O   UNL     1      12.792  41.000 107.182  1.00  0.00    -0.388 OA
ATOM      7  H   UNL     1      12.136  40.369 106.786  1.00  0.00     0.211 HD
ENDBRANCH   2   6
ENDBRANCH   1   2
BRANCH   1   8
ATOM      8  C   UNL     1       9.747  42.673 108.712  1.00  0.00     0.171 C 
BRANCH   8   9
ATOM      9  C   UNL     1       8.455  41.862 108.924  1.00  0.00     0.190 C 
BRANCH   9  10
ATOM     10  O   UNL     1       8.733  40.662 109.591  1.00  0.00    -0.394 OA
ATOM     11  H   UNL     1       9.686  40.455 109.400  1.00  0.00     0.210 HD
ENDBRANCH   9  10
ENDBRANCH   8   9
BRANCH   8  12
ATOM     12  O   UNL     1       9.395  43.982 108.341  1.00  0.00    -0.388 OA
ATOM     13  H   UNL     1       8.486  43.937 107.945  1.00  0.00     0.211 HD
ENDBRANCH   8  12
ENDBRANCH   1   8
BRANCH   1  14
ATOM     14  O   UNL     1      10.088  40.846 107.139  1.00  0.00    -0.388 OA
ATOM     15  H   UNL     1       9.484  40.500 107.847  1.00  0.00     0.211 HD
ENDBRANCH   1  14
TORSDOF 9
ENDMDL
MODEL 3
REMARK VINA RESULT:    -4.070     14.965     16.254
REMARK INTER + INTRA:          -6.331
REMARK INTER:                  -5.844
REMARK INTRA:                  -0.486
REMARK UNBOUND:                -0.714
REMARK SMILES OC[C@@H](O)[C@@H](O)[C@@H](O)CO
REMARK SMILES IDX 5 1 3 2 2 3 1 4 4 6 7 8 9 9 10 10 8 12 6 14
REMARK H PARENT 1 5 4 7 10 11 8 13 6 15
REMARK Flexibility Score: inf
ROOT
ATOM      1  C   UNL     1      10.703  42.399 107.801  1.00  0.00     0.176 C 
ENDROOT
BRANCH   1   2
ATOM      2  C   UNL     1       9.247  42.464 107.266  1.00  0.00     0.171 C 
BRANCH   2   3
ATOM      3  C   UNL     1       8.349  43.290 108.201  1.00  0.00     0.190 C 
BRANCH   3   4
ATOM      4  O   UNL     1       8.781  44.624 108.243  1.00  0.00    -0.394 OA
ATOM      5  H   UNL     1       7.995  45.185 108.014  1.00  0.00     0.210 HD
ENDBRANCH   3   4
ENDBRANCH   2   3
BRANCH   2   6
ATOM      6  O   UNL     1       9.229  43.061 105.993  1.00  0.00    -0.388 OA
ATOM      7  H   UNL     1       9.374  44.035 106.118  1.00  0.00     0.211 HD
ENDBRANCH   2   6
ENDBRANCH   1   2
BRANCH   1   8
ATOM      8  C   UNL     1      11.336  40.991 107.620  1.00  0.00     0.171 C 
BRANCH   8   9
ATOM      9  C   UNL     1      11.262  40.159 108.914  1.00  0.00     0.190 C 
BRANCH   9  10
ATOM     10  O   UNL     1      12.338  40.466 109.757  1.00  0.00    -0.394 OA
ATOM     11  H   UNL     1      12.999  40.950 109.195  1.00  0.00     0.210 HD
ENDBRANCH   9  10
ENDBRANCH   8   9
BRANCH   8  12
ATOM     12  O   UNL     1      12.686  41.130 107.257  1.00  0.00    -0.388 OA
ATOM     13  H   UNL     1      12.851  40.496 106.510  1.00  0.00     0.211 HD
ENDBRANCH   8  12
ENDBRANCH   1   8
BRANCH   1  14
ATOM     14  O   UNL     1      10.742  42.787 109.153  1.00  0.00    -0.388 OA
ATOM     15  H   UNL     1      11.583  43.295 109.294  1.00  0.00     0.211 HD
ENDBRANCH   1  14
TORSDOF 9
ENDMDL
MODEL 4
REMARK VINA RESULT:    -4.033     15.383     16.758
REMARK INTER + INTRA:          -6.280
REMARK INTER:                  -5.796
REMARK INTRA:                  -0.484
REMARK UNBOUND:                -0.714
REMARK SMILES OC[C@@H](O)[C@@H](O)[C@@H](O)CO
REMARK SMILES IDX 5 1 3 2 2 3 1 4 4 6 7 8 9 9 10 10 8 12 6 14
REMARK H PARENT 1 5 4 7 10 11 8 13 6 15
REMARK Flexibility Score: inf
ROOT
ATOM      1  C   UNL     1       9.413  42.316 108.634  1.00  0.00     0.176 C 
ENDROOT
BRANCH   1   2
ATOM      2  C   UNL     1       9.366  43.324 107.455  1.00  0.00     0.171 C 
BRANCH   2   3
ATOM      3  C   UNL     1       8.047  43.202 106.674  1.00  0.00     0.190 C 
BRANCH   3   4
ATOM      4  O   UNL     1       8.144  42.194 105.704  1.00  0.00    -0.394 OA
ATOM      5  H   UNL     1       7.617  41.423 106.041  1.00  0.00     0.210 HD
ENDBRANCH   3   4
ENDBRANCH   2   3
BRANCH   2   6
ATOM      6  O   UNL     1       9.472  44.639 107.942  1.00  0.00    -0.388 OA
ATOM      7  H   UNL     1      10.379  44.740 108.333  1.00  0.00     0.211 HD
ENDBRANCH   2   6
ENDBRANCH   1   2
BRANCH   1   8
ATOM      8  C   UNL     1      10.471  41.199 108.415  1.00  0.00     0.171 C 
BRANCH   8   9
ATOM      9  C   UNL     1      11.839  41.580 109.012  1.00  0.00     0.190 C 
BRANCH   9  10
ATOM     10  O   UNL     1      12.377  40.503 109.729  1.00  0.00    -0.394 OA
ATOM     11  H   UNL     1      11.614  40.076 110.201  1.00  0.00     0.210 HD
ENDBRANCH   9  10
ENDBRANCH   8   9
BRANCH   8  12
ATOM     12  O   UNL     1      10.634  40.974 107.037  1.00  0.00    -0.388 OA
ATOM     13  H   UNL     1      10.483  40.005 106.883  1.00  0.00     0.211 HD
ENDBRANCH   8  12
ENDBRANCH   1   8
BRANCH   1  14
ATOM     14  O   UNL     1       8.140  41.753 108.845  1.00  0.00    -0.388 OA
ATOM     15  H   UNL     1       7.780  42.137 109.687  1.00  0.00     0.211 HD
ENDBRANCH   1  14
TORSDOF 9
ENDMDL
MODEL 5
REMARK VINA RESULT:    -3.955      1.391      4.333
REMARK INTER + INTRA:          -6.171
REMARK INTER:                  -5.983
REMARK INTRA:                  -0.188
REMARK UNBOUND:                -0.714
REMARK SMILES OC[C@@H](O)[C@@H](O)[C@@H](O)CO
REMARK SMILES IDX 5 1 3 2 2 3 1 4 4 6 7 8 9 9 10 10 8 12 6 14
REMARK H PARENT 1 5 4 7 10 11 8 13 6 15
REMARK Flexibility Score: inf
ROOT
ATOM      1  C   UNL     1      21.687  33.778 101.666  1.00  0.00     0.176 C 
ENDROOT
BRANCH   1   2
ATOM      2  C   UNL     1      22.907  33.957 102.609  1.00  0.00     0.171 C 
BRANCH   2   3
ATOM      3  C   UNL     1      24.076  33.054 102.183  1.00  0.00     0.190 C 
BRANCH   3   4
ATOM      4  O   UNL     1      25.124  33.824 101.658  1.00  0.00    -0.394 OA
ATOM      5  H   UNL     1      25.889  33.726 102.284  1.00  0.00     0.210 HD
ENDBRANCH   3   4
ENDBRANCH   2   3
BRANCH   2   6
ATOM      6  O   UNL     1      23.347  35.293 102.577  1.00  0.00    -0.388 OA
ATOM      7  H   UNL     1      22.555  35.864 102.400  1.00  0.00     0.211 HD
ENDBRANCH   2   6
ENDBRANCH   1   2
BRANCH   1   8
ATOM      8  C   UNL     1      20.860  32.507 102.007  1.00  0.00     0.171 C 
BRANCH   8   9
ATOM      9  C   UNL     1      20.109  31.965 100.777  1.00  0.00     0.190 C 
BRANCH   9  10
ATOM     10  O   UNL     1      18.732  32.184 100.908  1.00  0.00    -0.394 OA
ATOM     11  H   UNL     1      18.505  32.907 100.265  1.00  0.00     0.210 HD
ENDBRANCH   9  10
ENDBRANCH   8   9
BRANCH   8  12
ATOM     12  O   UNL     1      19.918  32.817 103.003  1.00  0.00    -0.388 OA
ATOM     13  H   UNL     1      19.720  33.787 102.923  1.00  0.00     0.211 HD
ENDBRANCH   8  12
ENDBRANCH   1   8
BRANCH   1  14
ATOM     14  O   UNL     1      22.111  33.745 100.324  1.00  0.00    -0.388 OA
ATOM     15  H   UNL     1      21.355  33.399  99.781  1.00  0.00     0.211 HD
ENDBRANCH   1  14
TORSDOF 9
ENDMDL
MODEL 6
REMARK VINA RESULT:    -3.954     15.546     16.965
REMARK INTER + INTRA:          -6.171
REMARK INTER:                  -5.690
REMARK INTRA:                  -0.481
REMARK UNBOUND:                -0.714
REMARK SMILES OC[C@@H](O)[C@@H](O)[C@@H](O)CO
REMARK SMILES IDX 5 1 3 2 2 3 1 4 4 6 7 8 9 9 10 10 8 12 6 14
REMARK H PARENT 1 5 4 7 10 11 8 13 6 15
REMARK Flexibility Score: inf
ROOT
ATOM      1  C   UNL     1       9.426  42.061 108.121  1.00  0.00     0.176 C 
ENDROOT
BRANCH   1   2
ATOM      2  C   UNL     1      10.912  41.672 108.339  1.00  0.00     0.171 C 
BRANCH   2   3
ATOM      3  C   UNL     1      11.032  40.298 109.019  1.00  0.00     0.190 C 
BRANCH   3   4
ATOM      4  O   UNL     1      12.272  40.177 109.664  1.00  0.00    -0.394 OA
ATOM      5  H   UNL     1      12.912  39.835 108.988  1.00  0.00     0.210 HD
ENDBRANCH   3   4
ENDBRANCH   2   3
BRANCH   2   6
ATOM      6  O   UNL     1      11.581  41.614 107.103  1.00  0.00    -0.388 OA
ATOM      7  H   UNL     1      11.793  42.545 106.835  1.00  0.00     0.211 HD
ENDBRANCH   2   6
ENDBRANCH   1   2
BRANCH   1   8
ATOM      8  C   UNL     1       9.274  43.428 107.398  1.00  0.00     0.171 C 
BRANCH   8   9
ATOM      9  C   UNL     1       7.855  44.005 107.554  1.00  0.00     0.190 C 
BRANCH   9  10
ATOM     10  O   UNL     1       7.791  44.855 108.666  1.00  0.00    -0.394 OA
ATOM     11  H   UNL     1       8.728  44.988 108.966  1.00  0.00     0.210 HD
ENDBRANCH   9  10
ENDBRANCH   8   9
BRANCH   8  12
ATOM     12  O   UNL     1       9.540  43.264 106.028  1.00  0.00    -0.388 OA
ATOM     13  H   UNL     1       8.729  43.560 105.538  1.00  0.00     0.211 HD
ENDBRANCH   8  12
ENDBRANCH   1   8
BRANCH   1  14
ATOM     14  O   UNL     1       8.741  42.075 109.350  1.00  0.00    -0.388 OA
ATOM     15  H   UNL     1       9.350  41.694 110.035  1.00  0.00     0.211 HD
ENDBRANCH   1  14
TORSDOF 9
ENDMDL
MODEL 7
REMARK VINA RESULT:    -3.876     15.219     16.366
REMARK INTER + INTRA:          -6.062
REMARK INTER:                  -5.812
REMARK INTRA:                  -0.250
REMARK UNBOUND:                -0.714
REMARK SMILES OC[C@@H](O)[C@@H](O)[C@@H](O)CO
REMARK SMILES IDX 5 1 3 2 2 3 1 4 4 6 7 8 9 9 10 10 8 12 6 14
REMARK H PARENT 1 5 4 7 10 11 8 13 6 15
REMARK Flexibility Score: inf
ROOT
ATOM      1  C   UNL     1      10.689  41.871 108.359  1.00  0.00     0.176 C 
ENDROOT
BRANCH   1   2
ATOM      2  C   UNL     1      10.803  40.664 109.328  1.00  0.00     0.171 C 
BRANCH   2   3
ATOM      3  C   UNL     1       9.895  39.507 108.882  1.00  0.00     0.190 C 
BRANCH   3   4
ATOM      4  O   UNL     1       9.968  38.446 109.797  1.00  0.00    -0.394 OA
ATOM      5  H   UNL     1       9.288  38.627 110.496  1.00  0.00     0.210 HD
ENDBRANCH   3   4
ENDBRANCH   2   3
BRANCH   2   6
ATOM      6  O   UNL     1      12.129  40.198 109.362  1.00  0.00    -0.388 OA
ATOM      7  H   UNL     1      12.408  40.161 110.314  1.00  0.00     0.211 HD
ENDBRANCH   2   6
ENDBRANCH   1   2
BRANCH   1   8
ATOM      8  C   UNL     1       9.273  42.511 108.376  1.00  0.00     0.171 C 
BRANCH   8   9
ATOM      9  C   UNL     1       8.525  42.285 107.049  1.00  0.00     0.190 C 
BRANCH   9  10
ATOM     10  O   UNL     1       8.999  43.163 106.065  1.00  0.00    -0.394 OA
ATOM     11  H   UNL     1       9.967  43.286 106.247  1.00  0.00     0.210 HD
ENDBRANCH   9  10
ENDBRANCH   8   9
BRANCH   8  12
ATOM     12  O   UNL     1       9.388  43.895 108.593  1.00  0.00    -0.388 OA
ATOM     13  H   UNL     1      10.320  44.064 108.893  1.00  0.00     0.211 HD
ENDBRANCH   8  12
ENDBRANCH   1   8
BRANCH   1  14
ATOM     14  O   UNL     1      11.037  41.480 107.053  1.00  0.00    -0.388 OA
ATOM     15  H   UNL     1      10.703  42.180 106.433  1.00  0.00     0.211 HD
ENDBRANCH   1  14
TORSDOF 9
ENDMDL
MODEL 8
REMARK VINA RESULT:    -3.871     15.368     16.966
REMARK INTER + INTRA:          -6.055
REMARK INTER:                  -5.490
REMARK INTRA:                  -0.565
REMARK UNBOUND:                -0.714
REMARK SMILES OC[C@@H](O)[C@@H](O)[C@@H](O)CO
REMARK SMILES IDX 5 1 3 2 2 3 1 4 4 6 7 8 9 9 10 10 8 12 6 14
REMARK H PARENT 1 5 4 7 10 11 8 13 6 15
REMARK Flexibility Score: inf
ROOT
ATOM      1  C   UNL     1       9.508  42.404 108.827  1.00  0.00     0.176 C 
ENDROOT
BRANCH   1   2
ATOM      2  C   UNL     1      10.945  41.908 108.517  1.00  0.00     0.171 C 
BRANCH   2   3
ATOM      3  C   UNL     1      11.168  40.484 109.051  1.00  0.00     0.190 C 
BRANCH   3   4
ATOM      4  O   UNL     1      12.358  40.419 109.791  1.00  0.00    -0.394 OA
ATOM      5  H   UNL     1      12.102  40.494 110.747  1.00  0.00     0.210 HD
ENDBRANCH   3   4
ENDBRANCH   2   3
BRANCH   2   6
ATOM      6  O   UNL     1      11.161  41.898 107.127  1.00  0.00    -0.388 OA
ATOM      7  H   UNL     1      10.304  42.140 106.690  1.00  0.00     0.211 HD
ENDBRANCH   2   6
ENDBRANCH   1   2
BRANCH   1   8
ATOM      8  C   UNL     1       8.428  41.623 108.027  1.00  0.00     0.171 C 
BRANCH   8   9
ATOM      9  C   UNL     1       7.741  42.509 106.973  1.00  0.00     0.190 C 
BRANCH   9  10
ATOM     10  O   UNL     1       8.647  42.860 105.962  1.00  0.00    -0.394 OA
ATOM     11  H   UNL     1       9.526  42.489 106.238  1.00  0.00     0.210 HD
ENDBRANCH   9  10
ENDBRANCH   8   9
BRANCH   8  12
ATOM     12  O   UNL     1       7.448  41.143 108.913  1.00  0.00    -0.388 OA
ATOM     13  H   UNL     1       7.869  41.092 109.811  1.00  0.00     0.211 HD
ENDBRANCH   8  12
ENDBRANCH   1   8
BRANCH   1  14
ATOM     14  O   UNL     1       9.404  43.785 108.574  1.00  0.00    -0.388 OA
ATOM     15  H   UNL     1      10.035  44.002 107.838  1.00  0.00     0.211 HD
ENDBRANCH   1  14
TORSDOF 9
ENDMDL
MODEL 9
REMARK VINA RESULT:    -3.867     15.292     16.720
REMARK INTER + INTRA:          -6.051
REMARK INTER:                  -5.358
REMARK INTRA:                  -0.693
REMARK UNBOUND:                -0.714
REMARK SMILES OC[C@@H](O)[C@@H](O)[C@@H](O)CO
REMARK SMILES IDX 5 1 3 2 2 3 1 4 4 6 7 8 9 9 10 10 8 12 6 14
REMARK H PARENT 1 5 4 7 10 11 8 13 6 15
REMARK Flexibility Score: inf
ROOT
ATOM      1  C   UNL     1       9.596  40.507 109.364  1.00  0.00     0.176 C 
ENDROOT
BRANCH   1   2
ATOM      2  C   UNL     1       8.143  40.959 109.058  1.00  0.00     0.171 C 
BRANCH   2   3
ATOM      3  C   UNL     1       7.123  40.108 109.832  1.00  0.00     0.190 C 
BRANCH   3   4
ATOM      4  O   UNL     1       7.277  40.294 111.214  1.00  0.00    -0.394 OA
ATOM      5  H   UNL     1       6.946  41.207 111.416  1.00  0.00     0.210 HD
ENDBRANCH   3   4
ENDBRANCH   2   3
BRANCH   2   6
ATOM      6  O   UNL     1       7.969  42.304 109.430  1.00  0.00    -0.388 OA
ATOM      7  H   UNL     1       8.681  42.831 108.984  1.00  0.00     0.211 HD
ENDBRANCH   2   6
ENDBRANCH   1   2
BRANCH   1   8
ATOM      8  C   UNL     1      10.541  40.694 108.145  1.00  0.00     0.171 C 
BRANCH   8   9
ATOM      9  C   UNL     1      11.925  41.221 108.568  1.00  0.00     0.190 C 
BRANCH   9  10
ATOM     10  O   UNL     1      12.365  40.568 109.727  1.00  0.00    -0.394 OA
ATOM     11  H   UNL     1      12.050  39.629 109.651  1.00  0.00     0.210 HD
ENDBRANCH   9  10
ENDBRANCH   8   9
BRANCH   8  12
ATOM     12  O   UNL     1       9.970  41.612 107.248  1.00  0.00    -0.388 OA
ATOM     13  H   UNL     1       9.352  42.185 107.773  1.00  0.00     0.211 HD
ENDBRANCH   8  12
ENDBRANCH   1   8
BRANCH   1  14
ATOM     14  O   UNL     1       9.608  39.167 109.796  1.00  0.00    -0.388 OA
ATOM     15  H   UNL     1       8.761  38.748 109.492  1.00  0.00     0.211 HD
ENDBRANCH   1  14
TORSDOF 9
ENDMDL
