MODEL 1
REMARK VINA RESULT:    -4.219      0.000      0.000
REMARK INTER + INTRA:          -6.723
REMARK INTER:                  -6.439
REMARK INTRA:                  -0.284
REMARK UNBOUND:                -0.284
REMARK SMILES CC1=CCC[C@@H](C)C(=O)C[C@@H](C(C)C)C(=O)C1
REMARK SMILES IDX 8 1 9 2 6 3 7 4 5 5 4 6 3 7 2 8 1 9 10 11 11 12 15 13 16 14
REMARK SMILES IDX 17 15 12 17 13 18 14 19
REMARK H PARENT
REMARK Flexibility Score: 70.00
ROOT
ATOM      1  C   UNL     1     -13.734  12.675 -30.789  1.00  0.00     0.136 C 
ATOM      2  O   UNL     1     -13.177  11.653 -31.164  1.00  0.00    -0.299 OA
ENDROOT
BRANCH   1   3
ATOM      3  C   UNL     1     -14.265  13.631 -31.838  1.00  0.00     0.053 C 
ATOM      4  C   UNL     1     -14.109  15.074 -31.346  1.00  0.00     0.016 C 
BRANCH   3   5
ATOM      5  C   UNL     1     -15.729  13.360 -32.253  1.00  0.00     0.015 C 
BRANCH   5   6
ATOM      6  C   UNL     1     -16.766  13.777 -31.188  1.00  0.00     0.028 C 
BRANCH   6   7
ATOM      7  C   UNL     1     -17.495  12.583 -30.612  1.00  0.00    -0.028 C 
ATOM      8  C   UNL     1     -17.437  12.133 -29.336  1.00  0.00    -0.070 CG0
ATOM      9  C   UNL     1     -18.184  10.865 -29.009  1.00  0.00     0.039 C 
ATOM     10  G   UNL     1     -16.576  12.757 -28.254  1.00  0.00     0.000 G0
ENDBRANCH   6   7
ENDBRANCH   5   6
ENDBRANCH   3   5
ENDBRANCH   1   3
BRANCH   1  11
ATOM     11  C   UNL     1     -13.724  13.035 -29.318  1.00  0.00     0.087 C 
BRANCH  11  12
ATOM     12  C   UNL     1     -14.032  11.849 -28.362  1.00  0.00     0.066 C 
BRANCH  12  13
ATOM     13  C   UNL     1     -15.435  11.872 -27.737  1.00  0.00     0.140 C 
ATOM     14  O   UNL     1     -15.685  11.072 -26.847  1.00  0.00    -0.299 OA
BRANCH  13  15
ATOM     15  C   UNL     1     -16.576  12.752 -28.210  1.00  0.00     0.106 CG0
ATOM     16  G   UNL     1     -17.406  12.109 -29.304  1.00  0.00     0.000 G0
ENDBRANCH  13  15
ENDBRANCH  12  13
BRANCH  12  17
ATOM     17  C   UNL     1     -12.890  11.711 -27.298  1.00  0.00    -0.006 C 
ATOM     18  C   UNL     1     -11.907  10.570 -27.603  1.00  0.00     0.008 C 
ATOM     19  C   UNL     1     -12.125  13.025 -27.070  1.00  0.00     0.008 C 
ENDBRANCH  12  17
ENDBRANCH  11  12
ENDBRANCH   1  11
TORSDOF 1
ENDMDL
MODEL 2
REMARK VINA RESULT:    -4.074      2.386      3.846
REMARK INTER + INTRA:          -6.501
REMARK INTER:                  -6.197
REMARK INTRA:                  -0.304
REMARK UNBOUND:                -0.284
REMARK SMILES CC1=CCC[C@@H](C)C(=O)C[C@@H](C(C)C)C(=O)C1
REMARK SMILES IDX 8 1 9 2 6 3 7 4 5 5 4 6 3 7 2 8 1 9 10 11 11 12 15 13 16 14
REMARK SMILES IDX 17 15 12 17 13 18 14 19
REMARK H PARENT
REMARK Flexibility Score: 70.00
ROOT
ATOM      1  C   UNL     1     -15.293  14.361 -30.311  1.00  0.00     0.136 C 
ATOM      2  O   UNL     1     -15.942  14.753 -29.351  1.00  0.00    -0.299 OA
ENDROOT
BRANCH   1   3
ATOM      3  C   UNL     1     -15.909  13.313 -31.217  1.00  0.00     0.053 C 
ATOM      4  C   UNL     1     -17.058  13.935 -32.018  1.00  0.00     0.016 C 
BRANCH   3   5
ATOM      5  C   UNL     1     -16.395  12.047 -30.474  1.00  0.00     0.015 C 
BRANCH   5   6
ATOM      6  C   UNL     1     -15.256  11.092 -30.059  1.00  0.00     0.028 C 
BRANCH   6   7
ATOM      7  C   UNL     1     -15.059  11.065 -28.559  1.00  0.00    -0.028 C 
ATOM      8  C   UNL     1     -13.918  11.339 -27.884  1.00  0.00    -0.070 CG0
ATOM      9  C   UNL     1     -13.933  11.160 -26.387  1.00  0.00     0.039 C 
ATOM     10  G   UNL     1     -12.602  11.696 -28.551  1.00  0.00     0.000 G0
ENDBRANCH   6   7
ENDBRANCH   5   6
ENDBRANCH   3   5
ENDBRANCH   1   3
BRANCH   1  11
ATOM     11  C   UNL     1     -13.851  14.797 -30.468  1.00  0.00     0.087 C 
BRANCH  11  12
ATOM     12  C   UNL     1     -12.816  13.640 -30.398  1.00  0.00     0.066 C 
BRANCH  12  13
ATOM     13  C   UNL     1     -12.514  13.129 -28.982  1.00  0.00     0.140 C 
ATOM     14  O   UNL     1     -12.099  13.927 -28.155  1.00  0.00    -0.299 OA
BRANCH  13  15
ATOM     15  C   UNL     1     -12.598  11.676 -28.553  1.00  0.00     0.106 CG0
ATOM     16  G   UNL     1     -13.919  11.330 -27.892  1.00  0.00     0.000 G0
ENDBRANCH  13  15
ENDBRANCH  12  13
BRANCH  12  17
ATOM     17  C   UNL     1     -11.526  14.029 -31.198  1.00  0.00    -0.006 C 
ATOM     18  C   UNL     1     -10.440  12.942 -31.173  1.00  0.00     0.008 C 
ATOM     19  C   UNL     1     -11.826  14.447 -32.647  1.00  0.00     0.008 C 
ENDBRANCH  12  17
ENDBRANCH  11  12
ENDBRANCH   1  11
TORSDOF 1
ENDMDL
MODEL 3
REMARK VINA RESULT:    -3.791      2.208      4.181
REMARK INTER + INTRA:          -6.070
REMARK INTER:                  -6.154
REMARK INTRA:                   0.084
REMARK UNBOUND:                -0.284
REMARK SMILES CC1=CCC[C@@H](C)C(=O)C[C@@H](C(C)C)C(=O)C1
REMARK SMILES IDX 8 1 9 2 6 3 7 4 5 5 4 6 3 7 2 8 1 9 10 11 11 12 15 13 16 14
REMARK SMILES IDX 17 15 12 17 13 18 14 19
REMARK H PARENT
REMARK Flexibility Score: 70.00
ROOT
ATOM      1  C   UNL     1     -16.092  13.791 -29.910  1.00  0.00     0.136 C 
ATOM      2  O   UNL     1     -16.283  14.592 -29.007  1.00  0.00    -0.299 OA
ENDROOT
BRANCH   1   3
ATOM      3  C   UNL     1     -15.602  14.315 -31.245  1.00  0.00     0.053 C 
ATOM      4  C   UNL     1     -15.325  13.140 -32.190  1.00  0.00     0.016 C 
BRANCH   3   5
ATOM      5  C   UNL     1     -14.359  15.228 -31.145  1.00  0.00     0.015 C 
BRANCH   5   6
ATOM      6  C   UNL     1     -13.291  14.719 -30.152  1.00  0.00     0.028 C 
BRANCH   6   7
ATOM      7  C   UNL     1     -12.436  13.626 -30.753  1.00  0.00    -0.028 C 
ATOM      8  C   UNL     1     -12.279  12.366 -30.283  1.00  0.00    -0.070 CG0
ATOM      9  C   UNL     1     -11.301  11.470 -31.001  1.00  0.00     0.039 C 
ATOM     10  G   UNL     1     -12.933  11.845 -29.017  1.00  0.00     0.000 G0
ENDBRANCH   6   7
ENDBRANCH   5   6
ENDBRANCH   3   5
ENDBRANCH   1   3
BRANCH   1  11
ATOM     11  C   UNL     1     -16.508  12.346 -29.729  1.00  0.00     0.087 C 
BRANCH  11  12
ATOM     12  C   UNL     1     -15.623  11.540 -28.737  1.00  0.00     0.066 C 
BRANCH  12  13
ATOM     13  C   UNL     1     -14.260  11.106 -29.294  1.00  0.00     0.140 C 
ATOM     14  O   UNL     1     -14.202  10.072 -29.943  1.00  0.00    -0.299 OA
BRANCH  13  15
ATOM     15  C   UNL     1     -12.949  11.818 -29.018  1.00  0.00     0.106 CG0
ATOM     16  G   UNL     1     -12.289  12.353 -30.275  1.00  0.00     0.000 G0
ENDBRANCH  13  15
ENDBRANCH  12  13
BRANCH  12  17
ATOM     17  C   UNL     1     -16.445  10.349 -28.134  1.00  0.00    -0.006 C 
ATOM     18  C   UNL     1     -16.577  10.410 -26.605  1.00  0.00     0.008 C 
ATOM     19  C   UNL     1     -17.832  10.195 -28.781  1.00  0.00     0.008 C 
ENDBRANCH  12  17
ENDBRANCH  11  12
ENDBRANCH   1  11
TORSDOF 1
ENDMDL
MODEL 4
REMARK VINA RESULT:    -3.773      2.007      4.473
REMARK INTER + INTRA:          -6.042
REMARK INTER:                  -6.338
REMARK INTRA:                   0.296
REMARK UNBOUND:                -0.284
REMARK SMILES CC1=CCC[C@@H](C)C(=O)C[C@@H](C(C)C)C(=O)C1
REMARK SMILES IDX 8 1 9 2 6 3 7 4 5 5 4 6 3 7 2 8 1 9 10 11 11 12 15 13 16 14
REMARK SMILES IDX 17 15 12 17 13 18 14 19
REMARK H PARENT
REMARK Flexibility Score: 70.00
ROOT
ATOM      1  C   UNL     1     -11.998  13.471 -27.750  1.00  0.00     0.136 C 
ATOM      2  O   UNL     1     -11.685  14.502 -27.172  1.00  0.00    -0.299 OA
ENDROOT
BRANCH   1   3
ATOM      3  C   UNL     1     -12.097  12.194 -26.939  1.00  0.00     0.053 C 
ATOM      4  C   UNL     1     -11.026  12.194 -25.843  1.00  0.00     0.016 C 
BRANCH   3   5
ATOM      5  C   UNL     1     -12.001  10.903 -27.785  1.00  0.00     0.015 C 
BRANCH   5   6
ATOM      6  C   UNL     1     -13.210   9.958 -27.619  1.00  0.00     0.028 C 
BRANCH   6   7
ATOM      7  C   UNL     1     -14.486  10.717 -27.333  1.00  0.00    -0.028 C 
ATOM      8  C   UNL     1     -15.348  11.232 -28.243  1.00  0.00    -0.070 CG0
ATOM      9  C   UNL     1     -16.515  12.032 -27.723  1.00  0.00     0.039 C 
ATOM     10  G   UNL     1     -15.144  11.151 -29.744  1.00  0.00     0.000 G0
ENDBRANCH   6   7
ENDBRANCH   5   6
ENDBRANCH   3   5
ENDBRANCH   1   3
BRANCH   1  11
ATOM     11  C   UNL     1     -12.106  13.463 -29.260  1.00  0.00     0.087 C 
BRANCH  11  12
ATOM     12  C   UNL     1     -13.556  13.324 -29.802  1.00  0.00     0.066 C 
BRANCH  12  13
ATOM     13  C   UNL     1     -13.945  11.907 -30.251  1.00  0.00     0.140 C 
ATOM     14  O   UNL     1     -13.285  11.379 -31.133  1.00  0.00    -0.299 OA
BRANCH  13  15
ATOM     15  C   UNL     1     -15.156  11.144 -29.748  1.00  0.00     0.106 CG0
ATOM     16  G   UNL     1     -15.341  11.252 -28.246  1.00  0.00     0.000 G0
ENDBRANCH  13  15
ENDBRANCH  12  13
BRANCH  12  17
ATOM     17  C   UNL     1     -13.822  14.410 -30.901  1.00  0.00    -0.006 C 
ATOM     18  C   UNL     1     -14.183  15.787 -30.325  1.00  0.00     0.008 C 
ATOM     19  C   UNL     1     -12.662  14.540 -31.903  1.00  0.00     0.008 C 
ENDBRANCH  12  17
ENDBRANCH  11  12
ENDBRANCH   1  11
TORSDOF 1
ENDMDL
MODEL 5
REMARK VINA RESULT:    -3.764      2.210      4.248
REMARK INTER + INTRA:          -6.028
REMARK INTER:                  -6.175
REMARK INTRA:                   0.147
REMARK UNBOUND:                -0.284
REMARK SMILES CC1=CCC[C@@H](C)C(=O)C[C@@H](C(C)C)C(=O)C1
REMARK SMILES IDX 8 1 9 2 6 3 7 4 5 5 4 6 3 7 2 8 1 9 10 11 11 12 15 13 16 14
REMARK SMILES IDX 17 15 12 17 13 18 14 19
REMARK H PARENT
REMARK Flexibility Score: 70.00
ROOT
ATOM      1  C   UNL     1     -15.222  14.111 -31.218  1.00  0.00     0.136 C 
ATOM      2  O   UNL     1     -15.597  14.302 -32.366  1.00  0.00    -0.299 OA
ENDROOT
BRANCH   1   3
ATOM      3  C   UNL     1     -14.005  14.867 -30.724  1.00  0.00     0.053 C 
ATOM      4  C   UNL     1     -14.370  16.337 -30.490  1.00  0.00     0.016 C 
BRANCH   3   5
ATOM      5  C   UNL     1     -12.777  14.761 -31.657  1.00  0.00     0.015 C 
BRANCH   5   6
ATOM      6  C   UNL     1     -11.653  13.856 -31.108  1.00  0.00     0.028 C 
BRANCH   6   7
ATOM      7  C   UNL     1     -11.542  13.944 -29.602  1.00  0.00    -0.028 C 
ATOM      8  C   UNL     1     -11.834  12.969 -28.708  1.00  0.00    -0.070 CG0
ATOM      9  C   UNL     1     -11.732  13.314 -27.244  1.00  0.00     0.039 C 
ATOM     10  G   UNL     1     -12.367  11.601 -29.088  1.00  0.00     0.000 G0
ENDBRANCH   6   7
ENDBRANCH   5   6
ENDBRANCH   3   5
ENDBRANCH   1   3
BRANCH   1  11
ATOM     11  C   UNL     1     -15.867  13.018 -30.392  1.00  0.00     0.087 C 
BRANCH  11  12
ATOM     12  C   UNL     1     -14.949  12.413 -29.294  1.00  0.00     0.066 C 
BRANCH  12  13
ATOM     13  C   UNL     1     -13.707  11.679 -29.823  1.00  0.00     0.140 C 
ATOM     14  O   UNL     1     -13.809  11.046 -30.863  1.00  0.00    -0.299 OA
BRANCH  13  15
ATOM     15  C   UNL     1     -12.377  11.600 -29.098  1.00  0.00     0.106 CG0
ATOM     16  G   UNL     1     -11.833  12.961 -28.708  1.00  0.00     0.000 G0
ENDBRANCH  13  15
ENDBRANCH  12  13
BRANCH  12  17
ATOM     17  C   UNL     1     -15.799  11.542 -28.306  1.00  0.00    -0.006 C 
ATOM     18  C   UNL     1     -15.374  11.692 -26.838  1.00  0.00     0.008 C 
ATOM     19  C   UNL     1     -17.311  11.784 -28.449  1.00  0.00     0.008 C 
ENDBRANCH  12  17
ENDBRANCH  11  12
ENDBRANCH   1  11
TORSDOF 1
ENDMDL
MODEL 6
REMARK VINA RESULT:    -3.680      2.610      4.391
REMARK INTER + INTRA:          -5.900
REMARK INTER:                  -5.778
REMARK INTRA:                  -0.122
REMARK UNBOUND:                -0.284
REMARK SMILES CC1=CCC[C@@H](C)C(=O)C[C@@H](C(C)C)C(=O)C1
REMARK SMILES IDX 8 1 9 2 6 3 7 4 5 5 4 6 3 7 2 8 1 9 10 11 11 12 15 13 16 14
REMARK SMILES IDX 17 15 12 17 13 18 14 19
REMARK H PARENT
REMARK Flexibility Score: 70.00
ROOT
ATOM      1  C   UNL     1     -15.787  11.835 -29.751  1.00  0.00     0.136 C 
ATOM      2  O   UNL     1     -16.873  11.360 -30.052  1.00  0.00    -0.299 OA
ENDROOT
BRANCH   1   3
ATOM      3  C   UNL     1     -15.711  13.316 -29.437  1.00  0.00     0.053 C 
ATOM      4  C   UNL     1     -17.033  13.779 -28.814  1.00  0.00     0.016 C 
BRANCH   3   5
ATOM      5  C   UNL     1     -15.352  14.199 -30.654  1.00  0.00     0.015 C 
BRANCH   5   6
ATOM      6  C   UNL     1     -13.922  14.777 -30.605  1.00  0.00     0.028 C 
BRANCH   6   7
ATOM      7  C   UNL     1     -13.155  14.497 -31.878  1.00  0.00    -0.028 C 
ATOM      8  C   UNL     1     -12.059  13.711 -32.011  1.00  0.00    -0.070 CG0
ATOM      9  C   UNL     1     -11.406  13.650 -33.368  1.00  0.00     0.039 C 
ATOM     10  G   UNL     1     -11.387  12.990 -30.857  1.00  0.00     0.000 G0
ENDBRANCH   6   7
ENDBRANCH   5   6
ENDBRANCH   3   5
ENDBRANCH   1   3
BRANCH   1  11
ATOM     11  C   UNL     1     -14.540  10.983 -29.865  1.00  0.00     0.087 C 
BRANCH  11  12
ATOM     12  C   UNL     1     -13.236  11.681 -29.386  1.00  0.00     0.066 C 
BRANCH  12  13
ATOM     13  C   UNL     1     -12.105  11.719 -30.424  1.00  0.00     0.140 C 
ATOM     14  O   UNL     1     -11.705  10.660 -30.883  1.00  0.00    -0.299 OA
BRANCH  13  15
ATOM     15  C   UNL     1     -11.373  12.975 -30.856  1.00  0.00     0.106 CG0
ATOM     16  G   UNL     1     -12.048  13.685 -32.015  1.00  0.00     0.000 G0
ENDBRANCH  13  15
ENDBRANCH  12  13
BRANCH  12  17
ATOM     17  C   UNL     1     -12.785  11.080 -28.010  1.00  0.00    -0.006 C 
ATOM     18  C   UNL     1     -11.442  11.636 -27.513  1.00  0.00     0.008 C 
ATOM     19  C   UNL     1     -13.857  11.223 -26.917  1.00  0.00     0.008 C 
ENDBRANCH  12  17
ENDBRANCH  11  12
ENDBRANCH   1  11
TORSDOF 1
ENDMDL
MODEL 7
REMARK VINA RESULT:    -3.622      3.072      5.866
REMARK INTER + INTRA:          -5.812
REMARK INTER:                  -5.654
REMARK INTRA:                  -0.157
REMARK UNBOUND:                -0.284
REMARK SMILES CC1=CCC[C@@H](C)C(=O)C[C@@H](C(C)C)C(=O)C1
REMARK SMILES IDX 8 1 9 2 6 3 7 4 5 5 4 6 3 7 2 8 1 9 10 11 11 12 15 13 16 14
REMARK SMILES IDX 17 15 12 17 13 18 14 19
REMARK H PARENT
REMARK Flexibility Score: 70.00
ROOT
ATOM      1  C   UNL     1     -13.056  11.434 -29.559  1.00  0.00     0.136 C 
ATOM      2  O   UNL     1     -13.733  10.505 -29.977  1.00  0.00    -0.299 OA
ENDROOT
BRANCH   1   3
ATOM      3  C   UNL     1     -11.724  11.118 -28.909  1.00  0.00     0.053 C 
ATOM      4  C   UNL     1     -11.789  11.447 -27.414  1.00  0.00     0.016 C 
BRANCH   3   5
ATOM      5  C   UNL     1     -10.519  11.833 -29.564  1.00  0.00     0.015 C 
BRANCH   5   6
ATOM      6  C   UNL     1     -10.463  11.679 -31.099  1.00  0.00     0.028 C 
BRANCH   6   7
ATOM      7  C   UNL     1     -10.164  12.991 -31.788  1.00  0.00    -0.028 C 
ATOM      8  C   UNL     1     -11.026  13.742 -32.516  1.00  0.00    -0.070 CG0
ATOM      9  C   UNL     1     -10.480  14.976 -33.188  1.00  0.00     0.039 C 
ATOM     10  G   UNL     1     -12.467  13.354 -32.789  1.00  0.00     0.000 G0
ENDBRANCH   6   7
ENDBRANCH   5   6
ENDBRANCH   3   5
ENDBRANCH   1   3
BRANCH   1  11
ATOM     11  C   UNL     1     -13.634  12.834 -29.545  1.00  0.00     0.087 C 
BRANCH  11  12
ATOM     12  C   UNL     1     -14.355  13.246 -30.859  1.00  0.00     0.066 C 
BRANCH  12  13
ATOM     13  C   UNL     1     -13.479  14.009 -31.864  1.00  0.00     0.140 C 
ATOM     14  O   UNL     1     -13.647  15.214 -31.980  1.00  0.00    -0.299 OA
BRANCH  13  15
ATOM     15  C   UNL     1     -12.479  13.361 -32.803  1.00  0.00     0.106 CG0
ATOM     16  G   UNL     1     -11.045  13.751 -32.501  1.00  0.00     0.000 G0
ENDBRANCH  13  15
ENDBRANCH  12  13
BRANCH  12  17
ATOM     17  C   UNL     1     -15.692  13.991 -30.523  1.00  0.00    -0.006 C 
ATOM     18  C   UNL     1     -16.714  13.959 -31.669  1.00  0.00     0.008 C 
ATOM     19  C   UNL     1     -16.340  13.495 -29.219  1.00  0.00     0.008 C 
ENDBRANCH  12  17
ENDBRANCH  11  12
ENDBRANCH   1  11
TORSDOF 1
ENDMDL
MODEL 8
REMARK VINA RESULT:    -3.615      1.648      2.156
REMARK INTER + INTRA:          -5.801
REMARK INTER:                  -6.171
REMARK INTRA:                   0.370
REMARK UNBOUND:                -0.284
REMARK SMILES CC1=CCC[C@@H](C)C(=O)C[C@@H](C(C)C)C(=O)C1
REMARK SMILES IDX 8 1 9 2 6 3 7 4 5 5 4 6 3 7 2 8 1 9 10 11 11 12 15 13 16 14
REMARK SMILES IDX 17 15 12 17 13 18 14 19
REMARK H PARENT
REMARK Flexibility Score: 70.00
ROOT
ATOM      1  C   UNL     1     -14.342  13.186 -31.747  1.00  0.00     0.136 C 
ATOM      2  O   UNL     1     -14.558  12.318 -32.581  1.00  0.00    -0.299 OA
ENDROOT
BRANCH   1   3
ATOM      3  C   UNL     1     -15.406  14.239 -31.512  1.00  0.00     0.053 C 
ATOM      4  C   UNL     1     -14.877  15.299 -30.540  1.00  0.00     0.016 C 
BRANCH   3   5
ATOM      5  C   UNL     1     -16.753  13.672 -31.007  1.00  0.00     0.015 C 
BRANCH   5   6
ATOM      6  C   UNL     1     -16.969  13.840 -29.488  1.00  0.00     0.028 C 
BRANCH   6   7
ATOM      7  C   UNL     1     -17.034  12.507 -28.776  1.00  0.00    -0.028 C 
ATOM      8  C   UNL     1     -15.992  11.802 -28.272  1.00  0.00    -0.070 CG0
ATOM      9  C   UNL     1     -16.287  10.448 -27.679  1.00  0.00     0.039 C 
ATOM     10  G   UNL     1     -14.543  12.240 -28.375  1.00  0.00     0.000 G0
ENDBRANCH   6   7
ENDBRANCH   5   6
ENDBRANCH   3   5
ENDBRANCH   1   3
BRANCH   1  11
ATOM     11  C   UNL     1     -12.973  13.284 -31.107  1.00  0.00     0.087 C 
BRANCH  11  12
ATOM     12  C   UNL     1     -12.588  12.070 -30.217  1.00  0.00     0.066 C 
BRANCH  12  13
ATOM     13  C   UNL     1     -13.746  11.473 -29.404  1.00  0.00     0.140 C 
ATOM     14  O   UNL     1     -14.114  10.338 -29.668  1.00  0.00    -0.299 OA
BRANCH  13  15
ATOM     15  C   UNL     1     -14.540  12.226 -28.353  1.00  0.00     0.106 CG0
ATOM     16  G   UNL     1     -15.990  11.788 -28.281  1.00  0.00     0.000 G0
ENDBRANCH  13  15
ENDBRANCH  12  13
BRANCH  12  17
ATOM     17  C   UNL     1     -11.341  12.427 -29.337  1.00  0.00    -0.006 C 
ATOM     18  C   UNL     1     -10.057  11.709 -29.777  1.00  0.00     0.008 C 
ATOM     19  C   UNL     1     -11.096  13.942 -29.238  1.00  0.00     0.008 C 
ENDBRANCH  12  17
ENDBRANCH  11  12
ENDBRANCH   1  11
TORSDOF 1
ENDMDL
MODEL 9
REMARK VINA RESULT:    -3.614      2.115      4.386
REMARK INTER + INTRA:          -5.800
REMARK INTER:                  -5.720
REMARK INTRA:                  -0.080
REMARK UNBOUND:                -0.284
REMARK SMILES CC1=CCC[C@@H](C)C(=O)C[C@@H](C(C)C)C(=O)C1
REMARK SMILES IDX 8 1 9 2 6 3 7 4 5 5 4 6 3 7 2 8 1 9 10 11 11 12 15 13 16 14
REMARK SMILES IDX 17 15 12 17 13 18 14 19
REMARK H PARENT
REMARK Flexibility Score: 70.00
ROOT
ATOM      1  C   UNL     1     -13.672  14.301 -31.232  1.00  0.00     0.136 C 
ATOM      2  O   UNL     1     -14.195  15.366 -30.935  1.00  0.00    -0.299 OA
ENDROOT
BRANCH   1   3
ATOM      3  C   UNL     1     -12.236  14.315 -31.717  1.00  0.00     0.053 C 
ATOM      4  C   UNL     1     -12.139  13.593 -33.065  1.00  0.00     0.016 C 
BRANCH   3   5
ATOM      5  C   UNL     1     -11.227  13.714 -30.711  1.00  0.00     0.015 C 
BRANCH   5   6
ATOM      6  C   UNL     1     -11.815  13.479 -29.304  1.00  0.00     0.028 C 
BRANCH   6   7
ATOM      7  C   UNL     1     -11.585  12.063 -28.825  1.00  0.00    -0.028 C 
ATOM      8  C   UNL     1     -12.499  11.236 -28.262  1.00  0.00    -0.070 CG0
ATOM      9  C   UNL     1     -12.018   9.892 -27.778  1.00  0.00     0.039 C 
ATOM     10  G   UNL     1     -13.938  11.627 -27.984  1.00  0.00     0.000 G0
ENDBRANCH   6   7
ENDBRANCH   5   6
ENDBRANCH   3   5
ENDBRANCH   1   3
BRANCH   1  11
ATOM     11  C   UNL     1     -14.511  13.041 -31.273  1.00  0.00     0.087 C 
BRANCH  11  12
ATOM     12  C   UNL     1     -15.325  12.766 -29.978  1.00  0.00     0.066 C 
BRANCH  12  13
ATOM     13  C   UNL     1     -14.852  11.553 -29.163  1.00  0.00     0.140 C 
ATOM     14  O   UNL     1     -15.292  10.451 -29.458  1.00  0.00    -0.299 OA
BRANCH  13  15
ATOM     15  C   UNL     1     -13.947  11.629 -27.948  1.00  0.00     0.106 CG0
ATOM     16  G   UNL     1     -12.513  11.240 -28.253  1.00  0.00     0.000 G0
ENDBRANCH  13  15
ENDBRANCH  12  13
BRANCH  12  17
ATOM     17  C   UNL     1     -16.857  12.722 -30.309  1.00  0.00    -0.006 C 
ATOM     18  C   UNL     1     -17.743  13.249 -29.171  1.00  0.00     0.008 C 
ATOM     19  C   UNL     1     -17.202  13.437 -31.626  1.00  0.00     0.008 C 
ENDBRANCH  12  17
ENDBRANCH  11  12
ENDBRANCH   1  11
TORSDOF 1
ENDMDL
