MODEL 1
REMARK VINA RESULT:    -4.802      0.000      0.000
REMARK INTER + INTRA:         -10.634
REMARK INTER:                  -8.731
REMARK INTRA:                  -1.902
REMARK UNBOUND:                -1.902
REMARK SMILES CCCCCCCCCCCCCC[C@@H](C)C(=O)[O-]
REMARK SMILES IDX 9 1 10 2 11 3 12 4 13 5 14 6 15 7 16 8 17 9 18 10 19 11 8 12
REMARK SMILES IDX 7 13 6 14 5 15 4 16 3 17 2 18 1 19
REMARK H PARENT
REMARK Flexibility Score: inf
ROOT
ATOM      1  C   UNL     1      53.743  23.852  48.810  1.00  0.00     0.000 C 
ENDROOT
BRANCH   1   2
ATOM      2  C   UNL     1      53.451  24.977  49.818  1.00  0.00     0.000 C 
BRANCH   2   3
ATOM      3  C   UNL     1      54.003  24.676  51.223  1.00  0.00     0.000 C 
BRANCH   3   4
ATOM      4  C   UNL     1      55.491  24.273  51.274  1.00  0.00     0.000 C 
BRANCH   4   5
ATOM      5  C   UNL     1      55.813  23.079  52.191  1.00  0.00     0.001 C 
BRANCH   5   6
ATOM      6  C   UNL     1      54.793  21.934  52.059  1.00  0.00     0.009 C 
BRANCH   6   7
ATOM      7  C   UNL     1      54.335  21.401  53.433  1.00  0.00     0.032 C 
ATOM      8  C   UNL     1      54.877  22.285  54.559  1.00  0.00     0.014 C 
BRANCH   7   9
ATOM      9  C   UNL     1      52.835  21.327  53.530  1.00  0.00     0.044 C 
ATOM     10  O   UNL     1      52.288  20.342  54.090  1.00  0.00    -0.550 OA
ATOM     11  O   UNL     1      52.044  22.366  53.052  1.00  0.00    -0.550 OA
ENDBRANCH   7   9
ENDBRANCH   6   7
ENDBRANCH   5   6
ENDBRANCH   4   5
ENDBRANCH   3   4
ENDBRANCH   2   3
ENDBRANCH   1   2
BRANCH   1  12
ATOM     12  C   UNL     1      53.797  24.351  47.355  1.00  0.00     0.000 C 
BRANCH  12  13
ATOM     13  C   UNL     1      55.164  24.900  46.896  1.00  0.00    -0.000 C 
BRANCH  13  14
ATOM     14  C   UNL     1      56.363  24.464  47.757  1.00  0.00    -0.000 C 
BRANCH  14  15
ATOM     15  C   UNL     1      57.327  23.532  47.003  1.00  0.00    -0.000 C 
BRANCH  15  16
ATOM     16  C   UNL     1      57.063  22.048  47.301  1.00  0.00    -0.000 C 
BRANCH  16  17
ATOM     17  C   UNL     1      56.357  21.837  48.652  1.00  0.00    -0.000 C 
BRANCH  17  18
ATOM     18  C   UNL     1      56.043  20.358  48.927  1.00  0.00    -0.003 C 
ATOM     19  C   UNL     1      57.237  19.443  48.660  1.00  0.00     0.004 C 
ENDBRANCH  17  18
ENDBRANCH  16  17
ENDBRANCH  15  16
ENDBRANCH  14  15
ENDBRANCH  13  14
ENDBRANCH  12  13
ENDBRANCH   1  12
TORSDOF 14
ENDMDL
MODEL 2
REMARK VINA RESULT:    -4.754      2.472      3.517
REMARK INTER + INTRA:         -10.547
REMARK INTER:                  -9.111
REMARK INTRA:                  -1.437
REMARK UNBOUND:                -1.902
REMARK SMILES CCCCCCCCCCCCCC[C@@H](C)C(=O)[O-]
REMARK SMILES IDX 9 1 10 2 11 3 12 4 13 5 14 6 15 7 16 8 17 9 18 10 19 11 8 12
REMARK SMILES IDX 7 13 6 14 5 15 4 16 3 17 2 18 1 19
REMARK H PARENT
REMARK Flexibility Score: inf
ROOT
ATOM      1  C   UNL     1      52.880  24.132  50.846  1.00  0.00     0.000 C 
ENDROOT
BRANCH   1   2
ATOM      2  C   UNL     1      53.899  23.778  51.942  1.00  0.00     0.000 C 
BRANCH   2   3
ATOM      3  C   UNL     1      53.236  23.232  53.220  1.00  0.00     0.000 C 
BRANCH   3   4
ATOM      4  C   UNL     1      52.956  21.715  53.221  1.00  0.00     0.000 C 
BRANCH   4   5
ATOM      5  C   UNL     1      51.526  21.315  53.623  1.00  0.00     0.001 C 
BRANCH   5   6
ATOM      6  C   UNL     1      50.829  22.383  54.486  1.00  0.00     0.009 C 
BRANCH   6   7
ATOM      7  C   UNL     1      49.481  22.831  53.881  1.00  0.00     0.032 C 
ATOM      8  C   UNL     1      49.320  22.278  52.462  1.00  0.00     0.014 C 
BRANCH   7   9
ATOM      9  C   UNL     1      48.317  22.390  54.726  1.00  0.00     0.044 C 
ATOM     10  O   UNL     1      48.206  21.183  55.064  1.00  0.00    -0.550 OA
ATOM     11  O   UNL     1      47.385  23.315  55.184  1.00  0.00    -0.550 OA
ENDBRANCH   7   9
ENDBRANCH   6   7
ENDBRANCH   5   6
ENDBRANCH   4   5
ENDBRANCH   3   4
ENDBRANCH   2   3
ENDBRANCH   1   2
BRANCH   1  12
ATOM     12  C   UNL     1      53.530  24.771  49.606  1.00  0.00     0.000 C 
BRANCH  12  13
ATOM     13  C   UNL     1      53.801  23.807  48.432  1.00  0.00    -0.000 C 
BRANCH  13  14
ATOM     14  C   UNL     1      54.648  24.395  47.289  1.00  0.00    -0.000 C 
BRANCH  14  15
ATOM     15  C   UNL     1      56.128  23.983  47.375  1.00  0.00    -0.000 C 
BRANCH  15  16
ATOM     16  C   UNL     1      56.375  22.896  48.433  1.00  0.00    -0.000 C 
BRANCH  16  17
ATOM     17  C   UNL     1      56.727  21.535  47.807  1.00  0.00    -0.000 C 
BRANCH  17  18
ATOM     18  C   UNL     1      56.387  20.357  48.732  1.00  0.00    -0.003 C 
ATOM     19  C   UNL     1      55.463  20.758  49.882  1.00  0.00     0.004 C 
ENDBRANCH  17  18
ENDBRANCH  16  17
ENDBRANCH  15  16
ENDBRANCH  14  15
ENDBRANCH  13  14
ENDBRANCH  12  13
ENDBRANCH   1  12
TORSDOF 14
ENDMDL
MODEL 3
REMARK VINA RESULT:    -4.730      1.768      2.107
REMARK INTER + INTRA:         -10.504
REMARK INTER:                  -8.984
REMARK INTRA:                  -1.520
REMARK UNBOUND:                -1.902
REMARK SMILES CCCCCCCCCCCCCC[C@@H](C)C(=O)[O-]
REMARK SMILES IDX 9 1 10 2 11 3 12 4 13 5 14 6 15 7 16 8 17 9 18 10 19 11 8 12
REMARK SMILES IDX 7 13 6 14 5 15 4 16 3 17 2 18 1 19
REMARK H PARENT
REMARK Flexibility Score: inf
ROOT
ATOM      1  C   UNL     1      53.650  23.764  48.492  1.00  0.00     0.000 C 
ENDROOT
BRANCH   1   2
ATOM      2  C   UNL     1      53.286  24.384  49.852  1.00  0.00     0.000 C 
BRANCH   2   3
ATOM      3  C   UNL     1      54.200  23.900  50.991  1.00  0.00     0.000 C 
BRANCH   3   4
ATOM      4  C   UNL     1      53.510  23.035  52.068  1.00  0.00     0.000 C 
BRANCH   4   5
ATOM      5  C   UNL     1      54.225  21.713  52.400  1.00  0.00     0.001 C 
BRANCH   5   6
ATOM      6  C   UNL     1      54.202  21.385  53.903  1.00  0.00     0.009 C 
BRANCH   6   7
ATOM      7  C   UNL     1      55.614  21.403  54.526  1.00  0.00     0.032 C 
ATOM      8  C   UNL     1      56.682  21.265  53.436  1.00  0.00     0.014 C 
BRANCH   7   9
ATOM      9  C   UNL     1      55.860  22.661  55.314  1.00  0.00     0.044 C 
ATOM     10  O   UNL     1      56.112  22.592  56.545  1.00  0.00    -0.550 OA
ATOM     11  O   UNL     1      55.862  23.900  54.685  1.00  0.00    -0.550 OA
ENDBRANCH   7   9
ENDBRANCH   6   7
ENDBRANCH   5   6
ENDBRANCH   4   5
ENDBRANCH   3   4
ENDBRANCH   2   3
ENDBRANCH   1   2
BRANCH   1  12
ATOM     12  C   UNL     1      53.805  24.813  47.377  1.00  0.00     0.000 C 
BRANCH  12  13
ATOM     13  C   UNL     1      55.244  25.024  46.863  1.00  0.00    -0.000 C 
BRANCH  13  14
ATOM     14  C   UNL     1      56.349  24.453  47.770  1.00  0.00    -0.000 C 
BRANCH  14  15
ATOM     15  C   UNL     1      57.244  23.433  47.044  1.00  0.00    -0.000 C 
BRANCH  15  16
ATOM     16  C   UNL     1      56.971  21.988  47.493  1.00  0.00    -0.000 C 
BRANCH  16  17
ATOM     17  C   UNL     1      56.216  21.922  48.832  1.00  0.00    -0.000 C 
BRANCH  17  18
ATOM     18  C   UNL     1      55.852  20.483  49.231  1.00  0.00    -0.003 C 
ATOM     19  C   UNL     1      56.749  19.442  48.562  1.00  0.00     0.004 C 
ENDBRANCH  17  18
ENDBRANCH  16  17
ENDBRANCH  15  16
ENDBRANCH  14  15
ENDBRANCH  13  14
ENDBRANCH  12  13
ENDBRANCH   1  12
TORSDOF 14
ENDMDL
MODEL 4
REMARK VINA RESULT:    -4.696      2.318      3.014
REMARK INTER + INTRA:         -10.442
REMARK INTER:                  -8.689
REMARK INTRA:                  -1.753
REMARK UNBOUND:                -1.902
REMARK SMILES CCCCCCCCCCCCCC[C@@H](C)C(=O)[O-]
REMARK SMILES IDX 9 1 10 2 11 3 12 4 13 5 14 6 15 7 16 8 17 9 18 10 19 11 8 12
REMARK SMILES IDX 7 13 6 14 5 15 4 16 3 17 2 18 1 19
REMARK H PARENT
REMARK Flexibility Score: inf
ROOT
ATOM      1  C   UNL     1      53.280  24.250  50.350  1.00  0.00     0.000 C 
ENDROOT
BRANCH   1   2
ATOM      2  C   UNL     1      54.486  24.506  51.269  1.00  0.00     0.000 C 
BRANCH   2   3
ATOM      3  C   UNL     1      54.229  24.074  52.724  1.00  0.00     0.000 C 
BRANCH   3   4
ATOM      4  C   UNL     1      53.374  22.800  52.892  1.00  0.00     0.000 C 
BRANCH   4   5
ATOM      5  C   UNL     1      54.111  21.595  53.502  1.00  0.00     0.001 C 
BRANCH   5   6
ATOM      6  C   UNL     1      54.772  21.921  54.853  1.00  0.00     0.009 C 
BRANCH   6   7
ATOM      7  C   UNL     1      56.131  21.208  55.024  1.00  0.00     0.032 C 
ATOM      8  C   UNL     1      56.815  21.026  53.666  1.00  0.00     0.014 C 
BRANCH   7   9
ATOM      9  C   UNL     1      57.045  21.966  55.949  1.00  0.00     0.044 C 
ATOM     10  O   UNL     1      57.201  23.206  55.802  1.00  0.00    -0.550 OA
ATOM     11  O   UNL     1      57.681  21.317  57.001  1.00  0.00    -0.550 OA
ENDBRANCH   7   9
ENDBRANCH   6   7
ENDBRANCH   5   6
ENDBRANCH   4   5
ENDBRANCH   3   4
ENDBRANCH   2   3
ENDBRANCH   1   2
BRANCH   1  12
ATOM     12  C   UNL     1      53.396  24.970  48.994  1.00  0.00     0.000 C 
BRANCH  12  13
ATOM     13  C   UNL     1      53.996  24.128  47.849  1.00  0.00    -0.000 C 
BRANCH  13  14
ATOM     14  C   UNL     1      55.193  24.772  47.126  1.00  0.00    -0.000 C 
BRANCH  14  15
ATOM     15  C   UNL     1      56.483  23.944  47.262  1.00  0.00    -0.000 C 
BRANCH  15  16
ATOM     16  C   UNL     1      56.409  22.925  48.409  1.00  0.00    -0.000 C 
BRANCH  16  17
ATOM     17  C   UNL     1      56.555  21.474  47.917  1.00  0.00    -0.000 C 
BRANCH  17  18
ATOM     18  C   UNL     1      56.259  20.446  49.019  1.00  0.00    -0.003 C 
ATOM     19  C   UNL     1      55.294  20.980  50.078  1.00  0.00     0.004 C 
ENDBRANCH  17  18
ENDBRANCH  16  17
ENDBRANCH  15  16
ENDBRANCH  14  15
ENDBRANCH  13  14
ENDBRANCH  12  13
ENDBRANCH   1  12
TORSDOF 14
ENDMDL
MODEL 5
REMARK VINA RESULT:    -4.662      1.662      3.911
REMARK INTER + INTRA:         -10.380
REMARK INTER:                  -8.721
REMARK INTRA:                  -1.659
REMARK UNBOUND:                -1.902
REMARK SMILES CCCCCCCCCCCCCC[C@@H](C)C(=O)[O-]
REMARK SMILES IDX 9 1 10 2 11 3 12 4 13 5 14 6 15 7 16 8 17 9 18 10 19 11 8 12
REMARK SMILES IDX 7 13 6 14 5 15 4 16 3 17 2 18 1 19
REMARK H PARENT
REMARK Flexibility Score: inf
ROOT
ATOM      1  C   UNL     1      55.257  20.723  49.706  1.00  0.00     0.000 C 
ENDROOT
BRANCH   1   2
ATOM      2  C   UNL     1      55.543  21.294  51.106  1.00  0.00     0.000 C 
BRANCH   2   3
ATOM      3  C   UNL     1      54.301  21.293  52.015  1.00  0.00     0.000 C 
BRANCH   3   4
ATOM      4  C   UNL     1      54.584  21.509  53.517  1.00  0.00     0.000 C 
BRANCH   4   5
ATOM      5  C   UNL     1      53.375  21.297  54.446  1.00  0.00     0.001 C 
BRANCH   5   6
ATOM      6  C   UNL     1      52.054  21.127  53.675  1.00  0.00     0.009 C 
BRANCH   6   7
ATOM      7  C   UNL     1      50.889  21.894  54.338  1.00  0.00     0.032 C 
ATOM      8  C   UNL     1      51.375  23.242  54.878  1.00  0.00     0.014 C 
BRANCH   7   9
ATOM      9  C   UNL     1      49.752  22.118  53.379  1.00  0.00     0.044 C 
ATOM     10  O   UNL     1      48.590  21.742  53.683  1.00  0.00    -0.550 OA
ATOM     11  O   UNL     1      49.961  22.784  52.176  1.00  0.00    -0.550 OA
ENDBRANCH   7   9
ENDBRANCH   6   7
ENDBRANCH   5   6
ENDBRANCH   4   5
ENDBRANCH   3   4
ENDBRANCH   2   3
ENDBRANCH   1   2
BRANCH   1  12
ATOM     12  C   UNL     1      56.512  20.656  48.818  1.00  0.00     0.000 C 
BRANCH  12  13
ATOM     13  C   UNL     1      56.646  21.788  47.779  1.00  0.00    -0.000 C 
BRANCH  13  14
ATOM     14  C   UNL     1      56.368  23.203  48.317  1.00  0.00    -0.000 C 
BRANCH  14  15
ATOM     15  C   UNL     1      55.290  23.945  47.508  1.00  0.00    -0.000 C 
BRANCH  15  16
ATOM     16  C   UNL     1      53.897  23.834  48.146  1.00  0.00    -0.000 C 
BRANCH  16  17
ATOM     17  C   UNL     1      53.644  24.928  49.199  1.00  0.00    -0.000 C 
BRANCH  17  18
ATOM     18  C   UNL     1      53.239  24.349  50.563  1.00  0.00    -0.003 C 
ATOM     19  C   UNL     1      54.023  24.967  51.720  1.00  0.00     0.004 C 
ENDBRANCH  17  18
ENDBRANCH  16  17
ENDBRANCH  15  16
ENDBRANCH  14  15
ENDBRANCH  13  14
ENDBRANCH  12  13
ENDBRANCH   1  12
TORSDOF 14
ENDMDL
MODEL 6
REMARK VINA RESULT:    -4.634      2.189      2.932
REMARK INTER + INTRA:         -10.329
REMARK INTER:                  -8.782
REMARK INTRA:                  -1.547
REMARK UNBOUND:                -1.902
REMARK SMILES CCCCCCCCCCCCCC[C@@H](C)C(=O)[O-]
REMARK SMILES IDX 9 1 10 2 11 3 12 4 13 5 14 6 15 7 16 8 17 9 18 10 19 11 8 12
REMARK SMILES IDX 7 13 6 14 5 15 4 16 3 17 2 18 1 19
REMARK H PARENT
REMARK Flexibility Score: inf
ROOT
ATOM      1  C   UNL     1      52.983  24.273  50.528  1.00  0.00     0.000 C 
ENDROOT
BRANCH   1   2
ATOM      2  C   UNL     1      53.359  24.100  52.010  1.00  0.00     0.000 C 
BRANCH   2   3
ATOM      3  C   UNL     1      52.642  22.910  52.671  1.00  0.00     0.000 C 
BRANCH   3   4
ATOM      4  C   UNL     1      53.535  21.687  52.972  1.00  0.00     0.000 C 
BRANCH   4   5
ATOM      5  C   UNL     1      54.512  21.300  51.847  1.00  0.00     0.001 C 
BRANCH   5   6
ATOM      6  C   UNL     1      55.981  21.578  52.212  1.00  0.00     0.009 C 
BRANCH   6   7
ATOM      7  C   UNL     1      56.149  21.966  53.697  1.00  0.00     0.032 C 
ATOM      8  C   UNL     1      56.661  20.772  54.508  1.00  0.00     0.014 C 
BRANCH   7   9
ATOM      9  C   UNL     1      57.090  23.128  53.866  1.00  0.00     0.044 C 
ATOM     10  O   UNL     1      57.608  23.670  52.855  1.00  0.00    -0.550 OA
ATOM     11  O   UNL     1      57.355  23.645  55.129  1.00  0.00    -0.550 OA
ENDBRANCH   7   9
ENDBRANCH   6   7
ENDBRANCH   5   6
ENDBRANCH   4   5
ENDBRANCH   3   4
ENDBRANCH   2   3
ENDBRANCH   1   2
BRANCH   1  12
ATOM     12  C   UNL     1      54.081  24.976  49.710  1.00  0.00     0.000 C 
BRANCH  12  13
ATOM     13  C   UNL     1      53.798  25.105  48.199  1.00  0.00    -0.000 C 
BRANCH  13  14
ATOM     14  C   UNL     1      54.953  24.667  47.280  1.00  0.00    -0.000 C 
BRANCH  14  15
ATOM     15  C   UNL     1      56.144  24.085  48.061  1.00  0.00    -0.000 C 
BRANCH  15  16
ATOM     16  C   UNL     1      57.157  23.379  47.146  1.00  0.00    -0.000 C 
BRANCH  16  17
ATOM     17  C   UNL     1      57.103  21.847  47.281  1.00  0.00    -0.000 C 
BRANCH  17  18
ATOM     18  C   UNL     1      56.296  21.394  48.508  1.00  0.00    -0.003 C 
ATOM     19  C   UNL     1      56.288  19.875  48.679  1.00  0.00     0.004 C 
ENDBRANCH  17  18
ENDBRANCH  16  17
ENDBRANCH  15  16
ENDBRANCH  14  15
ENDBRANCH  13  14
ENDBRANCH  12  13
ENDBRANCH   1  12
TORSDOF 14
ENDMDL
MODEL 7
REMARK VINA RESULT:    -4.506      1.438      2.467
REMARK INTER + INTRA:         -10.095
REMARK INTER:                  -8.279
REMARK INTRA:                  -1.817
REMARK UNBOUND:                -1.902
REMARK SMILES CCCCCCCCCCCCCC[C@@H](C)C(=O)[O-]
REMARK SMILES IDX 9 1 10 2 11 3 12 4 13 5 14 6 15 7 16 8 17 9 18 10 19 11 8 12
REMARK SMILES IDX 7 13 6 14 5 15 4 16 3 17 2 18 1 19
REMARK H PARENT
REMARK Flexibility Score: inf
ROOT
ATOM      1  C   UNL     1      54.211  24.393  51.574  1.00  0.00     0.000 C 
ENDROOT
BRANCH   1   2
ATOM      2  C   UNL     1      55.655  23.865  51.586  1.00  0.00     0.000 C 
BRANCH   2   3
ATOM      3  C   UNL     1      56.416  24.238  52.872  1.00  0.00     0.000 C 
BRANCH   3   4
ATOM      4  C   UNL     1      56.740  23.058  53.811  1.00  0.00     0.000 C 
BRANCH   4   5
ATOM      5  C   UNL     1      56.134  21.706  53.394  1.00  0.00     0.001 C 
BRANCH   5   6
ATOM      6  C   UNL     1      55.072  21.197  54.385  1.00  0.00     0.009 C 
BRANCH   6   7
ATOM      7  C   UNL     1      53.667  21.755  54.070  1.00  0.00     0.032 C 
ATOM      8  C   UNL     1      52.654  20.614  53.942  1.00  0.00     0.014 C 
BRANCH   7   9
ATOM      9  C   UNL     1      53.203  22.724  55.123  1.00  0.00     0.044 C 
ATOM     10  O   UNL     1      52.013  23.133  55.121  1.00  0.00    -0.550 OA
ATOM     11  O   UNL     1      54.065  23.134  56.135  1.00  0.00    -0.550 OA
ENDBRANCH   7   9
ENDBRANCH   6   7
ENDBRANCH   5   6
ENDBRANCH   4   5
ENDBRANCH   3   4
ENDBRANCH   2   3
ENDBRANCH   1   2
BRANCH   1  12
ATOM     12  C   UNL     1      53.719  24.761  50.163  1.00  0.00     0.000 C 
BRANCH  12  13
ATOM     13  C   UNL     1      53.764  23.617  49.129  1.00  0.00    -0.000 C 
BRANCH  13  14
ATOM     14  C   UNL     1      54.190  24.038  47.711  1.00  0.00    -0.000 C 
BRANCH  14  15
ATOM     15  C   UNL     1      55.711  23.943  47.495  1.00  0.00    -0.000 C 
BRANCH  15  16
ATOM     16  C   UNL     1      56.371  22.908  48.419  1.00  0.00    -0.000 C 
BRANCH  16  17
ATOM     17  C   UNL     1      56.728  21.605  47.682  1.00  0.00    -0.000 C 
BRANCH  17  18
ATOM     18  C   UNL     1      56.534  20.360  48.562  1.00  0.00    -0.003 C 
ATOM     19  C   UNL     1      55.660  20.633  49.785  1.00  0.00     0.004 C 
ENDBRANCH  17  18
ENDBRANCH  16  17
ENDBRANCH  15  16
ENDBRANCH  14  15
ENDBRANCH  13  14
ENDBRANCH  12  13
ENDBRANCH   1  12
TORSDOF 14
ENDMDL
MODEL 8
REMARK VINA RESULT:    -4.463      1.493      3.940
REMARK INTER + INTRA:         -10.017
REMARK INTER:                  -7.720
REMARK INTRA:                  -2.297
REMARK UNBOUND:                -1.902
REMARK SMILES CCCCCCCCCCCCCC[C@@H](C)C(=O)[O-]
REMARK SMILES IDX 9 1 10 2 11 3 12 4 13 5 14 6 15 7 16 8 17 9 18 10 19 11 8 12
REMARK SMILES IDX 7 13 6 14 5 15 4 16 3 17 2 18 1 19
REMARK H PARENT
REMARK Flexibility Score: inf
ROOT
ATOM      1  C   UNL     1      55.600  21.819  52.128  1.00  0.00     0.000 C 
ENDROOT
BRANCH   1   2
ATOM      2  C   UNL     1      56.485  21.355  53.297  1.00  0.00     0.000 C 
BRANCH   2   3
ATOM      3  C   UNL     1      55.722  21.289  54.633  1.00  0.00     0.000 C 
BRANCH   3   4
ATOM      4  C   UNL     1      54.947  22.568  55.013  1.00  0.00     0.000 C 
BRANCH   4   5
ATOM      5  C   UNL     1      53.428  22.384  55.182  1.00  0.00     0.001 C 
BRANCH   5   6
ATOM      6  C   UNL     1      52.618  23.047  54.054  1.00  0.00     0.009 C 
BRANCH   6   7
ATOM      7  C   UNL     1      51.804  22.018  53.239  1.00  0.00     0.032 C 
ATOM      8  C   UNL     1      52.243  20.593  53.585  1.00  0.00     0.014 C 
BRANCH   7   9
ATOM      9  C   UNL     1      50.325  22.161  53.480  1.00  0.00     0.044 C 
ATOM     10  O   UNL     1      49.594  22.696  52.607  1.00  0.00    -0.550 OA
ATOM     11  O   UNL     1      49.747  21.659  54.641  1.00  0.00    -0.550 OA
ENDBRANCH   7   9
ENDBRANCH   6   7
ENDBRANCH   5   6
ENDBRANCH   4   5
ENDBRANCH   3   4
ENDBRANCH   2   3
ENDBRANCH   1   2
BRANCH   1  12
ATOM     12  C   UNL     1      56.032  23.180  51.553  1.00  0.00     0.000 C 
BRANCH  12  13
ATOM     13  C   UNL     1      54.897  24.207  51.362  1.00  0.00    -0.000 C 
BRANCH  13  14
ATOM     14  C   UNL     1      53.706  23.712  50.523  1.00  0.00    -0.000 C 
BRANCH  14  15
ATOM     15  C   UNL     1      53.509  24.527  49.232  1.00  0.00    -0.000 C 
BRANCH  15  16
ATOM     16  C   UNL     1      53.943  23.753  47.978  1.00  0.00    -0.000 C 
BRANCH  16  17
ATOM     17  C   UNL     1      55.166  24.385  47.291  1.00  0.00    -0.000 C 
BRANCH  17  18
ATOM     18  C   UNL     1      56.494  23.811  47.809  1.00  0.00    -0.003 C 
ATOM     19  C   UNL     1      56.444  22.296  48.002  1.00  0.00     0.004 C 
ENDBRANCH  17  18
ENDBRANCH  16  17
ENDBRANCH  15  16
ENDBRANCH  14  15
ENDBRANCH  13  14
ENDBRANCH  12  13
ENDBRANCH   1  12
TORSDOF 14
ENDMDL
MODEL 9
REMARK VINA RESULT:    -4.439      1.617      3.765
REMARK INTER + INTRA:          -9.974
REMARK INTER:                  -8.332
REMARK INTRA:                  -1.642
REMARK UNBOUND:                -1.902
REMARK SMILES CCCCCCCCCCCCCC[C@@H](C)C(=O)[O-]
REMARK SMILES IDX 9 1 10 2 11 3 12 4 13 5 14 6 15 7 16 8 17 9 18 10 19 11 8 12
REMARK SMILES IDX 7 13 6 14 5 15 4 16 3 17 2 18 1 19
REMARK H PARENT
REMARK Flexibility Score: inf
ROOT
ATOM      1  C   UNL     1      56.079  20.471  49.162  1.00  0.00     0.000 C 
ENDROOT
BRANCH   1   2
ATOM      2  C   UNL     1      55.301  21.283  50.212  1.00  0.00     0.000 C 
BRANCH   2   3
ATOM      3  C   UNL     1      56.028  21.360  51.566  1.00  0.00     0.000 C 
BRANCH   3   4
ATOM      4  C   UNL     1      55.121  21.611  52.789  1.00  0.00     0.000 C 
BRANCH   4   5
ATOM      5  C   UNL     1      53.615  21.423  52.533  1.00  0.00     0.001 C 
BRANCH   5   6
ATOM      6  C   UNL     1      52.792  21.373  53.832  1.00  0.00     0.009 C 
BRANCH   6   7
ATOM      7  C   UNL     1      51.766  22.524  53.917  1.00  0.00     0.032 C 
ATOM      8  C   UNL     1      50.362  21.973  54.181  1.00  0.00     0.014 C 
BRANCH   7   9
ATOM      9  C   UNL     1      52.128  23.514  54.991  1.00  0.00     0.044 C 
ATOM     10  O   UNL     1      53.028  24.368  54.782  1.00  0.00    -0.550 OA
ATOM     11  O   UNL     1      51.439  23.530  56.199  1.00  0.00    -0.550 OA
ENDBRANCH   7   9
ENDBRANCH   6   7
ENDBRANCH   5   6
ENDBRANCH   4   5
ENDBRANCH   3   4
ENDBRANCH   2   3
ENDBRANCH   1   2
BRANCH   1  12
ATOM     12  C   UNL     1      56.666  21.348  48.042  1.00  0.00     0.000 C 
BRANCH  12  13
ATOM     13  C   UNL     1      56.603  22.869  48.291  1.00  0.00    -0.000 C 
BRANCH  13  14
ATOM     14  C   UNL     1      56.715  23.741  47.027  1.00  0.00    -0.000 C 
BRANCH  14  15
ATOM     15  C   UNL     1      55.730  24.923  47.032  1.00  0.00    -0.000 C 
BRANCH  15  16
ATOM     16  C   UNL     1      54.270  24.469  47.187  1.00  0.00    -0.000 C 
BRANCH  16  17
ATOM     17  C   UNL     1      53.576  25.124  48.394  1.00  0.00    -0.000 C 
BRANCH  17  18
ATOM     18  C   UNL     1      53.393  24.149  49.568  1.00  0.00    -0.003 C 
ATOM     19  C   UNL     1      53.849  24.741  50.901  1.00  0.00     0.004 C 
ENDBRANCH  17  18
ENDBRANCH  16  17
ENDBRANCH  15  16
ENDBRANCH  14  15
ENDBRANCH  13  14
ENDBRANCH  12  13
ENDBRANCH   1  12
TORSDOF 14
ENDMDL
