MODEL 1
REMARK VINA RESULT:    -4.771      0.000      0.000
REMARK INTER + INTRA:          -6.145
REMARK INTER:                  -6.723
REMARK INTRA:                   0.578
REMARK UNBOUND:                 0.578
REMARK SMILES CC1=CCC(=C(C)C)C(=O)CC(C)=CCC1
REMARK SMILES IDX 12 1 14 2 13 3 15 4 16 5 2 6 1 7 3 8 11 10 9 11 10 12 5 13
REMARK SMILES IDX 6 14 7 15 8 16 4 17
REMARK H PARENT
REMARK Flexibility Score: 60.00
ROOT
ATOM      1  C   UNL     1      30.431  19.265  24.448  1.00  0.00    -0.070 C 
ATOM      2  C   UNL     1      31.182  19.229  25.572  1.00  0.00    -0.027 C 
ATOM      3  C   UNL     1      28.977  19.645  24.583  1.00  0.00     0.039 C 
ENDROOT
BRANCH   2   4
ATOM      4  C   UNL     1      32.624  18.781  25.656  1.00  0.00     0.032 C 
BRANCH   4   5
ATOM      5  C   UNL     1      33.664  19.905  25.467  1.00  0.00     0.034 C 
BRANCH   5   6
ATOM      6  C   UNL     1      34.520  19.725  24.227  1.00  0.00    -0.077 C 
ATOM      7  C   UNL     1      35.739  18.844  24.339  1.00  0.00     0.039 C 
ATOM      8  C   UNL     1      34.301  20.357  23.049  1.00  0.00    -0.023 CG0
ATOM      9  G   UNL     1      33.139  21.267  22.701  1.00  0.00     0.000 G0
ENDBRANCH   5   6
ENDBRANCH   4   5
ENDBRANCH   2   4
BRANCH   1  10
ATOM     10  C   UNL     1      30.952  18.855  23.086  1.00  0.00     0.111 C 
BRANCH  10  11
ATOM     11  C   UNL     1      30.956  20.012  22.122  1.00  0.00     0.163 C 
ATOM     12  O   UNL     1      29.848  20.411  21.670  1.00  0.00    -0.294 OA
BRANCH  11  13
ATOM     13  C   UNL     1      32.216  20.652  21.642  1.00  0.00    -0.002 C 
ATOM     14  C   UNL     1      32.560  20.614  20.319  1.00  0.00    -0.069 C 
ATOM     15  C   UNL     1      33.901  21.111  19.825  1.00  0.00     0.039 C 
ATOM     16  C   UNL     1      31.610  20.065  19.277  1.00  0.00     0.039 C 
BRANCH  13  17
ATOM     17  C   UNL     1      33.134  21.255  22.692  1.00  0.00     0.066 CG0
ATOM     18  G   UNL     1      34.289  20.338  23.045  1.00  0.00     0.000 G0
ENDBRANCH  13  17
ENDBRANCH  11  13
ENDBRANCH  10  11
ENDBRANCH   1  10
TORSDOF 0
ENDMDL
MODEL 2
REMARK VINA RESULT:    -4.566      1.571      4.244
REMARK INTER + INTRA:          -5.856
REMARK INTER:                  -6.480
REMARK INTRA:                   0.624
REMARK UNBOUND:                 0.578
REMARK SMILES CC1=CCC(=C(C)C)C(=O)CC(C)=CCC1
REMARK SMILES IDX 12 1 14 2 13 3 15 4 16 5 2 6 1 7 3 8 11 10 9 11 10 12 5 13
REMARK SMILES IDX 6 14 7 15 8 16 4 17
REMARK H PARENT
REMARK Flexibility Score: 60.00
ROOT
ATOM      1  C   UNL     1      31.822  20.269  21.684  1.00  0.00    -0.070 C 
ATOM      2  C   UNL     1      33.165  20.302  21.536  1.00  0.00    -0.027 C 
ATOM      3  C   UNL     1      30.989  19.903  20.481  1.00  0.00     0.039 C 
ENDROOT
BRANCH   2   4
ATOM      4  C   UNL     1      34.158  20.737  22.591  1.00  0.00     0.032 C 
BRANCH   4   5
ATOM      5  C   UNL     1      34.584  19.628  23.576  1.00  0.00     0.034 C 
BRANCH   5   6
ATOM      6  C   UNL     1      34.133  19.888  25.001  1.00  0.00    -0.077 C 
ATOM      7  C   UNL     1      34.961  20.832  25.837  1.00  0.00     0.039 C 
ATOM      8  C   UNL     1      33.077  19.278  25.592  1.00  0.00    -0.023 CG0
ATOM      9  G   UNL     1      32.099  18.315  24.949  1.00  0.00     0.000 G0
ENDBRANCH   5   6
ENDBRANCH   4   5
ENDBRANCH   2   4
BRANCH   1  10
ATOM     10  C   UNL     1      31.115  20.666  22.964  1.00  0.00     0.111 C 
BRANCH  10  11
ATOM     11  C   UNL     1      30.330  19.520  23.544  1.00  0.00     0.163 C 
ATOM     12  O   UNL     1      29.299  19.135  22.927  1.00  0.00    -0.294 OA
BRANCH  11  13
ATOM     13  C   UNL     1      30.691  18.875  24.841  1.00  0.00    -0.002 C 
ATOM     14  C   UNL     1      29.818  18.883  25.894  1.00  0.00    -0.069 C 
ATOM     15  C   UNL     1      30.213  18.381  27.265  1.00  0.00     0.039 C 
ATOM     16  C   UNL     1      28.405  19.402  25.737  1.00  0.00     0.039 C 
BRANCH  13  17
ATOM     17  C   UNL     1      32.093  18.301  24.966  1.00  0.00     0.066 CG0
ATOM     18  G   UNL     1      33.066  19.284  25.588  1.00  0.00     0.000 G0
ENDBRANCH  13  17
ENDBRANCH  11  13
ENDBRANCH  10  11
ENDBRANCH   1  10
TORSDOF 0
ENDMDL
MODEL 3
REMARK VINA RESULT:    -4.545      1.626      3.554
REMARK INTER + INTRA:          -5.826
REMARK INTER:                  -6.444
REMARK INTRA:                   0.618
REMARK UNBOUND:                 0.578
REMARK SMILES CC1=CCC(=C(C)C)C(=O)CC(C)=CCC1
REMARK SMILES IDX 12 1 14 2 13 3 15 4 16 5 2 6 1 7 3 8 11 10 9 11 10 12 5 13
REMARK SMILES IDX 6 14 7 15 8 16 4 17
REMARK H PARENT
REMARK Flexibility Score: 60.00
ROOT
ATOM      1  C   UNL     1      34.107  20.144  24.946  1.00  0.00    -0.070 C 
ATOM      2  C   UNL     1      33.371  19.237  25.625  1.00  0.00    -0.027 C 
ATOM      3  C   UNL     1      34.797  21.227  25.737  1.00  0.00     0.039 C 
ENDROOT
BRANCH   2   4
ATOM      4  C   UNL     1      32.531  18.141  25.006  1.00  0.00     0.032 C 
BRANCH   4   5
ATOM      5  C   UNL     1      31.048  18.143  25.433  1.00  0.00     0.034 C 
BRANCH   5   6
ATOM      6  C   UNL     1      30.261  19.305  24.855  1.00  0.00    -0.077 C 
ATOM      7  C   UNL     1      29.369  20.082  25.790  1.00  0.00     0.039 C 
ATOM      8  C   UNL     1      30.256  19.646  23.543  1.00  0.00    -0.023 CG0
ATOM      9  G   UNL     1      31.080  19.026  22.432  1.00  0.00     0.000 G0
ENDBRANCH   5   6
ENDBRANCH   4   5
ENDBRANCH   2   4
BRANCH   1  10
ATOM     10  C   UNL     1      34.198  20.179  23.434  1.00  0.00     0.111 C 
BRANCH  10  11
ATOM     11  C   UNL     1      32.953  20.760  22.816  1.00  0.00     0.163 C 
ATOM     12  O   UNL     1      32.593  21.912  23.180  1.00  0.00    -0.294 OA
BRANCH  11  13
ATOM     13  C   UNL     1      32.109  20.000  21.847  1.00  0.00    -0.002 C 
ATOM     14  C   UNL     1      32.196  20.242  20.504  1.00  0.00    -0.069 C 
ATOM     15  C   UNL     1      31.246  19.606  19.513  1.00  0.00     0.039 C 
ATOM     16  C   UNL     1      33.253  21.166  19.940  1.00  0.00     0.039 C 
BRANCH  13  17
ATOM     17  C   UNL     1      31.093  19.027  22.423  1.00  0.00     0.066 CG0
ATOM     18  G   UNL     1      30.264  19.647  23.531  1.00  0.00     0.000 G0
ENDBRANCH  13  17
ENDBRANCH  11  13
ENDBRANCH  10  11
ENDBRANCH   1  10
TORSDOF 0
ENDMDL
MODEL 4
REMARK VINA RESULT:    -4.525      1.512      3.722
REMARK INTER + INTRA:          -5.798
REMARK INTER:                  -5.995
REMARK INTRA:                   0.197
REMARK UNBOUND:                 0.578
REMARK SMILES CC1=CCC(=C(C)C)C(=O)CC(C)=CCC1
REMARK SMILES IDX 12 1 14 2 13 3 15 4 16 5 2 6 1 7 3 8 11 10 9 11 10 12 5 13
REMARK SMILES IDX 6 14 7 15 8 16 4 17
REMARK H PARENT
REMARK Flexibility Score: 60.00
ROOT
ATOM      1  C   UNL     1      29.741  19.529  24.720  1.00  0.00    -0.070 C 
ATOM      2  C   UNL     1      29.092  19.500  23.535  1.00  0.00    -0.027 C 
ATOM      3  C   UNL     1      28.979  20.007  25.931  1.00  0.00     0.039 C 
ENDROOT
BRANCH   2   4
ATOM      4  C   UNL     1      29.708  19.147  22.200  1.00  0.00     0.032 C 
BRANCH   4   5
ATOM      5  C   UNL     1      30.471  20.299  21.513  1.00  0.00     0.034 C 
BRANCH   5   6
ATOM      6  C   UNL     1      31.810  19.871  20.941  1.00  0.00    -0.077 C 
ATOM      7  C   UNL     1      31.801  18.931  19.762  1.00  0.00     0.039 C 
ATOM      8  C   UNL     1      33.011  20.222  21.462  1.00  0.00    -0.023 CG0
ATOM      9  G   UNL     1      33.266  21.163  22.623  1.00  0.00     0.000 G0
ENDBRANCH   5   6
ENDBRANCH   4   5
ENDBRANCH   2   4
BRANCH   1  10
ATOM     10  C   UNL     1      31.211  19.193  24.872  1.00  0.00     0.111 C 
BRANCH  10  11
ATOM     11  C   UNL     1      32.075  20.421  24.773  1.00  0.00     0.163 C 
ATOM     12  O   UNL     1      31.690  21.466  25.365  1.00  0.00    -0.294 OA
BRANCH  11  13
ATOM     13  C   UNL     1      33.323  20.460  23.954  1.00  0.00    -0.002 C 
ATOM     14  C   UNL     1      34.494  19.949  24.440  1.00  0.00    -0.069 C 
ATOM     15  C   UNL     1      35.805  20.114  23.705  1.00  0.00     0.039 C 
ATOM     16  C   UNL     1      34.535  19.190  25.749  1.00  0.00     0.039 C 
BRANCH  13  17
ATOM     17  C   UNL     1      33.253  21.171  22.612  1.00  0.00     0.066 CG0
ATOM     18  G   UNL     1      33.011  20.212  21.463  1.00  0.00     0.000 G0
ENDBRANCH  13  17
ENDBRANCH  11  13
ENDBRANCH  10  11
ENDBRANCH   1  10
TORSDOF 0
ENDMDL
MODEL 5
REMARK VINA RESULT:    -4.466      1.875      4.926
REMARK INTER + INTRA:          -5.715
REMARK INTER:                  -6.216
REMARK INTRA:                   0.501
REMARK UNBOUND:                 0.578
REMARK SMILES CC1=CCC(=C(C)C)C(=O)CC(C)=CCC1
REMARK SMILES IDX 12 1 14 2 13 3 15 4 16 5 2 6 1 7 3 8 11 10 9 11 10 12 5 13
REMARK SMILES IDX 6 14 7 15 8 16 4 17
REMARK H PARENT
REMARK Flexibility Score: 60.00
ROOT
ATOM      1  C   UNL     1      34.431  19.189  24.437  1.00  0.00    -0.070 C 
ATOM      2  C   UNL     1      34.432  20.127  23.463  1.00  0.00    -0.027 C 
ATOM      3  C   UNL     1      35.473  18.101  24.369  1.00  0.00     0.039 C 
ENDROOT
BRANCH   2   4
ATOM      4  C   UNL     1      33.415  21.236  23.304  1.00  0.00     0.032 C 
BRANCH   4   5
ATOM      5  C   UNL     1      32.665  21.237  21.956  1.00  0.00     0.034 C 
BRANCH   5   6
ATOM      6  C   UNL     1      31.859  19.973  21.719  1.00  0.00    -0.077 C 
ATOM      7  C   UNL     1      32.092  19.223  20.432  1.00  0.00     0.039 C 
ATOM      8  C   UNL     1      30.896  19.514  22.555  1.00  0.00    -0.023 CG0
ATOM      9  G   UNL     1      30.502  20.088  23.902  1.00  0.00     0.000 G0
ENDBRANCH   5   6
ENDBRANCH   4   5
ENDBRANCH   2   4
BRANCH   1  10
ATOM     10  C   UNL     1      33.385  19.128  25.532  1.00  0.00     0.111 C 
BRANCH  10  11
ATOM     11  C   UNL     1      32.124  18.456  25.059  1.00  0.00     0.163 C 
ATOM     12  O   UNL     1      32.214  17.285  24.598  1.00  0.00    -0.294 OA
BRANCH  11  13
ATOM     13  C   UNL     1      30.800  19.144  25.060  1.00  0.00    -0.002 C 
ATOM     14  C   UNL     1      29.864  18.860  26.016  1.00  0.00    -0.069 C 
ATOM     15  C   UNL     1      28.460  19.419  25.954  1.00  0.00     0.039 C 
ATOM     16  C   UNL     1      30.191  17.963  27.191  1.00  0.00     0.039 C 
BRANCH  13  17
ATOM     17  C   UNL     1      30.507  20.091  23.907  1.00  0.00     0.066 CG0
ATOM     18  G   UNL     1      30.876  19.495  22.563  1.00  0.00     0.000 G0
ENDBRANCH  13  17
ENDBRANCH  11  13
ENDBRANCH  10  11
ENDBRANCH   1  10
TORSDOF 0
ENDMDL
MODEL 6
REMARK VINA RESULT:    -4.340      5.594      8.504
REMARK INTER + INTRA:          -5.537
REMARK INTER:                  -5.765
REMARK INTRA:                   0.227
REMARK UNBOUND:                 0.578
REMARK SMILES CC1=CCC(=C(C)C)C(=O)CC(C)=CCC1
REMARK SMILES IDX 12 1 14 2 13 3 15 4 16 5 2 6 1 7 3 8 11 10 9 11 10 12 5 13
REMARK SMILES IDX 6 14 7 15 8 16 4 17
REMARK H PARENT
REMARK Flexibility Score: 60.00
ROOT
ATOM      1  C   UNL     1      36.405  18.526  26.025  1.00  0.00    -0.070 C 
ATOM      2  C   UNL     1      36.936  18.033  24.884  1.00  0.00    -0.027 C 
ATOM      3  C   UNL     1      35.091  19.260  25.932  1.00  0.00     0.039 C 
ENDROOT
BRANCH   2   4
ATOM      4  C   UNL     1      38.283  17.356  24.758  1.00  0.00     0.032 C 
BRANCH   4   5
ATOM      5  C   UNL     1      39.494  18.312  24.795  1.00  0.00     0.034 C 
BRANCH   5   6
ATOM      6  C   UNL     1      40.527  17.926  25.838  1.00  0.00    -0.077 C 
ATOM      7  C   UNL     1      41.245  16.611  25.660  1.00  0.00     0.039 C 
ATOM      8  C   UNL     1      40.797  18.650  26.951  1.00  0.00    -0.023 CG0
ATOM      9  G   UNL     1      40.216  19.999  27.329  1.00  0.00     0.000 G0
ENDBRANCH   5   6
ENDBRANCH   4   5
ENDBRANCH   2   4
BRANCH   1  10
ATOM     10  C   UNL     1      37.105  18.455  27.367  1.00  0.00     0.111 C 
BRANCH  10  11
ATOM     11  C   UNL     1      37.696  19.784  27.756  1.00  0.00     0.163 C 
ATOM     12  O   UNL     1      37.012  20.822  27.545  1.00  0.00    -0.294 OA
BRANCH  11  13
ATOM     13  C   UNL     1      39.074  19.915  28.317  1.00  0.00    -0.002 C 
ATOM     14  C   UNL     1      39.272  20.020  29.666  1.00  0.00    -0.069 C 
ATOM     15  C   UNL     1      40.635  20.312  30.254  1.00  0.00     0.039 C 
ATOM     16  C   UNL     1      38.129  19.849  30.642  1.00  0.00     0.039 C 
BRANCH  13  17
ATOM     17  C   UNL     1      40.221  20.023  27.326  1.00  0.00     0.066 CG0
ATOM     18  G   UNL     1      40.789  18.669  26.950  1.00  0.00     0.000 G0
ENDBRANCH  13  17
ENDBRANCH  11  13
ENDBRANCH  10  11
ENDBRANCH   1  10
TORSDOF 0
ENDMDL
MODEL 7
REMARK VINA RESULT:    -4.331      3.348      6.987
REMARK INTER + INTRA:          -5.525
REMARK INTER:                  -6.711
REMARK INTRA:                   1.187
REMARK UNBOUND:                 0.578
REMARK SMILES CC1=CCC(=C(C)C)C(=O)CC(C)=CCC1
REMARK SMILES IDX 12 1 14 2 13 3 15 4 16 5 2 6 1 7 3 8 11 10 9 11 10 12 5 13
REMARK SMILES IDX 6 14 7 15 8 16 4 17
REMARK H PARENT
REMARK Flexibility Score: 60.00
ROOT
ATOM      1  C   UNL     1      33.992  21.170  16.410  1.00  0.00    -0.070 C 
ATOM      2  C   UNL     1      33.416  20.462  15.414  1.00  0.00    -0.027 C 
ATOM      3  C   UNL     1      35.499  21.199  16.474  1.00  0.00     0.039 C 
ENDROOT
BRANCH   2   4
ATOM      4  C   UNL     1      31.931  20.233  15.238  1.00  0.00     0.032 C 
BRANCH   4   5
ATOM      5  C   UNL     1      31.424  18.862  15.733  1.00  0.00     0.034 C 
BRANCH   5   6
ATOM      6  C   UNL     1      32.372  18.192  16.711  1.00  0.00    -0.077 C 
ATOM      7  C   UNL     1      33.276  17.109  16.179  1.00  0.00     0.039 C 
ATOM      8  C   UNL     1      32.410  18.454  18.040  1.00  0.00    -0.023 CG0
ATOM      9  G   UNL     1      31.613  19.504  18.789  1.00  0.00     0.000 G0
ENDBRANCH   5   6
ENDBRANCH   4   5
ENDBRANCH   2   4
BRANCH   1  10
ATOM     10  C   UNL     1      33.204  21.853  17.509  1.00  0.00     0.111 C 
BRANCH  10  11
ATOM     11  C   UNL     1      33.490  21.247  18.857  1.00  0.00     0.163 C 
ATOM     12  O   UNL     1      34.649  21.387  19.337  1.00  0.00    -0.294 OA
BRANCH  11  13
ATOM     13  C   UNL     1      32.480  20.443  19.606  1.00  0.00    -0.002 C 
ATOM     14  C   UNL     1      32.414  20.498  20.971  1.00  0.00    -0.069 C 
ATOM     15  C   UNL     1      31.512  19.581  21.766  1.00  0.00     0.039 C 
ATOM     16  C   UNL     1      33.248  21.486  21.757  1.00  0.00     0.039 C 
BRANCH  13  17
ATOM     17  C   UNL     1      31.604  19.500  18.798  1.00  0.00     0.066 CG0
ATOM     18  G   UNL     1      32.414  18.470  18.036  1.00  0.00     0.000 G0
ENDBRANCH  13  17
ENDBRANCH  11  13
ENDBRANCH  10  11
ENDBRANCH   1  10
TORSDOF 0
ENDMDL
MODEL 8
REMARK VINA RESULT:    -4.267      5.354      7.247
REMARK INTER + INTRA:          -5.435
REMARK INTER:                  -5.884
REMARK INTRA:                   0.449
REMARK UNBOUND:                 0.578
REMARK SMILES CC1=CCC(=C(C)C)C(=O)CC(C)=CCC1
REMARK SMILES IDX 12 1 14 2 13 3 15 4 16 5 2 6 1 7 3 8 11 10 9 11 10 12 5 13
REMARK SMILES IDX 6 14 7 15 8 16 4 17
REMARK H PARENT
REMARK Flexibility Score: 60.00
ROOT
ATOM      1  C   UNL     1      36.247  20.359  25.564  1.00  0.00    -0.070 C 
ATOM      2  C   UNL     1      36.522  21.573  26.092  1.00  0.00    -0.027 C 
ATOM      3  C   UNL     1      36.145  20.249  24.063  1.00  0.00     0.039 C 
ENDROOT
BRANCH   2   4
ATOM      4  C   UNL     1      36.569  21.905  27.567  1.00  0.00     0.032 C 
BRANCH   4   5
ATOM      5  C   UNL     1      37.989  22.037  28.156  1.00  0.00     0.034 C 
BRANCH   5   6
ATOM      6  C   UNL     1      38.486  20.760  28.809  1.00  0.00    -0.077 C 
ATOM      7  C   UNL     1      38.349  20.639  30.306  1.00  0.00     0.039 C 
ATOM      8  C   UNL     1      39.106  19.754  28.146  1.00  0.00    -0.023 CG0
ATOM      9  G   UNL     1      39.337  19.649  26.651  1.00  0.00     0.000 G0
ENDBRANCH   5   6
ENDBRANCH   4   5
ENDBRANCH   2   4
BRANCH   1  10
ATOM     10  C   UNL     1      35.948  19.135  26.406  1.00  0.00     0.111 C 
BRANCH  10  11
ATOM     11  C   UNL     1      37.174  18.285  26.605  1.00  0.00     0.163 C 
ATOM     12  O   UNL     1      37.091  17.298  27.385  1.00  0.00    -0.294 OA
BRANCH  11  13
ATOM     13  C   UNL     1      38.485  18.606  25.967  1.00  0.00    -0.002 C 
ATOM     14  C   UNL     1      38.913  17.920  24.865  1.00  0.00    -0.069 C 
ATOM     15  C   UNL     1      40.299  18.110  24.291  1.00  0.00     0.039 C 
ATOM     16  C   UNL     1      38.014  16.927  24.161  1.00  0.00     0.039 C 
BRANCH  13  17
ATOM     17  C   UNL     1      39.353  19.651  26.649  1.00  0.00     0.066 CG0
ATOM     18  G   UNL     1      39.086  19.742  28.138  1.00  0.00     0.000 G0
ENDBRANCH  13  17
ENDBRANCH  11  13
ENDBRANCH  10  11
ENDBRANCH   1  10
TORSDOF 0
ENDMDL
MODEL 9
REMARK VINA RESULT:    -4.212      4.175      6.955
REMARK INTER + INTRA:          -5.357
REMARK INTER:                  -5.629
REMARK INTRA:                   0.271
REMARK UNBOUND:                 0.578
REMARK SMILES CC1=CCC(=C(C)C)C(=O)CC(C)=CCC1
REMARK SMILES IDX 12 1 14 2 13 3 15 4 16 5 2 6 1 7 3 8 11 10 9 11 10 12 5 13
REMARK SMILES IDX 6 14 7 15 8 16 4 17
REMARK H PARENT
REMARK Flexibility Score: 60.00
ROOT
ATOM      1  C   UNL     1      36.940  21.842  27.322  1.00  0.00    -0.070 C 
ATOM      2  C   UNL     1      35.612  21.961  27.097  1.00  0.00    -0.027 C 
ATOM      3  C   UNL     1      37.504  22.482  28.566  1.00  0.00     0.039 C 
ENDROOT
BRANCH   2   4
ATOM      4  C   UNL     1      34.879  21.475  25.867  1.00  0.00     0.032 C 
BRANCH   4   5
ATOM      5  C   UNL     1      34.489  19.982  25.892  1.00  0.00     0.034 C 
BRANCH   5   6
ATOM      6  C   UNL     1      35.011  19.208  24.696  1.00  0.00    -0.077 C 
ATOM      7  C   UNL     1      34.326  19.421  23.369  1.00  0.00     0.039 C 
ATOM      8  C   UNL     1      36.005  18.289  24.755  1.00  0.00    -0.023 CG0
ATOM      9  G   UNL     1      36.843  17.924  25.965  1.00  0.00     0.000 G0
ENDBRANCH   5   6
ENDBRANCH   4   5
ENDBRANCH   2   4
BRANCH   1  10
ATOM     10  C   UNL     1      37.893  21.181  26.348  1.00  0.00     0.111 C 
BRANCH  10  11
ATOM     11  C   UNL     1      38.333  19.825  26.833  1.00  0.00     0.163 C 
ATOM     12  O   UNL     1      38.878  19.750  27.968  1.00  0.00    -0.294 OA
BRANCH  11  13
ATOM     13  C   UNL     1      38.203  18.594  25.999  1.00  0.00    -0.002 C 
ATOM     14  C   UNL     1      39.244  18.159  25.227  1.00  0.00    -0.069 C 
ATOM     15  C   UNL     1      39.094  17.011  24.253  1.00  0.00     0.039 C 
ATOM     16  C   UNL     1      40.607  18.811  25.308  1.00  0.00     0.039 C 
BRANCH  13  17
ATOM     17  C   UNL     1      36.845  17.910  25.974  1.00  0.00     0.066 CG0
ATOM     18  G   UNL     1      36.022  18.306  24.765  1.00  0.00     0.000 G0
ENDBRANCH  13  17
ENDBRANCH  11  13
ENDBRANCH  10  11
ENDBRANCH   1  10
TORSDOF 0
ENDMDL
