MODEL 1
REMARK VINA RESULT:    -3.888      0.000      0.000
REMARK INTER + INTRA:          -6.016
REMARK INTER:                  -5.934
REMARK INTRA:                  -0.082
REMARK UNBOUND:                -0.082
REMARK SMILES CC1=CCC[C@H](C)C(=O)C[C@H](C(C)C)C(=O)C1
REMARK SMILES IDX 8 1 9 2 6 3 7 4 5 5 4 6 3 7 2 8 1 9 10 11 11 12 15 13 16 14
REMARK SMILES IDX 17 15 12 17 13 18 14 19
REMARK H PARENT
REMARK Flexibility Score: 70.00
ROOT
ATOM      1  C   UNL     1      10.263 -17.305  22.726  1.00  0.00     0.136 C 
ATOM      2  O   UNL     1      11.005 -18.156  22.256  1.00  0.00    -0.299 OA
ENDROOT
BRANCH   1   3
ATOM      3  C   UNL     1      10.688 -16.577  23.992  1.00  0.00     0.053 C 
ATOM      4  C   UNL     1      12.204 -16.345  23.953  1.00  0.00     0.016 C 
BRANCH   3   5
ATOM      5  C   UNL     1       9.934 -15.237  24.206  1.00  0.00     0.015 C 
BRANCH   5   6
ATOM      6  C   UNL     1       8.798 -15.263  25.250  1.00  0.00     0.028 C 
BRANCH   6   7
ATOM      7  C   UNL     1       8.352 -16.619  25.739  1.00  0.00    -0.028 C 
ATOM      8  C   UNL     1       7.358 -17.369  25.211  1.00  0.00    -0.070 CG0
ATOM      9  C   UNL     1       6.880 -18.553  26.018  1.00  0.00     0.039 C 
ATOM     10  G   UNL     1       6.698 -17.079  23.872  1.00  0.00     0.000 G0
ENDBRANCH   6   7
ENDBRANCH   5   6
ENDBRANCH   3   5
ENDBRANCH   1   3
BRANCH   1  11
ATOM     11  C   UNL     1       9.016 -16.908  21.961  1.00  0.00     0.087 C 
BRANCH  11  12
ATOM     12  C   UNL     1       7.973 -18.044  21.734  1.00  0.00     0.066 C 
BRANCH  12  13
ATOM     13  C   UNL     1       6.955 -18.183  22.860  1.00  0.00     0.140 C 
ATOM     14  O   UNL     1       6.287 -19.207  22.904  1.00  0.00    -0.299 OA
BRANCH  13  15
ATOM     15  C   UNL     1       6.677 -17.086  23.863  1.00  0.00     0.106 CG0
ATOM     16  G   UNL     1       7.351 -17.391  25.192  1.00  0.00     0.000 G0
ENDBRANCH  13  15
ENDBRANCH  12  13
BRANCH  12  17
ATOM     17  C   UNL     1       7.266 -17.917  20.348  1.00  0.00    -0.006 C 
ATOM     18  C   UNL     1       7.413 -16.499  19.765  1.00  0.00     0.008 C 
ATOM     19  C   UNL     1       7.815 -18.932  19.328  1.00  0.00     0.008 C 
ENDBRANCH  12  17
ENDBRANCH  11  12
ENDBRANCH   1  11
TORSDOF 1
ENDMDL
MODEL 2
REMARK VINA RESULT:    -3.859      2.469      4.136
REMARK INTER + INTRA:          -5.971
REMARK INTER:                  -5.853
REMARK INTRA:                  -0.119
REMARK UNBOUND:                -0.082
REMARK SMILES CC1=CCC[C@H](C)C(=O)C[C@H](C(C)C)C(=O)C1
REMARK SMILES IDX 8 1 9 2 6 3 7 4 5 5 4 6 3 7 2 8 1 9 10 11 11 12 15 13 16 14
REMARK SMILES IDX 17 15 12 17 13 18 14 19
REMARK H PARENT
REMARK Flexibility Score: 70.00
ROOT
ATOM      1  C   UNL     1       7.721 -16.541  23.995  1.00  0.00     0.136 C 
ATOM      2  O   UNL     1       6.656 -16.446  23.403  1.00  0.00    -0.299 OA
ENDROOT
BRANCH   1   3
ATOM      3  C   UNL     1       8.320 -15.299  24.639  1.00  0.00     0.053 C 
ATOM      4  C   UNL     1       8.685 -15.616  26.094  1.00  0.00     0.016 C 
BRANCH   3   5
ATOM      5  C   UNL     1       9.552 -14.749  23.871  1.00  0.00     0.015 C 
BRANCH   5   6
ATOM      6  C   UNL     1      10.814 -15.635  23.899  1.00  0.00     0.028 C 
BRANCH   6   7
ATOM      7  C   UNL     1      11.313 -16.155  22.572  1.00  0.00    -0.028 C 
ATOM      8  C   UNL     1      11.505 -17.453  22.246  1.00  0.00    -0.070 CG0
ATOM      9  C   UNL     1      12.277 -17.742  20.981  1.00  0.00     0.039 C 
ATOM     10  G   UNL     1      11.001 -18.620  23.082  1.00  0.00     0.000 G0
ENDBRANCH   6   7
ENDBRANCH   5   6
ENDBRANCH   3   5
ENDBRANCH   1   3
BRANCH   1  11
ATOM     11  C   UNL     1       8.340 -17.912  24.187  1.00  0.00     0.087 C 
BRANCH  11  12
ATOM     12  C   UNL     1       8.357 -18.827  22.926  1.00  0.00     0.066 C 
BRANCH  12  13
ATOM     13  C   UNL     1       9.756 -19.223  22.468  1.00  0.00     0.140 C 
ATOM     14  O   UNL     1       9.855 -20.107  21.629  1.00  0.00    -0.299 OA
BRANCH  13  15
ATOM     15  C   UNL     1      11.017 -18.636  23.062  1.00  0.00     0.106 CG0
ATOM     16  G   UNL     1      11.496 -17.451  22.239  1.00  0.00     0.000 G0
ENDBRANCH  13  15
ENDBRANCH  12  13
BRANCH  12  17
ATOM     17  C   UNL     1       7.446 -20.083  23.104  1.00  0.00    -0.006 C 
ATOM     18  C   UNL     1       6.797 -20.117  24.499  1.00  0.00     0.008 C 
ATOM     19  C   UNL     1       6.336 -20.144  22.038  1.00  0.00     0.008 C 
ENDBRANCH  12  17
ENDBRANCH  11  12
ENDBRANCH   1  11
TORSDOF 1
ENDMDL
MODEL 3
REMARK VINA RESULT:    -3.841      2.445      5.302
REMARK INTER + INTRA:          -5.944
REMARK INTER:                  -5.595
REMARK INTRA:                  -0.349
REMARK UNBOUND:                -0.082
REMARK SMILES CC1=CCC[C@H](C)C(=O)C[C@H](C(C)C)C(=O)C1
REMARK SMILES IDX 8 1 9 2 6 3 7 4 5 5 4 6 3 7 2 8 1 9 10 11 11 12 15 13 16 14
REMARK SMILES IDX 17 15 12 17 13 18 14 19
REMARK H PARENT
REMARK Flexibility Score: 70.00
ROOT
ATOM      1  C   UNL     1       7.402 -17.846  23.466  1.00  0.00     0.136 C 
ATOM      2  O   UNL     1       6.340 -17.255  23.595  1.00  0.00    -0.299 OA
ENDROOT
BRANCH   1   3
ATOM      3  C   UNL     1       7.462 -19.331  23.791  1.00  0.00     0.053 C 
ATOM      4  C   UNL     1       7.028 -19.543  25.247  1.00  0.00     0.016 C 
BRANCH   3   5
ATOM      5  C   UNL     1       6.606 -20.200  22.831  1.00  0.00     0.015 C 
BRANCH   5   6
ATOM      6  C   UNL     1       7.092 -20.267  21.369  1.00  0.00     0.028 C 
BRANCH   6   7
ATOM      7  C   UNL     1       8.411 -20.957  21.120  1.00  0.00    -0.028 C 
ATOM      8  C   UNL     1       9.553 -20.365  20.702  1.00  0.00    -0.070 CG0
ATOM      9  C   UNL     1      10.671 -21.269  20.238  1.00  0.00     0.039 C 
ATOM     10  G   UNL     1       9.762 -18.859  20.662  1.00  0.00     0.000 G0
ENDBRANCH   6   7
ENDBRANCH   5   6
ENDBRANCH   3   5
ENDBRANCH   1   3
BRANCH   1  11
ATOM     11  C   UNL     1       8.585 -17.117  22.858  1.00  0.00     0.087 C 
BRANCH  11  12
ATOM     12  C   UNL     1       9.977 -17.774  23.095  1.00  0.00     0.066 C 
BRANCH  12  13
ATOM     13  C   UNL     1      10.591 -18.391  21.844  1.00  0.00     0.140 C 
ATOM     14  O   UNL     1      11.810 -18.452  21.775  1.00  0.00    -0.299 OA
BRANCH  13  15
ATOM     15  C   UNL     1       9.769 -18.848  20.659  1.00  0.00     0.106 CG0
ATOM     16  G   UNL     1       9.563 -20.354  20.699  1.00  0.00     0.000 G0
ENDBRANCH  13  15
ENDBRANCH  12  13
BRANCH  12  17
ATOM     17  C   UNL     1      10.975 -16.792  23.787  1.00  0.00    -0.006 C 
ATOM     18  C   UNL     1      11.058 -15.449  23.038  1.00  0.00     0.008 C 
ATOM     19  C   UNL     1      10.591 -16.520  25.253  1.00  0.00     0.008 C 
ENDBRANCH  12  17
ENDBRANCH  11  12
ENDBRANCH   1  11
TORSDOF 1
ENDMDL
MODEL 4
REMARK VINA RESULT:    -3.738     11.966     14.301
REMARK INTER + INTRA:          -5.787
REMARK INTER:                  -5.530
REMARK INTRA:                  -0.257
REMARK UNBOUND:                -0.082
REMARK SMILES CC1=CCC[C@H](C)C(=O)C[C@H](C(C)C)C(=O)C1
REMARK SMILES IDX 8 1 9 2 6 3 7 4 5 5 4 6 3 7 2 8 1 9 10 11 11 12 15 13 16 14
REMARK SMILES IDX 17 15 12 17 13 18 14 19
REMARK H PARENT
REMARK Flexibility Score: 70.00
ROOT
ATOM      1  C   UNL     1      18.021 -25.780  24.371  1.00  0.00     0.136 C 
ATOM      2  O   UNL     1      16.946 -25.781  24.954  1.00  0.00    -0.299 OA
ENDROOT
BRANCH   1   3
ATOM      3  C   UNL     1      18.773 -27.093  24.211  1.00  0.00     0.053 C 
ATOM      4  C   UNL     1      19.496 -27.095  22.858  1.00  0.00     0.016 C 
BRANCH   3   5
ATOM      5  C   UNL     1      19.772 -27.367  25.367  1.00  0.00     0.015 C 
BRANCH   5   6
ATOM      6  C   UNL     1      21.243 -26.998  25.089  1.00  0.00     0.028 C 
BRANCH   6   7
ATOM      7  C   UNL     1      21.852 -25.923  25.956  1.00  0.00    -0.028 C 
ATOM      8  C   UNL     1      22.033 -24.628  25.612  1.00  0.00    -0.070 CG0
ATOM      9  C   UNL     1      22.917 -23.791  26.505  1.00  0.00     0.039 C 
ATOM     10  G   UNL     1      21.412 -23.984  24.382  1.00  0.00     0.000 G0
ENDBRANCH   6   7
ENDBRANCH   5   6
ENDBRANCH   3   5
ENDBRANCH   1   3
BRANCH   1  11
ATOM     11  C   UNL     1      18.501 -24.503  23.709  1.00  0.00     0.087 C 
BRANCH  11  12
ATOM     12  C   UNL     1      18.838 -23.327  24.674  1.00  0.00     0.066 C 
BRANCH  12  13
ATOM     13  C   UNL     1      20.323 -22.995  24.749  1.00  0.00     0.140 C 
ATOM     14  O   UNL     1      20.640 -21.857  25.066  1.00  0.00    -0.299 OA
BRANCH  13  15
ATOM     15  C   UNL     1      21.410 -23.976  24.369  1.00  0.00     0.106 CG0
ATOM     16  G   UNL     1      22.004 -24.625  25.610  1.00  0.00     0.000 G0
ENDBRANCH  13  15
ENDBRANCH  12  13
BRANCH  12  17
ATOM     17  C   UNL     1      17.990 -22.054  24.359  1.00  0.00    -0.006 C 
ATOM     18  C   UNL     1      17.035 -22.289  23.175  1.00  0.00     0.008 C 
ATOM     19  C   UNL     1      17.168 -21.595  25.578  1.00  0.00     0.008 C 
ENDBRANCH  12  17
ENDBRANCH  11  12
ENDBRANCH   1  11
TORSDOF 1
ENDMDL
MODEL 5
REMARK VINA RESULT:    -3.673     12.337     14.548
REMARK INTER + INTRA:          -5.687
REMARK INTER:                  -5.573
REMARK INTRA:                  -0.114
REMARK UNBOUND:                -0.082
REMARK SMILES CC1=CCC[C@H](C)C(=O)C[C@H](C(C)C)C(=O)C1
REMARK SMILES IDX 8 1 9 2 6 3 7 4 5 5 4 6 3 7 2 8 1 9 10 11 11 12 15 13 16 14
REMARK SMILES IDX 17 15 12 17 13 18 14 19
REMARK H PARENT
REMARK Flexibility Score: 70.00
ROOT
ATOM      1  C   UNL     1      18.336 -24.087  23.274  1.00  0.00     0.136 C 
ATOM      2  O   UNL     1      18.025 -24.404  22.135  1.00  0.00    -0.299 OA
ENDROOT
BRANCH   1   3
ATOM      3  C   UNL     1      18.303 -22.617  23.664  1.00  0.00     0.053 C 
ATOM      4  C   UNL     1      17.676 -22.482  25.058  1.00  0.00     0.016 C 
BRANCH   3   5
ATOM      5  C   UNL     1      19.701 -21.944  23.624  1.00  0.00     0.015 C 
BRANCH   5   6
ATOM      6  C   UNL     1      20.648 -22.287  24.793  1.00  0.00     0.028 C 
BRANCH   6   7
ATOM      7  C   UNL     1      21.945 -22.974  24.441  1.00  0.00    -0.028 C 
ATOM      8  C   UNL     1      22.315 -24.220  24.815  1.00  0.00    -0.070 CG0
ATOM      9  C   UNL     1      23.760 -24.605  24.605  1.00  0.00     0.039 C 
ATOM     10  G   UNL     1      21.368 -25.232  25.440  1.00  0.00     0.000 G0
ENDBRANCH   6   7
ENDBRANCH   5   6
ENDBRANCH   3   5
ENDBRANCH   1   3
BRANCH   1  11
ATOM     11  C   UNL     1      18.609 -25.175  24.295  1.00  0.00     0.087 C 
BRANCH  11  12
ATOM     12  C   UNL     1      19.552 -26.322  23.823  1.00  0.00     0.066 C 
BRANCH  12  13
ATOM     13  C   UNL     1      20.933 -26.292  24.465  1.00  0.00     0.140 C 
ATOM     14  O   UNL     1      21.701 -27.210  24.216  1.00  0.00    -0.299 OA
BRANCH  13  15
ATOM     15  C   UNL     1      21.361 -25.232  25.456  1.00  0.00     0.106 CG0
ATOM     16  G   UNL     1      22.314 -24.242  24.804  1.00  0.00     0.000 G0
ENDBRANCH  13  15
ENDBRANCH  12  13
BRANCH  12  17
ATOM     17  C   UNL     1      18.886 -27.725  23.983  1.00  0.00    -0.006 C 
ATOM     18  C   UNL     1      18.684 -28.090  25.465  1.00  0.00     0.008 C 
ATOM     19  C   UNL     1      17.528 -27.804  23.262  1.00  0.00     0.008 C 
ENDBRANCH  12  17
ENDBRANCH  11  12
ENDBRANCH   1  11
TORSDOF 1
ENDMDL
MODEL 6
REMARK VINA RESULT:    -3.668      1.911      4.155
REMARK INTER + INTRA:          -5.680
REMARK INTER:                  -5.300
REMARK INTRA:                  -0.379
REMARK UNBOUND:                -0.082
REMARK SMILES CC1=CCC[C@H](C)C(=O)C[C@H](C(C)C)C(=O)C1
REMARK SMILES IDX 8 1 9 2 6 3 7 4 5 5 4 6 3 7 2 8 1 9 10 11 11 12 15 13 16 14
REMARK SMILES IDX 17 15 12 17 13 18 14 19
REMARK H PARENT
REMARK Flexibility Score: 70.00
ROOT
ATOM      1  C   UNL     1       9.951 -16.274  25.150  1.00  0.00     0.136 C 
ATOM      2  O   UNL     1      10.611 -16.549  26.141  1.00  0.00    -0.299 OA
ENDROOT
BRANCH   1   3
ATOM      3  C   UNL     1       8.490 -15.888  25.322  1.00  0.00     0.053 C 
ATOM      4  C   UNL     1       8.162 -14.727  24.375  1.00  0.00     0.016 C 
BRANCH   3   5
ATOM      5  C   UNL     1       7.515 -17.075  25.092  1.00  0.00     0.015 C 
BRANCH   5   6
ATOM      6  C   UNL     1       6.699 -17.033  23.784  1.00  0.00     0.028 C 
BRANCH   6   7
ATOM      7  C   UNL     1       6.924 -18.158  22.803  1.00  0.00    -0.028 C 
ATOM      8  C   UNL     1       7.647 -18.087  21.662  1.00  0.00    -0.070 CG0
ATOM      9  C   UNL     1       7.509 -19.230  20.684  1.00  0.00     0.039 C 
ATOM     10  G   UNL     1       8.568 -16.929  21.313  1.00  0.00     0.000 G0
ENDBRANCH   6   7
ENDBRANCH   5   6
ENDBRANCH   3   5
ENDBRANCH   1   3
BRANCH   1  11
ATOM     11  C   UNL     1      10.641 -16.191  23.802  1.00  0.00     0.087 C 
BRANCH  11  12
ATOM     12  C   UNL     1      10.614 -17.493  22.948  1.00  0.00     0.066 C 
BRANCH  12  13
ATOM     13  C   UNL     1      10.019 -17.310  21.558  1.00  0.00     0.140 C 
ATOM     14  O   UNL     1      10.770 -17.401  20.597  1.00  0.00    -0.299 OA
BRANCH  13  15
ATOM     15  C   UNL     1       8.572 -16.937  21.320  1.00  0.00     0.106 CG0
ATOM     16  G   UNL     1       7.657 -18.104  21.652  1.00  0.00     0.000 G0
ENDBRANCH  13  15
ENDBRANCH  12  13
BRANCH  12  17
ATOM     17  C   UNL     1      12.019 -18.171  22.875  1.00  0.00    -0.006 C 
ATOM     18  C   UNL     1      13.121 -17.251  23.430  1.00  0.00     0.008 C 
ATOM     19  C   UNL     1      12.054 -19.506  23.642  1.00  0.00     0.008 C 
ENDBRANCH  12  17
ENDBRANCH  11  12
ENDBRANCH   1  11
TORSDOF 1
ENDMDL
MODEL 7
REMARK VINA RESULT:    -3.653      2.046      4.244
REMARK INTER + INTRA:          -5.658
REMARK INTER:                  -5.514
REMARK INTRA:                  -0.144
REMARK UNBOUND:                -0.082
REMARK SMILES CC1=CCC[C@H](C)C(=O)C[C@H](C(C)C)C(=O)C1
REMARK SMILES IDX 8 1 9 2 6 3 7 4 5 5 4 6 3 7 2 8 1 9 10 11 11 12 15 13 16 14
REMARK SMILES IDX 17 15 12 17 13 18 14 19
REMARK H PARENT
REMARK Flexibility Score: 70.00
ROOT
ATOM      1  C   UNL     1      10.511 -19.622  22.615  1.00  0.00     0.136 C 
ATOM      2  O   UNL     1      11.220 -20.530  22.207  1.00  0.00    -0.299 OA
ENDROOT
BRANCH   1   3
ATOM      3  C   UNL     1       9.188 -19.350  21.917  1.00  0.00     0.053 C 
ATOM      4  C   UNL     1       9.301 -19.771  20.446  1.00  0.00     0.016 C 
BRANCH   3   5
ATOM      5  C   UNL     1       7.983 -20.055  22.598  1.00  0.00     0.015 C 
BRANCH   5   6
ATOM      6  C   UNL     1       6.810 -19.140  23.005  1.00  0.00     0.028 C 
BRANCH   6   7
ATOM      7  C   UNL     1       7.021 -17.653  22.857  1.00  0.00    -0.028 C 
ATOM      8  C   UNL     1       7.490 -16.816  23.811  1.00  0.00    -0.070 CG0
ATOM      9  C   UNL     1       7.354 -15.333  23.559  1.00  0.00     0.039 C 
ATOM     10  G   UNL     1       8.128 -17.284  25.109  1.00  0.00     0.000 G0
ENDBRANCH   6   7
ENDBRANCH   5   6
ENDBRANCH   3   5
ENDBRANCH   1   3
BRANCH   1  11
ATOM     11  C   UNL     1      10.906 -18.889  23.883  1.00  0.00     0.087 C 
BRANCH  11  12
ATOM     12  C   UNL     1      10.542 -17.375  23.929  1.00  0.00     0.066 C 
BRANCH  12  13
ATOM     13  C   UNL     1       9.634 -16.992  25.091  1.00  0.00     0.140 C 
ATOM     14  O   UNL     1      10.150 -16.490  26.080  1.00  0.00    -0.299 OA
BRANCH  13  15
ATOM     15  C   UNL     1       8.149 -17.282  25.111  1.00  0.00     0.106 CG0
ATOM     16  G   UNL     1       7.496 -16.819  23.818  1.00  0.00     0.000 G0
ENDBRANCH  13  15
ENDBRANCH  12  13
BRANCH  12  17
ATOM     17  C   UNL     1      11.812 -16.468  23.884  1.00  0.00    -0.006 C 
ATOM     18  C   UNL     1      13.045 -17.245  23.386  1.00  0.00     0.008 C 
ATOM     19  C   UNL     1      11.606 -15.235  22.985  1.00  0.00     0.008 C 
ENDBRANCH  12  17
ENDBRANCH  11  12
ENDBRANCH   1  11
TORSDOF 1
ENDMDL
MODEL 8
REMARK VINA RESULT:    -3.627      2.646      5.220
REMARK INTER + INTRA:          -5.617
REMARK INTER:                  -5.132
REMARK INTRA:                  -0.486
REMARK UNBOUND:                -0.082
REMARK SMILES CC1=CCC[C@H](C)C(=O)C[C@H](C(C)C)C(=O)C1
REMARK SMILES IDX 8 1 9 2 6 3 7 4 5 5 4 6 3 7 2 8 1 9 10 11 11 12 15 13 16 14
REMARK SMILES IDX 17 15 12 17 13 18 14 19
REMARK H PARENT
REMARK Flexibility Score: 70.00
ROOT
ATOM      1  C   UNL     1       8.063 -18.075  21.729  1.00  0.00     0.136 C 
ATOM      2  O   UNL     1       7.606 -17.969  20.600  1.00  0.00    -0.299 OA
ENDROOT
BRANCH   1   3
ATOM      3  C   UNL     1       8.021 -19.431  22.416  1.00  0.00     0.053 C 
ATOM      4  C   UNL     1       6.560 -19.876  22.558  1.00  0.00     0.016 C 
BRANCH   3   5
ATOM      5  C   UNL     1       8.855 -20.514  21.679  1.00  0.00     0.015 C 
BRANCH   5   6
ATOM      6  C   UNL     1      10.272 -20.090  21.241  1.00  0.00     0.028 C 
BRANCH   6   7
ATOM      7  C   UNL     1      11.367 -20.203  22.273  1.00  0.00    -0.028 C 
ATOM      8  C   UNL     1      12.095 -19.181  22.778  1.00  0.00    -0.070 CG0
ATOM      9  C   UNL     1      13.327 -19.537  23.576  1.00  0.00     0.039 C 
ATOM     10  G   UNL     1      11.749 -17.714  22.577  1.00  0.00     0.000 G0
ENDBRANCH   6   7
ENDBRANCH   5   6
ENDBRANCH   3   5
ENDBRANCH   1   3
BRANCH   1  11
ATOM     11  C   UNL     1       8.778 -16.891  22.351  1.00  0.00     0.087 C 
BRANCH  11  12
ATOM     12  C   UNL     1       9.411 -17.144  23.752  1.00  0.00     0.066 C 
BRANCH  12  13
ATOM     13  C   UNL     1      10.935 -17.184  23.745  1.00  0.00     0.140 C 
ATOM     14  O   UNL     1      11.525 -16.699  24.700  1.00  0.00    -0.299 OA
BRANCH  13  15
ATOM     15  C   UNL     1      11.743 -17.713  22.580  1.00  0.00     0.106 CG0
ATOM     16  G   UNL     1      12.112 -19.171  22.803  1.00  0.00     0.000 G0
ENDBRANCH  13  15
ENDBRANCH  12  13
BRANCH  12  17
ATOM     17  C   UNL     1       8.879 -16.140  24.822  1.00  0.00    -0.006 C 
ATOM     18  C   UNL     1       8.559 -14.768  24.201  1.00  0.00     0.008 C 
ATOM     19  C   UNL     1       7.619 -16.670  25.532  1.00  0.00     0.008 C 
ENDBRANCH  12  17
ENDBRANCH  11  12
ENDBRANCH   1  11
TORSDOF 1
ENDMDL
MODEL 9
REMARK VINA RESULT:    -3.601      1.958      3.685
REMARK INTER + INTRA:          -5.579
REMARK INTER:                  -5.239
REMARK INTRA:                  -0.340
REMARK UNBOUND:                -0.082
REMARK SMILES CC1=CCC[C@H](C)C(=O)C[C@H](C(C)C)C(=O)C1
REMARK SMILES IDX 8 1 9 2 6 3 7 4 5 5 4 6 3 7 2 8 1 9 10 11 11 12 15 13 16 14
REMARK SMILES IDX 17 15 12 17 13 18 14 19
REMARK H PARENT
REMARK Flexibility Score: 70.00
ROOT
ATOM      1  C   UNL     1       7.125 -16.362  21.246  1.00  0.00     0.136 C 
ATOM      2  O   UNL     1       6.915 -15.779  20.192  1.00  0.00    -0.299 OA
ENDROOT
BRANCH   1   3
ATOM      3  C   UNL     1       6.688 -15.708  22.548  1.00  0.00     0.053 C 
ATOM      4  C   UNL     1       6.440 -16.799  23.598  1.00  0.00     0.016 C 
BRANCH   3   5
ATOM      5  C   UNL     1       7.705 -14.661  23.076  1.00  0.00     0.015 C 
BRANCH   5   6
ATOM      6  C   UNL     1       8.637 -15.138  24.209  1.00  0.00     0.028 C 
BRANCH   6   7
ATOM      7  C   UNL     1      10.086 -15.362  23.851  1.00  0.00    -0.028 C 
ATOM      8  C   UNL     1      10.675 -16.558  23.623  1.00  0.00    -0.070 CG0
ATOM      9  C   UNL     1      12.184 -16.587  23.566  1.00  0.00     0.039 C 
ATOM     10  G   UNL     1       9.908 -17.857  23.436  1.00  0.00     0.000 G0
ENDBRANCH   6   7
ENDBRANCH   5   6
ENDBRANCH   3   5
ENDBRANCH   1   3
BRANCH   1  11
ATOM     11  C   UNL     1       7.686 -17.770  21.212  1.00  0.00     0.087 C 
BRANCH  11  12
ATOM     12  C   UNL     1       9.200 -17.886  20.861  1.00  0.00     0.066 C 
BRANCH  12  13
ATOM     13  C   UNL     1      10.066 -18.379  22.013  1.00  0.00     0.140 C 
ATOM     14  O   UNL     1      10.864 -19.278  21.786  1.00  0.00    -0.299 OA
BRANCH  13  15
ATOM     15  C   UNL     1       9.924 -17.872  23.431  1.00  0.00     0.106 CG0
ATOM     16  G   UNL     1      10.678 -16.563  23.610  1.00  0.00     0.000 G0
ENDBRANCH  13  15
ENDBRANCH  12  13
BRANCH  12  17
ATOM     17  C   UNL     1       9.436 -18.736  19.573  1.00  0.00    -0.006 C 
ATOM     18  C   UNL     1       8.482 -19.943  19.510  1.00  0.00     0.008 C 
ATOM     19  C   UNL     1       9.264 -17.900  18.292  1.00  0.00     0.008 C 
ENDBRANCH  12  17
ENDBRANCH  11  12
ENDBRANCH   1  11
TORSDOF 1
ENDMDL
