MODEL 1
REMARK VINA RESULT:    -3.983      0.000      0.000
REMARK INTER + INTRA:          -6.449
REMARK INTER:                  -5.496
REMARK INTRA:                  -0.952
REMARK UNBOUND:                -0.952
REMARK SMILES O=C([O-])[C@H]1O[C@H](Oc2cc3oc(-c4ccccc4)cc(=O)c3c(O)c2O)[C@H](O)[C@@H](O)[C@H]1O
REMARK SMILES IDX 7 1 6 2 4 3 31 4 5 5 29 6 27 7 2 8 1 9 3 10 32 11 30 13
REMARK SMILES IDX 28 15 8 17 25 18 9 19 23 20 10 21 22 22 11 23 20 24 12 25
REMARK SMILES IDX 19 26 21 27 26 28 24 30 13 32 14 33 18 34 15 35 17 36 16 37
REMARK H PARENT 32 12 30 14 28 16 26 29 24 31
REMARK Flexibility Score: inf
ROOT
ATOM      1  O   UNL     1    -129.260  38.588  17.157  1.00  0.00    -0.458 OA
ENDROOT
BRANCH   1   2
ATOM      2  C   UNL     1    -129.347  39.531  16.089  1.00  0.00     0.339 C 
ATOM      3  C   UNL     1    -131.223  39.833  14.599  1.00  0.00     0.199 C 
ATOM      4  C   UNL     1    -132.120  40.346  15.760  1.00  0.00     0.180 C 
ATOM      5  O   UNL     1    -130.184  38.983  15.065  1.00  0.00    -0.328 OA
ATOM      6  C   UNL     1    -131.296  40.864  16.974  1.00  0.00     0.181 C 
ATOM      7  C   UNL     1    -129.794  40.896  16.668  1.00  0.00     0.214 C 
BRANCH   3   8
ATOM      8  C   UNL     1    -130.687  40.905  13.673  1.00  0.00     0.073 C 
ATOM      9  O   UNL     1    -131.138  42.080  13.729  1.00  0.00    -0.547 OA
ATOM     10  O   UNL     1    -129.747  40.589  12.698  1.00  0.00    -0.547 OA
ENDBRANCH   3   8
BRANCH   4  11
ATOM     11  O   UNL     1    -133.018  41.324  15.290  1.00  0.00    -0.387 OA
ATOM     12  H   UNL     1    -133.683  40.858  14.718  1.00  0.00     0.211 HD
ENDBRANCH   4  11
BRANCH   6  13
ATOM     13  O   UNL     1    -131.744  42.125  17.414  1.00  0.00    -0.387 OA
ATOM     14  H   UNL     1    -132.252  42.548  16.671  1.00  0.00     0.211 HD
ENDBRANCH   6  13
BRANCH   7  15
ATOM     15  O   UNL     1    -129.086  41.180  17.848  1.00  0.00    -0.384 OA
ATOM     16  H   UNL     1    -129.687  40.950  18.607  1.00  0.00     0.211 HD
ENDBRANCH   7  15
ENDBRANCH   1   2
BRANCH   1  17
ATOM     17  C   UNL     1    -128.056  38.002  17.568  1.00  0.00     0.172 A 
ATOM     18  C   UNL     1    -128.007  37.072  18.625  1.00  0.00     0.201 A 
ATOM     19  C   UNL     1    -126.886  38.359  16.894  1.00  0.00     0.098 A 
ATOM     20  C   UNL     1    -126.755  36.552  19.050  1.00  0.00     0.176 A 
ATOM     21  C   UNL     1    -125.650  37.856  17.297  1.00  0.00     0.146 A 
ATOM     22  C   UNL     1    -125.570  36.947  18.378  1.00  0.00     0.111 A 
ATOM     23  O   UNL     1    -124.551  38.254  16.661  1.00  0.00    -0.456 OA
ATOM     24  C   UNL     1    -124.285  36.485  18.743  1.00  0.00     0.197 A 
ATOM     25  C   UNL     1    -123.328  37.842  16.985  1.00  0.00     0.138 A 
ATOM     26  C   UNL     1    -123.164  36.935  18.045  1.00  0.00     0.100 A 
ATOM     27  O   UNL     1    -124.121  35.678  19.698  1.00  0.00    -0.289 OA
BRANCH  18  28
ATOM     28  O   UNL     1    -129.212  36.673  19.206  1.00  0.00    -0.502 OA
ATOM     29  H   UNL     1    -129.680  35.797  19.016  1.00  0.00     0.293 HD
ENDBRANCH  18  28
BRANCH  20  30
ATOM     30  O   UNL     1    -126.661  35.660  20.125  1.00  0.00    -0.504 OA
ATOM     31  H   UNL     1    -125.976  35.723  20.865  1.00  0.00     0.293 HD
ENDBRANCH  20  30
BRANCH  25  32
ATOM     32  C   UNL     1    -122.168  38.379  16.231  1.00  0.00     0.017 A 
ATOM     33  C   UNL     1    -121.048  37.556  16.009  1.00  0.00     0.012 A 
ATOM     34  C   UNL     1    -122.152  39.698  15.734  1.00  0.00     0.012 A 
ATOM     35  C   UNL     1    -119.953  38.031  15.279  1.00  0.00     0.001 A 
ATOM     36  C   UNL     1    -121.054  40.168  15.006  1.00  0.00     0.001 A 
ATOM     37  C   UNL     1    -119.959  39.334  14.774  1.00  0.00     0.000 A 
ENDBRANCH  25  32
ENDBRANCH   1  17
TORSDOF 9
ENDMDL
MODEL 2
REMARK VINA RESULT:    -3.948     10.407     14.501
REMARK INTER + INTRA:          -6.401
REMARK INTER:                  -5.144
REMARK INTRA:                  -1.257
REMARK UNBOUND:                -0.952
REMARK SMILES O=C([O-])[C@H]1O[C@H](Oc2cc3oc(-c4ccccc4)cc(=O)c3c(O)c2O)[C@H](O)[C@@H](O)[C@H]1O
REMARK SMILES IDX 7 1 6 2 4 3 31 4 5 5 29 6 27 7 2 8 1 9 3 10 32 11 30 13
REMARK SMILES IDX 28 15 8 17 25 18 9 19 23 20 10 21 22 22 11 23 20 24 12 25
REMARK SMILES IDX 19 26 21 27 26 28 24 30 13 32 14 33 18 34 15 35 17 36 16 37
REMARK H PARENT 32 12 30 14 28 16 26 29 24 31
REMARK Flexibility Score: inf
ROOT
ATOM      1  O   UNL     1    -123.549  40.890   4.508  1.00  0.00    -0.458 OA
ENDROOT
BRANCH   1   2
ATOM      2  C   UNL     1    -122.452  39.975   4.522  1.00  0.00     0.339 C 
ATOM      3  C   UNL     1    -121.391  38.986   2.592  1.00  0.00     0.199 C 
ATOM      4  C   UNL     1    -120.852  40.367   2.126  1.00  0.00     0.180 C 
ATOM      5  O   UNL     1    -122.564  39.114   3.385  1.00  0.00    -0.328 OA
ATOM      6  C   UNL     1    -120.797  41.413   3.276  1.00  0.00     0.181 C 
ATOM      7  C   UNL     1    -121.136  40.783   4.632  1.00  0.00     0.214 C 
BRANCH   3   8
ATOM      8  C   UNL     1    -120.371  38.083   3.254  1.00  0.00     0.073 C 
ATOM      9  O   UNL     1    -120.728  36.996   3.781  1.00  0.00    -0.547 OA
ATOM     10  O   UNL     1    -119.041  38.477   3.356  1.00  0.00    -0.547 OA
ENDBRANCH   3   8
BRANCH   4  11
ATOM     11  O   UNL     1    -119.597  40.217   1.503  1.00  0.00    -0.387 OA
ATOM     12  H   UNL     1    -118.939  40.014   2.219  1.00  0.00     0.211 HD
ENDBRANCH   4  11
BRANCH   6  13
ATOM     13  O   UNL     1    -119.555  42.074   3.328  1.00  0.00    -0.387 OA
ATOM     14  H   UNL     1    -119.617  42.794   4.012  1.00  0.00     0.211 HD
ENDBRANCH   6  13
BRANCH   7  15
ATOM     15  O   UNL     1    -121.263  41.797   5.596  1.00  0.00    -0.384 OA
ATOM     16  H   UNL     1    -121.319  42.659   5.102  1.00  0.00     0.211 HD
ENDBRANCH   7  15
ENDBRANCH   1   2
BRANCH   1  17
ATOM     17  C   UNL     1    -124.702  40.719   5.284  1.00  0.00     0.172 A 
ATOM     18  C   UNL     1    -124.815  41.268   6.575  1.00  0.00     0.201 A 
ATOM     19  C   UNL     1    -125.758  39.985   4.740  1.00  0.00     0.098 A 
ATOM     20  C   UNL     1    -125.978  41.014   7.351  1.00  0.00     0.176 A 
ATOM     21  C   UNL     1    -126.907  39.729   5.487  1.00  0.00     0.146 A 
ATOM     22  C   UNL     1    -127.031  40.240   6.800  1.00  0.00     0.111 A 
ATOM     23  O   UNL     1    -127.874  38.987   4.953  1.00  0.00    -0.456 OA
ATOM     24  C   UNL     1    -128.215  39.934   7.507  1.00  0.00     0.197 A 
ATOM     25  C   UNL     1    -128.997  38.676   5.595  1.00  0.00     0.138 A 
ATOM     26  C   UNL     1    -129.198  39.150   6.902  1.00  0.00     0.100 A 
ATOM     27  O   UNL     1    -128.406  40.344   8.684  1.00  0.00    -0.289 OA
BRANCH  18  28
ATOM     28  O   UNL     1    -123.773  42.074   7.040  1.00  0.00    -0.502 OA
ATOM     29  H   UNL     1    -123.882  42.824   7.710  1.00  0.00     0.293 HD
ENDBRANCH  18  28
BRANCH  20  30
ATOM     30  O   UNL     1    -126.108  41.507   8.656  1.00  0.00    -0.504 OA
ATOM     31  H   UNL     1    -126.064  40.938   9.490  1.00  0.00     0.293 HD
ENDBRANCH  20  30
BRANCH  25  32
ATOM     32  C   UNL     1    -129.994  37.810   4.917  1.00  0.00     0.017 A 
ATOM     33  C   UNL     1    -129.558  36.655   4.241  1.00  0.00     0.012 A 
ATOM     34  C   UNL     1    -131.370  38.115   4.925  1.00  0.00     0.012 A 
ATOM     35  C   UNL     1    -130.480  35.809   3.616  1.00  0.00     0.001 A 
ATOM     36  C   UNL     1    -132.288  37.266   4.298  1.00  0.00     0.001 A 
ATOM     37  C   UNL     1    -131.844  36.112   3.649  1.00  0.00     0.000 A 
ENDBRANCH  25  32
ENDBRANCH   1  17
TORSDOF 9
ENDMDL
MODEL 3
REMARK VINA RESULT:    -3.909     12.225     15.740
REMARK INTER + INTRA:          -6.347
REMARK INTER:                  -5.131
REMARK INTRA:                  -1.217
REMARK UNBOUND:                -0.952
REMARK SMILES O=C([O-])[C@H]1O[C@H](Oc2cc3oc(-c4ccccc4)cc(=O)c3c(O)c2O)[C@H](O)[C@@H](O)[C@H]1O
REMARK SMILES IDX 7 1 6 2 4 3 31 4 5 5 29 6 27 7 2 8 1 9 3 10 32 11 30 13
REMARK SMILES IDX 28 15 8 17 25 18 9 19 23 20 10 21 22 22 11 23 20 24 12 25
REMARK SMILES IDX 19 26 21 27 26 28 24 30 13 32 14 33 18 34 15 35 17 36 16 37
REMARK H PARENT 32 12 30 14 28 16 26 29 24 31
REMARK Flexibility Score: inf
ROOT
ATOM      1  O   UNL     1    -123.128  38.245   3.992  1.00  0.00    -0.458 OA
ENDROOT
BRANCH   1   2
ATOM      2  C   UNL     1    -122.507  38.245   2.706  1.00  0.00     0.339 C 
ATOM      3  C   UNL     1    -120.348  39.177   2.162  1.00  0.00     0.199 C 
ATOM      4  C   UNL     1    -119.621  38.120   3.039  1.00  0.00     0.180 C 
ATOM      5  O   UNL     1    -121.679  39.408   2.601  1.00  0.00    -0.328 OA
ATOM      6  C   UNL     1    -120.490  36.857   3.304  1.00  0.00     0.181 C 
ATOM      7  C   UNL     1    -121.794  36.887   2.500  1.00  0.00     0.214 C 
BRANCH   3   8
ATOM      8  C   UNL     1    -120.293  38.927   0.669  1.00  0.00     0.073 C 
ATOM      9  O   UNL     1    -120.938  39.662  -0.125  1.00  0.00    -0.547 OA
ATOM     10  O   UNL     1    -119.592  37.838   0.162  1.00  0.00    -0.547 OA
ENDBRANCH   3   8
BRANCH   4  11
ATOM     11  O   UNL     1    -118.377  37.782   2.470  1.00  0.00    -0.387 OA
ATOM     12  H   UNL     1    -118.117  38.533   1.874  1.00  0.00     0.211 HD
ENDBRANCH   4  11
BRANCH   6  13
ATOM     13  O   UNL     1    -119.777  35.667   3.058  1.00  0.00    -0.387 OA
ATOM     14  H   UNL     1    -120.126  35.267   2.217  1.00  0.00     0.211 HD
ENDBRANCH   6  13
BRANCH   7  15
ATOM     15  O   UNL     1    -122.622  35.832   2.919  1.00  0.00    -0.384 OA
ATOM     16  H   UNL     1    -123.505  35.965   2.479  1.00  0.00     0.211 HD
ENDBRANCH   7  15
ENDBRANCH   1   2
BRANCH   1  17
ATOM     17  C   UNL     1    -124.355  38.868   4.254  1.00  0.00     0.172 A 
ATOM     18  C   UNL     1    -124.431  40.220   4.641  1.00  0.00     0.201 A 
ATOM     19  C   UNL     1    -125.520  38.113   4.115  1.00  0.00     0.098 A 
ATOM     20  C   UNL     1    -125.692  40.793   4.959  1.00  0.00     0.176 A 
ATOM     21  C   UNL     1    -126.765  38.661   4.420  1.00  0.00     0.146 A 
ATOM     22  C   UNL     1    -126.866  40.006   4.845  1.00  0.00     0.111 A 
ATOM     23  O   UNL     1    -127.850  37.897   4.320  1.00  0.00    -0.456 OA
ATOM     24  C   UNL     1    -128.156  40.495   5.149  1.00  0.00     0.197 A 
ATOM     25  C   UNL     1    -129.076  38.327   4.605  1.00  0.00     0.138 A 
ATOM     26  C   UNL     1    -129.261  39.652   5.031  1.00  0.00     0.100 A 
ATOM     27  O   UNL     1    -128.336  41.680   5.542  1.00  0.00    -0.289 OA
BRANCH  18  28
ATOM     28  O   UNL     1    -123.248  40.962   4.676  1.00  0.00    -0.502 OA
ATOM     29  H   UNL     1    -123.194  41.963   4.541  1.00  0.00     0.293 HD
ENDBRANCH  18  28
BRANCH  20  30
ATOM     30  O   UNL     1    -125.803  42.121   5.391  1.00  0.00    -0.504 OA
ATOM     31  H   UNL     1    -126.638  42.525   5.791  1.00  0.00     0.293 HD
ENDBRANCH  20  30
BRANCH  25  32
ATOM     32  C   UNL     1    -130.212  37.378   4.494  1.00  0.00     0.017 A 
ATOM     33  C   UNL     1    -129.970  36.059   4.064  1.00  0.00     0.012 A 
ATOM     34  C   UNL     1    -131.533  37.761   4.802  1.00  0.00     0.012 A 
ATOM     35  C   UNL     1    -131.021  35.139   3.976  1.00  0.00     0.001 A 
ATOM     36  C   UNL     1    -132.579  36.837   4.711  1.00  0.00     0.001 A 
ATOM     37  C   UNL     1    -132.322  35.526   4.304  1.00  0.00     0.000 A 
ENDBRANCH  25  32
ENDBRANCH   1  17
TORSDOF 9
ENDMDL
MODEL 4
REMARK VINA RESULT:    -3.861      1.639      2.908
REMARK INTER + INTRA:          -6.281
REMARK INTER:                  -5.130
REMARK INTRA:                  -1.151
REMARK UNBOUND:                -0.952
REMARK SMILES O=C([O-])[C@H]1O[C@H](Oc2cc3oc(-c4ccccc4)cc(=O)c3c(O)c2O)[C@H](O)[C@@H](O)[C@H]1O
REMARK SMILES IDX 7 1 6 2 4 3 31 4 5 5 29 6 27 7 2 8 1 9 3 10 32 11 30 13
REMARK SMILES IDX 28 15 8 17 25 18 9 19 23 20 10 21 22 22 11 23 20 24 12 25
REMARK SMILES IDX 19 26 21 27 26 28 24 30 13 32 14 33 18 34 15 35 17 36 16 37
REMARK H PARENT 32 12 30 14 28 16 26 29 24 31
REMARK Flexibility Score: inf
ROOT
ATOM      1  O   UNL     1    -129.239  36.886  16.460  1.00  0.00    -0.458 OA
ENDROOT
BRANCH   1   2
ATOM      2  C   UNL     1    -130.358  37.592  16.997  1.00  0.00     0.339 C 
ATOM      3  C   UNL     1    -130.274  39.622  18.302  1.00  0.00     0.199 C 
ATOM      4  C   UNL     1    -129.740  40.432  17.089  1.00  0.00     0.180 C 
ATOM      5  O   UNL     1    -129.948  38.242  18.205  1.00  0.00    -0.328 OA
ATOM      6  C   UNL     1    -130.041  39.745  15.726  1.00  0.00     0.181 C 
ATOM      7  C   UNL     1    -130.937  38.513  15.897  1.00  0.00     0.214 C 
BRANCH   3   8
ATOM      8  C   UNL     1    -131.742  39.822  18.619  1.00  0.00     0.073 C 
ATOM      9  O   UNL     1    -132.346  40.853  18.219  1.00  0.00    -0.547 OA
ATOM     10  O   UNL     1    -132.422  38.910  19.418  1.00  0.00    -0.547 OA
ENDBRANCH   3   8
BRANCH   4  11
ATOM     11  O   UNL     1    -130.235  41.751  17.124  1.00  0.00    -0.387 OA
ATOM     12  H   UNL     1    -130.906  41.829  16.397  1.00  0.00     0.211 HD
ENDBRANCH   4  11
BRANCH   6  13
ATOM     13  O   UNL     1    -130.598  40.645  14.795  1.00  0.00    -0.387 OA
ATOM     14  H   UNL     1    -130.509  40.245  13.889  1.00  0.00     0.211 HD
ENDBRANCH   6  13
BRANCH   7  15
ATOM     15  O   UNL     1    -131.016  37.825  14.675  1.00  0.00    -0.384 OA
ATOM     16  H   UNL     1    -131.982  37.667  14.495  1.00  0.00     0.211 HD
ENDBRANCH   7  15
ENDBRANCH   1   2
BRANCH   1  17
ATOM     17  C   UNL     1    -127.932  37.037  16.941  1.00  0.00     0.172 A 
ATOM     18  C   UNL     1    -127.485  36.366  18.096  1.00  0.00     0.201 A 
ATOM     19  C   UNL     1    -127.065  37.875  16.238  1.00  0.00     0.098 A 
ATOM     20  C   UNL     1    -126.171  36.599  18.584  1.00  0.00     0.176 A 
ATOM     21  C   UNL     1    -125.772  38.113  16.702  1.00  0.00     0.146 A 
ATOM     22  C   UNL     1    -125.310  37.478  17.879  1.00  0.00     0.111 A 
ATOM     23  O   UNL     1    -124.988  38.954  16.032  1.00  0.00    -0.456 OA
ATOM     24  C   UNL     1    -123.994  37.771  18.300  1.00  0.00     0.197 A 
ATOM     25  C   UNL     1    -123.748  39.255  16.407  1.00  0.00     0.138 A 
ATOM     26  C   UNL     1    -123.214  38.663  17.563  1.00  0.00     0.100 A 
ATOM     27  O   UNL     1    -123.503  37.255  19.342  1.00  0.00    -0.289 OA
BRANCH  18  28
ATOM     28  O   UNL     1    -128.357  35.465  18.711  1.00  0.00    -0.502 OA
ATOM     29  H   UNL     1    -128.111  34.868  19.490  1.00  0.00     0.293 HD
ENDBRANCH  18  28
BRANCH  20  30
ATOM     30  O   UNL     1    -125.706  35.984  19.753  1.00  0.00    -0.504 OA
ATOM     31  H   UNL     1    -125.498  36.472  20.613  1.00  0.00     0.293 HD
ENDBRANCH  20  30
BRANCH  25  32
ATOM     32  C   UNL     1    -122.975  40.235  15.604  1.00  0.00     0.017 A 
ATOM     33  C   UNL     1    -121.568  40.178  15.613  1.00  0.00     0.012 A 
ATOM     34  C   UNL     1    -123.610  41.230  14.835  1.00  0.00     0.012 A 
ATOM     35  C   UNL     1    -120.818  41.075  14.845  1.00  0.00     0.001 A 
ATOM     36  C   UNL     1    -122.855  42.125  14.069  1.00  0.00     0.001 A 
ATOM     37  C   UNL     1    -121.461  42.043  14.070  1.00  0.00     0.000 A 
ENDBRANCH  25  32
ENDBRANCH   1  17
TORSDOF 9
ENDMDL
MODEL 5
REMARK VINA RESULT:    -3.858      2.250      4.542
REMARK INTER + INTRA:          -6.276
REMARK INTER:                  -5.182
REMARK INTRA:                  -1.094
REMARK UNBOUND:                -0.952
REMARK SMILES O=C([O-])[C@H]1O[C@H](Oc2cc3oc(-c4ccccc4)cc(=O)c3c(O)c2O)[C@H](O)[C@@H](O)[C@H]1O
REMARK SMILES IDX 7 1 6 2 4 3 31 4 5 5 29 6 27 7 2 8 1 9 3 10 32 11 30 13
REMARK SMILES IDX 28 15 8 17 25 18 9 19 23 20 10 21 22 22 11 23 20 24 12 25
REMARK SMILES IDX 19 26 21 27 26 28 24 30 13 32 14 33 18 34 15 35 17 36 16 37
REMARK H PARENT 32 12 30 14 28 16 26 29 24 31
REMARK Flexibility Score: inf
ROOT
ATOM      1  O   UNL     1    -127.953  38.772  14.723  1.00  0.00    -0.458 OA
ENDROOT
BRANCH   1   2
ATOM      2  C   UNL     1    -128.779  38.704  15.887  1.00  0.00     0.339 C 
ATOM      3  C   UNL     1    -129.107  40.461  17.510  1.00  0.00     0.199 C 
ATOM      4  C   UNL     1    -129.832  41.352  16.464  1.00  0.00     0.180 C 
ATOM      5  O   UNL     1    -128.211  39.544  16.897  1.00  0.00    -0.328 OA
ATOM      6  C   UNL     1    -130.392  40.538  15.263  1.00  0.00     0.181 C 
ATOM      7  C   UNL     1    -130.237  39.028  15.479  1.00  0.00     0.214 C 
BRANCH   3   8
ATOM      8  C   UNL     1    -130.012  39.767  18.508  1.00  0.00     0.073 C 
ATOM      9  O   UNL     1    -129.522  39.070  19.436  1.00  0.00    -0.547 OA
ATOM     10  O   UNL     1    -131.394  39.828  18.367  1.00  0.00    -0.547 OA
ENDBRANCH   3   8
BRANCH   4  11
ATOM     11  O   UNL     1    -130.840  42.116  17.087  1.00  0.00    -0.387 OA
ATOM     12  H   UNL     1    -131.598  41.501  17.272  1.00  0.00     0.211 HD
ENDBRANCH   4  11
BRANCH   6  13
ATOM     13  O   UNL     1    -131.733  40.868  14.982  1.00  0.00    -0.387 OA
ATOM     14  H   UNL     1    -131.821  40.985  13.999  1.00  0.00     0.211 HD
ENDBRANCH   6  13
BRANCH   7  15
ATOM     15  O   UNL     1    -130.574  38.353  14.294  1.00  0.00    -0.384 OA
ATOM     16  H   UNL     1    -130.263  37.414  14.399  1.00  0.00     0.211 HD
ENDBRANCH   7  15
ENDBRANCH   1   2
BRANCH   1  17
ATOM     17  C   UNL     1    -126.629  39.229  14.746  1.00  0.00     0.172 A 
ATOM     18  C   UNL     1    -126.274  40.496  14.245  1.00  0.00     0.201 A 
ATOM     19  C   UNL     1    -125.654  38.392  15.291  1.00  0.00     0.098 A 
ATOM     20  C   UNL     1    -124.910  40.892  14.229  1.00  0.00     0.176 A 
ATOM     21  C   UNL     1    -124.311  38.767  15.285  1.00  0.00     0.146 A 
ATOM     22  C   UNL     1    -123.923  40.019  14.756  1.00  0.00     0.111 A 
ATOM     23  O   UNL     1    -123.402  37.924  15.771  1.00  0.00    -0.456 OA
ATOM     24  C   UNL     1    -122.545  40.332  14.771  1.00  0.00     0.197 A 
ATOM     25  C   UNL     1    -122.098  38.187  15.793  1.00  0.00     0.138 A 
ATOM     26  C   UNL     1    -121.633  39.412  15.289  1.00  0.00     0.100 A 
ATOM     27  O   UNL     1    -122.111  41.424  14.312  1.00  0.00    -0.289 OA
BRANCH  18  28
ATOM     28  O   UNL     1    -127.296  41.336  13.797  1.00  0.00    -0.502 OA
ATOM     29  H   UNL     1    -127.829  41.191  12.949  1.00  0.00     0.293 HD
ENDBRANCH  18  28
BRANCH  20  30
ATOM     30  O   UNL     1    -124.513  42.125  13.698  1.00  0.00    -0.504 OA
ATOM     31  H   UNL     1    -123.611  42.305  13.278  1.00  0.00     0.293 HD
ENDBRANCH  20  30
BRANCH  25  32
ATOM     32  C   UNL     1    -121.169  37.159  16.325  1.00  0.00     0.017 A 
ATOM     33  C   UNL     1    -119.801  37.231  16.000  1.00  0.00     0.012 A 
ATOM     34  C   UNL     1    -121.619  36.103  17.143  1.00  0.00     0.012 A 
ATOM     35  C   UNL     1    -118.902  36.289  16.510  1.00  0.00     0.001 A 
ATOM     36  C   UNL     1    -120.715  35.163  17.649  1.00  0.00     0.001 A 
ATOM     37  C   UNL     1    -119.357  35.259  17.337  1.00  0.00     0.000 A 
ENDBRANCH  25  32
ENDBRANCH   1  17
TORSDOF 9
ENDMDL
MODEL 6
REMARK VINA RESULT:    -3.855     10.694     12.967
REMARK INTER + INTRA:          -6.273
REMARK INTER:                  -5.433
REMARK INTRA:                  -0.840
REMARK UNBOUND:                -0.952
REMARK SMILES O=C([O-])[C@H]1O[C@H](Oc2cc3oc(-c4ccccc4)cc(=O)c3c(O)c2O)[C@H](O)[C@@H](O)[C@H]1O
REMARK SMILES IDX 7 1 6 2 4 3 31 4 5 5 29 6 27 7 2 8 1 9 3 10 32 11 30 13
REMARK SMILES IDX 28 15 8 17 25 18 9 19 23 20 10 21 22 22 11 23 20 24 12 25
REMARK SMILES IDX 19 26 21 27 26 28 24 30 13 32 14 33 18 34 15 35 17 36 16 37
REMARK H PARENT 32 12 30 14 28 16 26 29 24 31
REMARK Flexibility Score: inf
ROOT
ATOM      1  O   UNL     1    -126.674  40.266   5.495  1.00  0.00    -0.458 OA
ENDROOT
BRANCH   1   2
ATOM      2  C   UNL     1    -127.246  39.278   4.636  1.00  0.00     0.339 C 
ATOM      3  C   UNL     1    -127.890  37.038   5.266  1.00  0.00     0.199 C 
ATOM      4  C   UNL     1    -129.018  37.575   6.190  1.00  0.00     0.180 C 
ATOM      5  O   UNL     1    -126.844  37.985   5.099  1.00  0.00    -0.328 OA
ATOM      6  C   UNL     1    -129.450  39.026   5.834  1.00  0.00     0.181 C 
ATOM      7  C   UNL     1    -128.773  39.521   4.551  1.00  0.00     0.214 C 
BRANCH   3   8
ATOM      8  C   UNL     1    -128.353  36.486   3.933  1.00  0.00     0.073 C 
ATOM      9  O   UNL     1    -129.550  36.129   3.772  1.00  0.00    -0.547 OA
ATOM     10  O   UNL     1    -127.447  36.294   2.896  1.00  0.00    -0.547 OA
ENDBRANCH   3   8
BRANCH   4  11
ATOM     11  O   UNL     1    -130.117  36.692   6.185  1.00  0.00    -0.387 OA
ATOM     12  H   UNL     1    -129.925  35.993   5.506  1.00  0.00     0.211 HD
ENDBRANCH   4  11
BRANCH   6  13
ATOM     13  O   UNL     1    -130.851  39.150   5.740  1.00  0.00    -0.387 OA
ATOM     14  H   UNL     1    -131.253  38.700   6.530  1.00  0.00     0.211 HD
ENDBRANCH   6  13
BRANCH   7  15
ATOM     15  O   UNL     1    -129.041  40.889   4.383  1.00  0.00    -0.384 OA
ATOM     16  H   UNL     1    -128.215  41.380   4.644  1.00  0.00     0.211 HD
ENDBRANCH   7  15
ENDBRANCH   1   2
BRANCH   1  17
ATOM     17  C   UNL     1    -125.294  40.472   5.617  1.00  0.00     0.172 A 
ATOM     18  C   UNL     1    -124.730  41.051   6.770  1.00  0.00     0.201 A 
ATOM     19  C   UNL     1    -124.474  40.079   4.558  1.00  0.00     0.098 A 
ATOM     20  C   UNL     1    -123.333  41.300   6.824  1.00  0.00     0.176 A 
ATOM     21  C   UNL     1    -123.100  40.313   4.596  1.00  0.00     0.146 A 
ATOM     22  C   UNL     1    -122.514  40.925   5.728  1.00  0.00     0.111 A 
ATOM     23  O   UNL     1    -122.356  39.967   3.549  1.00  0.00    -0.456 OA
ATOM     24  C   UNL     1    -121.118  41.145   5.697  1.00  0.00     0.197 A 
ATOM     25  C   UNL     1    -121.042  40.166   3.488  1.00  0.00     0.138 A 
ATOM     26  C   UNL     1    -120.383  40.765   4.574  1.00  0.00     0.100 A 
ATOM     27  O   UNL     1    -120.514  41.691   6.661  1.00  0.00    -0.289 OA
BRANCH  18  28
ATOM     28  O   UNL     1    -125.578  41.341   7.842  1.00  0.00    -0.502 OA
ATOM     29  H   UNL     1    -126.347  41.997   7.805  1.00  0.00     0.293 HD
ENDBRANCH  18  28
BRANCH  20  30
ATOM     30  O   UNL     1    -122.742  41.915   7.935  1.00  0.00    -0.504 OA
ATOM     31  H   UNL     1    -121.820  42.327   7.939  1.00  0.00     0.293 HD
ENDBRANCH  20  30
BRANCH  25  32
ATOM     32  C   UNL     1    -120.314  39.774   2.254  1.00  0.00     0.017 A 
ATOM     33  C   UNL     1    -121.046  39.372   1.120  1.00  0.00     0.012 A 
ATOM     34  C   UNL     1    -118.907  39.787   2.187  1.00  0.00     0.012 A 
ATOM     35  C   UNL     1    -120.384  39.023  -0.061  1.00  0.00     0.001 A 
ATOM     36  C   UNL     1    -118.251  39.435   1.002  1.00  0.00     0.001 A 
ATOM     37  C   UNL     1    -118.989  39.059  -0.122  1.00  0.00     0.000 A 
ENDBRANCH  25  32
ENDBRANCH   1  17
TORSDOF 9
ENDMDL
MODEL 7
REMARK VINA RESULT:    -3.854      9.433     11.999
REMARK INTER + INTRA:          -6.271
REMARK INTER:                  -5.085
REMARK INTRA:                  -1.186
REMARK UNBOUND:                -0.952
REMARK SMILES O=C([O-])[C@H]1O[C@H](Oc2cc3oc(-c4ccccc4)cc(=O)c3c(O)c2O)[C@H](O)[C@@H](O)[C@H]1O
REMARK SMILES IDX 7 1 6 2 4 3 31 4 5 5 29 6 27 7 2 8 1 9 3 10 32 11 30 13
REMARK SMILES IDX 28 15 8 17 25 18 9 19 23 20 10 21 22 22 11 23 20 24 12 25
REMARK SMILES IDX 19 26 21 27 26 28 24 30 13 32 14 33 18 34 15 35 17 36 16 37
REMARK H PARENT 32 12 30 14 28 16 26 29 24 31
REMARK Flexibility Score: inf
ROOT
ATOM      1  O   UNL     1    -127.344  41.339   6.128  1.00  0.00    -0.458 OA
ENDROOT
BRANCH   1   2
ATOM      2  C   UNL     1    -128.233  40.314   6.575  1.00  0.00     0.339 C 
ATOM      3  C   UNL     1    -129.848  40.502   8.359  1.00  0.00     0.199 C 
ATOM      4  C   UNL     1    -130.683  41.536   7.554  1.00  0.00     0.180 C 
ATOM      5  O   UNL     1    -128.481  40.505   7.972  1.00  0.00    -0.328 OA
ATOM      6  C   UNL     1    -130.398  41.482   6.026  1.00  0.00     0.181 C 
ATOM      7  C   UNL     1    -129.482  40.309   5.661  1.00  0.00     0.214 C 
BRANCH   3   8
ATOM      8  C   UNL     1    -130.412  39.096   8.387  1.00  0.00     0.073 C 
ATOM      9  O   UNL     1    -129.787  38.170   8.968  1.00  0.00    -0.547 OA
ATOM     10  O   UNL     1    -131.588  38.795   7.708  1.00  0.00    -0.547 OA
ENDBRANCH   3   8
BRANCH   4  11
ATOM     11  O   UNL     1    -132.056  41.379   7.830  1.00  0.00    -0.387 OA
ATOM     12  H   UNL     1    -132.147  40.571   8.400  1.00  0.00     0.211 HD
ENDBRANCH   4  11
BRANCH   6  13
ATOM     13  O   UNL     1    -131.587  41.443   5.270  1.00  0.00    -0.387 OA
ATOM     14  H   UNL     1    -131.691  42.321   4.815  1.00  0.00     0.211 HD
ENDBRANCH   6  13
BRANCH   7  15
ATOM     15  O   UNL     1    -129.101  40.419   4.313  1.00  0.00    -0.384 OA
ATOM     16  H   UNL     1    -129.939  40.422   3.776  1.00  0.00     0.211 HD
ENDBRANCH   7  15
ENDBRANCH   1   2
BRANCH   1  17
ATOM     17  C   UNL     1    -125.949  41.211   6.151  1.00  0.00     0.172 A 
ATOM     18  C   UNL     1    -125.184  41.641   7.253  1.00  0.00     0.201 A 
ATOM     19  C   UNL     1    -125.323  40.634   5.046  1.00  0.00     0.098 A 
ATOM     20  C   UNL     1    -123.767  41.550   7.206  1.00  0.00     0.176 A 
ATOM     21  C   UNL     1    -123.934  40.535   4.985  1.00  0.00     0.146 A 
ATOM     22  C   UNL     1    -123.140  40.991   6.063  1.00  0.00     0.111 A 
ATOM     23  O   UNL     1    -123.369  40.021   3.895  1.00  0.00    -0.456 OA
ATOM     24  C   UNL     1    -121.738  40.873   5.932  1.00  0.00     0.197 A 
ATOM     25  C   UNL     1    -122.053  39.902   3.740  1.00  0.00     0.138 A 
ATOM     26  C   UNL     1    -121.196  40.328   4.768  1.00  0.00     0.100 A 
ATOM     27  O   UNL     1    -120.955  41.260   6.842  1.00  0.00    -0.289 OA
BRANCH  18  28
ATOM     28  O   UNL     1    -125.860  42.125   8.375  1.00  0.00    -0.502 OA
ATOM     29  H   UNL     1    -126.064  43.101   8.546  1.00  0.00     0.293 HD
ENDBRANCH  18  28
BRANCH  20  30
ATOM     30  O   UNL     1    -122.970  42.008   8.262  1.00  0.00    -0.504 OA
ATOM     31  H   UNL     1    -122.764  41.477   9.097  1.00  0.00     0.293 HD
ENDBRANCH  20  30
BRANCH  25  32
ATOM     32  C   UNL     1    -121.529  39.347   2.467  1.00  0.00     0.017 A 
ATOM     33  C   UNL     1    -121.983  38.091   2.022  1.00  0.00     0.012 A 
ATOM     34  C   UNL     1    -120.580  40.041   1.689  1.00  0.00     0.012 A 
ATOM     35  C   UNL     1    -121.524  37.560   0.813  1.00  0.00     0.001 A 
ATOM     36  C   UNL     1    -120.123  39.504   0.481  1.00  0.00     0.001 A 
ATOM     37  C   UNL     1    -120.599  38.267   0.041  1.00  0.00     0.000 A 
ENDBRANCH  25  32
ENDBRANCH   1  17
TORSDOF 9
ENDMDL
MODEL 8
REMARK VINA RESULT:    -3.819      5.490      8.817
REMARK INTER + INTRA:          -6.223
REMARK INTER:                  -4.953
REMARK INTRA:                  -1.270
REMARK UNBOUND:                -0.952
REMARK SMILES O=C([O-])[C@H]1O[C@H](Oc2cc3oc(-c4ccccc4)cc(=O)c3c(O)c2O)[C@H](O)[C@@H](O)[C@H]1O
REMARK SMILES IDX 7 1 6 2 4 3 31 4 5 5 29 6 27 7 2 8 1 9 3 10 32 11 30 13
REMARK SMILES IDX 28 15 8 17 25 18 9 19 23 20 10 21 22 22 11 23 20 24 12 25
REMARK SMILES IDX 19 26 21 27 26 28 24 30 13 32 14 33 18 34 15 35 17 36 16 37
REMARK H PARENT 32 12 30 14 28 16 26 29 24 31
REMARK Flexibility Score: inf
ROOT
ATOM      1  O   UNL     1    -125.808  41.471   9.377  1.00  0.00    -0.458 OA
ENDROOT
BRANCH   1   2
ATOM      2  C   UNL     1    -126.546  40.634   8.485  1.00  0.00     0.339 C 
ATOM      3  C   UNL     1    -128.213  41.358   6.896  1.00  0.00     0.199 C 
ATOM      4  C   UNL     1    -127.148  42.122   6.060  1.00  0.00     0.180 C 
ATOM      5  O   UNL     1    -127.827  41.229   8.257  1.00  0.00    -0.328 OA
ATOM      6  C   UNL     1    -125.700  41.617   6.323  1.00  0.00     0.181 C 
ATOM      7  C   UNL     1    -125.686  40.377   7.224  1.00  0.00     0.214 C 
BRANCH   3   8
ATOM      8  C   UNL     1    -128.658  40.030   6.319  1.00  0.00     0.073 C 
ATOM      9  O   UNL     1    -129.421  39.273   6.975  1.00  0.00    -0.547 OA
ATOM     10  O   UNL     1    -128.170  39.596   5.091  1.00  0.00    -0.547 OA
ENDBRANCH   3   8
BRANCH   4  11
ATOM     11  O   UNL     1    -127.472  42.070   4.689  1.00  0.00    -0.387 OA
ATOM     12  H   UNL     1    -126.698  41.659   4.222  1.00  0.00     0.211 HD
ENDBRANCH   4  11
BRANCH   6  13
ATOM     13  O   UNL     1    -125.001  41.374   5.124  1.00  0.00    -0.387 OA
ATOM     14  H   UNL     1    -125.516  40.705   4.599  1.00  0.00     0.211 HD
ENDBRANCH   6  13
BRANCH   7  15
ATOM     15  O   UNL     1    -124.361  40.082   7.587  1.00  0.00    -0.384 OA
ATOM     16  H   UNL     1    -123.902  40.953   7.733  1.00  0.00     0.211 HD
ENDBRANCH   7  15
ENDBRANCH   1   2
BRANCH   1  17
ATOM     17  C   UNL     1    -125.574  41.145  10.719  1.00  0.00     0.172 A 
ATOM     18  C   UNL     1    -124.308  40.726  11.170  1.00  0.00     0.201 A 
ATOM     19  C   UNL     1    -126.638  41.252  11.617  1.00  0.00     0.098 A 
ATOM     20  C   UNL     1    -124.132  40.344  12.527  1.00  0.00     0.176 A 
ATOM     21  C   UNL     1    -126.482  40.883  12.953  1.00  0.00     0.146 A 
ATOM     22  C   UNL     1    -125.229  40.426  13.423  1.00  0.00     0.111 A 
ATOM     23  O   UNL     1    -127.529  40.955  13.770  1.00  0.00    -0.456 OA
ATOM     24  C   UNL     1    -125.142  40.058  14.785  1.00  0.00     0.197 A 
ATOM     25  C   UNL     1    -127.480  40.609  15.054  1.00  0.00     0.138 A 
ATOM     26  C   UNL     1    -126.271  40.148  15.599  1.00  0.00     0.100 A 
ATOM     27  O   UNL     1    -124.065  39.633  15.286  1.00  0.00    -0.289 OA
BRANCH  18  28
ATOM     28  O   UNL     1    -123.252  40.725  10.256  1.00  0.00    -0.502 OA
ATOM     29  H   UNL     1    -123.231  41.267   9.402  1.00  0.00     0.293 HD
ENDBRANCH  18  28
BRANCH  20  30
ATOM     30  O   UNL     1    -122.900  39.880  13.002  1.00  0.00    -0.504 OA
ATOM     31  H   UNL     1    -122.338  39.175  12.544  1.00  0.00     0.293 HD
ENDBRANCH  20  30
BRANCH  25  32
ATOM     32  C   UNL     1    -128.720  40.694  15.866  1.00  0.00     0.017 A 
ATOM     33  C   UNL     1    -128.751  40.100  17.143  1.00  0.00     0.012 A 
ATOM     34  C   UNL     1    -129.875  41.348  15.393  1.00  0.00     0.012 A 
ATOM     35  C   UNL     1    -129.899  40.189  17.937  1.00  0.00     0.001 A 
ATOM     36  C   UNL     1    -131.021  41.432  16.191  1.00  0.00     0.001 A 
ATOM     37  C   UNL     1    -131.030  40.858  17.464  1.00  0.00     0.000 A 
ENDBRANCH  25  32
ENDBRANCH   1  17
TORSDOF 9
ENDMDL
MODEL 9
REMARK VINA RESULT:    -3.812     11.240     15.125
REMARK INTER + INTRA:          -6.213
REMARK INTER:                  -4.994
REMARK INTRA:                  -1.219
REMARK UNBOUND:                -0.952
REMARK SMILES O=C([O-])[C@H]1O[C@H](Oc2cc3oc(-c4ccccc4)cc(=O)c3c(O)c2O)[C@H](O)[C@@H](O)[C@H]1O
REMARK SMILES IDX 7 1 6 2 4 3 31 4 5 5 29 6 27 7 2 8 1 9 3 10 32 11 30 13
REMARK SMILES IDX 28 15 8 17 25 18 9 19 23 20 10 21 22 22 11 23 20 24 12 25
REMARK SMILES IDX 19 26 21 27 26 28 24 30 13 32 14 33 18 34 15 35 17 36 16 37
REMARK H PARENT 32 12 30 14 28 16 26 29 24 31
REMARK Flexibility Score: inf
ROOT
ATOM      1  O   UNL     1    -122.142  40.402   3.700  1.00  0.00    -0.458 OA
ENDROOT
BRANCH   1   2
ATOM      2  C   UNL     1    -121.384  39.228   3.406  1.00  0.00     0.339 C 
ATOM      3  C   UNL     1    -121.036  38.262   1.220  1.00  0.00     0.199 C 
ATOM      4  C   UNL     1    -120.202  39.491   0.762  1.00  0.00     0.180 C 
ATOM      5  O   UNL     1    -121.952  38.597   2.253  1.00  0.00    -0.328 OA
ATOM      6  C   UNL     1    -119.631  40.310   1.954  1.00  0.00     0.181 C 
ATOM      7  C   UNL     1    -119.890  39.616   3.296  1.00  0.00     0.214 C 
BRANCH   3   8
ATOM      8  C   UNL     1    -120.230  37.029   1.575  1.00  0.00     0.073 C 
ATOM      9  O   UNL     1    -120.803  35.996   2.010  1.00  0.00    -0.547 OA
ATOM     10  O   UNL     1    -118.841  37.048   1.496  1.00  0.00    -0.547 OA
ENDBRANCH   3   8
BRANCH   4  11
ATOM     11  O   UNL     1    -119.184  39.089  -0.125  1.00  0.00    -0.387 OA
ATOM     12  H   UNL     1    -118.526  38.567   0.405  1.00  0.00     0.211 HD
ENDBRANCH   4  11
BRANCH   6  13
ATOM     13  O   UNL     1    -118.259  40.589   1.791  1.00  0.00    -0.387 OA
ATOM     14  H   UNL     1    -117.824  40.525   2.683  1.00  0.00     0.211 HD
ENDBRANCH   6  13
BRANCH   7  15
ATOM     15  O   UNL     1    -119.532  40.482   4.343  1.00  0.00    -0.384 OA
ATOM     16  H   UNL     1    -119.856  41.388   4.092  1.00  0.00     0.211 HD
ENDBRANCH   7  15
ENDBRANCH   1   2
BRANCH   1  17
ATOM     17  C   UNL     1    -123.153  40.443   4.668  1.00  0.00     0.172 A 
ATOM     18  C   UNL     1    -122.939  41.010   5.939  1.00  0.00     0.201 A 
ATOM     19  C   UNL     1    -124.399  39.905   4.342  1.00  0.00     0.098 A 
ATOM     20  C   UNL     1    -123.973  40.971   6.913  1.00  0.00     0.176 A 
ATOM     21  C   UNL     1    -125.425  39.861   5.284  1.00  0.00     0.146 A 
ATOM     22  C   UNL     1    -125.225  40.393   6.579  1.00  0.00     0.111 A 
ATOM     23  O   UNL     1    -126.585  39.299   4.952  1.00  0.00    -0.456 OA
ATOM     24  C   UNL     1    -126.302  40.306   7.490  1.00  0.00     0.197 A 
ATOM     25  C   UNL     1    -127.614  39.197   5.789  1.00  0.00     0.138 A 
ATOM     26  C   UNL     1    -127.497  39.705   7.093  1.00  0.00     0.100 A 
ATOM     27  O   UNL     1    -126.208  40.749   8.667  1.00  0.00    -0.289 OA
BRANCH  18  28
ATOM     28  O   UNL     1    -121.708  41.620   6.188  1.00  0.00    -0.502 OA
ATOM     29  H   UNL     1    -121.506  42.597   6.020  1.00  0.00     0.293 HD
ENDBRANCH  18  28
BRANCH  20  30
ATOM     30  O   UNL     1    -123.784  41.485   8.201  1.00  0.00    -0.504 OA
ATOM     31  H   UNL     1    -124.531  41.718   8.841  1.00  0.00     0.293 HD
ENDBRANCH  20  30
BRANCH  25  32
ATOM     32  C   UNL     1    -128.850  38.518   5.324  1.00  0.00     0.017 A 
ATOM     33  C   UNL     1    -128.749  37.279   4.662  1.00  0.00     0.012 A 
ATOM     34  C   UNL     1    -130.126  39.082   5.522  1.00  0.00     0.012 A 
ATOM     35  C   UNL     1    -129.901  36.608   4.238  1.00  0.00     0.001 A 
ATOM     36  C   UNL     1    -131.274  38.406   5.094  1.00  0.00     0.001 A 
ATOM     37  C   UNL     1    -131.161  37.168   4.459  1.00  0.00     0.000 A 
ENDBRANCH  25  32
ENDBRANCH   1  17
TORSDOF 9
ENDMDL
