MODEL 1
REMARK VINA RESULT:    -2.644      0.000      0.000
REMARK INTER + INTRA:          -5.731
REMARK INTER:                  -4.963
REMARK INTRA:                  -0.768
REMARK UNBOUND:                -0.768
REMARK SMILES O=C([O-])CCCCCCCCCCCCCCC(=O)[O-]
REMARK SMILES IDX 10 1 9 2 8 3 7 4 6 5 5 6 4 7 2 8 1 9 3 10 11 11 12 12 13 13
REMARK SMILES IDX 14 14 15 15 16 16 17 17 18 18 19 19 20 20
REMARK H PARENT
REMARK Flexibility Score: inf
ROOT
ATOM      1  C   UNL     1      40.743  14.176 -35.674  1.00  0.00     0.000 C 
ENDROOT
BRANCH   1   2
ATOM      2  C   UNL     1      39.394  14.243 -36.405  1.00  0.00     0.000 C 
BRANCH   2   3
ATOM      3  C   UNL     1      38.453  13.092 -36.019  1.00  0.00     0.000 C 
BRANCH   3   4
ATOM      4  C   UNL     1      37.216  13.571 -35.242  1.00  0.00     0.000 C 
BRANCH   4   5
ATOM      5  C   UNL     1      37.503  14.798 -34.361  1.00  0.00     0.000 C 
BRANCH   5   6
ATOM      6  C   UNL     1      37.127  14.595 -32.878  1.00  0.00     0.006 C 
BRANCH   6   7
ATOM      7  C   UNL     1      37.046  13.111 -32.497  1.00  0.00     0.053 C 
BRANCH   7   8
ATOM      8  C   UNL     1      37.091  12.948 -31.010  1.00  0.00     0.041 C 
ATOM      9  O   UNL     1      37.279  11.812 -30.503  1.00  0.00    -0.550 OA
ATOM     10  O   UNL     1      36.875  14.045 -30.184  1.00  0.00    -0.550 OA
ENDBRANCH   7   8
ENDBRANCH   6   7
ENDBRANCH   5   6
ENDBRANCH   4   5
ENDBRANCH   3   4
ENDBRANCH   2   3
ENDBRANCH   1   2
BRANCH   1  11
ATOM     11  C   UNL     1      41.761  13.358 -36.477  1.00  0.00     0.000 C 
BRANCH  11  12
ATOM     12  C   UNL     1      42.122  12.057 -35.747  1.00  0.00     0.000 C 
BRANCH  12  13
ATOM     13  C   UNL     1      43.616  11.963 -35.393  1.00  0.00     0.000 C 
BRANCH  13  14
ATOM     14  C   UNL     1      43.890  11.933 -33.874  1.00  0.00     0.000 C 
BRANCH  14  15
ATOM     15  C   UNL     1      44.964  12.954 -33.458  1.00  0.00     0.000 C 
BRANCH  15  16
ATOM     16  C   UNL     1      45.925  12.402 -32.394  1.00  0.00     0.006 C 
BRANCH  16  17
ATOM     17  C   UNL     1      45.219  12.076 -31.072  1.00  0.00     0.053 C 
BRANCH  17  18
ATOM     18  C   UNL     1      46.196  11.528 -30.080  1.00  0.00     0.041 C 
ATOM     19  O   UNL     1      45.963  11.617 -28.846  1.00  0.00    -0.550 OA
ATOM     20  O   UNL     1      47.341  10.875 -30.520  1.00  0.00    -0.550 OA
ENDBRANCH  17  18
ENDBRANCH  16  17
ENDBRANCH  15  16
ENDBRANCH  14  15
ENDBRANCH  13  14
ENDBRANCH  12  13
ENDBRANCH  11  12
ENDBRANCH   1  11
TORSDOF 15
ENDMDL
MODEL 2
REMARK VINA RESULT:    -2.502      1.157      7.588
REMARK INTER + INTRA:          -5.464
REMARK INTER:                  -4.521
REMARK INTRA:                  -0.943
REMARK UNBOUND:                -0.768
REMARK SMILES O=C([O-])CCCCCCCCCCCCCCC(=O)[O-]
REMARK SMILES IDX 10 1 9 2 8 3 7 4 6 5 5 6 4 7 2 8 1 9 3 10 11 11 12 12 13 13
REMARK SMILES IDX 14 14 15 15 16 16 17 17 18 18 19 19 20 20
REMARK H PARENT
REMARK Flexibility Score: inf
ROOT
ATOM      1  C   UNL     1      41.512  13.619 -35.965  1.00  0.00     0.000 C 
ENDROOT
BRANCH   1   2
ATOM      2  C   UNL     1      41.441  12.155 -35.504  1.00  0.00     0.000 C 
BRANCH   2   3
ATOM      3  C   UNL     1      42.830  11.538 -35.279  1.00  0.00     0.000 C 
BRANCH   3   4
ATOM      4  C   UNL     1      43.952  12.340 -35.958  1.00  0.00     0.000 C 
BRANCH   4   5
ATOM      5  C   UNL     1      45.221  12.440 -35.095  1.00  0.00     0.000 C 
BRANCH   5   6
ATOM      6  C   UNL     1      44.963  12.214 -33.590  1.00  0.00     0.006 C 
BRANCH   6   7
ATOM      7  C   UNL     1      46.190  12.551 -32.733  1.00  0.00     0.053 C 
BRANCH   7   8
ATOM      8  C   UNL     1      45.891  12.335 -31.283  1.00  0.00     0.041 C 
ATOM      9  O   UNL     1      45.038  13.053 -30.698  1.00  0.00    -0.550 OA
ATOM     10  O   UNL     1      46.593  11.375 -30.563  1.00  0.00    -0.550 OA
ENDBRANCH   7   8
ENDBRANCH   6   7
ENDBRANCH   5   6
ENDBRANCH   4   5
ENDBRANCH   3   4
ENDBRANCH   2   3
ENDBRANCH   1   2
BRANCH   1  11
ATOM     11  C   UNL     1      40.164  14.322 -35.767  1.00  0.00     0.000 C 
BRANCH  11  12
ATOM     12  C   UNL     1      39.033  13.550 -36.461  1.00  0.00     0.000 C 
BRANCH  12  13
ATOM     13  C   UNL     1      37.634  14.011 -36.019  1.00  0.00     0.000 C 
BRANCH  13  14
ATOM     14  C   UNL     1      37.496  14.190 -34.492  1.00  0.00     0.000 C 
BRANCH  14  15
ATOM     15  C   UNL     1      37.117  12.875 -33.786  1.00  0.00     0.000 C 
BRANCH  15  16
ATOM     16  C   UNL     1      36.875  13.059 -32.281  1.00  0.00     0.006 C 
BRANCH  16  17
ATOM     17  C   UNL     1      36.891  14.533 -31.855  1.00  0.00     0.053 C 
BRANCH  17  18
ATOM     18  C   UNL     1      37.225  14.652 -30.402  1.00  0.00     0.041 C 
ATOM     19  O   UNL     1      36.885  13.746 -29.597  1.00  0.00    -0.550 OA
ATOM     20  O   UNL     1      37.956  15.742 -29.943  1.00  0.00    -0.550 OA
ENDBRANCH  17  18
ENDBRANCH  16  17
ENDBRANCH  15  16
ENDBRANCH  14  15
ENDBRANCH  13  14
ENDBRANCH  12  13
ENDBRANCH  11  12
ENDBRANCH   1  11
TORSDOF 15
ENDMDL
MODEL 3
REMARK VINA RESULT:    -2.312      0.848      7.889
REMARK INTER + INTRA:          -5.107
REMARK INTER:                  -4.456
REMARK INTRA:                  -0.651
REMARK UNBOUND:                -0.768
REMARK SMILES O=C([O-])CCCCCCCCCCCCCCC(=O)[O-]
REMARK SMILES IDX 10 1 9 2 8 3 7 4 6 5 5 6 4 7 2 8 1 9 3 10 11 11 12 12 13 13
REMARK SMILES IDX 14 14 15 15 16 16 17 17 18 18 19 19 20 20
REMARK H PARENT
REMARK Flexibility Score: inf
ROOT
ATOM      1  C   UNL     1      42.392  12.248 -35.585  1.00  0.00     0.000 C 
ENDROOT
BRANCH   1   2
ATOM      2  C   UNL     1      43.786  12.032 -36.193  1.00  0.00     0.000 C 
BRANCH   2   3
ATOM      3  C   UNL     1      44.915  12.241 -35.172  1.00  0.00     0.000 C 
BRANCH   3   4
ATOM      4  C   UNL     1      44.421  12.167 -33.718  1.00  0.00     0.000 C 
BRANCH   4   5
ATOM      5  C   UNL     1      45.293  12.982 -32.749  1.00  0.00     0.000 C 
BRANCH   5   6
ATOM      6  C   UNL     1      46.553  12.229 -32.270  1.00  0.00     0.006 C 
BRANCH   6   7
ATOM      7  C   UNL     1      46.215  11.091 -31.298  1.00  0.00     0.053 C 
BRANCH   7   8
ATOM      8  C   UNL     1      46.306  11.566 -29.883  1.00  0.00     0.041 C 
ATOM      9  O   UNL     1      45.472  12.399 -29.439  1.00  0.00    -0.550 OA
ATOM     10  O   UNL     1      47.343  11.130 -29.067  1.00  0.00    -0.550 OA
ENDBRANCH   7   8
ENDBRANCH   6   7
ENDBRANCH   5   6
ENDBRANCH   4   5
ENDBRANCH   3   4
ENDBRANCH   2   3
ENDBRANCH   1   2
BRANCH   1  11
ATOM     11  C   UNL     1      41.603  13.294 -36.381  1.00  0.00     0.000 C 
BRANCH  11  12
ATOM     12  C   UNL     1      40.539  13.968 -35.504  1.00  0.00     0.000 C 
BRANCH  12  13
ATOM     13  C   UNL     1      39.117  13.829 -36.073  1.00  0.00     0.000 C 
BRANCH  13  14
ATOM     14  C   UNL     1      38.022  14.399 -35.146  1.00  0.00     0.000 C 
BRANCH  14  15
ATOM     15  C   UNL     1      36.951  13.349 -34.798  1.00  0.00     0.000 C 
BRANCH  15  16
ATOM     16  C   UNL     1      36.889  13.041 -33.295  1.00  0.00     0.006 C 
BRANCH  16  17
ATOM     17  C   UNL     1      36.875  14.309 -32.432  1.00  0.00     0.053 C 
BRANCH  17  18
ATOM     18  C   UNL     1      37.031  13.958 -30.986  1.00  0.00     0.041 C 
ATOM     19  O   UNL     1      36.927  14.849 -30.102  1.00  0.00    -0.550 OA
ATOM     20  O   UNL     1      37.243  12.637 -30.610  1.00  0.00    -0.550 OA
ENDBRANCH  17  18
ENDBRANCH  16  17
ENDBRANCH  15  16
ENDBRANCH  14  15
ENDBRANCH  13  14
ENDBRANCH  12  13
ENDBRANCH  11  12
ENDBRANCH   1  11
TORSDOF 15
ENDMDL
MODEL 4
REMARK VINA RESULT:    -1.474      3.196      8.589
REMARK INTER + INTRA:          -3.534
REMARK INTER:                  -2.992
REMARK INTRA:                  -0.542
REMARK UNBOUND:                -0.768
REMARK SMILES O=C([O-])CCCCCCCCCCCCCCC(=O)[O-]
REMARK SMILES IDX 10 1 9 2 8 3 7 4 6 5 5 6 4 7 2 8 1 9 3 10 11 11 12 12 13 13
REMARK SMILES IDX 14 14 15 15 16 16 17 17 18 18 19 19 20 20
REMARK H PARENT
REMARK Flexibility Score: inf
ROOT
ATOM      1  C   UNL     1      45.907  13.296 -31.711  1.00  0.00     0.000 C 
ENDROOT
BRANCH   1   2
ATOM      2  C   UNL     1      45.490  12.262 -30.653  1.00  0.00     0.000 C 
BRANCH   2   3
ATOM      3  C   UNL     1      46.632  11.305 -30.280  1.00  0.00     0.000 C 
BRANCH   3   4
ATOM      4  C   UNL     1      46.588  10.876 -28.804  1.00  0.00     0.000 C 
BRANCH   4   5
ATOM      5  C   UNL     1      45.340  11.393 -28.070  1.00  0.00     0.000 C 
BRANCH   5   6
ATOM      6  C   UNL     1      45.468  11.353 -26.532  1.00  0.00     0.006 C 
BRANCH   6   7
ATOM      7  C   UNL     1      44.125  11.589 -25.830  1.00  0.00     0.053 C 
BRANCH   7   8
ATOM      8  C   UNL     1      44.287  12.553 -24.698  1.00  0.00     0.041 C 
ATOM      9  O   UNL     1      43.571  13.586 -24.637  1.00  0.00    -0.550 OA
ATOM     10  O   UNL     1      45.267  12.337 -23.736  1.00  0.00    -0.550 OA
ENDBRANCH   7   8
ENDBRANCH   6   7
ENDBRANCH   5   6
ENDBRANCH   4   5
ENDBRANCH   3   4
ENDBRANCH   2   3
ENDBRANCH   1   2
BRANCH   1  11
ATOM     11  C   UNL     1      45.842  12.694 -33.120  1.00  0.00     0.000 C 
BRANCH  11  12
ATOM     12  C   UNL     1      44.404  12.308 -33.489  1.00  0.00     0.000 C 
BRANCH  12  13
ATOM     13  C   UNL     1      44.206  12.107 -35.001  1.00  0.00     0.000 C 
BRANCH  13  14
ATOM     14  C   UNL     1      42.738  11.850 -35.403  1.00  0.00     0.000 C 
BRANCH  14  15
ATOM     15  C   UNL     1      42.105  13.069 -36.098  1.00  0.00     0.000 C 
BRANCH  15  16
ATOM     16  C   UNL     1      40.570  13.022 -36.094  1.00  0.00     0.006 C 
BRANCH  16  17
ATOM     17  C   UNL     1      39.938  14.371 -35.725  1.00  0.00     0.053 C 
BRANCH  17  18
ATOM     18  C   UNL     1      38.447  14.262 -35.711  1.00  0.00     0.041 C 
ATOM     19  O   UNL     1      37.790  14.671 -34.717  1.00  0.00    -0.550 OA
ATOM     20  O   UNL     1      37.776  13.752 -36.816  1.00  0.00    -0.550 OA
ENDBRANCH  17  18
ENDBRANCH  16  17
ENDBRANCH  15  16
ENDBRANCH  14  15
ENDBRANCH  13  14
ENDBRANCH  12  13
ENDBRANCH  11  12
ENDBRANCH   1  11
TORSDOF 15
ENDMDL
MODEL 5
REMARK VINA RESULT:    -0.880     18.990     21.568
REMARK INTER + INTRA:          -2.420
REMARK INTER:                  -1.507
REMARK INTRA:                  -0.913
REMARK UNBOUND:                -0.768
REMARK SMILES O=C([O-])CCCCCCCCCCCCCCC(=O)[O-]
REMARK SMILES IDX 10 1 9 2 8 3 7 4 6 5 5 6 4 7 2 8 1 9 3 10 11 11 12 12 13 13
REMARK SMILES IDX 14 14 15 15 16 16 17 17 18 18 19 19 20 20
REMARK H PARENT
REMARK Flexibility Score: inf
ROOT
ATOM      1  C   UNL     1      54.301  29.877 -38.121  1.00  0.00     0.000 C 
ENDROOT
BRANCH   1   2
ATOM      2  C   UNL     1      55.229  30.920 -37.481  1.00  0.00     0.000 C 
BRANCH   2   3
ATOM      3  C   UNL     1      56.196  30.304 -36.459  1.00  0.00     0.000 C 
BRANCH   3   4
ATOM      4  C   UNL     1      56.289  31.125 -35.162  1.00  0.00     0.000 C 
BRANCH   4   5
ATOM      5  C   UNL     1      56.942  30.346 -34.008  1.00  0.00     0.000 C 
BRANCH   5   6
ATOM      6  C   UNL     1      55.935  29.857 -32.945  1.00  0.00     0.006 C 
BRANCH   6   7
ATOM      7  C   UNL     1      56.401  30.169 -31.517  1.00  0.00     0.053 C 
BRANCH   7   8
ATOM      8  C   UNL     1      56.596  28.904 -30.742  1.00  0.00     0.041 C 
ATOM      9  O   UNL     1      56.791  27.816 -31.344  1.00  0.00    -0.550 OA
ATOM     10  O   UNL     1      56.510  28.918 -29.355  1.00  0.00    -0.550 OA
ENDBRANCH   7   8
ENDBRANCH   6   7
ENDBRANCH   5   6
ENDBRANCH   4   5
ENDBRANCH   3   4
ENDBRANCH   2   3
ENDBRANCH   1   2
BRANCH   1  11
ATOM     11  C   UNL     1      54.846  28.458 -37.913  1.00  0.00     0.000 C 
BRANCH  11  12
ATOM     12  C   UNL     1      54.272  27.490 -38.956  1.00  0.00     0.000 C 
BRANCH  12  13
ATOM     13  C   UNL     1      53.908  26.118 -38.363  1.00  0.00     0.000 C 
BRANCH  13  14
ATOM     14  C   UNL     1      55.110  25.155 -38.248  1.00  0.00     0.000 C 
BRANCH  14  15
ATOM     15  C   UNL     1      54.896  24.089 -37.158  1.00  0.00     0.000 C 
BRANCH  15  16
ATOM     16  C   UNL     1      54.761  24.696 -35.754  1.00  0.00     0.006 C 
BRANCH  16  17
ATOM     17  C   UNL     1      56.113  25.092 -35.147  1.00  0.00     0.053 C 
BRANCH  17  18
ATOM     18  C   UNL     1      56.122  26.545 -34.795  1.00  0.00     0.041 C 
ATOM     19  O   UNL     1      55.259  27.011 -34.005  1.00  0.00    -0.550 OA
ATOM     20  O   UNL     1      57.113  27.378 -35.301  1.00  0.00    -0.550 OA
ENDBRANCH  17  18
ENDBRANCH  16  17
ENDBRANCH  15  16
ENDBRANCH  14  15
ENDBRANCH  13  14
ENDBRANCH  12  13
ENDBRANCH  11  12
ENDBRANCH   1  11
TORSDOF 15
ENDMDL
MODEL 6
REMARK VINA RESULT:    -0.827      3.193      5.728
REMARK INTER + INTRA:          -2.321
REMARK INTER:                  -1.537
REMARK INTRA:                  -0.784
REMARK UNBOUND:                -0.768
REMARK SMILES O=C([O-])CCCCCCCCCCCCCCC(=O)[O-]
REMARK SMILES IDX 10 1 9 2 8 3 7 4 6 5 5 6 4 7 2 8 1 9 3 10 11 11 12 12 13 13
REMARK SMILES IDX 14 14 15 15 16 16 17 17 18 18 19 19 20 20
REMARK H PARENT
REMARK Flexibility Score: inf
ROOT
ATOM      1  C   UNL     1      44.261  12.379 -32.718  1.00  0.00     0.000 C 
ENDROOT
BRANCH   1   2
ATOM      2  C   UNL     1      44.925  12.384 -34.103  1.00  0.00     0.000 C 
BRANCH   2   3
ATOM      3  C   UNL     1      43.964  11.953 -35.221  1.00  0.00     0.000 C 
BRANCH   3   4
ATOM      4  C   UNL     1      42.495  11.936 -34.766  1.00  0.00     0.000 C 
BRANCH   4   5
ATOM      5  C   UNL     1      41.508  12.119 -35.931  1.00  0.00     0.000 C 
BRANCH   5   6
ATOM      6  C   UNL     1      41.475  13.556 -36.494  1.00  0.00     0.006 C 
BRANCH   6   7
ATOM      7  C   UNL     1      40.560  14.479 -35.678  1.00  0.00     0.053 C 
BRANCH   7   8
ATOM      8  C   UNL     1      39.137  14.028 -35.779  1.00  0.00     0.041 C 
ATOM      9  O   UNL     1      38.601  13.869 -36.907  1.00  0.00    -0.550 OA
ATOM     10  O   UNL     1      38.386  13.832 -34.626  1.00  0.00    -0.550 OA
ENDBRANCH   7   8
ENDBRANCH   6   7
ENDBRANCH   5   6
ENDBRANCH   4   5
ENDBRANCH   3   4
ENDBRANCH   2   3
ENDBRANCH   1   2
BRANCH   1  11
ATOM     11  C   UNL     1      45.291  12.648 -31.615  1.00  0.00     0.000 C 
BRANCH  11  12
ATOM     12  C   UNL     1      46.399  11.586 -31.625  1.00  0.00     0.000 C 
BRANCH  12  13
ATOM     13  C   UNL     1      46.576  10.892 -30.263  1.00  0.00     0.000 C 
BRANCH  13  14
ATOM     14  C   UNL     1      46.247  11.801 -29.059  1.00  0.00     0.000 C 
BRANCH  14  15
ATOM     15  C   UNL     1      45.770  10.994 -27.837  1.00  0.00     0.000 C 
BRANCH  15  16
ATOM     16  C   UNL     1      44.759  11.766 -26.976  1.00  0.00     0.006 C 
BRANCH  16  17
ATOM     17  C   UNL     1      44.719  11.271 -25.525  1.00  0.00     0.053 C 
BRANCH  17  18
ATOM     18  C   UNL     1      44.681  12.429 -24.579  1.00  0.00     0.041 C 
ATOM     19  O   UNL     1      45.369  12.409 -23.525  1.00  0.00    -0.550 OA
ATOM     20  O   UNL     1      43.924  13.553 -24.886  1.00  0.00    -0.550 OA
ENDBRANCH  17  18
ENDBRANCH  16  17
ENDBRANCH  15  16
ENDBRANCH  14  15
ENDBRANCH  13  14
ENDBRANCH  12  13
ENDBRANCH  11  12
ENDBRANCH   1  11
TORSDOF 15
ENDMDL
