MODEL 1
REMARK VINA RESULT:    -5.879      0.000      0.000
REMARK INTER + INTRA:          -8.445
REMARK INTER:                  -7.941
REMARK INTRA:                  -0.504
REMARK UNBOUND:                -0.504
REMARK SMILES O=c1c(-c2ccc(O)cc2)coc2c([C@@H]3O[C@H](CO)[C@@H](O)[C@@H](O)[C@@H]3O)c(O)ccc12
REMARK SMILES IDX 3 1 11 2 12 3 13 4 30 5 2 6 1 7 29 8 28 9 26 10 14 11 4 12
REMARK SMILES IDX 5 13 6 14 7 15 10 16 9 17 8 18 15 20 24 21 16 22 22 23 17 24
REMARK SMILES IDX 20 25 25 26 23 28 18 30 19 31 21 33 27 35
REMARK H PARENT 8 19 25 27 23 29 19 32 21 34 27 36
REMARK Flexibility Score: inf
ROOT
ATOM      1  C   UNL     1      -0.599 -21.003  -9.243  1.00  0.00     0.065 A 
ATOM      2  C   UNL     1      -1.175 -19.776  -8.885  1.00  0.00     0.208 A 
ATOM      3  O   UNL     1      -0.642 -19.027  -7.927  1.00  0.00    -0.463 OA
ATOM      4  C   UNL     1       0.451 -19.376  -7.252  1.00  0.00     0.147 A 
ATOM      5  C   UNL     1       1.095 -20.600  -7.548  1.00  0.00     0.066 A 
ATOM      6  C   UNL     1       0.562 -21.414  -8.564  1.00  0.00     0.200 A 
ATOM      7  O   UNL     1       1.131 -22.497  -8.876  1.00  0.00    -0.288 OA
ATOM      8  C   UNL     1       2.239 -20.973  -6.827  1.00  0.00     0.020 A 
ATOM      9  C   UNL     1       2.728 -20.151  -5.813  1.00  0.00     0.047 A 
ATOM     10  C   UNL     1       2.095 -18.940  -5.507  1.00  0.00     0.125 A 
ATOM     11  C   UNL     1       0.960 -18.525  -6.243  1.00  0.00     0.069 A 
ENDROOT
BRANCH   1  12
ATOM     12  C   UNL     1      -1.217 -21.826 -10.313  1.00  0.00    -0.011 A 
ATOM     13  C   UNL     1      -2.355 -22.609 -10.050  1.00  0.00     0.013 A 
ATOM     14  C   UNL     1      -2.937 -23.375 -11.064  1.00  0.00     0.047 A 
ATOM     15  C   UNL     1      -2.392 -23.365 -12.355  1.00  0.00     0.115 A 
ATOM     16  C   UNL     1      -0.681 -21.816 -11.613  1.00  0.00     0.013 A 
ATOM     17  C   UNL     1      -1.264 -22.584 -12.625  1.00  0.00     0.047 A 
BRANCH  15  18
ATOM     18  O   UNL     1      -2.963 -24.125 -13.374  1.00  0.00    -0.508 OA
ATOM     19  H   UNL     1      -3.335 -23.692 -14.212  1.00  0.00     0.293 HD
ENDBRANCH  15  18
ENDBRANCH   1  12
BRANCH  11  20
ATOM     20  C   UNL     1       0.237 -17.223  -5.919  1.00  0.00     0.188 C 
ATOM     21  C   UNL     1       0.818 -16.061  -6.756  1.00  0.00     0.179 C 
ATOM     22  O   UNL     1      -1.157 -17.359  -6.146  1.00  0.00    -0.362 OA
ATOM     23  C   UNL     1       0.080 -14.753  -6.407  1.00  0.00     0.177 C 
ATOM     24  C   UNL     1      -1.860 -16.214  -5.688  1.00  0.00     0.176 C 
ATOM     25  C   UNL     1      -1.444 -14.962  -6.497  1.00  0.00     0.177 C 
BRANCH  21  26
ATOM     26  O   UNL     1       0.675 -16.337  -8.126  1.00  0.00    -0.387 OA
ATOM     27  H   UNL     1       1.356 -15.793  -8.602  1.00  0.00     0.211 HD
ENDBRANCH  21  26
BRANCH  23  28
ATOM     28  O   UNL     1       0.426 -14.334  -5.111  1.00  0.00    -0.387 OA
ATOM     29  H   UNL     1       0.816 -15.121  -4.649  1.00  0.00     0.211 HD
ENDBRANCH  23  28
BRANCH  24  30
ATOM     30  C   UNL     1      -3.364 -16.480  -5.836  1.00  0.00     0.191 C 
BRANCH  30  31
ATOM     31  O   UNL     1      -3.851 -15.892  -7.013  1.00  0.00    -0.394 OA
ATOM     32  H   UNL     1      -3.082 -15.430  -7.439  1.00  0.00     0.210 HD
ENDBRANCH  30  31
ENDBRANCH  24  30
BRANCH  25  33
ATOM     33  O   UNL     1      -2.112 -13.829  -6.003  1.00  0.00    -0.388 OA
ATOM     34  H   UNL     1      -1.517 -13.420  -5.323  1.00  0.00     0.211 HD
ENDBRANCH  25  33
ENDBRANCH  11  20
BRANCH  10  35
ATOM     35  O   UNL     1       2.594 -18.157  -4.466  1.00  0.00    -0.507 OA
ATOM     36  H   UNL     1       2.110 -17.327  -4.143  1.00  0.00     0.293 HD
ENDBRANCH  10  35
TORSDOF 9
ENDMDL
MODEL 2
REMARK VINA RESULT:    -5.536      2.696      8.432
REMARK INTER + INTRA:          -7.981
REMARK INTER:                  -6.942
REMARK INTRA:                  -1.040
REMARK UNBOUND:                -0.504
REMARK SMILES O=c1c(-c2ccc(O)cc2)coc2c([C@@H]3O[C@H](CO)[C@@H](O)[C@@H](O)[C@@H]3O)c(O)ccc12
REMARK SMILES IDX 3 1 11 2 12 3 13 4 30 5 2 6 1 7 29 8 28 9 26 10 14 11 4 12
REMARK SMILES IDX 5 13 6 14 7 15 10 16 9 17 8 18 15 20 24 21 16 22 22 23 17 24
REMARK SMILES IDX 20 25 25 26 23 28 18 30 19 31 21 33 27 35
REMARK H PARENT 8 19 25 27 23 29 19 32 21 34 27 36
REMARK Flexibility Score: inf
ROOT
ATOM      1  C   UNL     1      -1.446 -15.728  -6.172  1.00  0.00     0.065 A 
ATOM      2  C   UNL     1      -0.704 -16.790  -5.636  1.00  0.00     0.208 A 
ATOM      3  O   UNL     1      -0.615 -17.950  -6.275  1.00  0.00    -0.463 OA
ATOM      4  C   UNL     1      -1.209 -18.186  -7.443  1.00  0.00     0.147 A 
ATOM      5  C   UNL     1      -1.980 -17.170  -8.054  1.00  0.00     0.066 A 
ATOM      6  C   UNL     1      -2.088 -15.924  -7.408  1.00  0.00     0.200 A 
ATOM      7  O   UNL     1      -2.740 -14.985  -7.942  1.00  0.00    -0.288 OA
ATOM      8  C   UNL     1      -2.616 -17.424  -9.278  1.00  0.00     0.020 A 
ATOM      9  C   UNL     1      -2.504 -18.676  -9.880  1.00  0.00     0.047 A 
ATOM     10  C   UNL     1      -1.749 -19.692  -9.282  1.00  0.00     0.125 A 
ATOM     11  C   UNL     1      -1.069 -19.449  -8.064  1.00  0.00     0.069 A 
ENDROOT
BRANCH   1  12
ATOM     12  C   UNL     1      -1.536 -14.442  -5.435  1.00  0.00    -0.011 A 
ATOM     13  C   UNL     1      -2.716 -14.082  -4.762  1.00  0.00     0.013 A 
ATOM     14  C   UNL     1      -2.792 -12.873  -4.062  1.00  0.00     0.047 A 
ATOM     15  C   UNL     1      -1.687 -12.012  -4.024  1.00  0.00     0.115 A 
ATOM     16  C   UNL     1      -0.429 -13.576  -5.385  1.00  0.00     0.013 A 
ATOM     17  C   UNL     1      -0.507 -12.368  -4.686  1.00  0.00     0.047 A 
BRANCH  15  18
ATOM     18  O   UNL     1      -1.750 -10.805  -3.331  1.00  0.00    -0.508 OA
ATOM     19  H   UNL     1      -1.223  -9.994  -3.632  1.00  0.00     0.293 HD
ENDBRANCH  15  18
ENDBRANCH   1  12
BRANCH  11  20
ATOM     20  C   UNL     1      -0.257 -20.541  -7.378  1.00  0.00     0.188 C 
ATOM     21  C   UNL     1      -1.156 -21.370  -6.433  1.00  0.00     0.179 C 
ATOM     22  O   UNL     1       0.365 -21.377  -8.343  1.00  0.00    -0.362 OA
ATOM     23  C   UNL     1      -0.314 -22.463  -5.745  1.00  0.00     0.177 C 
ATOM     24  C   UNL     1       1.258 -22.290  -7.723  1.00  0.00     0.176 C 
ATOM     25  C   UNL     1       0.486 -23.258  -6.794  1.00  0.00     0.177 C 
BRANCH  21  26
ATOM     26  O   UNL     1      -2.201 -21.963  -7.162  1.00  0.00    -0.387 OA
ATOM     27  H   UNL     1      -3.018 -21.429  -6.979  1.00  0.00     0.211 HD
ENDBRANCH  21  26
BRANCH  23  28
ATOM     28  O   UNL     1       0.566 -21.881  -4.816  1.00  0.00    -0.387 OA
ATOM     29  H   UNL     1       0.207 -20.980  -4.605  1.00  0.00     0.211 HD
ENDBRANCH  23  28
BRANCH  24  30
ATOM     30  C   UNL     1       1.994 -23.067  -8.823  1.00  0.00     0.191 C 
BRANCH  30  31
ATOM     31  O   UNL     1       3.081 -23.769  -8.282  1.00  0.00    -0.394 OA
ATOM     32  H   UNL     1       2.748 -24.677  -8.056  1.00  0.00     0.210 HD
ENDBRANCH  30  31
ENDBRANCH  24  30
BRANCH  25  33
ATOM     33  O   UNL     1       1.387 -24.125  -6.152  1.00  0.00    -0.388 OA
ATOM     34  H   UNL     1       1.106 -24.177  -5.202  1.00  0.00     0.211 HD
ENDBRANCH  25  33
ENDBRANCH  11  20
BRANCH  10  35
ATOM     35  O   UNL     1      -1.683 -20.942  -9.897  1.00  0.00    -0.507 OA
ATOM     36  H   UNL     1      -1.416 -21.045 -10.870  1.00  0.00     0.293 HD
ENDBRANCH  10  35
TORSDOF 9
ENDMDL
MODEL 3
REMARK VINA RESULT:    -5.360      3.925      6.674
REMARK INTER + INTRA:          -7.744
REMARK INTER:                  -7.244
REMARK INTRA:                  -0.500
REMARK UNBOUND:                -0.504
REMARK SMILES O=c1c(-c2ccc(O)cc2)coc2c([C@@H]3O[C@H](CO)[C@@H](O)[C@@H](O)[C@@H]3O)c(O)ccc12
REMARK SMILES IDX 3 1 11 2 12 3 13 4 30 5 2 6 1 7 29 8 28 9 26 10 14 11 4 12
REMARK SMILES IDX 5 13 6 14 7 15 10 16 9 17 8 18 15 20 24 21 16 22 22 23 17 24
REMARK SMILES IDX 20 25 25 26 23 28 18 30 19 31 21 33 27 35
REMARK H PARENT 8 19 25 27 23 29 19 32 21 34 27 36
REMARK Flexibility Score: inf
ROOT
ATOM      1  C   UNL     1       2.979 -18.399  -4.593  1.00  0.00     0.065 A 
ATOM      2  C   UNL     1       2.590 -17.258  -3.877  1.00  0.00     0.208 A 
ATOM      3  O   UNL     1       1.484 -16.597  -4.196  1.00  0.00    -0.463 OA
ATOM      4  C   UNL     1       0.680 -16.959  -5.194  1.00  0.00     0.147 A 
ATOM      5  C   UNL     1       0.998 -18.098  -5.969  1.00  0.00     0.066 A 
ATOM      6  C   UNL     1       2.159 -18.828  -5.653  1.00  0.00     0.200 A 
ATOM      7  O   UNL     1       2.454 -19.868  -6.303  1.00  0.00    -0.288 OA
ATOM      8  C   UNL     1       0.158 -18.472  -7.028  1.00  0.00     0.020 A 
ATOM      9  C   UNL     1      -0.974 -17.715  -7.326  1.00  0.00     0.047 A 
ATOM     10  C   UNL     1      -1.295 -16.581  -6.570  1.00  0.00     0.125 A 
ATOM     11  C   UNL     1      -0.482 -16.204  -5.474  1.00  0.00     0.069 A 
ENDROOT
BRANCH   1  12
ATOM     12  C   UNL     1       4.224 -19.118  -4.222  1.00  0.00    -0.011 A 
ATOM     13  C   UNL     1       5.312 -18.425  -3.663  1.00  0.00     0.013 A 
ATOM     14  C   UNL     1       6.479 -19.109  -3.308  1.00  0.00     0.047 A 
ATOM     15  C   UNL     1       6.570 -20.494  -3.502  1.00  0.00     0.115 A 
ATOM     16  C   UNL     1       4.321 -20.508  -4.406  1.00  0.00     0.013 A 
ATOM     17  C   UNL     1       5.489 -21.189  -4.051  1.00  0.00     0.047 A 
BRANCH  15  18
ATOM     18  O   UNL     1       7.728 -21.186  -3.152  1.00  0.00    -0.508 OA
ATOM     19  H   UNL     1       8.448 -20.758  -2.581  1.00  0.00     0.293 HD
ENDBRANCH  15  18
ENDBRANCH   1  12
BRANCH  11  20
ATOM     20  C   UNL     1      -0.794 -14.964  -4.645  1.00  0.00     0.188 C 
ATOM     21  C   UNL     1      -0.264 -13.695  -5.352  1.00  0.00     0.179 C 
ATOM     22  O   UNL     1      -2.190 -14.863  -4.410  1.00  0.00    -0.362 OA
ATOM     23  C   UNL     1      -0.583 -12.454  -4.494  1.00  0.00     0.177 C 
ATOM     24  C   UNL     1      -2.477 -13.812  -3.500  1.00  0.00     0.176 C 
ATOM     25  C   UNL     1      -2.074 -12.445  -4.105  1.00  0.00     0.177 C 
BRANCH  21  26
ATOM     26  O   UNL     1      -0.861 -13.565  -6.617  1.00  0.00    -0.387 OA
ATOM     27  H   UNL     1      -1.142 -14.475  -6.897  1.00  0.00     0.211 HD
ENDBRANCH  21  26
BRANCH  23  28
ATOM     28  O   UNL     1       0.210 -12.453  -3.333  1.00  0.00    -0.387 OA
ATOM     29  H   UNL     1       1.069 -12.016  -3.572  1.00  0.00     0.211 HD
ENDBRANCH  23  28
BRANCH  24  30
ATOM     30  C   UNL     1      -3.978 -13.843  -3.184  1.00  0.00     0.191 C 
BRANCH  30  31
ATOM     31  O   UNL     1      -4.663 -12.903  -3.967  1.00  0.00    -0.394 OA
ATOM     32  H   UNL     1      -5.613 -13.191  -3.992  1.00  0.00     0.210 HD
ENDBRANCH  30  31
ENDBRANCH  24  30
BRANCH  25  33
ATOM     33  O   UNL     1      -2.320 -11.420  -3.176  1.00  0.00    -0.388 OA
ATOM     34  H   UNL     1      -1.476 -10.906  -3.087  1.00  0.00     0.211 HD
ENDBRANCH  25  33
ENDBRANCH  11  20
BRANCH  10  35
ATOM     35  O   UNL     1      -2.419 -15.830  -6.914  1.00  0.00    -0.507 OA
ATOM     36  H   UNL     1      -3.160 -16.212  -7.491  1.00  0.00     0.293 HD
ENDBRANCH  10  35
TORSDOF 9
ENDMDL
MODEL 4
REMARK VINA RESULT:    -5.286      3.476      5.465
REMARK INTER + INTRA:          -7.643
REMARK INTER:                  -6.620
REMARK INTRA:                  -1.023
REMARK UNBOUND:                -0.504
REMARK SMILES O=c1c(-c2ccc(O)cc2)coc2c([C@@H]3O[C@H](CO)[C@@H](O)[C@@H](O)[C@@H]3O)c(O)ccc12
REMARK SMILES IDX 3 1 11 2 12 3 13 4 30 5 2 6 1 7 29 8 28 9 26 10 14 11 4 12
REMARK SMILES IDX 5 13 6 14 7 15 10 16 9 17 8 18 15 20 24 21 16 22 22 23 17 24
REMARK SMILES IDX 20 25 25 26 23 28 18 30 19 31 21 33 27 35
REMARK H PARENT 8 19 25 27 23 29 19 32 21 34 27 36
REMARK Flexibility Score: inf
ROOT
ATOM      1  C   UNL     1       0.567 -19.386  -5.483  1.00  0.00     0.065 A 
ATOM      2  C   UNL     1       0.583 -18.321  -4.571  1.00  0.00     0.208 A 
ATOM      3  O   UNL     1      -0.091 -17.204  -4.815  1.00  0.00    -0.463 OA
ATOM      4  C   UNL     1      -0.814 -17.015  -5.917  1.00  0.00     0.147 A 
ATOM      5  C   UNL     1      -0.884 -18.037  -6.891  1.00  0.00     0.066 A 
ATOM      6  C   UNL     1      -0.189 -19.238  -6.660  1.00  0.00     0.200 A 
ATOM      7  O   UNL     1      -0.257 -20.184  -7.494  1.00  0.00    -0.288 OA
ATOM      8  C   UNL     1      -1.636 -17.832  -8.058  1.00  0.00     0.020 A 
ATOM      9  C   UNL     1      -2.296 -16.622  -8.263  1.00  0.00     0.047 A 
ATOM     10  C   UNL     1      -2.229 -15.600  -7.308  1.00  0.00     0.125 A 
ATOM     11  C   UNL     1      -1.506 -15.796  -6.107  1.00  0.00     0.069 A 
ENDROOT
BRANCH   1  12
ATOM     12  C   UNL     1       1.335 -20.623  -5.191  1.00  0.00    -0.011 A 
ATOM     13  C   UNL     1       0.708 -21.732  -4.597  1.00  0.00     0.013 A 
ATOM     14  C   UNL     1       1.434 -22.897  -4.332  1.00  0.00     0.047 A 
ATOM     15  C   UNL     1       2.794 -22.969  -4.662  1.00  0.00     0.115 A 
ATOM     16  C   UNL     1       2.698 -20.706  -5.526  1.00  0.00     0.013 A 
ATOM     17  C   UNL     1       3.422 -21.872  -5.259  1.00  0.00     0.047 A 
BRANCH  15  18
ATOM     18  O   UNL     1       3.528 -24.125  -4.403  1.00  0.00    -0.508 OA
ATOM     19  H   UNL     1       4.329 -24.115  -3.781  1.00  0.00     0.293 HD
ENDBRANCH  15  18
ENDBRANCH   1  12
BRANCH  11  20
ATOM     20  C   UNL     1      -1.397 -14.695  -5.059  1.00  0.00     0.188 C 
ATOM     21  C   UNL     1      -0.327 -13.659  -5.473  1.00  0.00     0.179 C 
ATOM     22  O   UNL     1      -2.656 -14.069  -4.865  1.00  0.00    -0.362 OA
ATOM     23  C   UNL     1      -0.228 -12.560  -4.396  1.00  0.00     0.177 C 
ATOM     24  C   UNL     1      -2.609 -13.162  -3.774  1.00  0.00     0.176 C 
ATOM     25  C   UNL     1      -1.628 -12.002  -4.074  1.00  0.00     0.177 C 
BRANCH  21  26
ATOM     26  O   UNL     1      -0.668 -13.085  -6.709  1.00  0.00    -0.387 OA
ATOM     27  H   UNL     1      -0.849 -12.124  -6.539  1.00  0.00     0.211 HD
ENDBRANCH  21  26
BRANCH  23  28
ATOM     28  O   UNL     1       0.356 -13.080  -3.227  1.00  0.00    -0.387 OA
ATOM     29  H   UNL     1       0.581 -14.028  -3.416  1.00  0.00     0.211 HD
ENDBRANCH  23  28
BRANCH  24  30
ATOM     30  C   UNL     1      -4.026 -12.623  -3.532  1.00  0.00     0.191 C 
BRANCH  30  31
ATOM     31  O   UNL     1      -4.105 -11.272  -3.899  1.00  0.00    -0.394 OA
ATOM     32  H   UNL     1      -4.855 -11.196  -4.546  1.00  0.00     0.210 HD
ENDBRANCH  30  31
ENDBRANCH  24  30
BRANCH  25  33
ATOM     33  O   UNL     1      -1.556 -11.138  -2.969  1.00  0.00    -0.388 OA
ATOM     34  H   UNL     1      -0.912 -11.541  -2.332  1.00  0.00     0.211 HD
ENDBRANCH  25  33
ENDBRANCH  11  20
BRANCH  10  35
ATOM     35  O   UNL     1      -2.877 -14.391  -7.560  1.00  0.00    -0.507 OA
ATOM     36  H   UNL     1      -2.749 -13.887  -8.429  1.00  0.00     0.293 HD
ENDBRANCH  10  35
TORSDOF 9
ENDMDL
MODEL 5
REMARK VINA RESULT:    -5.151      2.517      8.028
REMARK INTER + INTRA:          -7.462
REMARK INTER:                  -6.979
REMARK INTRA:                  -0.484
REMARK UNBOUND:                -0.504
REMARK SMILES O=c1c(-c2ccc(O)cc2)coc2c([C@@H]3O[C@H](CO)[C@@H](O)[C@@H](O)[C@@H]3O)c(O)ccc12
REMARK SMILES IDX 3 1 11 2 12 3 13 4 30 5 2 6 1 7 29 8 28 9 26 10 14 11 4 12
REMARK SMILES IDX 5 13 6 14 7 15 10 16 9 17 8 18 15 20 24 21 16 22 22 23 17 24
REMARK SMILES IDX 20 25 25 26 23 28 18 30 19 31 21 33 27 35
REMARK H PARENT 8 19 25 27 23 29 19 32 21 34 27 36
REMARK Flexibility Score: inf
ROOT
ATOM      1  C   UNL     1      -1.340 -15.875  -6.269  1.00  0.00     0.065 A 
ATOM      2  C   UNL     1      -0.591 -16.941  -5.751  1.00  0.00     0.208 A 
ATOM      3  O   UNL     1      -0.524 -18.102  -6.392  1.00  0.00    -0.463 OA
ATOM      4  C   UNL     1      -1.149 -18.335  -7.544  1.00  0.00     0.147 A 
ATOM      5  C   UNL     1      -1.929 -17.315  -8.136  1.00  0.00     0.066 A 
ATOM      6  C   UNL     1      -2.014 -16.068  -7.489  1.00  0.00     0.200 A 
ATOM      7  O   UNL     1      -2.674 -15.126  -8.007  1.00  0.00    -0.288 OA
ATOM      8  C   UNL     1      -2.597 -17.566  -9.343  1.00  0.00     0.020 A 
ATOM      9  C   UNL     1      -2.507 -18.819  -9.947  1.00  0.00     0.047 A 
ATOM     10  C   UNL     1      -1.743 -19.839  -9.367  1.00  0.00     0.125 A 
ATOM     11  C   UNL     1      -1.031 -19.599  -8.167  1.00  0.00     0.069 A 
ENDROOT
BRANCH   1  12
ATOM     12  C   UNL     1      -1.405 -14.588  -5.531  1.00  0.00    -0.011 A 
ATOM     13  C   UNL     1      -2.570 -14.215  -4.840  1.00  0.00     0.013 A 
ATOM     14  C   UNL     1      -2.622 -13.005  -4.139  1.00  0.00     0.047 A 
ATOM     15  C   UNL     1      -1.507 -12.157  -4.118  1.00  0.00     0.115 A 
ATOM     16  C   UNL     1      -0.288 -13.734  -5.498  1.00  0.00     0.013 A 
ATOM     17  C   UNL     1      -0.342 -12.525  -4.798  1.00  0.00     0.047 A 
BRANCH  15  18
ATOM     18  O   UNL     1      -1.546 -10.949  -3.424  1.00  0.00    -0.508 OA
ATOM     19  H   UNL     1      -2.003 -10.131  -3.812  1.00  0.00     0.293 HD
ENDBRANCH  15  18
ENDBRANCH   1  12
BRANCH  11  20
ATOM     20  C   UNL     1      -0.208 -20.696  -7.501  1.00  0.00     0.188 C 
ATOM     21  C   UNL     1       1.257 -20.643  -7.989  1.00  0.00     0.179 C 
ATOM     22  O   UNL     1      -0.273 -20.576  -6.089  1.00  0.00    -0.362 OA
ATOM     23  C   UNL     1       2.069 -21.764  -7.311  1.00  0.00     0.177 C 
ATOM     24  C   UNL     1       0.345 -21.686  -5.456  1.00  0.00     0.176 C 
ATOM     25  C   UNL     1       1.857 -21.725  -5.785  1.00  0.00     0.177 C 
BRANCH  21  26
ATOM     26  O   UNL     1       1.821 -19.394  -7.681  1.00  0.00    -0.387 OA
ATOM     27  H   UNL     1       2.502 -19.206  -8.379  1.00  0.00     0.211 HD
ENDBRANCH  21  26
BRANCH  23  28
ATOM     28  O   UNL     1       1.676 -23.017  -7.813  1.00  0.00    -0.387 OA
ATOM     29  H   UNL     1       2.331 -23.681  -7.474  1.00  0.00     0.211 HD
ENDBRANCH  23  28
BRANCH  24  30
ATOM     30  C   UNL     1       0.123 -21.565  -3.943  1.00  0.00     0.191 C 
BRANCH  30  31
ATOM     31  O   UNL     1       1.208 -20.913  -3.339  1.00  0.00    -0.394 OA
ATOM     32  H   UNL     1       1.304 -21.303  -2.430  1.00  0.00     0.210 HD
ENDBRANCH  30  31
ENDBRANCH  24  30
BRANCH  25  33
ATOM     33  O   UNL     1       2.447 -22.854  -5.191  1.00  0.00    -0.388 OA
ATOM     34  H   UNL     1       3.307 -23.007  -5.660  1.00  0.00     0.211 HD
ENDBRANCH  25  33
ENDBRANCH  11  20
BRANCH  10  35
ATOM     35  O   UNL     1      -1.699 -21.089  -9.984  1.00  0.00    -0.507 OA
ATOM     36  H   UNL     1      -1.011 -21.788  -9.726  1.00  0.00     0.293 HD
ENDBRANCH  10  35
TORSDOF 9
ENDMDL
MODEL 6
REMARK VINA RESULT:    -5.058      2.563      5.832
REMARK INTER + INTRA:          -7.336
REMARK INTER:                  -6.532
REMARK INTRA:                  -0.805
REMARK UNBOUND:                -0.504
REMARK SMILES O=c1c(-c2ccc(O)cc2)coc2c([C@@H]3O[C@H](CO)[C@@H](O)[C@@H](O)[C@@H]3O)c(O)ccc12
REMARK SMILES IDX 3 1 11 2 12 3 13 4 30 5 2 6 1 7 29 8 28 9 26 10 14 11 4 12
REMARK SMILES IDX 5 13 6 14 7 15 10 16 9 17 8 18 15 20 24 21 16 22 22 23 17 24
REMARK SMILES IDX 20 25 25 26 23 28 18 30 19 31 21 33 27 35
REMARK H PARENT 8 19 25 27 23 29 19 32 21 34 27 36
REMARK Flexibility Score: inf
ROOT
ATOM      1  C   UNL     1       3.019 -20.607  -5.327  1.00  0.00     0.065 A 
ATOM      2  C   UNL     1       2.594 -19.389  -4.778  1.00  0.00     0.208 A 
ATOM      3  O   UNL     1       1.615 -18.691  -5.343  1.00  0.00    -0.463 OA
ATOM      4  C   UNL     1       0.981 -19.086  -6.444  1.00  0.00     0.147 A 
ATOM      5  C   UNL     1       1.348 -20.302  -7.065  1.00  0.00     0.066 A 
ATOM      6  C   UNL     1       2.375 -21.072  -6.488  1.00  0.00     0.200 A 
ATOM      7  O   UNL     1       2.704 -22.179  -6.997  1.00  0.00    -0.288 OA
ATOM      8  C   UNL     1       0.687 -20.711  -8.233  1.00  0.00     0.020 A 
ATOM      9  C   UNL     1      -0.313 -19.914  -8.789  1.00  0.00     0.047 A 
ATOM     10  C   UNL     1      -0.680 -18.705  -8.187  1.00  0.00     0.125 A 
ATOM     11  C   UNL     1      -0.053 -18.288  -6.988  1.00  0.00     0.069 A 
ENDROOT
BRANCH   1  12
ATOM     12  C   UNL     1       4.120 -21.366  -4.681  1.00  0.00    -0.011 A 
ATOM     13  C   UNL     1       3.919 -22.686  -4.242  1.00  0.00     0.013 A 
ATOM     14  C   UNL     1       4.962 -23.398  -3.642  1.00  0.00     0.047 A 
ATOM     15  C   UNL     1       6.220 -22.802  -3.479  1.00  0.00     0.115 A 
ATOM     16  C   UNL     1       5.386 -20.777  -4.521  1.00  0.00     0.013 A 
ATOM     17  C   UNL     1       6.427 -21.491  -3.920  1.00  0.00     0.047 A 
BRANCH  15  18
ATOM     18  O   UNL     1       7.266 -23.501  -2.883  1.00  0.00    -0.508 OA
ATOM     19  H   UNL     1       7.122 -24.058  -2.048  1.00  0.00     0.293 HD
ENDBRANCH  15  18
ENDBRANCH   1  12
BRANCH  11  20
ATOM     20  C   UNL     1      -0.416 -16.966  -6.321  1.00  0.00     0.188 C 
ATOM     21  C   UNL     1       0.287 -15.790  -7.036  1.00  0.00     0.179 C 
ATOM     22  O   UNL     1      -1.823 -16.784  -6.316  1.00  0.00    -0.362 OA
ATOM     23  C   UNL     1      -0.087 -14.465  -6.341  1.00  0.00     0.177 C 
ATOM     24  C   UNL     1      -2.185 -15.645  -5.551  1.00  0.00     0.176 C 
ATOM     25  C   UNL     1      -1.617 -14.356  -6.193  1.00  0.00     0.177 C 
BRANCH  21  26
ATOM     26  O   UNL     1      -0.102 -15.746  -8.385  1.00  0.00    -0.387 OA
ATOM     27  H   UNL     1      -1.032 -16.090  -8.428  1.00  0.00     0.211 HD
ENDBRANCH  21  26
BRANCH  23  28
ATOM     28  O   UNL     1       0.519 -14.396  -5.075  1.00  0.00    -0.387 OA
ATOM     29  H   UNL     1       1.470 -14.154  -5.224  1.00  0.00     0.211 HD
ENDBRANCH  23  28
BRANCH  24  30
ATOM     30  C   UNL     1      -3.716 -15.581  -5.472  1.00  0.00     0.191 C 
BRANCH  30  31
ATOM     31  O   UNL     1      -4.118 -14.737  -4.427  1.00  0.00    -0.394 OA
ATOM     32  H   UNL     1      -3.860 -15.190  -3.581  1.00  0.00     0.210 HD
ENDBRANCH  30  31
ENDBRANCH  24  30
BRANCH  25  33
ATOM     33  O   UNL     1      -1.943 -13.242  -5.400  1.00  0.00    -0.388 OA
ATOM     34  H   UNL     1      -1.089 -12.785  -5.185  1.00  0.00     0.211 HD
ENDBRANCH  25  33
ENDBRANCH  11  20
BRANCH  10  35
ATOM     35  O   UNL     1      -1.664 -17.919  -8.786  1.00  0.00    -0.507 OA
ATOM     36  H   UNL     1      -2.513 -18.322  -9.165  1.00  0.00     0.293 HD
ENDBRANCH  10  35
TORSDOF 9
ENDMDL
MODEL 7
REMARK VINA RESULT:    -5.022      3.542      6.664
REMARK INTER + INTRA:          -7.287
REMARK INTER:                  -7.319
REMARK INTRA:                   0.032
REMARK UNBOUND:                -0.504
REMARK SMILES O=c1c(-c2ccc(O)cc2)coc2c([C@@H]3O[C@H](CO)[C@@H](O)[C@@H](O)[C@@H]3O)c(O)ccc12
REMARK SMILES IDX 3 1 11 2 12 3 13 4 30 5 2 6 1 7 29 8 28 9 26 10 14 11 4 12
REMARK SMILES IDX 5 13 6 14 7 15 10 16 9 17 8 18 15 20 24 21 16 22 22 23 17 24
REMARK SMILES IDX 20 25 25 26 23 28 18 30 19 31 21 33 27 35
REMARK H PARENT 8 19 25 27 23 29 19 32 21 34 27 36
REMARK Flexibility Score: inf
ROOT
ATOM      1  C   UNL     1       2.032 -18.042  -5.354  1.00  0.00     0.065 A 
ATOM      2  C   UNL     1       1.172 -17.204  -4.630  1.00  0.00     0.208 A 
ATOM      3  O   UNL     1       0.035 -16.771  -5.162  1.00  0.00    -0.463 OA
ATOM      4  C   UNL     1      -0.363 -17.093  -6.390  1.00  0.00     0.147 A 
ATOM      5  C   UNL     1       0.445 -17.933  -7.191  1.00  0.00     0.066 A 
ATOM      6  C   UNL     1       1.653 -18.417  -6.655  1.00  0.00     0.200 A 
ATOM      7  O   UNL     1       2.381 -19.196  -7.330  1.00  0.00    -0.288 OA
ATOM      8  C   UNL     1       0.030 -18.260  -8.490  1.00  0.00     0.020 A 
ATOM      9  C   UNL     1      -1.163 -17.747  -8.996  1.00  0.00     0.047 A 
ATOM     10  C   UNL     1      -1.968 -16.909  -8.215  1.00  0.00     0.125 A 
ATOM     11  C   UNL     1      -1.588 -16.592  -6.889  1.00  0.00     0.069 A 
ENDROOT
BRANCH   1  12
ATOM     12  C   UNL     1       3.302 -18.508  -4.740  1.00  0.00    -0.011 A 
ATOM     13  C   UNL     1       3.542 -19.879  -4.542  1.00  0.00     0.013 A 
ATOM     14  C   UNL     1       4.743 -20.311  -3.971  1.00  0.00     0.047 A 
ATOM     15  C   UNL     1       5.720 -19.379  -3.596  1.00  0.00     0.115 A 
ATOM     16  C   UNL     1       4.290 -17.580  -4.368  1.00  0.00     0.013 A 
ATOM     17  C   UNL     1       5.490 -18.015  -3.797  1.00  0.00     0.047 A 
BRANCH  15  18
ATOM     18  O   UNL     1       6.920 -19.799  -3.026  1.00  0.00    -0.508 OA
ATOM     19  H   UNL     1       7.808 -19.397  -3.307  1.00  0.00     0.293 HD
ENDBRANCH  15  18
ENDBRANCH   1  12
BRANCH  11  20
ATOM     20  C   UNL     1      -2.434 -15.666  -6.022  1.00  0.00     0.188 C 
ATOM     21  C   UNL     1      -3.178 -16.474  -4.935  1.00  0.00     0.179 C 
ATOM     22  O   UNL     1      -1.624 -14.659  -5.436  1.00  0.00    -0.362 OA
ATOM     23  C   UNL     1      -4.032 -15.520  -4.076  1.00  0.00     0.177 C 
ATOM     24  C   UNL     1      -2.420 -13.693  -4.767  1.00  0.00     0.176 C 
ATOM     25  C   UNL     1      -3.176 -14.338  -3.581  1.00  0.00     0.177 C 
BRANCH  21  26
ATOM     26  O   UNL     1      -2.253 -17.148  -4.120  1.00  0.00    -0.387 OA
ATOM     27  H   UNL     1      -1.474 -17.371  -4.694  1.00  0.00     0.211 HD
ENDBRANCH  21  26
BRANCH  23  28
ATOM     28  O   UNL     1      -5.119 -15.037  -4.826  1.00  0.00    -0.387 OA
ATOM     29  H   UNL     1      -5.357 -15.747  -5.477  1.00  0.00     0.211 HD
ENDBRANCH  23  28
BRANCH  24  30
ATOM     30  C   UNL     1      -1.500 -12.567  -4.274  1.00  0.00     0.191 C 
BRANCH  30  31
ATOM     31  O   UNL     1      -2.129 -11.322  -4.421  1.00  0.00    -0.394 OA
ATOM     32  H   UNL     1      -1.459 -10.633  -4.170  1.00  0.00     0.210 HD
ENDBRANCH  30  31
ENDBRANCH  24  30
BRANCH  25  33
ATOM     33  O   UNL     1      -3.995 -13.382  -2.957  1.00  0.00    -0.388 OA
ATOM     34  H   UNL     1      -4.557 -13.871  -2.302  1.00  0.00     0.211 HD
ENDBRANCH  25  33
ENDBRANCH  11  20
BRANCH  10  35
ATOM     35  O   UNL     1      -3.140 -16.389  -8.764  1.00  0.00    -0.507 OA
ATOM     36  H   UNL     1      -3.182 -15.450  -9.143  1.00  0.00     0.293 HD
ENDBRANCH  10  35
TORSDOF 9
ENDMDL
MODEL 8
REMARK VINA RESULT:    -4.883      3.672      8.609
REMARK INTER + INTRA:          -7.099
REMARK INTER:                  -6.356
REMARK INTRA:                  -0.743
REMARK UNBOUND:                -0.504
REMARK SMILES O=c1c(-c2ccc(O)cc2)coc2c([C@@H]3O[C@H](CO)[C@@H](O)[C@@H](O)[C@@H]3O)c(O)ccc12
REMARK SMILES IDX 3 1 11 2 12 3 13 4 30 5 2 6 1 7 29 8 28 9 26 10 14 11 4 12
REMARK SMILES IDX 5 13 6 14 7 15 10 16 9 17 8 18 15 20 24 21 16 22 22 23 17 24
REMARK SMILES IDX 20 25 25 26 23 28 18 30 19 31 21 33 27 35
REMARK H PARENT 8 19 25 27 23 29 19 32 21 34 27 36
REMARK Flexibility Score: inf
ROOT
ATOM      1  C   UNL     1      -0.650 -14.886  -4.990  1.00  0.00     0.065 A 
ATOM      2  C   UNL     1      -0.309 -15.931  -4.120  1.00  0.00     0.208 A 
ATOM      3  O   UNL     1       0.200 -17.066  -4.584  1.00  0.00    -0.463 OA
ATOM      4  C   UNL     1       0.419 -17.291  -5.878  1.00  0.00     0.147 A 
ATOM      5  C   UNL     1       0.102 -16.290  -6.826  1.00  0.00     0.066 A 
ATOM      6  C   UNL     1      -0.431 -15.071  -6.367  1.00  0.00     0.200 A 
ATOM      7  O   UNL     1      -0.694 -14.145  -7.183  1.00  0.00    -0.288 OA
ATOM      8  C   UNL     1       0.321 -16.534  -8.189  1.00  0.00     0.020 A 
ATOM      9  C   UNL     1       0.832 -17.760  -8.610  1.00  0.00     0.047 A 
ATOM     10  C   UNL     1       1.143 -18.761  -7.682  1.00  0.00     0.125 A 
ATOM     11  C   UNL     1       0.964 -18.526  -6.297  1.00  0.00     0.069 A 
ENDROOT
BRANCH   1  12
ATOM     12  C   UNL     1      -1.224 -13.628  -4.448  1.00  0.00    -0.011 A 
ATOM     13  C   UNL     1      -0.389 -12.625  -3.926  1.00  0.00     0.013 A 
ATOM     14  C   UNL     1      -0.936 -11.440  -3.424  1.00  0.00     0.047 A 
ATOM     15  C   UNL     1      -2.323 -11.240  -3.444  1.00  0.00     0.115 A 
ATOM     16  C   UNL     1      -2.614 -13.417  -4.470  1.00  0.00     0.013 A 
ATOM     17  C   UNL     1      -3.158 -12.232  -3.967  1.00  0.00     0.047 A 
BRANCH  15  18
ATOM     18  O   UNL     1      -2.878 -10.063  -2.946  1.00  0.00    -0.508 OA
ATOM     19  H   UNL     1      -3.848 -10.018  -2.655  1.00  0.00     0.293 HD
ENDBRANCH  15  18
ENDBRANCH   1  12
BRANCH  11  20
ATOM     20  C   UNL     1       1.275 -19.604  -5.264  1.00  0.00     0.188 C 
ATOM     21  C   UNL     1       0.143 -20.655  -5.225  1.00  0.00     0.179 C 
ATOM     22  O   UNL     1       2.523 -20.217  -5.547  1.00  0.00    -0.362 OA
ATOM     23  C   UNL     1       0.473 -21.730  -4.169  1.00  0.00     0.177 C 
ATOM     24  C   UNL     1       2.903 -21.099  -4.502  1.00  0.00     0.176 C 
ATOM     25  C   UNL     1       1.899 -22.271  -4.388  1.00  0.00     0.177 C 
BRANCH  21  26
ATOM     26  O   UNL     1       0.001 -21.256  -6.487  1.00  0.00    -0.387 OA
ATOM     27  H   UNL     1       0.050 -20.527  -7.159  1.00  0.00     0.211 HD
ENDBRANCH  21  26
BRANCH  23  28
ATOM     28  O   UNL     1       0.364 -21.187  -2.877  1.00  0.00    -0.387 OA
ATOM     29  H   UNL     1       0.528 -20.212  -2.960  1.00  0.00     0.211 HD
ENDBRANCH  23  28
BRANCH  24  30
ATOM     30  C   UNL     1       4.314 -21.623  -4.802  1.00  0.00     0.191 C 
BRANCH  30  31
ATOM     31  O   UNL     1       5.148 -20.574  -5.214  1.00  0.00    -0.394 OA
ATOM     32  H   UNL     1       6.045 -20.970  -5.376  1.00  0.00     0.210 HD
ENDBRANCH  30  31
ENDBRANCH  24  30
BRANCH  25  33
ATOM     33  O   UNL     1       2.261 -23.111  -3.321  1.00  0.00    -0.388 OA
ATOM     34  H   UNL     1       3.252 -23.166  -3.325  1.00  0.00     0.211 HD
ENDBRANCH  25  33
ENDBRANCH  11  20
BRANCH  10  35
ATOM     35  O   UNL     1       1.625 -19.987  -8.140  1.00  0.00    -0.507 OA
ATOM     36  H   UNL     1       1.041 -20.628  -8.664  1.00  0.00     0.293 HD
ENDBRANCH  10  35
TORSDOF 9
ENDMDL
MODEL 9
REMARK VINA RESULT:    -4.602      2.227      8.514
REMARK INTER + INTRA:          -6.720
REMARK INTER:                  -5.842
REMARK INTRA:                  -0.878
REMARK UNBOUND:                -0.504
REMARK SMILES O=c1c(-c2ccc(O)cc2)coc2c([C@@H]3O[C@H](CO)[C@@H](O)[C@@H](O)[C@@H]3O)c(O)ccc12
REMARK SMILES IDX 3 1 11 2 12 3 13 4 30 5 2 6 1 7 29 8 28 9 26 10 14 11 4 12
REMARK SMILES IDX 5 13 6 14 7 15 10 16 9 17 8 18 15 20 24 21 16 22 22 23 17 24
REMARK SMILES IDX 20 25 25 26 23 28 18 30 19 31 21 33 27 35
REMARK H PARENT 8 19 25 27 23 29 19 32 21 34 27 36
REMARK Flexibility Score: inf
ROOT
ATOM      1  C   UNL     1      -1.542 -16.565  -6.104  1.00  0.00     0.065 A 
ATOM      2  C   UNL     1      -0.576 -17.474  -6.560  1.00  0.00     0.208 A 
ATOM      3  O   UNL     1      -0.923 -18.531  -7.284  1.00  0.00    -0.463 OA
ATOM      4  C   UNL     1      -2.182 -18.800  -7.624  1.00  0.00     0.147 A 
ATOM      5  C   UNL     1      -3.220 -17.937  -7.204  1.00  0.00     0.066 A 
ATOM      6  C   UNL     1      -2.887 -16.802  -6.442  1.00  0.00     0.200 A 
ATOM      7  O   UNL     1      -3.785 -15.992  -6.080  1.00  0.00    -0.288 OA
ATOM      8  C   UNL     1      -4.547 -18.229  -7.552  1.00  0.00     0.020 A 
ATOM      9  C   UNL     1      -4.844 -19.372  -8.291  1.00  0.00     0.047 A 
ATOM     10  C   UNL     1      -3.825 -20.238  -8.706  1.00  0.00     0.125 A 
ATOM     11  C   UNL     1      -2.475 -19.947  -8.399  1.00  0.00     0.069 A 
ENDROOT
BRANCH   1  12
ATOM     12  C   UNL     1      -1.130 -15.394  -5.289  1.00  0.00    -0.011 A 
ATOM     13  C   UNL     1      -0.820 -14.168  -5.902  1.00  0.00     0.013 A 
ATOM     14  C   UNL     1      -0.441 -13.066  -5.129  1.00  0.00     0.047 A 
ATOM     15  C   UNL     1      -0.373 -13.176  -3.733  1.00  0.00     0.115 A 
ATOM     16  C   UNL     1      -1.066 -15.494  -3.888  1.00  0.00     0.013 A 
ATOM     17  C   UNL     1      -0.686 -14.391  -3.117  1.00  0.00     0.047 A 
BRANCH  15  18
ATOM     18  O   UNL     1       0.004 -12.085  -2.952  1.00  0.00    -0.508 OA
ATOM     19  H   UNL     1       0.865 -12.090  -2.417  1.00  0.00     0.293 HD
ENDBRANCH  15  18
ENDBRANCH   1  12
BRANCH  11  20
ATOM     20  C   UNL     1      -1.346 -20.882  -8.819  1.00  0.00     0.188 C 
ATOM     21  C   UNL     1      -1.002 -21.861  -7.674  1.00  0.00     0.179 C 
ATOM     22  O   UNL     1      -1.701 -21.589  -9.997  1.00  0.00    -0.362 OA
ATOM     23  C   UNL     1       0.146 -22.791  -8.116  1.00  0.00     0.177 C 
ATOM     24  C   UNL     1      -0.599 -22.333 -10.494  1.00  0.00     0.176 C 
ATOM     25  C   UNL     1      -0.181 -23.427  -9.481  1.00  0.00     0.177 C 
BRANCH  21  26
ATOM     26  O   UNL     1      -2.132 -22.626  -7.339  1.00  0.00    -0.387 OA
ATOM     27  H   UNL     1      -2.693 -22.681  -8.156  1.00  0.00     0.211 HD
ENDBRANCH  21  26
BRANCH  23  28
ATOM     28  O   UNL     1       1.348 -22.066  -8.206  1.00  0.00    -0.387 OA
ATOM     29  H   UNL     1       2.052 -22.626  -7.787  1.00  0.00     0.211 HD
ENDBRANCH  23  28
BRANCH  24  30
ATOM     30  C   UNL     1      -1.006 -22.962 -11.833  1.00  0.00     0.191 C 
BRANCH  30  31
ATOM     31  O   UNL     1      -2.388 -22.839 -12.032  1.00  0.00    -0.394 OA
ATOM     32  H   UNL     1      -2.544 -22.931 -13.009  1.00  0.00     0.210 HD
ENDBRANCH  30  31
ENDBRANCH  24  30
BRANCH  25  33
ATOM     33  O   UNL     1       0.939 -24.124  -9.965  1.00  0.00    -0.388 OA
ATOM     34  H   UNL     1       0.826 -24.200 -10.948  1.00  0.00     0.211 HD
ENDBRANCH  25  33
ENDBRANCH  11  20
BRANCH  10  35
ATOM     35  O   UNL     1      -4.161 -21.389  -9.419  1.00  0.00    -0.507 OA
ATOM     36  H   UNL     1      -3.596 -22.230  -9.374  1.00  0.00     0.293 HD
ENDBRANCH  10  35
TORSDOF 9
ENDMDL
