MODEL 1
REMARK VINA RESULT:    -3.329      0.000      0.000
REMARK INTER + INTRA:          -4.589
REMARK INTER:                  -4.497
REMARK INTRA:                  -0.092
REMARK UNBOUND:                -0.092
REMARK SMILES [NH3+]CCCC[C@@H]([NH3+])C(=O)[O-]
REMARK SMILES IDX 4 1 3 2 2 3 1 4 5 8 6 9 7 10 8 14 9 15 10 16
REMARK H PARENT 1 5 1 6 1 7 7 11 7 12 7 13
REMARK Flexibility Score: inf
ROOT
ATOM      1  C   UNL     1       8.560   7.209  43.569  1.00  0.00     0.012 C 
ENDROOT
BRANCH   1   2
ATOM      2  C   UNL     1       8.009   6.528  44.830  1.00  0.00     0.061 C 
BRANCH   2   3
ATOM      3  C   UNL     1       6.507   6.244  44.691  1.00  0.00     0.258 C 
BRANCH   3   4
ATOM      4  N   UNL     1       6.089   5.178  45.600  1.00  0.00    -0.358 N 
ATOM      5  H   UNL     1       6.247   5.488  46.586  1.00  0.00     0.344 HD
ATOM      6  H   UNL     1       6.653   4.314  45.423  1.00  0.00     0.344 HD
ATOM      7  H   UNL     1       5.073   4.970  45.469  1.00  0.00     0.344 HD
ENDBRANCH   3   4
ENDBRANCH   2   3
ENDBRANCH   1   2
BRANCH   1   8
ATOM      8  C   UNL     1       8.967   6.207  42.473  1.00  0.00     0.072 C 
BRANCH   8   9
ATOM      9  C   UNL     1       9.995   6.745  41.449  1.00  0.00     0.227 C 
BRANCH   9  10
ATOM     10  N   UNL     1      11.239   5.963  41.457  1.00  0.00    -0.350 N 
ATOM     11  H   UNL     1      11.184   5.184  42.154  1.00  0.00     0.345 HD
ATOM     12  H   UNL     1      11.413   5.559  40.508  1.00  0.00     0.345 HD
ATOM     13  H   UNL     1      12.050   6.581  41.688  1.00  0.00     0.345 HD
ENDBRANCH   9  10
BRANCH   9  14
ATOM     14  C   UNL     1       9.382   6.736  40.073  1.00  0.00     0.099 C 
ATOM     15  O   UNL     1       8.257   6.203  39.879  1.00  0.00    -0.544 OA
ATOM     16  O   UNL     1      10.044   7.343  39.014  1.00  0.00    -0.544 OA
ENDBRANCH   9  14
ENDBRANCH   8   9
ENDBRANCH   1   8
TORSDOF 7
ENDMDL
MODEL 2
REMARK VINA RESULT:    -3.281      1.604      1.776
REMARK INTER + INTRA:          -4.523
REMARK INTER:                  -4.412
REMARK INTRA:                  -0.111
REMARK UNBOUND:                -0.092
REMARK SMILES [NH3+]CCCC[C@@H]([NH3+])C(=O)[O-]
REMARK SMILES IDX 4 1 3 2 2 3 1 4 5 8 6 9 7 10 8 14 9 15 10 16
REMARK H PARENT 1 5 1 6 1 7 7 11 7 12 7 13
REMARK Flexibility Score: inf
ROOT
ATOM      1  C   UNL     1       8.045   6.476  44.590  1.00  0.00     0.012 C 
ENDROOT
BRANCH   1   2
ATOM      2  C   UNL     1       6.623   6.659  45.140  1.00  0.00     0.061 C 
BRANCH   2   3
ATOM      3  C   UNL     1       5.763   5.417  44.867  1.00  0.00     0.258 C 
BRANCH   3   4
ATOM      4  N   UNL     1       5.596   4.618  46.081  1.00  0.00    -0.358 N 
ATOM      5  H   UNL     1       6.227   3.786  46.033  1.00  0.00     0.344 HD
ATOM      6  H   UNL     1       4.606   4.287  46.160  1.00  0.00     0.344 HD
ATOM      7  H   UNL     1       5.848   5.186  46.922  1.00  0.00     0.344 HD
ENDBRANCH   3   4
ENDBRANCH   2   3
ENDBRANCH   1   2
BRANCH   1   8
ATOM      8  C   UNL     1       8.071   6.187  43.077  1.00  0.00     0.072 C 
BRANCH   8   9
ATOM      9  C   UNL     1       9.353   6.654  42.348  1.00  0.00     0.227 C 
BRANCH   9  10
ATOM     10  N   UNL     1       9.899   5.609  41.472  1.00  0.00    -0.350 N 
ATOM     11  H   UNL     1       9.755   5.855  40.465  1.00  0.00     0.345 HD
ATOM     12  H   UNL     1      10.922   5.490  41.650  1.00  0.00     0.345 HD
ATOM     13  H   UNL     1       9.437   4.693  41.675  1.00  0.00     0.345 HD
ENDBRANCH   9  10
BRANCH   9  14
ATOM     14  C   UNL     1       9.050   7.897  41.552  1.00  0.00     0.099 C 
ATOM     15  O   UNL     1       8.860   7.827  40.308  1.00  0.00    -0.544 OA
ATOM     16  O   UNL     1       8.949   9.124  42.193  1.00  0.00    -0.544 OA
ENDBRANCH   9  14
ENDBRANCH   8   9
ENDBRANCH   1   8
TORSDOF 7
ENDMDL
MODEL 3
REMARK VINA RESULT:    -3.274      2.385      2.536
REMARK INTER + INTRA:          -4.515
REMARK INTER:                  -4.034
REMARK INTRA:                  -0.481
REMARK UNBOUND:                -0.092
REMARK SMILES [NH3+]CCCC[C@@H]([NH3+])C(=O)[O-]
REMARK SMILES IDX 4 1 3 2 2 3 1 4 5 8 6 9 7 10 8 14 9 15 10 16
REMARK H PARENT 1 5 1 6 1 7 7 11 7 12 7 13
REMARK Flexibility Score: inf
ROOT
ATOM      1  C   UNL     1       7.133   6.098  43.206  1.00  0.00     0.012 C 
ENDROOT
BRANCH   1   2
ATOM      2  C   UNL     1       7.740   6.406  44.583  1.00  0.00     0.061 C 
BRANCH   2   3
ATOM      3  C   UNL     1       7.572   7.889  44.939  1.00  0.00     0.258 C 
BRANCH   3   4
ATOM      4  N   UNL     1       8.871   8.524  45.163  1.00  0.00    -0.358 N 
ATOM      5  H   UNL     1       8.885   8.944  46.120  1.00  0.00     0.344 HD
ATOM      6  H   UNL     1       9.026   9.283  44.458  1.00  0.00     0.344 HD
ATOM      7  H   UNL     1       9.635   7.814  45.093  1.00  0.00     0.344 HD
ENDBRANCH   3   4
ENDBRANCH   2   3
ENDBRANCH   1   2
BRANCH   1   8
ATOM      8  C   UNL     1       7.824   6.860  42.060  1.00  0.00     0.072 C 
BRANCH   8   9
ATOM      9  C   UNL     1       9.015   6.117  41.411  1.00  0.00     0.227 C 
BRANCH   9  10
ATOM     10  N   UNL     1       8.907   6.079  39.946  1.00  0.00    -0.350 N 
ATOM     11  H   UNL     1       9.620   5.431  39.537  1.00  0.00     0.345 HD
ATOM     12  H   UNL     1       7.953   5.756  39.666  1.00  0.00     0.345 HD
ATOM     13  H   UNL     1       9.041   7.038  39.552  1.00  0.00     0.345 HD
ENDBRANCH   9  10
BRANCH   9  14
ATOM     14  C   UNL     1      10.303   6.782  41.822  1.00  0.00     0.099 C 
ATOM     15  O   UNL     1      10.289   7.779  42.592  1.00  0.00    -0.544 OA
ATOM     16  O   UNL     1      11.518   6.279  41.375  1.00  0.00    -0.544 OA
ENDBRANCH   9  14
ENDBRANCH   8   9
ENDBRANCH   1   8
TORSDOF 7
ENDMDL
MODEL 4
REMARK VINA RESULT:    -3.243      9.178     10.332
REMARK INTER + INTRA:          -4.473
REMARK INTER:                  -3.932
REMARK INTRA:                  -0.541
REMARK UNBOUND:                -0.092
REMARK SMILES [NH3+]CCCC[C@@H]([NH3+])C(=O)[O-]
REMARK SMILES IDX 4 1 3 2 2 3 1 4 5 8 6 9 7 10 8 14 9 15 10 16
REMARK H PARENT 1 5 1 6 1 7 7 11 7 12 7 13
REMARK Flexibility Score: inf
ROOT
ATOM      1  C   UNL     1       8.654  -1.270  36.150  1.00  0.00     0.012 C 
ENDROOT
BRANCH   1   2
ATOM      2  C   UNL     1       7.713  -1.766  35.042  1.00  0.00     0.061 C 
BRANCH   2   3
ATOM      3  C   UNL     1       6.274  -1.293  35.290  1.00  0.00     0.258 C 
BRANCH   3   4
ATOM      4  N   UNL     1       6.252  -0.120  36.163  1.00  0.00    -0.358 N 
ATOM      5  H   UNL     1       7.087  -0.145  36.791  1.00  0.00     0.344 HD
ATOM      6  H   UNL     1       5.386  -0.127  36.751  1.00  0.00     0.344 HD
ATOM      7  H   UNL     1       6.284   0.755  35.591  1.00  0.00     0.344 HD
ENDBRANCH   3   4
ENDBRANCH   2   3
ENDBRANCH   1   2
BRANCH   1   8
ATOM      8  C   UNL     1       8.830  -2.289  37.290  1.00  0.00     0.072 C 
BRANCH   8   9
ATOM      9  C   UNL     1       8.445  -1.766  38.695  1.00  0.00     0.227 C 
BRANCH   9  10
ATOM     10  N   UNL     1       8.558  -0.304  38.787  1.00  0.00    -0.350 N 
ATOM     11  H   UNL     1       9.491  -0.027  39.169  1.00  0.00     0.345 HD
ATOM     12  H   UNL     1       8.436   0.124  37.841  1.00  0.00     0.345 HD
ATOM     13  H   UNL     1       7.803   0.075  39.402  1.00  0.00     0.345 HD
ENDBRANCH   9  10
BRANCH   9  14
ATOM     14  C   UNL     1       7.041  -2.203  39.023  1.00  0.00     0.099 C 
ATOM     15  O   UNL     1       6.076  -1.405  38.885  1.00  0.00    -0.544 OA
ATOM     16  O   UNL     1       6.801  -3.502  39.451  1.00  0.00    -0.544 OA
ENDBRANCH   9  14
ENDBRANCH   8   9
ENDBRANCH   1   8
TORSDOF 7
ENDMDL
MODEL 5
REMARK VINA RESULT:    -3.194      2.163      4.243
REMARK INTER + INTRA:          -4.407
REMARK INTER:                  -3.861
REMARK INTRA:                  -0.546
REMARK UNBOUND:                -0.092
REMARK SMILES [NH3+]CCCC[C@@H]([NH3+])C(=O)[O-]
REMARK SMILES IDX 4 1 3 2 2 3 1 4 5 8 6 9 7 10 8 14 9 15 10 16
REMARK H PARENT 1 5 1 6 1 7 7 11 7 12 7 13
REMARK Flexibility Score: inf
ROOT
ATOM      1  C   UNL     1      10.163   7.635  42.515  1.00  0.00     0.012 C 
ENDROOT
BRANCH   1   2
ATOM      2  C   UNL     1      10.308   6.493  41.500  1.00  0.00     0.061 C 
BRANCH   2   3
ATOM      3  C   UNL     1       9.855   6.938  40.102  1.00  0.00     0.258 C 
BRANCH   3   4
ATOM      4  N   UNL     1       8.800   6.063  39.591  1.00  0.00    -0.358 N 
ATOM      5  H   UNL     1       7.869   6.498  39.788  1.00  0.00     0.344 HD
ATOM      6  H   UNL     1       8.845   5.131  40.066  1.00  0.00     0.344 HD
ATOM      7  H   UNL     1       8.904   5.939  38.558  1.00  0.00     0.344 HD
ENDBRANCH   3   4
ENDBRANCH   2   3
ENDBRANCH   1   2
BRANCH   1   8
ATOM      8  C   UNL     1       8.763   7.699  43.153  1.00  0.00     0.072 C 
BRANCH   8   9
ATOM      9  C   UNL     1       8.120   6.323  43.449  1.00  0.00     0.227 C 
BRANCH   9  10
ATOM     10  N   UNL     1       7.931   6.104  44.889  1.00  0.00    -0.350 N 
ATOM     11  H   UNL     1       8.723   6.516  45.435  1.00  0.00     0.345 HD
ATOM     12  H   UNL     1       7.035   6.543  45.204  1.00  0.00     0.345 HD
ATOM     13  H   UNL     1       7.866   5.080  45.091  1.00  0.00     0.345 HD
ENDBRANCH   9  10
BRANCH   9  14
ATOM     14  C   UNL     1       6.800   6.223  42.729  1.00  0.00     0.099 C 
ATOM     15  O   UNL     1       5.851   5.560  43.225  1.00  0.00    -0.544 OA
ATOM     16  O   UNL     1       6.615   6.890  41.525  1.00  0.00    -0.544 OA
ENDBRANCH   9  14
ENDBRANCH   8   9
ENDBRANCH   1   8
TORSDOF 7
ENDMDL
MODEL 6
REMARK VINA RESULT:    -3.181      1.390      1.718
REMARK INTER + INTRA:          -4.389
REMARK INTER:                  -3.861
REMARK INTRA:                  -0.528
REMARK UNBOUND:                -0.092
REMARK SMILES [NH3+]CCCC[C@@H]([NH3+])C(=O)[O-]
REMARK SMILES IDX 4 1 3 2 2 3 1 4 5 8 6 9 7 10 8 14 9 15 10 16
REMARK H PARENT 1 5 1 6 1 7 7 11 7 12 7 13
REMARK Flexibility Score: inf
ROOT
ATOM      1  C   UNL     1       8.561   7.954  43.329  1.00  0.00     0.012 C 
ENDROOT
BRANCH   1   2
ATOM      2  C   UNL     1       8.399   7.190  44.651  1.00  0.00     0.061 C 
BRANCH   2   3
ATOM      3  C   UNL     1       7.290   6.134  44.545  1.00  0.00     0.258 C 
BRANCH   3   4
ATOM      4  N   UNL     1       6.635   6.192  43.239  1.00  0.00    -0.358 N 
ATOM      5  H   UNL     1       7.070   6.955  42.672  1.00  0.00     0.344 HD
ATOM      6  H   UNL     1       5.616   6.398  43.358  1.00  0.00     0.344 HD
ATOM      7  H   UNL     1       6.757   5.284  42.735  1.00  0.00     0.344 HD
ENDBRANCH   3   4
ENDBRANCH   2   3
ENDBRANCH   1   2
BRANCH   1   8
ATOM      8  C   UNL     1       9.924   7.710  42.656  1.00  0.00     0.072 C 
BRANCH   8   9
ATOM      9  C   UNL     1       9.867   6.877  41.353  1.00  0.00     0.227 C 
BRANCH   9  10
ATOM     10  N   UNL     1       9.690   5.444  41.624  1.00  0.00    -0.350 N 
ATOM     11  H   UNL     1       8.714   5.141  41.398  1.00  0.00     0.345 HD
ATOM     12  H   UNL     1      10.362   4.886  41.050  1.00  0.00     0.345 HD
ATOM     13  H   UNL     1       9.893   5.242  42.630  1.00  0.00     0.345 HD
ENDBRANCH   9  10
BRANCH   9  14
ATOM     14  C   UNL     1       8.746   7.386  40.484  1.00  0.00     0.099 C 
ATOM     15  O   UNL     1       8.857   8.485  39.879  1.00  0.00    -0.544 OA
ATOM     16  O   UNL     1       7.594   6.628  40.322  1.00  0.00    -0.544 OA
ENDBRANCH   9  14
ENDBRANCH   8   9
ENDBRANCH   1   8
TORSDOF 7
ENDMDL
MODEL 7
REMARK VINA RESULT:    -3.179     10.193     11.786
REMARK INTER + INTRA:          -4.386
REMARK INTER:                  -3.945
REMARK INTRA:                  -0.441
REMARK UNBOUND:                -0.092
REMARK SMILES [NH3+]CCCC[C@@H]([NH3+])C(=O)[O-]
REMARK SMILES IDX 4 1 3 2 2 3 1 4 5 8 6 9 7 10 8 14 9 15 10 16
REMARK H PARENT 1 5 1 6 1 7 7 11 7 12 7 13
REMARK Flexibility Score: inf
ROOT
ATOM      1  C   UNL     1       8.966  -1.122  33.764  1.00  0.00     0.012 C 
ENDROOT
BRANCH   1   2
ATOM      2  C   UNL     1       9.564  -2.441  33.252  1.00  0.00     0.061 C 
BRANCH   2   3
ATOM      3  C   UNL     1       8.542  -3.582  33.347  1.00  0.00     0.258 C 
BRANCH   3   4
ATOM      4  N   UNL     1       9.018  -4.638  34.240  1.00  0.00    -0.358 N 
ATOM      5  H   UNL     1       8.277  -4.846  34.948  1.00  0.00     0.344 HD
ATOM      6  H   UNL     1       9.883  -4.324  34.738  1.00  0.00     0.344 HD
ATOM      7  H   UNL     1       9.219  -5.507  33.695  1.00  0.00     0.344 HD
ENDBRANCH   3   4
ENDBRANCH   2   3
ENDBRANCH   1   2
BRANCH   1   8
ATOM      8  C   UNL     1       7.726  -1.330  34.653  1.00  0.00     0.072 C 
BRANCH   8   9
ATOM      9  C   UNL     1       7.783  -0.619  36.026  1.00  0.00     0.227 C 
BRANCH   9  10
ATOM     10  N   UNL     1       6.470  -0.097  36.429  1.00  0.00    -0.350 N 
ATOM     11  H   UNL     1       5.750  -0.297  35.697  1.00  0.00     0.345 HD
ATOM     12  H   UNL     1       6.171  -0.537  37.330  1.00  0.00     0.345 HD
ATOM     13  H   UNL     1       6.528   0.934  36.589  1.00  0.00     0.345 HD
ENDBRANCH   9  10
BRANCH   9  14
ATOM     14  C   UNL     1       8.304  -1.579  37.064  1.00  0.00     0.099 C 
ATOM     15  O   UNL     1       8.703  -1.155  38.181  1.00  0.00    -0.544 OA
ATOM     16  O   UNL     1       8.318  -2.943  36.803  1.00  0.00    -0.544 OA
ENDBRANCH   9  14
ENDBRANCH   8   9
ENDBRANCH   1   8
TORSDOF 7
ENDMDL
MODEL 8
REMARK VINA RESULT:    -3.115     11.829     12.848
REMARK INTER + INTRA:          -4.300
REMARK INTER:                  -3.763
REMARK INTRA:                  -0.537
REMARK UNBOUND:                -0.092
REMARK SMILES [NH3+]CCCC[C@@H]([NH3+])C(=O)[O-]
REMARK SMILES IDX 4 1 3 2 2 3 1 4 5 8 6 9 7 10 8 14 9 15 10 16
REMARK H PARENT 1 5 1 6 1 7 7 11 7 12 7 13
REMARK Flexibility Score: inf
ROOT
ATOM      1  C   UNL     1      10.345  -0.033  30.601  1.00  0.00     0.012 C 
ENDROOT
BRANCH   1   2
ATOM      2  C   UNL     1      11.026   1.313  30.317  1.00  0.00     0.061 C 
BRANCH   2   3
ATOM      3  C   UNL     1      10.641   2.359  31.373  1.00  0.00     0.258 C 
BRANCH   3   4
ATOM      4  N   UNL     1      11.758   2.625  32.278  1.00  0.00    -0.358 N 
ATOM      5  H   UNL     1      11.894   3.659  32.359  1.00  0.00     0.344 HD
ATOM      6  H   UNL     1      12.635   2.197  31.902  1.00  0.00     0.344 HD
ATOM      7  H   UNL     1      11.553   2.236  33.227  1.00  0.00     0.344 HD
ENDBRANCH   3   4
ENDBRANCH   2   3
ENDBRANCH   1   2
BRANCH   1   8
ATOM      8  C   UNL     1       9.296   0.049  31.726  1.00  0.00     0.072 C 
BRANCH   8   9
ATOM      9  C   UNL     1       9.484  -0.979  32.866  1.00  0.00     0.227 C 
BRANCH   9  10
ATOM     10  N   UNL     1       9.145  -2.343  32.438  1.00  0.00    -0.350 N 
ATOM     11  H   UNL     1      10.000  -2.859  32.127  1.00  0.00     0.345 HD
ATOM     12  H   UNL     1       8.699  -2.865  33.227  1.00  0.00     0.345 HD
ATOM     13  H   UNL     1       8.454  -2.311  31.654  1.00  0.00     0.345 HD
ENDBRANCH   9  10
BRANCH   9  14
ATOM     14  C   UNL     1      10.907  -0.926  33.358  1.00  0.00     0.099 C 
ATOM     15  O   UNL     1      11.332   0.088  33.972  1.00  0.00    -0.544 OA
ATOM     16  O   UNL     1      11.750  -2.011  33.161  1.00  0.00    -0.544 OA
ENDBRANCH   9  14
ENDBRANCH   8   9
ENDBRANCH   1   8
TORSDOF 7
ENDMDL
MODEL 9
REMARK VINA RESULT:    -3.113      9.118     10.610
REMARK INTER + INTRA:          -4.297
REMARK INTER:                  -3.802
REMARK INTRA:                  -0.495
REMARK UNBOUND:                -0.092
REMARK SMILES [NH3+]CCCC[C@@H]([NH3+])C(=O)[O-]
REMARK SMILES IDX 4 1 3 2 2 3 1 4 5 8 6 9 7 10 8 14 9 15 10 16
REMARK H PARENT 1 5 1 6 1 7 7 11 7 12 7 13
REMARK Flexibility Score: inf
ROOT
ATOM      1  C   UNL     1       6.581  -1.382  34.949  1.00  0.00     0.012 C 
ENDROOT
BRANCH   1   2
ATOM      2  C   UNL     1       8.106  -1.434  34.772  1.00  0.00     0.061 C 
BRANCH   2   3
ATOM      3  C   UNL     1       8.636  -2.858  34.990  1.00  0.00     0.258 C 
BRANCH   3   4
ATOM      4  N   UNL     1       9.594  -2.897  36.095  1.00  0.00    -0.358 N 
ATOM      5  H   UNL     1       9.139  -3.336  36.927  1.00  0.00     0.344 HD
ATOM      6  H   UNL     1       9.893  -1.925  36.345  1.00  0.00     0.344 HD
ATOM      7  H   UNL     1      10.430  -3.466  35.827  1.00  0.00     0.344 HD
ENDBRANCH   3   4
ENDBRANCH   2   3
ENDBRANCH   1   2
BRANCH   1   8
ATOM      8  C   UNL     1       6.149  -1.315  36.425  1.00  0.00     0.072 C 
BRANCH   8   9
ATOM      9  C   UNL     1       6.970  -0.338  37.300  1.00  0.00     0.227 C 
BRANCH   9  10
ATOM     10  N   UNL     1       6.150   0.775  37.797  1.00  0.00    -0.350 N 
ATOM     11  H   UNL     1       5.677   1.271  37.007  1.00  0.00     0.345 HD
ATOM     12  H   UNL     1       5.424   0.416  38.459  1.00  0.00     0.345 HD
ATOM     13  H   UNL     1       6.747   1.452  38.325  1.00  0.00     0.345 HD
ENDBRANCH   9  10
BRANCH   9  14
ATOM     14  C   UNL     1       7.581  -1.091  38.452  1.00  0.00     0.099 C 
ATOM     15  O   UNL     1       8.833  -1.176  38.567  1.00  0.00    -0.544 OA
ATOM     16  O   UNL     1       6.764  -1.673  39.413  1.00  0.00    -0.544 OA
ENDBRANCH   9  14
ENDBRANCH   8   9
ENDBRANCH   1   8
TORSDOF 7
ENDMDL
