MODEL 1
REMARK VINA RESULT:    -6.202      0.000      0.000
REMARK INTER + INTRA:          -6.202
REMARK INTER:                  -6.202
REMARK INTRA:                   0.000
REMARK UNBOUND:                 0.000
REMARK SMILES C[NH+]1CCN(C2=[NH+]c3ccccc3Oc3ccc(Cl)cc32)CC1
REMARK SMILES IDX 7 1 6 2 21 3 5 4 8 5 9 6 13 7 10 8 12 9 14 10 11 11 15 12
REMARK SMILES IDX 16 13 17 14 18 15 20 16 19 17 4 18 22 19 3 20 23 21 2 22
REMARK SMILES IDX 1 23
REMARK H PARENT 7 24 2 25
REMARK Flexibility Score: inf
ROOT
ATOM      1  N   UNL     1     135.810 134.358 130.045  1.00  0.00    -0.237 N 
ATOM      2  C   UNL     1     134.730 134.579 130.747  1.00  0.00     0.286 C 
ATOM      3  C   UNL     1     134.274 133.694 131.853  1.00  0.00     0.108 A 
ATOM      4  N   UNL     1     133.923 135.724 130.413  1.00  0.00    -0.250 N 
ATOM      5  C   UNL     1     136.747 133.277 130.192  1.00  0.00     0.168 A 
ATOM      6  C   UNL     1     137.406 132.809 129.041  1.00  0.00     0.056 A 
ATOM      7  C   UNL     1     137.168 132.814 131.455  1.00  0.00     0.173 A 
ATOM      8  C   UNL     1     138.454 131.891 129.142  1.00  0.00     0.005 A 
ATOM      9  C   UNL     1     138.243 131.919 131.547  1.00  0.00     0.052 A 
ATOM     10  O   UNL     1     136.546 133.210 132.636  1.00  0.00    -0.452 OA
ATOM     11  C   UNL     1     138.877 131.452 130.395  1.00  0.00     0.004 A 
ATOM     12  C   UNL     1     135.166 133.151 132.799  1.00  0.00     0.143 A 
ATOM     13  C   UNL     1     134.670 132.511 133.941  1.00  0.00     0.049 A 
ATOM     14  C   UNL     1     133.296 132.352 134.125  1.00  0.00     0.024 A 
ATOM     15  C   UNL     1     132.406 132.839 133.169  1.00  0.00     0.042 A 
ATOM     16  C   UNL     1     132.890 133.510 132.044  1.00  0.00     0.041 A 
ATOM     17  Cl  UNL     1     130.678 132.633 133.392  1.00  0.00    -0.084 Cl
ATOM     18  C   UNL     1     133.516 136.668 131.456  1.00  0.00     0.298 C 
ATOM     19  C   UNL     1     133.263 135.801 129.109  1.00  0.00     0.298 C 
ATOM     20  C   UNL     1     133.511 138.097 130.896  1.00  0.00     0.308 C 
ATOM     21  C   UNL     1     133.264 137.251 128.606  1.00  0.00     0.308 C 
ATOM     22  N   UNL     1     132.767 138.208 129.620  1.00  0.00    -0.331 N 
ATOM     23  C   UNL     1     131.307 138.108 129.816  1.00  0.00     0.332 C 
ATOM     24  H   UNL     1     136.011 135.021 129.260  1.00  0.00     0.312 HD
ATOM     25  H   UNL     1     132.948 139.171 129.245  1.00  0.00     0.348 HD
ENDROOT
TORSDOF 0
ENDMDL
MODEL 2
REMARK VINA RESULT:    -6.040      3.455      6.695
REMARK INTER + INTRA:          -6.040
REMARK INTER:                  -6.040
REMARK INTRA:                   0.000
REMARK UNBOUND:                 0.000
REMARK SMILES C[NH+]1CCN(C2=[NH+]c3ccccc3Oc3ccc(Cl)cc32)CC1
REMARK SMILES IDX 7 1 6 2 21 3 5 4 8 5 9 6 13 7 10 8 12 9 14 10 11 11 15 12
REMARK SMILES IDX 16 13 17 14 18 15 20 16 19 17 4 18 22 19 3 20 23 21 2 22
REMARK SMILES IDX 1 23
REMARK H PARENT 7 24 2 25
REMARK Flexibility Score: inf
ROOT
ATOM      1  N   UNL     1     133.796 135.468 130.040  1.00  0.00    -0.237 N 
ATOM      2  C   UNL     1     134.557 136.166 130.840  1.00  0.00     0.286 C 
ATOM      3  C   UNL     1     134.675 137.648 130.777  1.00  0.00     0.108 A 
ATOM      4  N   UNL     1     135.347 135.461 131.816  1.00  0.00    -0.250 N 
ATOM      5  C   UNL     1     132.942 135.958 128.991  1.00  0.00     0.168 A 
ATOM      6  C   UNL     1     132.744 135.144 127.862  1.00  0.00     0.056 A 
ATOM      7  C   UNL     1     132.154 137.117 129.143  1.00  0.00     0.173 A 
ATOM      8  C   UNL     1     131.791 135.480 126.898  1.00  0.00     0.005 A 
ATOM      9  C   UNL     1     131.177 137.427 128.188  1.00  0.00     0.052 A 
ATOM     10  O   UNL     1     132.312 137.987 130.219  1.00  0.00    -0.452 OA
ATOM     11  C   UNL     1     131.002 136.617 127.065  1.00  0.00     0.004 A 
ATOM     12  C   UNL     1     133.557 138.485 130.589  1.00  0.00     0.143 A 
ATOM     13  C   UNL     1     133.683 139.869 130.757  1.00  0.00     0.049 A 
ATOM     14  C   UNL     1     134.922 140.438 131.052  1.00  0.00     0.024 A 
ATOM     15  C   UNL     1     136.046 139.625 131.189  1.00  0.00     0.042 A 
ATOM     16  C   UNL     1     135.923 138.239 131.058  1.00  0.00     0.041 A 
ATOM     17  Cl  UNL     1     137.607 140.337 131.552  1.00  0.00    -0.084 Cl
ATOM     18  C   UNL     1     135.311 135.863 133.223  1.00  0.00     0.298 C 
ATOM     19  C   UNL     1     136.401 134.543 131.381  1.00  0.00     0.298 C 
ATOM     20  C   UNL     1     135.404 134.624 134.125  1.00  0.00     0.308 C 
ATOM     21  C   UNL     1     136.467 133.335 132.328  1.00  0.00     0.308 C 
ATOM     22  N   UNL     1     136.525 133.730 133.754  1.00  0.00    -0.331 N 
ATOM     23  C   UNL     1     137.837 134.297 134.124  1.00  0.00     0.332 C 
ATOM     24  H   UNL     1     133.825 134.427 130.143  1.00  0.00     0.312 HD
ATOM     25  H   UNL     1     136.414 132.852 134.317  1.00  0.00     0.348 HD
ENDROOT
TORSDOF 0
ENDMDL
MODEL 3
REMARK VINA RESULT:    -5.996      6.076      8.617
REMARK INTER + INTRA:          -5.996
REMARK INTER:                  -5.996
REMARK INTRA:                   0.000
REMARK UNBOUND:                 0.000
REMARK SMILES C[NH+]1CCN(C2=[NH+]c3ccccc3Oc3ccc(Cl)cc32)CC1
REMARK SMILES IDX 7 1 6 2 21 3 5 4 8 5 9 6 13 7 10 8 12 9 14 10 11 11 15 12
REMARK SMILES IDX 16 13 17 14 18 15 20 16 19 17 4 18 22 19 3 20 23 21 2 22
REMARK SMILES IDX 1 23
REMARK H PARENT 7 24 2 25
REMARK Flexibility Score: inf
ROOT
ATOM      1  N   UNL     1     129.953 135.325 126.250  1.00  0.00    -0.237 N 
ATOM      2  C   UNL     1     131.230 135.400 125.983  1.00  0.00     0.286 C 
ATOM      3  C   UNL     1     131.935 134.460 125.070  1.00  0.00     0.108 A 
ATOM      4  N   UNL     1     132.001 136.430 126.630  1.00  0.00    -0.250 N 
ATOM      5  C   UNL     1     129.002 134.377 125.735  1.00  0.00     0.168 A 
ATOM      6  C   UNL     1     127.926 134.002 126.558  1.00  0.00     0.056 A 
ATOM      7  C   UNL     1     129.003 133.969 124.385  1.00  0.00     0.173 A 
ATOM      8  C   UNL     1     126.877 133.229 126.054  1.00  0.00     0.005 A 
ATOM      9  C   UNL     1     127.929 133.223 123.881  1.00  0.00     0.052 A 
ATOM     10  O   UNL     1     130.047 134.277 123.517  1.00  0.00    -0.452 OA
ATOM     11  C   UNL     1     126.875 132.846 124.714  1.00  0.00     0.004 A 
ATOM     12  C   UNL     1     131.377 134.037 123.848  1.00  0.00     0.143 A 
ATOM     13  C   UNL     1     132.163 133.335 122.926  1.00  0.00     0.049 A 
ATOM     14  C   UNL     1     133.481 132.995 123.231  1.00  0.00     0.024 A 
ATOM     15  C   UNL     1     134.028 133.364 124.459  1.00  0.00     0.042 A 
ATOM     16  C   UNL     1     133.263 134.096 125.371  1.00  0.00     0.041 A 
ATOM     17  Cl  UNL     1     135.683 132.932 124.850  1.00  0.00    -0.084 Cl
ATOM     18  C   UNL     1     132.865 137.310 125.840  1.00  0.00     0.298 C 
ATOM     19  C   UNL     1     132.160 136.423 128.085  1.00  0.00     0.298 C 
ATOM     20  C   UNL     1     132.848 138.727 126.428  1.00  0.00     0.308 C 
ATOM     21  C   UNL     1     132.160 137.863 128.619  1.00  0.00     0.308 C 
ATOM     22  N   UNL     1     133.099 138.743 127.888  1.00  0.00    -0.331 N 
ATOM     23  C   UNL     1     134.509 138.451 128.214  1.00  0.00     0.332 C 
ATOM     24  H   UNL     1     129.570 136.010 126.942  1.00  0.00     0.312 HD
ATOM     25  H   UNL     1     132.917 139.722 128.217  1.00  0.00     0.348 HD
ENDROOT
TORSDOF 0
ENDMDL
MODEL 4
REMARK VINA RESULT:    -5.989      7.451      9.443
REMARK INTER + INTRA:          -5.989
REMARK INTER:                  -5.989
REMARK INTRA:                   0.000
REMARK UNBOUND:                 0.000
REMARK SMILES C[NH+]1CCN(C2=[NH+]c3ccccc3Oc3ccc(Cl)cc32)CC1
REMARK SMILES IDX 7 1 6 2 21 3 5 4 8 5 9 6 13 7 10 8 12 9 14 10 11 11 15 12
REMARK SMILES IDX 16 13 17 14 18 15 20 16 19 17 4 18 22 19 3 20 23 21 2 22
REMARK SMILES IDX 1 23
REMARK H PARENT 7 24 2 25
REMARK Flexibility Score: inf
ROOT
ATOM      1  N   UNL     1     130.096 134.016 125.283  1.00  0.00    -0.237 N 
ATOM      2  C   UNL     1     130.403 133.253 124.267  1.00  0.00     0.286 C 
ATOM      3  C   UNL     1     131.802 132.950 123.860  1.00  0.00     0.108 A 
ATOM      4  N   UNL     1     129.329 132.698 123.484  1.00  0.00    -0.250 N 
ATOM      5  C   UNL     1     130.997 134.681 126.185  1.00  0.00     0.168 A 
ATOM      6  C   UNL     1     130.596 135.910 126.738  1.00  0.00     0.056 A 
ATOM      7  C   UNL     1     132.162 134.058 126.679  1.00  0.00     0.173 A 
ATOM      8  C   UNL     1     131.342 136.513 127.753  1.00  0.00     0.005 A 
ATOM      9  C   UNL     1     132.884 134.655 127.722  1.00  0.00     0.052 A 
ATOM     10  O   UNL     1     132.637 132.856 126.163  1.00  0.00    -0.452 OA
ATOM     11  C   UNL     1     132.481 135.882 128.250  1.00  0.00     0.004 A 
ATOM     12  C   UNL     1     132.812 132.657 124.797  1.00  0.00     0.143 A 
ATOM     13  C   UNL     1     134.048 132.165 124.362  1.00  0.00     0.049 A 
ATOM     14  C   UNL     1     134.314 132.017 123.000  1.00  0.00     0.024 A 
ATOM     15  C   UNL     1     133.339 132.353 122.061  1.00  0.00     0.042 A 
ATOM     16  C   UNL     1     132.090 132.811 122.488  1.00  0.00     0.041 A 
ATOM     17  Cl  UNL     1     133.671 132.176 120.348  1.00  0.00    -0.084 Cl
ATOM     18  C   UNL     1     129.294 131.264 123.192  1.00  0.00     0.298 C 
ATOM     19  C   UNL     1     128.437 133.583 122.732  1.00  0.00     0.298 C 
ATOM     20  C   UNL     1     127.843 130.763 123.203  1.00  0.00     0.308 C 
ATOM     21  C   UNL     1     127.007 133.025 122.754  1.00  0.00     0.308 C 
ATOM     22  N   UNL     1     126.945 131.596 122.371  1.00  0.00    -0.331 N 
ATOM     23  C   UNL     1     127.175 131.394 120.927  1.00  0.00     0.332 C 
ATOM     24  H   UNL     1     129.080 134.198 125.451  1.00  0.00     0.312 HD
ATOM     25  H   UNL     1     125.966 131.272 122.562  1.00  0.00     0.348 HD
ENDROOT
TORSDOF 0
ENDMDL
MODEL 5
REMARK VINA RESULT:    -5.884      7.400      9.601
REMARK INTER + INTRA:          -5.884
REMARK INTER:                  -5.884
REMARK INTRA:                   0.000
REMARK UNBOUND:                 0.000
REMARK SMILES C[NH+]1CCN(C2=[NH+]c3ccccc3Oc3ccc(Cl)cc32)CC1
REMARK SMILES IDX 7 1 6 2 21 3 5 4 8 5 9 6 13 7 10 8 12 9 14 10 11 11 15 12
REMARK SMILES IDX 16 13 17 14 18 15 20 16 19 17 4 18 22 19 3 20 23 21 2 22
REMARK SMILES IDX 1 23
REMARK H PARENT 7 24 2 25
REMARK Flexibility Score: inf
ROOT
ATOM      1  N   UNL     1     129.816 133.390 124.436  1.00  0.00    -0.237 N 
ATOM      2  C   UNL     1     131.120 133.457 124.494  1.00  0.00     0.286 C 
ATOM      3  C   UNL     1     132.025 132.549 123.738  1.00  0.00     0.108 A 
ATOM      4  N   UNL     1     131.713 134.445 125.358  1.00  0.00    -0.250 N 
ATOM      5  C   UNL     1     129.018 132.481 123.658  1.00  0.00     0.168 A 
ATOM      6  C   UNL     1     127.771 132.086 124.174  1.00  0.00     0.056 A 
ATOM      7  C   UNL     1     129.349 132.135 122.332  1.00  0.00     0.173 A 
ATOM      8  C   UNL     1     126.875 131.353 123.391  1.00  0.00     0.005 A 
ATOM      9  C   UNL     1     128.429 131.429 121.545  1.00  0.00     0.052 A 
ATOM     10  O   UNL     1     130.576 132.465 121.763  1.00  0.00    -0.452 OA
ATOM     11  C   UNL     1     127.201 131.032 122.075  1.00  0.00     0.004 A 
ATOM     12  C   UNL     1     131.782 132.190 122.397  1.00  0.00     0.143 A 
ATOM     13  C   UNL     1     132.768 131.519 121.664  1.00  0.00     0.049 A 
ATOM     14  C   UNL     1     133.970 131.145 122.266  1.00  0.00     0.024 A 
ATOM     15  C   UNL     1     134.199 131.449 123.607  1.00  0.00     0.042 A 
ATOM     16  C   UNL     1     133.236 132.151 124.337  1.00  0.00     0.041 A 
ATOM     17  Cl  UNL     1     135.705 130.975 124.371  1.00  0.00    -0.084 Cl
ATOM     18  C   UNL     1     132.748 135.346 124.848  1.00  0.00     0.298 C 
ATOM     19  C   UNL     1     131.510 134.369 126.806  1.00  0.00     0.298 C 
ATOM     20  C   UNL     1     132.592 136.735 125.481  1.00  0.00     0.308 C 
ATOM     21  C   UNL     1     131.384 135.783 127.392  1.00  0.00     0.308 C 
ATOM     22  N   UNL     1     132.477 136.681 126.957  1.00  0.00    -0.331 N 
ATOM     23  C   UNL     1     133.762 136.353 127.604  1.00  0.00     0.332 C 
ATOM     24  H   UNL     1     129.278 134.049 125.045  1.00  0.00     0.312 HD
ATOM     25  H   UNL     1     132.223 137.647 127.278  1.00  0.00     0.348 HD
ENDROOT
TORSDOF 0
ENDMDL
MODEL 6
REMARK VINA RESULT:    -5.878      7.809      9.768
REMARK INTER + INTRA:          -5.878
REMARK INTER:                  -5.878
REMARK INTRA:                   0.000
REMARK UNBOUND:                 0.000
REMARK SMILES C[NH+]1CCN(C2=[NH+]c3ccccc3Oc3ccc(Cl)cc32)CC1
REMARK SMILES IDX 7 1 6 2 21 3 5 4 8 5 9 6 13 7 10 8 12 9 14 10 11 11 15 12
REMARK SMILES IDX 16 13 17 14 18 15 20 16 19 17 4 18 22 19 3 20 23 21 2 22
REMARK SMILES IDX 1 23
REMARK H PARENT 7 24 2 25
REMARK Flexibility Score: inf
ROOT
ATOM      1  N   UNL     1     131.164 135.346 123.691  1.00  0.00    -0.237 N 
ATOM      2  C   UNL     1     130.146 134.720 123.162  1.00  0.00     0.286 C 
ATOM      3  C   UNL     1     129.174 133.917 123.953  1.00  0.00     0.108 A 
ATOM      4  N   UNL     1     129.973 134.788 121.735  1.00  0.00    -0.250 N 
ATOM      5  C   UNL     1     131.535 135.402 125.080  1.00  0.00     0.168 A 
ATOM      6  C   UNL     1     132.902 135.504 125.398  1.00  0.00     0.056 A 
ATOM      7  C   UNL     1     130.582 135.555 126.107  1.00  0.00     0.173 A 
ATOM      8  C   UNL     1     133.312 135.743 126.711  1.00  0.00     0.005 A 
ATOM      9  C   UNL     1     131.004 135.829 127.415  1.00  0.00     0.052 A 
ATOM     10  O   UNL     1     129.215 135.439 125.875  1.00  0.00    -0.452 OA
ATOM     11  C   UNL     1     132.364 135.913 127.718  1.00  0.00     0.004 A 
ATOM     12  C   UNL     1     128.671 134.354 125.195  1.00  0.00     0.143 A 
ATOM     13  C   UNL     1     127.600 133.678 125.792  1.00  0.00     0.049 A 
ATOM     14  C   UNL     1     127.062 132.536 125.198  1.00  0.00     0.024 A 
ATOM     15  C   UNL     1     127.586 132.065 123.996  1.00  0.00     0.042 A 
ATOM     16  C   UNL     1     128.631 132.754 123.374  1.00  0.00     0.041 A 
ATOM     17  Cl  UNL     1     126.917 130.625 123.249  1.00  0.00    -0.084 Cl
ATOM     18  C   UNL     1     128.679 135.168 121.166  1.00  0.00     0.298 C 
ATOM     19  C   UNL     1     130.978 134.202 120.845  1.00  0.00     0.298 C 
ATOM     20  C   UNL     1     128.890 136.011 119.900  1.00  0.00     0.308 C 
ATOM     21  C   UNL     1     131.133 135.069 119.587  1.00  0.00     0.308 C 
ATOM     22  N   UNL     1     129.836 135.385 118.948  1.00  0.00    -0.331 N 
ATOM     23  C   UNL     1     129.248 134.216 118.266  1.00  0.00     0.332 C 
ATOM     24  H   UNL     1     131.811 135.843 123.035  1.00  0.00     0.312 HD
ATOM     25  H   UNL     1     130.030 136.096 118.201  1.00  0.00     0.348 HD
ENDROOT
TORSDOF 0
ENDMDL
MODEL 7
REMARK VINA RESULT:    -5.816      3.444      5.696
REMARK INTER + INTRA:          -5.816
REMARK INTER:                  -5.816
REMARK INTRA:                   0.000
REMARK UNBOUND:                 0.000
REMARK SMILES C[NH+]1CCN(C2=[NH+]c3ccccc3Oc3ccc(Cl)cc32)CC1
REMARK SMILES IDX 7 1 6 2 21 3 5 4 8 5 9 6 13 7 10 8 12 9 14 10 11 11 15 12
REMARK SMILES IDX 16 13 17 14 18 15 20 16 19 17 4 18 22 19 3 20 23 21 2 22
REMARK SMILES IDX 1 23
REMARK H PARENT 7 24 2 25
REMARK Flexibility Score: inf
ROOT
ATOM      1  N   UNL     1     134.602 132.990 128.457  1.00  0.00    -0.237 N 
ATOM      2  C   UNL     1     134.062 133.884 129.243  1.00  0.00     0.286 C 
ATOM      3  C   UNL     1     133.189 134.986 128.757  1.00  0.00     0.108 A 
ATOM      4  N   UNL     1     134.350 133.814 130.652  1.00  0.00    -0.250 N 
ATOM      5  C   UNL     1     134.464 132.878 127.030  1.00  0.00     0.168 A 
ATOM      6  C   UNL     1     135.547 132.361 126.297  1.00  0.00     0.056 A 
ATOM      7  C   UNL     1     133.231 133.079 126.376  1.00  0.00     0.173 A 
ATOM      8  C   UNL     1     135.412 132.060 124.940  1.00  0.00     0.005 A 
ATOM      9  C   UNL     1     133.097 132.741 125.022  1.00  0.00     0.052 A 
ATOM     10  O   UNL     1     132.123 133.614 127.027  1.00  0.00    -0.452 OA
ATOM     11  C   UNL     1     134.185 132.243 124.305  1.00  0.00     0.004 A 
ATOM     12  C   UNL     1     132.200 134.785 127.773  1.00  0.00     0.143 A 
ATOM     13  C   UNL     1     131.262 135.790 127.509  1.00  0.00     0.049 A 
ATOM     14  C   UNL     1     131.333 137.018 128.168  1.00  0.00     0.024 A 
ATOM     15  C   UNL     1     132.339 137.247 129.105  1.00  0.00     0.042 A 
ATOM     16  C   UNL     1     133.257 136.236 129.402  1.00  0.00     0.041 A 
ATOM     17  Cl  UNL     1     132.436 138.791 129.932  1.00  0.00    -0.084 Cl
ATOM     18  C   UNL     1     133.261 133.840 131.630  1.00  0.00     0.298 C 
ATOM     19  C   UNL     1     135.719 134.013 131.131  1.00  0.00     0.298 C 
ATOM     20  C   UNL     1     133.596 132.921 132.813  1.00  0.00     0.308 C 
ATOM     21  C   UNL     1     135.995 133.089 132.327  1.00  0.00     0.308 C 
ATOM     22  N   UNL     1     134.946 133.173 133.368  1.00  0.00    -0.331 N 
ATOM     23  C   UNL     1     135.010 134.439 134.125  1.00  0.00     0.332 C 
ATOM     24  H   UNL     1     135.236 132.286 128.902  1.00  0.00     0.312 HD
ATOM     25  H   UNL     1     135.140 132.407 134.057  1.00  0.00     0.348 HD
ENDROOT
TORSDOF 0
ENDMDL
MODEL 8
REMARK VINA RESULT:    -5.721      3.474      5.284
REMARK INTER + INTRA:          -5.721
REMARK INTER:                  -5.721
REMARK INTRA:                   0.000
REMARK UNBOUND:                 0.000
REMARK SMILES C[NH+]1CCN(C2=[NH+]c3ccccc3Oc3ccc(Cl)cc32)CC1
REMARK SMILES IDX 7 1 6 2 21 3 5 4 8 5 9 6 13 7 10 8 12 9 14 10 11 11 15 12
REMARK SMILES IDX 16 13 17 14 18 15 20 16 19 17 4 18 22 19 3 20 23 21 2 22
REMARK SMILES IDX 1 23
REMARK H PARENT 7 24 2 25
REMARK Flexibility Score: inf
ROOT
ATOM      1  N   UNL     1     134.860 135.778 129.782  1.00  0.00    -0.237 N 
ATOM      2  C   UNL     1     133.819 136.417 129.317  1.00  0.00     0.286 C 
ATOM      3  C   UNL     1     133.267 137.651 129.940  1.00  0.00     0.108 A 
ATOM      4  N   UNL     1     133.154 135.883 128.157  1.00  0.00    -0.250 N 
ATOM      5  C   UNL     1     135.661 136.119 130.926  1.00  0.00     0.168 A 
ATOM      6  C   UNL     1     136.251 135.074 131.660  1.00  0.00     0.056 A 
ATOM      7  C   UNL     1     136.031 137.449 131.215  1.00  0.00     0.173 A 
ATOM      8  C   UNL     1     137.181 135.345 132.666  1.00  0.00     0.005 A 
ATOM      9  C   UNL     1     136.991 137.707 132.203  1.00  0.00     0.052 A 
ATOM     10  O   UNL     1     135.470 138.537 130.552  1.00  0.00    -0.452 OA
ATOM     11  C   UNL     1     137.557 136.660 132.933  1.00  0.00     0.004 A 
ATOM     12  C   UNL     1     134.094 138.688 130.416  1.00  0.00     0.143 A 
ATOM     13  C   UNL     1     133.532 139.916 130.788  1.00  0.00     0.049 A 
ATOM     14  C   UNL     1     132.150 140.105 130.748  1.00  0.00     0.024 A 
ATOM     15  C   UNL     1     131.319 139.068 130.328  1.00  0.00     0.042 A 
ATOM     16  C   UNL     1     131.873 137.851 129.921  1.00  0.00     0.041 A 
ATOM     17  Cl  UNL     1     129.580 139.298 130.283  1.00  0.00    -0.084 Cl
ATOM     18  C   UNL     1     132.871 136.744 127.008  1.00  0.00     0.298 C 
ATOM     19  C   UNL     1     132.499 134.576 128.225  1.00  0.00     0.298 C 
ATOM     20  C   UNL     1     133.034 135.949 125.705  1.00  0.00     0.308 C 
ATOM     21  C   UNL     1     132.671 133.833 126.892  1.00  0.00     0.308 C 
ATOM     22  N   UNL     1     132.300 134.663 125.724  1.00  0.00    -0.331 N 
ATOM     23  C   UNL     1     130.840 134.853 125.614  1.00  0.00     0.332 C 
ATOM     24  H   UNL     1     135.134 134.895 129.292  1.00  0.00     0.312 HD
ATOM     25  H   UNL     1     132.594 134.133 124.868  1.00  0.00     0.348 HD
ENDROOT
TORSDOF 0
ENDMDL
MODEL 9
REMARK VINA RESULT:    -5.711      7.265      9.195
REMARK INTER + INTRA:          -5.711
REMARK INTER:                  -5.711
REMARK INTRA:                   0.000
REMARK UNBOUND:                 0.000
REMARK SMILES C[NH+]1CCN(C2=[NH+]c3ccccc3Oc3ccc(Cl)cc32)CC1
REMARK SMILES IDX 7 1 6 2 21 3 5 4 8 5 9 6 13 7 10 8 12 9 14 10 11 11 15 12
REMARK SMILES IDX 16 13 17 14 18 15 20 16 19 17 4 18 22 19 3 20 23 21 2 22
REMARK SMILES IDX 1 23
REMARK H PARENT 7 24 2 25
REMARK Flexibility Score: inf
ROOT
ATOM      1  N   UNL     1     130.694 135.030 124.796  1.00  0.00    -0.237 N 
ATOM      2  C   UNL     1     131.921 134.749 124.441  1.00  0.00     0.286 C 
ATOM      3  C   UNL     1     132.371 133.385 124.051  1.00  0.00     0.108 A 
ATOM      4  N   UNL     1     132.894 135.810 124.457  1.00  0.00    -0.250 N 
ATOM      5  C   UNL     1     129.574 134.131 124.867  1.00  0.00     0.168 A 
ATOM      6  C   UNL     1     128.587 134.377 125.839  1.00  0.00     0.056 A 
ATOM      7  C   UNL     1     129.334 133.148 123.885  1.00  0.00     0.173 A 
ATOM      8  C   UNL     1     127.393 133.653 125.842  1.00  0.00     0.005 A 
ATOM      9  C   UNL     1     128.118 132.452 123.877  1.00  0.00     0.052 A 
ATOM     10  O   UNL     1     130.274 132.829 122.909  1.00  0.00    -0.452 OA
ATOM     11  C   UNL     1     127.155 132.697 124.857  1.00  0.00     0.004 A 
ATOM     12  C   UNL     1     131.598 132.545 123.225  1.00  0.00     0.143 A 
ATOM     13  C   UNL     1     132.156 131.370 122.707  1.00  0.00     0.049 A 
ATOM     14  C   UNL     1     133.454 130.989 123.049  1.00  0.00     0.024 A 
ATOM     15  C   UNL     1     134.209 131.787 123.907  1.00  0.00     0.042 A 
ATOM     16  C   UNL     1     133.674 132.980 124.400  1.00  0.00     0.041 A 
ATOM     17  Cl  UNL     1     135.839 131.308 124.346  1.00  0.00    -0.084 Cl
ATOM     18  C   UNL     1     133.736 136.055 123.285  1.00  0.00     0.298 C 
ATOM     19  C   UNL     1     133.255 136.455 125.720  1.00  0.00     0.298 C 
ATOM     20  C   UNL     1     133.973 137.562 123.115  1.00  0.00     0.308 C 
ATOM     21  C   UNL     1     133.504 137.953 125.492  1.00  0.00     0.308 C 
ATOM     22  N   UNL     1     134.429 138.213 124.365  1.00  0.00    -0.331 N 
ATOM     23  C   UNL     1     135.825 137.867 124.697  1.00  0.00     0.332 C 
ATOM     24  H   UNL     1     130.499 136.013 125.095  1.00  0.00     0.312 HD
ATOM     25  H   UNL     1     134.414 139.247 124.192  1.00  0.00     0.348 HD
ENDROOT
TORSDOF 0
ENDMDL
