MODEL 1
REMARK VINA RESULT:    -4.812      0.000      0.000
REMARK INTER + INTRA:          -6.165
REMARK INTER:                  -5.937
REMARK INTRA:                  -0.228
REMARK UNBOUND:                -0.228
REMARK SMILES CCCCC=CC(C)=O
REMARK SMILES IDX 4 1 3 2 2 3 1 4 5 5 6 6 7 7 9 8 8 9
REMARK H PARENT
REMARK Flexibility Score: inf
ROOT
ATOM      1  C   UNL     1      25.999  13.960  82.049  1.00  0.00     0.027 C 
ENDROOT
BRANCH   1   2
ATOM      2  C   UNL     1      26.732  14.427  80.785  1.00  0.00     0.004 C 
BRANCH   2   3
ATOM      3  C   UNL     1      25.842  15.273  79.866  1.00  0.00    -0.003 C 
ATOM      4  C   UNL     1      26.030  14.879  78.403  1.00  0.00     0.004 C 
ENDBRANCH   2   3
ENDBRANCH   1   2
BRANCH   1   5
ATOM      5  C   UNL     1      26.627  14.521  83.299  1.00  0.00    -0.023 C 
ATOM      6  C   UNL     1      27.657  13.999  83.989  1.00  0.00     0.042 C 
BRANCH   6   7
ATOM      7  C   UNL     1      28.423  12.775  83.662  1.00  0.00     0.152 C 
ATOM      8  O   UNL     1      29.211  12.725  82.681  1.00  0.00    -0.295 OA
ATOM      9  C   UNL     1      28.330  11.592  84.572  1.00  0.00     0.093 C 
ENDBRANCH   6   7
ENDBRANCH   1   5
TORSDOF 4
ENDMDL
MODEL 2
REMARK VINA RESULT:    -4.812      2.386      4.664
REMARK INTER + INTRA:          -6.165
REMARK INTER:                  -5.769
REMARK INTRA:                  -0.396
REMARK UNBOUND:                -0.228
REMARK SMILES CCCCC=CC(C)=O
REMARK SMILES IDX 4 1 3 2 2 3 1 4 5 5 6 6 7 7 9 8 8 9
REMARK H PARENT
REMARK Flexibility Score: inf
ROOT
ATOM      1  C   UNL     1      27.121  13.329  81.799  1.00  0.00     0.027 C 
ENDROOT
BRANCH   1   2
ATOM      2  C   UNL     1      28.292  13.448  82.783  1.00  0.00     0.004 C 
BRANCH   2   3
ATOM      3  C   UNL     1      27.888  13.109  84.224  1.00  0.00    -0.003 C 
ATOM      4  C   UNL     1      28.303  11.687  84.592  1.00  0.00     0.004 C 
ENDBRANCH   2   3
ENDBRANCH   1   2
BRANCH   1   5
ATOM      5  C   UNL     1      25.881  14.007  82.322  1.00  0.00    -0.023 C 
ATOM      6  C   UNL     1      25.511  15.283  82.117  1.00  0.00     0.042 C 
BRANCH   6   7
ATOM      7  C   UNL     1      26.221  16.301  81.310  1.00  0.00     0.152 C 
ATOM      8  O   UNL     1      25.948  16.496  80.096  1.00  0.00    -0.295 OA
ATOM      9  C   UNL     1      27.228  17.186  81.973  1.00  0.00     0.093 C 
ENDBRANCH   6   7
ENDBRANCH   1   5
TORSDOF 4
ENDMDL
MODEL 3
REMARK VINA RESULT:    -4.746      2.192      2.908
REMARK INTER + INTRA:          -6.084
REMARK INTER:                  -5.486
REMARK INTRA:                  -0.599
REMARK UNBOUND:                -0.228
REMARK SMILES CCCCC=CC(C)=O
REMARK SMILES IDX 4 1 3 2 2 3 1 4 5 5 6 6 7 7 9 8 8 9
REMARK H PARENT
REMARK Flexibility Score: inf
ROOT
ATOM      1  C   UNL     1      25.737  14.991  82.491  1.00  0.00     0.027 C 
ENDROOT
BRANCH   1   2
ATOM      2  C   UNL     1      25.167  15.773  81.301  1.00  0.00     0.004 C 
BRANCH   2   3
ATOM      3  C   UNL     1      26.024  16.992  80.932  1.00  0.00    -0.003 C 
ATOM      4  C   UNL     1      27.086  17.260  81.995  1.00  0.00     0.004 C 
ENDBRANCH   2   3
ENDBRANCH   1   2
BRANCH   1   5
ATOM      5  C   UNL     1      26.129  13.588  82.101  1.00  0.00    -0.023 C 
ATOM      6  C   UNL     1      27.328  13.181  81.649  1.00  0.00     0.042 C 
BRANCH   6   7
ATOM      7  C   UNL     1      28.541  14.009  81.460  1.00  0.00     0.152 C 
ATOM      8  O   UNL     1      29.320  14.275  82.413  1.00  0.00    -0.295 OA
ATOM      9  C   UNL     1      28.901  14.470  80.084  1.00  0.00     0.093 C 
ENDBRANCH   6   7
ENDBRANCH   1   5
TORSDOF 4
ENDMDL
MODEL 4
REMARK VINA RESULT:    -4.728      2.145      4.248
REMARK INTER + INTRA:          -6.062
REMARK INTER:                  -5.656
REMARK INTRA:                  -0.406
REMARK UNBOUND:                -0.228
REMARK SMILES CCCCC=CC(C)=O
REMARK SMILES IDX 4 1 3 2 2 3 1 4 5 5 6 6 7 7 9 8 8 9
REMARK H PARENT
REMARK Flexibility Score: inf
ROOT
ATOM      1  C   UNL     1      26.626  14.306  82.953  1.00  0.00     0.027 C 
ENDROOT
BRANCH   1   2
ATOM      2  C   UNL     1      27.528  13.819  84.094  1.00  0.00     0.004 C 
BRANCH   2   3
ATOM      3  C   UNL     1      28.399  12.623  83.687  1.00  0.00    -0.003 C 
ATOM      4  C   UNL     1      28.346  11.520  84.741  1.00  0.00     0.004 C 
ENDBRANCH   2   3
ENDBRANCH   1   2
BRANCH   1   5
ATOM      5  C   UNL     1      26.970  15.712  82.530  1.00  0.00    -0.023 C 
ATOM      6  C   UNL     1      27.900  16.079  81.631  1.00  0.00     0.042 C 
BRANCH   6   7
ATOM      7  C   UNL     1      28.774  15.188  80.833  1.00  0.00     0.152 C 
ATOM      8  O   UNL     1      28.424  14.745  79.708  1.00  0.00    -0.295 OA
ATOM      9  C   UNL     1      30.148  14.876  81.335  1.00  0.00     0.093 C 
ENDBRANCH   6   7
ENDBRANCH   1   5
TORSDOF 4
ENDMDL
MODEL 5
REMARK VINA RESULT:    -4.664      1.857      2.703
REMARK INTER + INTRA:          -5.983
REMARK INTER:                  -5.513
REMARK INTRA:                  -0.470
REMARK UNBOUND:                -0.228
REMARK SMILES CCCCC=CC(C)=O
REMARK SMILES IDX 4 1 3 2 2 3 1 4 5 5 6 6 7 7 9 8 8 9
REMARK H PARENT
REMARK Flexibility Score: inf
ROOT
ATOM      1  C   UNL     1      26.264  15.767  80.071  1.00  0.00     0.027 C 
ENDROOT
BRANCH   1   2
ATOM      2  C   UNL     1      25.941  14.929  78.827  1.00  0.00     0.004 C 
BRANCH   2   3
ATOM      3  C   UNL     1      27.177  14.226  78.253  1.00  0.00    -0.003 C 
ATOM      4  C   UNL     1      28.408  14.481  79.119  1.00  0.00     0.004 C 
ENDBRANCH   2   3
ENDBRANCH   1   2
BRANCH   1   5
ATOM      5  C   UNL     1      25.210  15.613  81.138  1.00  0.00    -0.023 C 
ATOM      6  C   UNL     1      25.305  14.889  82.267  1.00  0.00     0.042 C 
BRANCH   6   7
ATOM      7  C   UNL     1      26.471  14.105  82.731  1.00  0.00     0.152 C 
ATOM      8  O   UNL     1      27.167  14.467  83.716  1.00  0.00    -0.295 OA
ATOM      9  C   UNL     1      26.782  12.799  82.071  1.00  0.00     0.093 C 
ENDBRANCH   6   7
ENDBRANCH   1   5
TORSDOF 4
ENDMDL
MODEL 6
REMARK VINA RESULT:    -4.621      2.306      2.980
REMARK INTER + INTRA:          -5.930
REMARK INTER:                  -5.381
REMARK INTRA:                  -0.549
REMARK UNBOUND:                -0.228
REMARK SMILES CCCCC=CC(C)=O
REMARK SMILES IDX 4 1 3 2 2 3 1 4 5 5 6 6 7 7 9 8 8 9
REMARK H PARENT
REMARK Flexibility Score: inf
ROOT
ATOM      1  C   UNL     1      28.832  14.574  80.682  1.00  0.00     0.027 C 
ENDROOT
BRANCH   1   2
ATOM      2  C   UNL     1      28.387  14.452  79.219  1.00  0.00     0.004 C 
BRANCH   2   3
ATOM      3  C   UNL     1      26.940  13.960  79.082  1.00  0.00    -0.003 C 
ATOM      4  C   UNL     1      26.066  15.007  78.396  1.00  0.00     0.004 C 
ENDBRANCH   2   3
ENDBRANCH   1   2
BRANCH   1   5
ATOM      5  C   UNL     1      28.421  15.895  81.283  1.00  0.00    -0.023 C 
ATOM      6  C   UNL     1      27.456  16.100  82.196  1.00  0.00     0.042 C 
BRANCH   6   7
ATOM      7  C   UNL     1      26.600  15.077  82.839  1.00  0.00     0.152 C 
ATOM      8  O   UNL     1      26.975  14.444  83.861  1.00  0.00    -0.295 OA
ATOM      9  C   UNL     1      25.217  14.851  82.317  1.00  0.00     0.093 C 
ENDBRANCH   6   7
ENDBRANCH   1   5
TORSDOF 4
ENDMDL
MODEL 7
REMARK VINA RESULT:    -4.530      2.810      3.900
REMARK INTER + INTRA:          -5.817
REMARK INTER:                  -5.333
REMARK INTRA:                  -0.485
REMARK UNBOUND:                -0.228
REMARK SMILES CCCCC=CC(C)=O
REMARK SMILES IDX 4 1 3 2 2 3 1 4 5 5 6 6 7 7 9 8 8 9
REMARK H PARENT
REMARK Flexibility Score: inf
ROOT
ATOM      1  C   UNL     1      27.016  13.754  82.186  1.00  0.00     0.027 C 
ENDROOT
BRANCH   1   2
ATOM      2  C   UNL     1      27.143  12.859  80.947  1.00  0.00     0.004 C 
BRANCH   2   3
ATOM      3  C   UNL     1      27.511  13.649  79.684  1.00  0.00    -0.003 C 
ATOM      4  C   UNL     1      28.799  14.442  79.887  1.00  0.00     0.004 C 
ENDBRANCH   2   3
ENDBRANCH   1   2
BRANCH   1   5
ATOM      5  C   UNL     1      25.633  14.341  82.313  1.00  0.00    -0.023 C 
ATOM      6  C   UNL     1      25.234  15.559  81.909  1.00  0.00     0.042 C 
BRANCH   6   7
ATOM      7  C   UNL     1      26.050  16.586  81.223  1.00  0.00     0.152 C 
ATOM      8  O   UNL     1      25.803  16.954  80.044  1.00  0.00    -0.295 OA
ATOM      9  C   UNL     1      27.143  17.272  81.978  1.00  0.00     0.093 C 
ENDBRANCH   6   7
ENDBRANCH   1   5
TORSDOF 4
ENDMDL
MODEL 8
REMARK VINA RESULT:    -4.511      2.265      3.986
REMARK INTER + INTRA:          -5.795
REMARK INTER:                  -5.295
REMARK INTRA:                  -0.499
REMARK UNBOUND:                -0.228
REMARK SMILES CCCCC=CC(C)=O
REMARK SMILES IDX 4 1 3 2 2 3 1 4 5 5 6 6 7 7 9 8 8 9
REMARK H PARENT
REMARK Flexibility Score: inf
ROOT
ATOM      1  C   UNL     1      27.370  13.135  81.252  1.00  0.00     0.027 C 
ENDROOT
BRANCH   1   2
ATOM      2  C   UNL     1      26.612  13.598  82.503  1.00  0.00     0.004 C 
BRANCH   2   3
ATOM      3  C   UNL     1      27.535  13.796  83.712  1.00  0.00    -0.003 C 
ATOM      4  C   UNL     1      28.170  12.477  84.143  1.00  0.00     0.004 C 
ENDBRANCH   2   3
ENDBRANCH   1   2
BRANCH   1   5
ATOM      5  C   UNL     1      27.819  14.300  80.408  1.00  0.00    -0.023 C 
ATOM      6  C   UNL     1      29.085  14.683  80.169  1.00  0.00     0.042 C 
BRANCH   6   7
ATOM      7  C   UNL     1      30.323  14.033  80.655  1.00  0.00     0.152 C 
ATOM      8  O   UNL     1      30.981  13.234  79.937  1.00  0.00    -0.295 OA
ATOM      9  C   UNL     1      30.859  14.401  82.002  1.00  0.00     0.093 C 
ENDBRANCH   6   7
ENDBRANCH   1   5
TORSDOF 4
ENDMDL
MODEL 9
REMARK VINA RESULT:    -4.490      2.195      3.781
REMARK INTER + INTRA:          -5.769
REMARK INTER:                  -5.202
REMARK INTRA:                  -0.567
REMARK UNBOUND:                -0.228
REMARK SMILES CCCCC=CC(C)=O
REMARK SMILES IDX 4 1 3 2 2 3 1 4 5 5 6 6 7 7 9 8 8 9
REMARK H PARENT
REMARK Flexibility Score: inf
ROOT
ATOM      1  C   UNL     1      26.211  16.087  80.452  1.00  0.00     0.027 C 
ENDROOT
BRANCH   1   2
ATOM      2  C   UNL     1      25.032  15.951  81.424  1.00  0.00     0.004 C 
BRANCH   2   3
ATOM      3  C   UNL     1      25.215  14.793  82.414  1.00  0.00    -0.003 C 
ATOM      4  C   UNL     1      26.550  14.900  83.146  1.00  0.00     0.004 C 
ENDBRANCH   2   3
ENDBRANCH   1   2
BRANCH   1   5
ATOM      5  C   UNL     1      26.053  15.187  79.252  1.00  0.00    -0.023 C 
ATOM      6  C   UNL     1      26.785  14.099  78.959  1.00  0.00     0.042 C 
BRANCH   6   7
ATOM      7  C   UNL     1      27.890  13.521  79.758  1.00  0.00     0.152 C 
ATOM      8  O   UNL     1      29.037  14.039  79.779  1.00  0.00    -0.295 OA
ATOM      9  C   UNL     1      27.615  12.342  80.636  1.00  0.00     0.093 C 
ENDBRANCH   6   7
ENDBRANCH   1   5
TORSDOF 4
ENDMDL
