MODEL 1
REMARK VINA RESULT:    -3.056      0.000      0.000
REMARK INTER + INTRA:          -4.173
REMARK INTER:                  -4.306
REMARK INTRA:                   0.133
REMARK UNBOUND:                 0.133
REMARK SMILES CC1=CCC(=C(C)C)C(=O)CC(C)=CCC1
REMARK SMILES IDX 12 1 14 2 13 3 15 4 16 5 2 6 1 7 3 8 11 10 9 11 10 12 5 13
REMARK SMILES IDX 6 14 7 15 8 16 4 17
REMARK H PARENT
REMARK Flexibility Score: 60.00
ROOT
ATOM      1  C   UNL     1     -38.831  -8.543  48.070  1.00  0.00    -0.070 C 
ATOM      2  C   UNL     1     -37.899  -9.065  47.241  1.00  0.00    -0.027 C 
ATOM      3  C   UNL     1     -39.603  -9.493  48.951  1.00  0.00     0.039 C 
ENDROOT
BRANCH   2   4
ATOM      4  C   UNL     1     -36.959  -8.273  46.359  1.00  0.00     0.032 C 
BRANCH   4   5
ATOM      5  C   UNL     1     -35.691  -7.751  47.067  1.00  0.00     0.034 C 
BRANCH   5   6
ATOM      6  C   UNL     1     -35.380  -6.302  46.740  1.00  0.00    -0.077 C 
ATOM      7  C   UNL     1     -34.923  -5.981  45.339  1.00  0.00     0.039 C 
ATOM      8  C   UNL     1     -35.548  -5.270  47.603  1.00  0.00    -0.023 CG0
ATOM      9  G   UNL     1     -35.975  -5.354  49.056  1.00  0.00     0.000 G0
ENDBRANCH   5   6
ENDBRANCH   4   5
ENDBRANCH   2   4
BRANCH   1  10
ATOM     10  C   UNL     1     -39.068  -7.054  48.223  1.00  0.00     0.111 C 
BRANCH  10  11
ATOM     11  C   UNL     1     -38.274  -6.481  49.368  1.00  0.00     0.163 C 
ATOM     12  O   UNL     1     -38.241  -7.129  50.450  1.00  0.00    -0.294 OA
BRANCH  11  13
ATOM     13  C   UNL     1     -37.486  -5.220  49.245  1.00  0.00    -0.002 C 
ATOM     14  C   UNL     1     -38.095  -4.001  49.362  1.00  0.00    -0.069 C 
ATOM     15  C   UNL     1     -37.304  -2.711  49.401  1.00  0.00     0.039 C 
ATOM     16  C   UNL     1     -39.599  -3.882  49.463  1.00  0.00     0.039 C 
BRANCH  13  17
ATOM     17  C   UNL     1     -35.980  -5.353  49.081  1.00  0.00     0.066 CG0
ATOM     18  G   UNL     1     -35.548  -5.259  47.630  1.00  0.00     0.000 G0
ENDBRANCH  13  17
ENDBRANCH  11  13
ENDBRANCH  10  11
ENDBRANCH   1  10
TORSDOF 0
ENDMDL
MODEL 2
REMARK VINA RESULT:    -2.977     12.112     14.577
REMARK INTER + INTRA:          -4.062
REMARK INTER:                  -4.261
REMARK INTRA:                   0.199
REMARK UNBOUND:                 0.133
REMARK SMILES CC1=CCC(=C(C)C)C(=O)CC(C)=CCC1
REMARK SMILES IDX 12 1 14 2 13 3 15 4 16 5 2 6 1 7 3 8 11 10 9 11 10 12 5 13
REMARK SMILES IDX 6 14 7 15 8 16 4 17
REMARK H PARENT
REMARK Flexibility Score: 60.00
ROOT
ATOM      1  C   UNL     1     -50.938  -0.459  44.301  1.00  0.00    -0.070 C 
ATOM      2  C   UNL     1     -51.771   0.559  44.614  1.00  0.00    -0.027 C 
ATOM      3  C   UNL     1     -51.084  -1.099  42.942  1.00  0.00     0.039 C 
ENDROOT
BRANCH   2   4
ATOM      4  C   UNL     1     -51.716   1.387  45.878  1.00  0.00     0.032 C 
BRANCH   4   5
ATOM      5  C   UNL     1     -50.753   2.592  45.822  1.00  0.00     0.034 C 
BRANCH   5   6
ATOM      6  C   UNL     1     -49.960   2.782  47.103  1.00  0.00    -0.077 C 
ATOM      7  C   UNL     1     -50.701   3.282  48.318  1.00  0.00     0.039 C 
ATOM      8  C   UNL     1     -48.649   2.470  47.244  1.00  0.00    -0.023 CG0
ATOM      9  G   UNL     1     -47.706   1.974  46.164  1.00  0.00     0.000 G0
ENDBRANCH   5   6
ENDBRANCH   4   5
ENDBRANCH   2   4
BRANCH   1  10
ATOM     10  C   UNL     1     -49.812  -0.921  45.204  1.00  0.00     0.111 C 
BRANCH  10  11
ATOM     11  C   UNL     1     -48.544  -0.150  44.949  1.00  0.00     0.163 C 
ATOM     12  O   UNL     1     -48.202   0.051  43.751  1.00  0.00    -0.294 OA
BRANCH  11  13
ATOM     13  C   UNL     1     -47.724   0.431  46.052  1.00  0.00    -0.002 C 
ATOM     14  C   UNL     1     -46.963  -0.373  46.856  1.00  0.00    -0.069 C 
ATOM     15  C   UNL     1     -46.001   0.194  47.877  1.00  0.00     0.039 C 
ATOM     16  C   UNL     1     -47.046  -1.880  46.760  1.00  0.00     0.039 C 
BRANCH  13  17
ATOM     17  C   UNL     1     -47.698   1.946  46.178  1.00  0.00     0.066 CG0
ATOM     18  G   UNL     1     -48.653   2.453  47.242  1.00  0.00     0.000 G0
ENDBRANCH  13  17
ENDBRANCH  11  13
ENDBRANCH  10  11
ENDBRANCH   1  10
TORSDOF 0
ENDMDL
MODEL 3
REMARK VINA RESULT:    -2.905      2.189      4.270
REMARK INTER + INTRA:          -3.961
REMARK INTER:                  -4.138
REMARK INTRA:                   0.177
REMARK UNBOUND:                 0.133
REMARK SMILES CC1=CCC(=C(C)C)C(=O)CC(C)=CCC1
REMARK SMILES IDX 12 1 14 2 13 3 15 4 16 5 2 6 1 7 3 8 11 10 9 11 10 12 5 13
REMARK SMILES IDX 6 14 7 15 8 16 4 17
REMARK H PARENT
REMARK Flexibility Score: 60.00
ROOT
ATOM      1  C   UNL     1     -36.460  -4.378  47.992  1.00  0.00    -0.070 C 
ATOM      2  C   UNL     1     -36.284  -4.163  46.669  1.00  0.00    -0.027 C 
ATOM      3  C   UNL     1     -37.571  -3.630  48.686  1.00  0.00     0.039 C 
ENDROOT
BRANCH   2   4
ATOM      4  C   UNL     1     -35.295  -4.885  45.781  1.00  0.00     0.032 C 
BRANCH   4   5
ATOM      5  C   UNL     1     -35.715  -6.313  45.372  1.00  0.00     0.034 C 
BRANCH   5   6
ATOM      6  C   UNL     1     -34.625  -7.344  45.605  1.00  0.00    -0.077 C 
ATOM      7  C   UNL     1     -33.352  -7.213  44.807  1.00  0.00     0.039 C 
ATOM      8  C   UNL     1     -34.694  -8.334  46.529  1.00  0.00    -0.023 CG0
ATOM      9  G   UNL     1     -35.872  -8.668  47.424  1.00  0.00     0.000 G0
ENDBRANCH   5   6
ENDBRANCH   4   5
ENDBRANCH   2   4
BRANCH   1  10
ATOM     10  C   UNL     1     -35.663  -5.395  48.783  1.00  0.00     0.111 C 
BRANCH  10  11
ATOM     11  C   UNL     1     -36.426  -6.681  48.960  1.00  0.00     0.163 C 
ATOM     12  O   UNL     1     -37.661  -6.610  49.205  1.00  0.00    -0.294 OA
BRANCH  11  13
ATOM     13  C   UNL     1     -35.789  -8.021  48.794  1.00  0.00    -0.002 C 
ATOM     14  C   UNL     1     -35.226  -8.664  49.862  1.00  0.00    -0.069 C 
ATOM     15  C   UNL     1     -34.716 -10.085  49.762  1.00  0.00     0.039 C 
ATOM     16  C   UNL     1     -35.090  -7.983  51.205  1.00  0.00     0.039 C 
BRANCH  13  17
ATOM     17  C   UNL     1     -35.878  -8.669  47.422  1.00  0.00     0.066 CG0
ATOM     18  G   UNL     1     -34.696  -8.318  46.540  1.00  0.00     0.000 G0
ENDBRANCH  13  17
ENDBRANCH  11  13
ENDBRANCH  10  11
ENDBRANCH   1  10
TORSDOF 0
ENDMDL
MODEL 4
REMARK VINA RESULT:    -2.880      2.667      4.798
REMARK INTER + INTRA:          -3.925
REMARK INTER:                  -4.483
REMARK INTRA:                   0.558
REMARK UNBOUND:                 0.133
REMARK SMILES CC1=CCC(=C(C)C)C(=O)CC(C)=CCC1
REMARK SMILES IDX 12 1 14 2 13 3 15 4 16 5 2 6 1 7 3 8 11 10 9 11 10 12 5 13
REMARK SMILES IDX 6 14 7 15 8 16 4 17
REMARK H PARENT
REMARK Flexibility Score: 60.00
ROOT
ATOM      1  C   UNL     1     -38.347  -8.255  47.821  1.00  0.00    -0.070 C 
ATOM      2  C   UNL     1     -38.384  -9.151  48.833  1.00  0.00    -0.027 C 
ATOM      3  C   UNL     1     -39.156  -6.990  47.968  1.00  0.00     0.039 C 
ENDROOT
BRANCH   2   4
ATOM      4  C   UNL     1     -37.571 -10.423  48.916  1.00  0.00     0.032 C 
BRANCH   4   5
ATOM      5  C   UNL     1     -36.439 -10.401  49.965  1.00  0.00     0.034 C 
BRANCH   5   6
ATOM      6  C   UNL     1     -35.769  -9.045  50.092  1.00  0.00    -0.077 C 
ATOM      7  C   UNL     1     -36.087  -8.217  51.312  1.00  0.00     0.039 C 
ATOM      8  C   UNL     1     -34.855  -8.559  49.217  1.00  0.00    -0.023 CG0
ATOM      9  G   UNL     1     -34.398  -9.202  47.921  1.00  0.00     0.000 G0
ENDBRANCH   5   6
ENDBRANCH   4   5
ENDBRANCH   2   4
BRANCH   1  10
ATOM     10  C   UNL     1     -37.464  -8.415  46.600  1.00  0.00     0.111 C 
BRANCH  10  11
ATOM     11  C   UNL     1     -36.143  -7.715  46.774  1.00  0.00     0.163 C 
ATOM     12  O   UNL     1     -36.155  -6.484  47.051  1.00  0.00    -0.294 OA
BRANCH  11  13
ATOM     13  C   UNL     1     -34.837  -8.434  46.693  1.00  0.00    -0.002 C 
ATOM     14  C   UNL     1     -34.051  -8.332  45.579  1.00  0.00    -0.069 C 
ATOM     15  C   UNL     1     -32.656  -8.916  45.527  1.00  0.00     0.039 C 
ATOM     16  C   UNL     1     -34.540  -7.622  44.336  1.00  0.00     0.039 C 
BRANCH  13  17
ATOM     17  C   UNL     1     -34.385  -9.197  47.929  1.00  0.00     0.066 CG0
ATOM     18  G   UNL     1     -34.852  -8.541  49.214  1.00  0.00     0.000 G0
ENDBRANCH  13  17
ENDBRANCH  11  13
ENDBRANCH  10  11
ENDBRANCH   1  10
TORSDOF 0
ENDMDL
MODEL 5
REMARK VINA RESULT:    -2.847      1.626      2.259
REMARK INTER + INTRA:          -3.879
REMARK INTER:                  -4.158
REMARK INTRA:                   0.279
REMARK UNBOUND:                 0.133
REMARK SMILES CC1=CCC(=C(C)C)C(=O)CC(C)=CCC1
REMARK SMILES IDX 12 1 14 2 13 3 15 4 16 5 2 6 1 7 3 8 11 10 9 11 10 12 5 13
REMARK SMILES IDX 6 14 7 15 8 16 4 17
REMARK H PARENT
REMARK Flexibility Score: 60.00
ROOT
ATOM      1  C   UNL     1     -36.083  -8.389  48.576  1.00  0.00    -0.070 C 
ATOM      2  C   UNL     1     -35.488  -8.966  47.507  1.00  0.00    -0.027 C 
ATOM      3  C   UNL     1     -37.519  -8.748  48.864  1.00  0.00     0.039 C 
ENDROOT
BRANCH   2   4
ATOM      4  C   UNL     1     -34.036  -8.810  47.114  1.00  0.00     0.032 C 
BRANCH   4   5
ATOM      5  C   UNL     1     -33.569  -7.351  46.926  1.00  0.00     0.034 C 
BRANCH   5   6
ATOM      6  C   UNL     1     -34.399  -6.585  45.912  1.00  0.00    -0.077 C 
ATOM      7  C   UNL     1     -34.427  -7.100  44.495  1.00  0.00     0.039 C 
ATOM      8  C   UNL     1     -35.169  -5.510  46.211  1.00  0.00    -0.023 CG0
ATOM      9  G   UNL     1     -35.282  -4.810  47.552  1.00  0.00     0.000 G0
ENDBRANCH   5   6
ENDBRANCH   4   5
ENDBRANCH   2   4
BRANCH   1  10
ATOM     10  C   UNL     1     -35.353  -7.479  49.543  1.00  0.00     0.111 C 
BRANCH  10  11
ATOM     11  C   UNL     1     -36.005  -6.124  49.631  1.00  0.00     0.163 C 
ATOM     12  O   UNL     1     -36.176  -5.621  50.774  1.00  0.00    -0.294 OA
BRANCH  11  13
ATOM     13  C   UNL     1     -36.392  -5.342  48.420  1.00  0.00    -0.002 C 
ATOM     14  C   UNL     1     -37.706  -5.064  48.158  1.00  0.00    -0.069 C 
ATOM     15  C   UNL     1     -38.120  -4.142  47.032  1.00  0.00     0.039 C 
ATOM     16  C   UNL     1     -38.816  -5.666  48.991  1.00  0.00     0.039 C 
BRANCH  13  17
ATOM     17  C   UNL     1     -35.268  -4.794  47.556  1.00  0.00     0.066 CG0
ATOM     18  G   UNL     1     -35.170  -5.503  46.219  1.00  0.00     0.000 G0
ENDBRANCH  13  17
ENDBRANCH  11  13
ENDBRANCH  10  11
ENDBRANCH   1  10
TORSDOF 0
ENDMDL
MODEL 6
REMARK VINA RESULT:    -2.832     11.800     14.297
REMARK INTER + INTRA:          -3.857
REMARK INTER:                  -4.325
REMARK INTRA:                   0.467
REMARK UNBOUND:                 0.133
REMARK SMILES CC1=CCC(=C(C)C)C(=O)CC(C)=CCC1
REMARK SMILES IDX 12 1 14 2 13 3 15 4 16 5 2 6 1 7 3 8 11 10 9 11 10 12 5 13
REMARK SMILES IDX 6 14 7 15 8 16 4 17
REMARK H PARENT
REMARK Flexibility Score: 60.00
ROOT
ATOM      1  C   UNL     1     -35.358   2.820  55.193  1.00  0.00    -0.070 C 
ATOM      2  C   UNL     1     -34.449   1.973  55.726  1.00  0.00    -0.027 C 
ATOM      3  C   UNL     1     -36.719   2.270  54.850  1.00  0.00     0.039 C 
ENDROOT
BRANCH   2   4
ATOM      4  C   UNL     1     -33.073   2.354  56.224  1.00  0.00     0.032 C 
BRANCH   4   5
ATOM      5  C   UNL     1     -32.860   2.172  57.743  1.00  0.00     0.034 C 
BRANCH   5   6
ATOM      6  C   UNL     1     -33.996   2.736  58.576  1.00  0.00    -0.077 C 
ATOM      7  C   UNL     1     -34.838   1.764  59.365  1.00  0.00     0.039 C 
ATOM      8  C   UNL     1     -34.262   4.058  58.711  1.00  0.00    -0.023 CG0
ATOM      9  G   UNL     1     -33.568   5.207  58.006  1.00  0.00     0.000 G0
ENDBRANCH   5   6
ENDBRANCH   4   5
ENDBRANCH   2   4
BRANCH   1  10
ATOM     10  C   UNL     1     -35.108   4.304  55.015  1.00  0.00     0.111 C 
BRANCH  10  11
ATOM     11  C   UNL     1     -35.457   5.079  56.258  1.00  0.00     0.163 C 
ATOM     12  O   UNL     1     -36.625   4.965  56.720  1.00  0.00    -0.294 OA
BRANCH  11  13
ATOM     13  C   UNL     1     -34.459   5.917  56.986  1.00  0.00    -0.002 C 
ATOM     14  C   UNL     1     -34.430   7.275  56.817  1.00  0.00    -0.069 C 
ATOM     15  C   UNL     1     -33.542   8.167  57.656  1.00  0.00     0.039 C 
ATOM     16  C   UNL     1     -35.294   7.954  55.778  1.00  0.00     0.039 C 
BRANCH  13  17
ATOM     17  C   UNL     1     -33.553   5.213  57.983  1.00  0.00     0.066 CG0
ATOM     18  G   UNL     1     -34.256   4.074  58.697  1.00  0.00     0.000 G0
ENDBRANCH  13  17
ENDBRANCH  11  13
ENDBRANCH  10  11
ENDBRANCH   1  10
TORSDOF 0
ENDMDL
MODEL 7
REMARK VINA RESULT:    -2.714      2.031      4.910
REMARK INTER + INTRA:          -3.691
REMARK INTER:                  -3.856
REMARK INTRA:                   0.165
REMARK UNBOUND:                 0.133
REMARK SMILES CC1=CCC(=C(C)C)C(=O)CC(C)=CCC1
REMARK SMILES IDX 12 1 14 2 13 3 15 4 16 5 2 6 1 7 3 8 11 10 9 11 10 12 5 13
REMARK SMILES IDX 6 14 7 15 8 16 4 17
REMARK H PARENT
REMARK Flexibility Score: 60.00
ROOT
ATOM      1  C   UNL     1     -37.764  -3.583  46.991  1.00  0.00    -0.070 C 
ATOM      2  C   UNL     1     -38.821  -3.875  47.783  1.00  0.00    -0.027 C 
ATOM      3  C   UNL     1     -37.340  -2.139  46.886  1.00  0.00     0.039 C 
ENDROOT
BRANCH   2   4
ATOM      4  C   UNL     1     -39.333  -5.264  48.093  1.00  0.00     0.032 C 
BRANCH   4   5
ATOM      5  C   UNL     1     -38.786  -5.879  49.400  1.00  0.00     0.034 C 
BRANCH   5   6
ATOM      6  C   UNL     1     -38.361  -7.328  49.244  1.00  0.00    -0.077 C 
ATOM      7  C   UNL     1     -39.436  -8.384  49.293  1.00  0.00     0.039 C 
ATOM      8  C   UNL     1     -37.090  -7.729  48.998  1.00  0.00    -0.023 CG0
ATOM      9  G   UNL     1     -35.853  -6.854  48.926  1.00  0.00     0.000 G0
ENDBRANCH   5   6
ENDBRANCH   4   5
ENDBRANCH   2   4
BRANCH   1  10
ATOM     10  C   UNL     1     -36.935  -4.637  46.287  1.00  0.00     0.111 C 
BRANCH  10  11
ATOM     11  C   UNL     1     -35.734  -5.035  47.104  1.00  0.00     0.163 C 
ATOM     12  O   UNL     1     -34.957  -4.124  47.500  1.00  0.00    -0.294 OA
BRANCH  11  13
ATOM     13  C   UNL     1     -35.471  -6.448  47.508  1.00  0.00    -0.002 C 
ATOM     14  C   UNL     1     -34.845  -7.314  46.654  1.00  0.00    -0.069 C 
ATOM     15  C   UNL     1     -34.423  -8.701  47.089  1.00  0.00     0.039 C 
ATOM     16  C   UNL     1     -34.539  -6.923  45.226  1.00  0.00     0.039 C 
BRANCH  13  17
ATOM     17  C   UNL     1     -35.842  -6.846  48.928  1.00  0.00     0.066 CG0
ATOM     18  G   UNL     1     -37.084  -7.714  48.978  1.00  0.00     0.000 G0
ENDBRANCH  13  17
ENDBRANCH  11  13
ENDBRANCH  10  11
ENDBRANCH   1  10
TORSDOF 0
ENDMDL
MODEL 8
REMARK VINA RESULT:    -2.661      2.256      4.261
REMARK INTER + INTRA:          -3.617
REMARK INTER:                  -4.026
REMARK INTRA:                   0.408
REMARK UNBOUND:                 0.133
REMARK SMILES CC1=CCC(=C(C)C)C(=O)CC(C)=CCC1
REMARK SMILES IDX 12 1 14 2 13 3 15 4 16 5 2 6 1 7 3 8 11 10 9 11 10 12 5 13
REMARK SMILES IDX 6 14 7 15 8 16 4 17
REMARK H PARENT
REMARK Flexibility Score: 60.00
ROOT
ATOM      1  C   UNL     1     -37.307  -7.623  50.654  1.00  0.00    -0.070 C 
ATOM      2  C   UNL     1     -37.227  -8.971  50.724  1.00  0.00    -0.027 C 
ATOM      3  C   UNL     1     -38.248  -6.922  51.602  1.00  0.00     0.039 C 
ENDROOT
BRANCH   2   4
ATOM      4  C   UNL     1     -36.277  -9.841  49.932  1.00  0.00     0.032 C 
BRANCH   4   5
ATOM      5  C   UNL     1     -36.958 -10.804  48.936  1.00  0.00     0.034 C 
BRANCH   5   6
ATOM      6  C   UNL     1     -38.063 -10.145  48.131  1.00  0.00    -0.077 C 
ATOM      7  C   UNL     1     -39.483 -10.579  48.400  1.00  0.00     0.039 C 
ATOM      8  C   UNL     1     -37.865  -9.147  47.235  1.00  0.00    -0.023 CG0
ATOM      9  G   UNL     1     -36.536  -8.566  46.793  1.00  0.00     0.000 G0
ENDBRANCH   5   6
ENDBRANCH   4   5
ENDBRANCH   2   4
BRANCH   1  10
ATOM     10  C   UNL     1     -36.436  -6.784  49.741  1.00  0.00     0.111 C 
BRANCH  10  11
ATOM     11  C   UNL     1     -37.063  -6.606  48.384  1.00  0.00     0.163 C 
ATOM     12  O   UNL     1     -38.159  -5.986  48.314  1.00  0.00    -0.294 OA
BRANCH  11  13
ATOM     13  C   UNL     1     -36.407  -7.078  47.129  1.00  0.00    -0.002 C 
ATOM     14  C   UNL     1     -35.653  -6.226  46.371  1.00  0.00    -0.069 C 
ATOM     15  C   UNL     1     -34.847  -6.709  45.185  1.00  0.00     0.039 C 
ATOM     16  C   UNL     1     -35.584  -4.749  46.686  1.00  0.00     0.039 C 
BRANCH  13  17
ATOM     17  C   UNL     1     -36.536  -8.555  46.789  1.00  0.00     0.066 CG0
ATOM     18  G   UNL     1     -37.861  -9.138  47.243  1.00  0.00     0.000 G0
ENDBRANCH  13  17
ENDBRANCH  11  13
ENDBRANCH  10  11
ENDBRANCH   1  10
TORSDOF 0
ENDMDL
MODEL 9
REMARK VINA RESULT:    -2.566      2.249      4.214
REMARK INTER + INTRA:          -3.483
REMARK INTER:                  -3.754
REMARK INTRA:                   0.271
REMARK UNBOUND:                 0.133
REMARK SMILES CC1=CCC(=C(C)C)C(=O)CC(C)=CCC1
REMARK SMILES IDX 12 1 14 2 13 3 15 4 16 5 2 6 1 7 3 8 11 10 9 11 10 12 5 13
REMARK SMILES IDX 6 14 7 15 8 16 4 17
REMARK H PARENT
REMARK Flexibility Score: 60.00
ROOT
ATOM      1  C   UNL     1     -35.977  -5.782  48.343  1.00  0.00    -0.070 C 
ATOM      2  C   UNL     1     -35.915  -6.796  47.452  1.00  0.00    -0.027 C 
ATOM      3  C   UNL     1     -35.535  -4.414  47.887  1.00  0.00     0.039 C 
ENDROOT
BRANCH   2   4
ATOM      4  C   UNL     1     -36.402  -8.209  47.687  1.00  0.00     0.032 C 
BRANCH   4   5
ATOM      5  C   UNL     1     -37.800  -8.517  47.109  1.00  0.00     0.034 C 
BRANCH   5   6
ATOM      6  C   UNL     1     -38.741  -9.141  48.124  1.00  0.00    -0.077 C 
ATOM      7  C   UNL     1     -38.696 -10.639  48.295  1.00  0.00     0.039 C 
ATOM      8  C   UNL     1     -39.568  -8.436  48.934  1.00  0.00    -0.023 CG0
ATOM      9  G   UNL     1     -39.793  -6.936  48.928  1.00  0.00     0.000 G0
ENDBRANCH   5   6
ENDBRANCH   4   5
ENDBRANCH   2   4
BRANCH   1  10
ATOM     10  C   UNL     1     -36.553  -5.932  49.737  1.00  0.00     0.111 C 
BRANCH  10  11
ATOM     11  C   UNL     1     -37.953  -5.385  49.821  1.00  0.00     0.163 C 
ATOM     12  O   UNL     1     -38.125  -4.157  49.587  1.00  0.00    -0.294 OA
BRANCH  11  13
ATOM     13  C   UNL     1     -39.136  -6.249  50.106  1.00  0.00    -0.002 C 
ATOM     14  C   UNL     1     -39.647  -6.338  51.372  1.00  0.00    -0.069 C 
ATOM     15  C   UNL     1     -40.935  -7.076  51.665  1.00  0.00     0.039 C 
ATOM     16  C   UNL     1     -38.946  -5.696  52.548  1.00  0.00     0.039 C 
BRANCH  13  17
ATOM     17  C   UNL     1     -39.796  -6.940  48.923  1.00  0.00     0.066 CG0
ATOM     18  G   UNL     1     -39.572  -8.439  48.933  1.00  0.00     0.000 G0
ENDBRANCH  13  17
ENDBRANCH  11  13
ENDBRANCH  10  11
ENDBRANCH   1  10
TORSDOF 0
ENDMDL
