MODEL 1
REMARK VINA RESULT:    -3.306      0.000      0.000
REMARK INTER + INTRA:          -4.321
REMARK INTER:                  -4.273
REMARK INTRA:                  -0.049
REMARK UNBOUND:                -0.049
REMARK SMILES CCCCCCC(=O)[O-]
REMARK SMILES IDX 5 1 6 2 7 3 8 4 9 5 4 6 3 7 2 8 1 9
REMARK H PARENT
REMARK Flexibility Score: inf
ROOT
ATOM      1  C   UNL     1      17.814  -8.281  22.656  1.00  0.00     0.006 C 
ENDROOT
BRANCH   1   2
ATOM      2  C   UNL     1      18.826  -8.449  21.518  1.00  0.00     0.053 C 
BRANCH   2   3
ATOM      3  C   UNL     1      18.798  -7.260  20.611  1.00  0.00     0.041 C 
ATOM      4  O   UNL     1      19.365  -6.189  20.951  1.00  0.00    -0.550 OA
ATOM      5  O   UNL     1      18.189  -7.350  19.365  1.00  0.00    -0.550 OA
ENDBRANCH   2   3
ENDBRANCH   1   2
BRANCH   1   6
ATOM      6  C   UNL     1      18.502  -8.377  24.023  1.00  0.00     0.000 C 
BRANCH   6   7
ATOM      7  C   UNL     1      19.664  -7.378  24.125  1.00  0.00    -0.000 C 
BRANCH   7   8
ATOM      8  C   UNL     1      21.036  -8.048  23.954  1.00  0.00    -0.003 C 
ATOM      9  C   UNL     1      21.908  -7.350  22.910  1.00  0.00     0.004 C 
ENDBRANCH   7   8
ENDBRANCH   6   7
ENDBRANCH   1   6
TORSDOF 5
ENDMDL
MODEL 2
REMARK VINA RESULT:    -3.051     14.272     15.849
REMARK INTER + INTRA:          -3.991
REMARK INTER:                  -3.881
REMARK INTRA:                  -0.111
REMARK UNBOUND:                -0.049
REMARK SMILES CCCCCCC(=O)[O-]
REMARK SMILES IDX 5 1 6 2 7 3 8 4 9 5 4 6 3 7 2 8 1 9
REMARK H PARENT
REMARK Flexibility Score: inf
ROOT
ATOM      1  C   UNL     1      16.722  -7.171   7.266  1.00  0.00     0.006 C 
ENDROOT
BRANCH   1   2
ATOM      2  C   UNL     1      18.151  -7.514   6.831  1.00  0.00     0.053 C 
BRANCH   2   3
ATOM      3  C   UNL     1      19.075  -7.494   8.006  1.00  0.00     0.041 C 
ATOM      4  O   UNL     1      19.243  -6.434   8.664  1.00  0.00    -0.550 OA
ATOM      5  O   UNL     1      19.715  -8.661   8.407  1.00  0.00    -0.550 OA
ENDBRANCH   2   3
ENDBRANCH   1   2
BRANCH   1   6
ATOM      6  C   UNL     1      15.714  -7.514   6.163  1.00  0.00     0.000 C 
BRANCH   6   7
ATOM      7  C   UNL     1      15.007  -8.844   6.459  1.00  0.00    -0.000 C 
BRANCH   7   8
ATOM      8  C   UNL     1      13.645  -8.651   7.142  1.00  0.00    -0.003 C 
ATOM      9  C   UNL     1      12.538  -8.273   6.158  1.00  0.00     0.004 C 
ENDBRANCH   7   8
ENDBRANCH   6   7
ENDBRANCH   1   6
TORSDOF 5
ENDMDL
MODEL 3
REMARK VINA RESULT:    -3.040     14.400     16.448
REMARK INTER + INTRA:          -3.977
REMARK INTER:                  -3.729
REMARK INTRA:                  -0.248
REMARK UNBOUND:                -0.049
REMARK SMILES CCCCCCC(=O)[O-]
REMARK SMILES IDX 5 1 6 2 7 3 8 4 9 5 4 6 3 7 2 8 1 9
REMARK H PARENT
REMARK Flexibility Score: inf
ROOT
ATOM      1  C   UNL     1      18.517  -8.191   5.693  1.00  0.00     0.006 C 
ENDROOT
BRANCH   1   2
ATOM      2  C   UNL     1      17.995  -7.502   6.958  1.00  0.00     0.053 C 
BRANCH   2   3
ATOM      3  C   UNL     1      19.047  -7.491   8.021  1.00  0.00     0.041 C 
ATOM      4  O   UNL     1      19.676  -8.545   8.302  1.00  0.00    -0.550 OA
ATOM      5  O   UNL     1      19.369  -6.305   8.668  1.00  0.00    -0.550 OA
ENDBRANCH   2   3
ENDBRANCH   1   2
BRANCH   1   6
ATOM      6  C   UNL     1      18.771  -7.172   4.576  1.00  0.00     0.000 C 
BRANCH   6   7
ATOM      7  C   UNL     1      20.276  -6.982   4.337  1.00  0.00    -0.000 C 
BRANCH   7   8
ATOM      8  C   UNL     1      20.847  -5.774   5.095  1.00  0.00    -0.003 C 
ATOM      9  C   UNL     1      21.155  -4.591   4.177  1.00  0.00     0.004 C 
ENDBRANCH   7   8
ENDBRANCH   6   7
ENDBRANCH   1   6
TORSDOF 5
ENDMDL
MODEL 4
REMARK VINA RESULT:    -3.011     14.065     16.070
REMARK INTER + INTRA:          -3.940
REMARK INTER:                  -3.568
REMARK INTRA:                  -0.372
REMARK UNBOUND:                -0.049
REMARK SMILES CCCCCCC(=O)[O-]
REMARK SMILES IDX 5 1 6 2 7 3 8 4 9 5 4 6 3 7 2 8 1 9
REMARK H PARENT
REMARK Flexibility Score: inf
ROOT
ATOM      1  C   UNL     1      19.800  -7.170   5.894  1.00  0.00     0.006 C 
ENDROOT
BRANCH   1   2
ATOM      2  C   UNL     1      19.563  -8.419   6.750  1.00  0.00     0.053 C 
BRANCH   2   3
ATOM      3  C   UNL     1      19.454  -8.051   8.195  1.00  0.00     0.041 C 
ATOM      4  O   UNL     1      19.115  -6.886   8.529  1.00  0.00    -0.550 OA
ATOM      5  O   UNL     1      19.678  -9.009   9.175  1.00  0.00    -0.550 OA
ENDBRANCH   2   3
ENDBRANCH   1   2
BRANCH   1   6
ATOM      6  C   UNL     1      18.811  -7.109   4.724  1.00  0.00     0.000 C 
BRANCH   6   7
ATOM      7  C   UNL     1      17.557  -7.943   5.021  1.00  0.00    -0.000 C 
BRANCH   7   8
ATOM      8  C   UNL     1      16.351  -7.077   5.419  1.00  0.00    -0.003 C 
ATOM      9  C   UNL     1      16.048  -7.138   6.916  1.00  0.00     0.004 C 
ENDBRANCH   7   8
ENDBRANCH   6   7
ENDBRANCH   1   6
TORSDOF 5
ENDMDL
MODEL 5
REMARK VINA RESULT:    -3.006     18.625     19.432
REMARK INTER + INTRA:          -3.934
REMARK INTER:                  -3.608
REMARK INTRA:                  -0.325
REMARK UNBOUND:                -0.049
REMARK SMILES CCCCCCC(=O)[O-]
REMARK SMILES IDX 5 1 6 2 7 3 8 4 9 5 4 6 3 7 2 8 1 9
REMARK H PARENT
REMARK Flexibility Score: inf
ROOT
ATOM      1  C   UNL     1       9.450  -9.271   5.899  1.00  0.00     0.006 C 
ENDROOT
BRANCH   1   2
ATOM      2  C   UNL     1      10.682  -8.379   6.083  1.00  0.00     0.053 C 
BRANCH   2   3
ATOM      3  C   UNL     1      10.767  -7.368   4.985  1.00  0.00     0.041 C 
ATOM      4  O   UNL     1       9.782  -6.630   4.725  1.00  0.00    -0.550 OA
ATOM      5  O   UNL     1      11.953  -7.205   4.280  1.00  0.00    -0.550 OA
ENDBRANCH   2   3
ENDBRANCH   1   2
BRANCH   1   6
ATOM      6  C   UNL     1       8.852  -9.671   7.253  1.00  0.00     0.000 C 
BRANCH   6   7
ATOM      7  C   UNL     1       7.649  -8.785   7.606  1.00  0.00    -0.000 C 
BRANCH   7   8
ATOM      8  C   UNL     1       6.910  -8.268   6.362  1.00  0.00    -0.003 C 
ATOM      9  C   UNL     1       6.497  -6.801   6.488  1.00  0.00     0.004 C 
ENDBRANCH   7   8
ENDBRANCH   6   7
ENDBRANCH   1   6
TORSDOF 5
ENDMDL
MODEL 6
REMARK VINA RESULT:    -2.934     14.414     16.262
REMARK INTER + INTRA:          -3.840
REMARK INTER:                  -3.548
REMARK INTRA:                  -0.292
REMARK UNBOUND:                -0.049
REMARK SMILES CCCCCCC(=O)[O-]
REMARK SMILES IDX 5 1 6 2 7 3 8 4 9 5 4 6 3 7 2 8 1 9
REMARK H PARENT
REMARK Flexibility Score: inf
ROOT
ATOM      1  C   UNL     1      16.190  -7.060   5.324  1.00  0.00     0.006 C 
ENDROOT
BRANCH   1   2
ATOM      2  C   UNL     1      15.688  -7.553   6.685  1.00  0.00     0.053 C 
BRANCH   2   3
ATOM      3  C   UNL     1      14.443  -8.364   6.523  1.00  0.00     0.041 C 
ATOM      4  O   UNL     1      14.112  -8.798   5.389  1.00  0.00    -0.550 OA
ATOM      5  O   UNL     1      13.671  -8.683   7.633  1.00  0.00    -0.550 OA
ENDBRANCH   2   3
ENDBRANCH   1   2
BRANCH   1   6
ATOM      6  C   UNL     1      17.675  -7.388   5.133  1.00  0.00     0.000 C 
BRANCH   6   7
ATOM      7  C   UNL     1      18.192  -8.278   6.272  1.00  0.00    -0.000 C 
BRANCH   7   8
ATOM      8  C   UNL     1      19.393  -7.661   7.006  1.00  0.00    -0.003 C 
ATOM      9  C   UNL     1      19.019  -7.089   8.374  1.00  0.00     0.004 C 
ENDBRANCH   7   8
ENDBRANCH   6   7
ENDBRANCH   1   6
TORSDOF 5
ENDMDL
MODEL 7
REMARK VINA RESULT:    -2.884     16.117     17.323
REMARK INTER + INTRA:          -3.775
REMARK INTER:                  -3.560
REMARK INTRA:                  -0.215
REMARK UNBOUND:                -0.049
REMARK SMILES CCCCCCC(=O)[O-]
REMARK SMILES IDX 5 1 6 2 7 3 8 4 9 5 4 6 3 7 2 8 1 9
REMARK H PARENT
REMARK Flexibility Score: inf
ROOT
ATOM      1  C   UNL     1      19.843  -7.071   5.796  1.00  0.00     0.006 C 
ENDROOT
BRANCH   1   2
ATOM      2  C   UNL     1      20.072  -6.414   4.431  1.00  0.00     0.053 C 
BRANCH   2   3
ATOM      3  C   UNL     1      21.267  -5.517   4.475  1.00  0.00     0.041 C 
ATOM      4  O   UNL     1      22.416  -5.998   4.658  1.00  0.00    -0.550 OA
ATOM      5  O   UNL     1      21.120  -4.151   4.263  1.00  0.00    -0.550 OA
ENDBRANCH   2   3
ENDBRANCH   1   2
BRANCH   1   6
ATOM      6  C   UNL     1      18.563  -7.915   5.793  1.00  0.00     0.000 C 
BRANCH   6   7
ATOM      7  C   UNL     1      17.605  -7.462   6.905  1.00  0.00    -0.000 C 
BRANCH   7   8
ATOM      8  C   UNL     1      16.163  -7.284   6.405  1.00  0.00    -0.003 C 
ATOM      9  C   UNL     1      16.095  -6.813   4.952  1.00  0.00     0.004 C 
ENDBRANCH   7   8
ENDBRANCH   6   7
ENDBRANCH   1   6
TORSDOF 5
ENDMDL
MODEL 8
REMARK VINA RESULT:    -2.851     18.726     19.722
REMARK INTER + INTRA:          -3.733
REMARK INTER:                  -3.521
REMARK INTRA:                  -0.212
REMARK UNBOUND:                -0.049
REMARK SMILES CCCCCCC(=O)[O-]
REMARK SMILES IDX 5 1 6 2 7 3 8 4 9 5 4 6 3 7 2 8 1 9
REMARK H PARENT
REMARK Flexibility Score: inf
ROOT
ATOM      1  C   UNL     1       7.548  -8.694   7.359  1.00  0.00     0.006 C 
ENDROOT
BRANCH   1   2
ATOM      2  C   UNL     1       6.978  -8.356   5.978  1.00  0.00     0.053 C 
BRANCH   2   3
ATOM      3  C   UNL     1       6.146  -7.116   6.043  1.00  0.00     0.041 C 
ATOM      4  O   UNL     1       6.250  -6.332   7.022  1.00  0.00    -0.550 OA
ATOM      5  O   UNL     1       5.289  -6.797   4.996  1.00  0.00    -0.550 OA
ENDBRANCH   2   3
ENDBRANCH   1   2
BRANCH   1   6
ATOM      6  C   UNL     1       8.850  -9.494   7.237  1.00  0.00     0.000 C 
BRANCH   6   7
ATOM      7  C   UNL     1       9.568  -9.177   5.917  1.00  0.00    -0.000 C 
BRANCH   7   8
ATOM      8  C   UNL     1      10.910  -8.462   6.132  1.00  0.00    -0.003 C 
ATOM      9  C   UNL     1      11.254  -7.496   4.997  1.00  0.00     0.004 C 
ENDBRANCH   7   8
ENDBRANCH   6   7
ENDBRANCH   1   6
TORSDOF 5
ENDMDL
