MODEL 1
REMARK VINA RESULT:    -5.155      0.000      0.000
REMARK INTER + INTRA:          -5.155
REMARK INTER:                  -5.155
REMARK INTRA:                   0.000
REMARK UNBOUND:                 0.000
REMARK SMILES CC(C)=C1CC[C@@H](C)CC1=O
REMARK SMILES IDX 8 1 7 2 6 3 5 4 4 5 2 6 1 7 3 8 10 9 11 10 9 11
REMARK H PARENT
REMARK Flexibility Score: inf
ROOT
ATOM      1  C   UNL     1     -11.708  19.513   4.040  1.00  0.00     0.008 C 
ATOM      2  C   UNL     1     -10.738  19.129   5.163  1.00  0.00    -0.006 C 
ATOM      3  C   UNL     1     -10.816  17.623   5.455  1.00  0.00     0.008 C 
ATOM      4  C   UNL     1      -9.780  17.204   6.506  1.00  0.00     0.039 C 
ATOM      5  C   UNL     1      -9.855  18.048   7.770  1.00  0.00    -0.006 C 
ATOM      6  C   UNL     1      -9.548  17.524   8.993  1.00  0.00    -0.070 C 
ATOM      7  C   UNL     1      -9.103  16.088   9.141  1.00  0.00     0.039 C 
ATOM      8  C   UNL     1      -9.674  18.337  10.262  1.00  0.00     0.039 C 
ATOM      9  C   UNL     1     -10.168  19.495   7.574  1.00  0.00     0.159 C 
ATOM     10  O   UNL     1      -9.700  20.377   8.344  1.00  0.00    -0.295 OA
ATOM     11  C   UNL     1     -11.049  19.927   6.438  1.00  0.00     0.084 C 
ENDROOT
TORSDOF 0
ENDMDL
MODEL 2
REMARK VINA RESULT:    -4.873      5.634      6.783
REMARK INTER + INTRA:          -4.873
REMARK INTER:                  -4.873
REMARK INTRA:                   0.000
REMARK UNBOUND:                 0.000
REMARK SMILES CC(C)=C1CC[C@@H](C)CC1=O
REMARK SMILES IDX 8 1 7 2 6 3 5 4 4 5 2 6 1 7 3 8 10 9 11 10 9 11
REMARK H PARENT
REMARK Flexibility Score: inf
ROOT
ATOM      1  C   UNL     1     -12.422  15.652  12.808  1.00  0.00     0.008 C 
ATOM      2  C   UNL     1     -11.031  16.296  12.804  1.00  0.00    -0.006 C 
ATOM      3  C   UNL     1     -10.366  16.157  14.181  1.00  0.00     0.008 C 
ATOM      4  C   UNL     1      -8.934  16.707  14.167  1.00  0.00     0.039 C 
ATOM      5  C   UNL     1      -8.857  18.126  13.621  1.00  0.00    -0.006 C 
ATOM      6  C   UNL     1      -7.919  19.009  14.072  1.00  0.00    -0.070 C 
ATOM      7  C   UNL     1      -6.905  18.611  15.119  1.00  0.00     0.039 C 
ATOM      8  C   UNL     1      -7.870  20.438  13.579  1.00  0.00     0.039 C 
ATOM      9  C   UNL     1      -9.785  18.445  12.496  1.00  0.00     0.159 C 
ATOM     10  O   UNL     1      -9.463  19.268  11.596  1.00  0.00    -0.295 OA
ATOM     11  C   UNL     1     -11.127  17.778  12.414  1.00  0.00     0.084 C 
ENDROOT
TORSDOF 0
ENDMDL
MODEL 3
REMARK VINA RESULT:    -4.811      2.139      3.420
REMARK INTER + INTRA:          -4.811
REMARK INTER:                  -4.811
REMARK INTRA:                   0.000
REMARK UNBOUND:                 0.000
REMARK SMILES CC(C)=C1CC[C@@H](C)CC1=O
REMARK SMILES IDX 8 1 7 2 6 3 5 4 4 5 2 6 1 7 3 8 10 9 11 10 9 11
REMARK H PARENT
REMARK Flexibility Score: inf
ROOT
ATOM      1  C   UNL     1      -9.119  17.596   6.537  1.00  0.00     0.008 C 
ATOM      2  C   UNL     1      -9.071  17.420   8.059  1.00  0.00    -0.006 C 
ATOM      3  C   UNL     1      -9.691  16.076   8.469  1.00  0.00     0.008 C 
ATOM      4  C   UNL     1      -9.561  15.838   9.979  1.00  0.00     0.039 C 
ATOM      5  C   UNL     1     -10.093  17.003  10.802  1.00  0.00    -0.006 C 
ATOM      6  C   UNL     1     -10.662  16.804  12.027  1.00  0.00    -0.070 C 
ATOM      7  C   UNL     1     -10.771  15.421  12.627  1.00  0.00     0.039 C 
ATOM      8  C   UNL     1     -11.245  17.946  12.829  1.00  0.00     0.039 C 
ATOM      9  C   UNL     1      -9.850  18.366  10.242  1.00  0.00     0.159 C 
ATOM     10  O   UNL     1      -9.670  19.360  10.996  1.00  0.00    -0.295 OA
ATOM     11  C   UNL     1      -9.808  18.573   8.756  1.00  0.00     0.084 C 
ENDROOT
TORSDOF 0
ENDMDL
MODEL 4
REMARK VINA RESULT:    -4.648      1.763      4.561
REMARK INTER + INTRA:          -4.648
REMARK INTER:                  -4.648
REMARK INTRA:                   0.000
REMARK UNBOUND:                 0.000
REMARK SMILES CC(C)=C1CC[C@@H](C)CC1=O
REMARK SMILES IDX 8 1 7 2 6 3 5 4 4 5 2 6 1 7 3 8 10 9 11 10 9 11
REMARK H PARENT
REMARK Flexibility Score: inf
ROOT
ATOM      1  C   UNL     1      -7.586  16.750   9.646  1.00  0.00     0.008 C 
ATOM      2  C   UNL     1      -8.202  17.655   8.574  1.00  0.00    -0.006 C 
ATOM      3  C   UNL     1      -9.583  18.158   9.019  1.00  0.00     0.008 C 
ATOM      4  C   UNL     1     -10.171  19.146   8.003  1.00  0.00     0.039 C 
ATOM      5  C   UNL     1     -10.181  18.591   6.586  1.00  0.00    -0.006 C 
ATOM      6  C   UNL     1     -11.153  18.939   5.694  1.00  0.00    -0.070 C 
ATOM      7  C   UNL     1     -12.252  19.906   6.069  1.00  0.00     0.039 C 
ATOM      8  C   UNL     1     -11.205  18.350   4.302  1.00  0.00     0.039 C 
ATOM      9  C   UNL     1      -9.009  17.745   6.206  1.00  0.00     0.159 C 
ATOM     10  O   UNL     1      -8.573  17.725   5.023  1.00  0.00    -0.295 OA
ATOM     11  C   UNL     1      -8.322  16.902   7.240  1.00  0.00     0.084 C 
ENDROOT
TORSDOF 0
ENDMDL
MODEL 5
REMARK VINA RESULT:    -4.551     14.175     15.495
REMARK INTER + INTRA:          -4.551
REMARK INTER:                  -4.551
REMARK INTRA:                   0.000
REMARK UNBOUND:                 0.000
REMARK SMILES CC(C)=C1CC[C@@H](C)CC1=O
REMARK SMILES IDX 8 1 7 2 6 3 5 4 4 5 2 6 1 7 3 8 10 9 11 10 9 11
REMARK H PARENT
REMARK Flexibility Score: inf
ROOT
ATOM      1  C   UNL     1     -15.132  22.526  21.913  1.00  0.00     0.008 C 
ATOM      2  C   UNL     1     -13.720  23.118  21.830  1.00  0.00    -0.006 C 
ATOM      3  C   UNL     1     -13.110  22.869  20.442  1.00  0.00     0.008 C 
ATOM      4  C   UNL     1     -11.738  23.542  20.307  1.00  0.00     0.039 C 
ATOM      5  C   UNL     1     -10.790  23.170  21.439  1.00  0.00    -0.006 C 
ATOM      6  C   UNL     1      -9.442  23.090  21.237  1.00  0.00    -0.070 C 
ATOM      7  C   UNL     1      -8.831  23.387  19.887  1.00  0.00     0.039 C 
ATOM      8  C   UNL     1      -8.496  22.666  22.338  1.00  0.00     0.039 C 
ATOM      9  C   UNL     1     -11.410  23.014  22.788  1.00  0.00     0.159 C 
ATOM     10  O   UNL     1     -10.774  23.302  23.838  1.00  0.00    -0.295 OA
ATOM     11  C   UNL     1     -12.819  22.513  22.917  1.00  0.00     0.084 C 
ENDROOT
TORSDOF 0
ENDMDL
MODEL 6
REMARK VINA RESULT:    -4.544      5.726      7.190
REMARK INTER + INTRA:          -4.544
REMARK INTER:                  -4.544
REMARK INTRA:                   0.000
REMARK UNBOUND:                 0.000
REMARK SMILES CC(C)=C1CC[C@@H](C)CC1=O
REMARK SMILES IDX 8 1 7 2 6 3 5 4 4 5 2 6 1 7 3 8 10 9 11 10 9 11
REMARK H PARENT
REMARK Flexibility Score: inf
ROOT
ATOM      1  C   UNL     1     -11.757  14.998  12.143  1.00  0.00     0.008 C 
ATOM      2  C   UNL     1     -11.172  16.212  12.872  1.00  0.00    -0.006 C 
ATOM      3  C   UNL     1     -10.504  17.172  11.877  1.00  0.00     0.008 C 
ATOM      4  C   UNL     1     -10.003  18.442  12.577  1.00  0.00     0.039 C 
ATOM      5  C   UNL     1      -9.118  18.137  13.778  1.00  0.00    -0.006 C 
ATOM      6  C   UNL     1      -8.100  18.971  14.139  1.00  0.00    -0.070 C 
ATOM      7  C   UNL     1      -7.818  20.243  13.373  1.00  0.00     0.039 C 
ATOM      8  C   UNL     1      -7.179  18.649  15.294  1.00  0.00     0.039 C 
ATOM      9  C   UNL     1      -9.506  16.945  14.591  1.00  0.00     0.159 C 
ATOM     10  O   UNL     1      -9.304  16.908  15.835  1.00  0.00    -0.295 OA
ATOM     11  C   UNL     1     -10.155  15.763  13.932  1.00  0.00     0.084 C 
ENDROOT
TORSDOF 0
ENDMDL
MODEL 7
REMARK VINA RESULT:    -4.496      2.419      5.540
REMARK INTER + INTRA:          -4.496
REMARK INTER:                  -4.496
REMARK INTRA:                   0.000
REMARK UNBOUND:                 0.000
REMARK SMILES CC(C)=C1CC[C@@H](C)CC1=O
REMARK SMILES IDX 8 1 7 2 6 3 5 4 4 5 2 6 1 7 3 8 10 9 11 10 9 11
REMARK H PARENT
REMARK Flexibility Score: inf
ROOT
ATOM      1  C   UNL     1     -10.750  16.183  13.625  1.00  0.00     0.008 C 
ATOM      2  C   UNL     1     -10.045  16.754  12.390  1.00  0.00    -0.006 C 
ATOM      3  C   UNL     1     -10.709  18.066  11.945  1.00  0.00     0.008 C 
ATOM      4  C   UNL     1      -9.954  18.704  10.772  1.00  0.00     0.039 C 
ATOM      5  C   UNL     1      -9.743  17.735   9.617  1.00  0.00    -0.006 C 
ATOM      6  C   UNL     1      -9.707  18.170   8.323  1.00  0.00    -0.070 C 
ATOM      7  C   UNL     1      -9.856  19.636   7.984  1.00  0.00     0.039 C 
ATOM      8  C   UNL     1      -9.556  17.211   7.164  1.00  0.00     0.039 C 
ATOM      9  C   UNL     1      -9.466  16.316   9.994  1.00  0.00     0.159 C 
ATOM     10  O   UNL     1      -8.723  15.585   9.286  1.00  0.00    -0.295 OA
ATOM     11  C   UNL     1     -10.071  15.737  11.239  1.00  0.00     0.084 C 
ENDROOT
TORSDOF 0
ENDMDL
MODEL 8
REMARK VINA RESULT:    -4.486      1.934      2.701
REMARK INTER + INTRA:          -4.486
REMARK INTER:                  -4.486
REMARK INTRA:                   0.000
REMARK UNBOUND:                 0.000
REMARK SMILES CC(C)=C1CC[C@@H](C)CC1=O
REMARK SMILES IDX 8 1 7 2 6 3 5 4 4 5 2 6 1 7 3 8 10 9 11 10 9 11
REMARK H PARENT
REMARK Flexibility Score: inf
ROOT
ATOM      1  C   UNL     1     -10.778  19.140   3.875  1.00  0.00     0.008 C 
ATOM      2  C   UNL     1     -10.819  18.466   5.251  1.00  0.00    -0.006 C 
ATOM      3  C   UNL     1      -9.905  19.203   6.242  1.00  0.00     0.008 C 
ATOM      4  C   UNL     1     -10.011  18.605   7.650  1.00  0.00     0.039 C 
ATOM      5  C   UNL     1      -9.792  17.098   7.663  1.00  0.00    -0.006 C 
ATOM      6  C   UNL     1      -9.222  16.473   8.734  1.00  0.00    -0.070 C 
ATOM      7  C   UNL     1      -8.800  17.248   9.962  1.00  0.00     0.039 C 
ATOM      8  C   UNL     1      -8.947  14.986   8.735  1.00  0.00     0.039 C 
ATOM      9  C   UNL     1     -10.341  16.347   6.495  1.00  0.00     0.159 C 
ATOM     10  O   UNL     1     -10.770  15.168   6.618  1.00  0.00    -0.295 OA
ATOM     11  C   UNL     1     -10.395  16.994   5.142  1.00  0.00     0.084 C 
ENDROOT
TORSDOF 0
ENDMDL
MODEL 9
REMARK VINA RESULT:    -4.378      1.640      2.810
REMARK INTER + INTRA:          -4.378
REMARK INTER:                  -4.378
REMARK INTRA:                   0.000
REMARK UNBOUND:                 0.000
REMARK SMILES CC(C)=C1CC[C@@H](C)CC1=O
REMARK SMILES IDX 8 1 7 2 6 3 5 4 4 5 2 6 1 7 3 8 10 9 11 10 9 11
REMARK H PARENT
REMARK Flexibility Score: inf
ROOT
ATOM      1  C   UNL     1     -10.375  21.369   6.887  1.00  0.00     0.008 C 
ATOM      2  C   UNL     1      -9.836  19.944   6.724  1.00  0.00    -0.006 C 
ATOM      3  C   UNL     1     -10.613  19.193   5.632  1.00  0.00     0.008 C 
ATOM      4  C   UNL     1     -10.022  17.799   5.385  1.00  0.00     0.039 C 
ATOM      5  C   UNL     1      -9.882  16.988   6.665  1.00  0.00    -0.006 C 
ATOM      6  C   UNL     1     -10.006  15.628   6.661  1.00  0.00    -0.070 C 
ATOM      7  C   UNL     1     -10.270  14.869   5.381  1.00  0.00     0.039 C 
ATOM      8  C   UNL     1      -9.926  14.818   7.935  1.00  0.00     0.039 C 
ATOM      9  C   UNL     1      -9.491  17.754   7.886  1.00  0.00     0.159 C 
ATOM     10  O   UNL     1      -8.787  17.228   8.791  1.00  0.00    -0.295 OA
ATOM     11  C   UNL     1      -9.928  19.180   8.053  1.00  0.00     0.084 C 
ENDROOT
TORSDOF 0
ENDMDL
