MODEL 1
REMARK VINA RESULT:    -1.707      0.000      0.000
REMARK INTER + INTRA:          -3.753
REMARK INTER:                  -3.204
REMARK INTRA:                  -0.549
REMARK UNBOUND:                -0.549
REMARK SMILES O=C([O-])CCCCCCCCCCCCCCC(=O)[O-]
REMARK SMILES IDX 10 1 9 2 8 3 7 4 6 5 5 6 4 7 2 8 1 9 3 10 11 11 12 12 13 13
REMARK SMILES IDX 14 14 15 15 16 16 17 17 18 18 19 19 20 20
REMARK H PARENT
REMARK Flexibility Score: inf
ROOT
ATOM      1  C   UNL     1     -27.598 -22.591 -23.080  1.00  0.00     0.000 C 
ENDROOT
BRANCH   1   2
ATOM      2  C   UNL     1     -27.962 -23.125 -21.683  1.00  0.00     0.000 C 
BRANCH   2   3
ATOM      3  C   UNL     1     -29.412 -22.810 -21.286  1.00  0.00     0.000 C 
BRANCH   3   4
ATOM      4  C   UNL     1     -29.596 -22.684 -19.766  1.00  0.00     0.000 C 
BRANCH   4   5
ATOM      5  C   UNL     1     -28.945 -21.395 -19.243  1.00  0.00     0.000 C 
BRANCH   5   6
ATOM      6  C   UNL     1     -27.638 -21.659 -18.478  1.00  0.00     0.006 C 
BRANCH   6   7
ATOM      7  C   UNL     1     -27.571 -23.075 -17.891  1.00  0.00     0.053 C 
BRANCH   7   8
ATOM      8  C   UNL     1     -28.053 -23.077 -16.476  1.00  0.00     0.041 C 
ATOM      9  O   UNL     1     -27.228 -23.125 -15.526  1.00  0.00    -0.550 OA
ATOM     10  O   UNL     1     -29.416 -23.077 -16.205  1.00  0.00    -0.550 OA
ENDBRANCH   7   8
ENDBRANCH   6   7
ENDBRANCH   5   6
ENDBRANCH   4   5
ENDBRANCH   3   4
ENDBRANCH   2   3
ENDBRANCH   1   2
BRANCH   1  11
ATOM     11  C   UNL     1     -27.841 -21.072 -23.202  1.00  0.00     0.000 C 
BRANCH  11  12
ATOM     12  C   UNL     1     -28.818 -20.692 -24.329  1.00  0.00     0.000 C 
BRANCH  12  13
ATOM     13  C   UNL     1     -29.975 -21.694 -24.478  1.00  0.00     0.000 C 
BRANCH  13  14
ATOM     14  C   UNL     1     -30.738 -21.523 -25.801  1.00  0.00     0.000 C 
BRANCH  14  15
ATOM     15  C   UNL     1     -31.445 -20.162 -25.905  1.00  0.00     0.000 C 
BRANCH  15  16
ATOM     16  C   UNL     1     -31.633 -19.537 -24.517  1.00  0.00     0.006 C 
BRANCH  16  17
ATOM     17  C   UNL     1     -32.775 -20.220 -23.757  1.00  0.00     0.053 C 
BRANCH  17  18
ATOM     18  C   UNL     1     -32.579 -20.079 -22.281  1.00  0.00     0.041 C 
ATOM     19  O   UNL     1     -32.731 -18.959 -21.725  1.00  0.00    -0.550 OA
ATOM     20  O   UNL     1     -32.280 -21.195 -21.509  1.00  0.00    -0.550 OA
ENDBRANCH  17  18
ENDBRANCH  16  17
ENDBRANCH  15  16
ENDBRANCH  14  15
ENDBRANCH  13  14
ENDBRANCH  12  13
ENDBRANCH  11  12
ENDBRANCH   1  11
TORSDOF 15
ENDMDL
MODEL 2
REMARK VINA RESULT:    -1.010      2.142      7.215
REMARK INTER + INTRA:          -2.445
REMARK INTER:                  -1.649
REMARK INTRA:                  -0.796
REMARK UNBOUND:                -0.549
REMARK SMILES O=C([O-])CCCCCCCCCCCCCCC(=O)[O-]
REMARK SMILES IDX 10 1 9 2 8 3 7 4 6 5 5 6 4 7 2 8 1 9 3 10 11 11 12 12 13 13
REMARK SMILES IDX 14 14 15 15 16 16 17 17 18 18 19 19 20 20
REMARK H PARENT
REMARK Flexibility Score: inf
ROOT
ATOM      1  C   UNL     1     -31.630 -20.876 -20.863  1.00  0.00     0.000 C 
ENDROOT
BRANCH   1   2
ATOM      2  C   UNL     1     -32.025 -19.507 -21.445  1.00  0.00     0.000 C 
BRANCH   2   3
ATOM      3  C   UNL     1     -33.139 -19.608 -22.498  1.00  0.00     0.000 C 
BRANCH   3   4
ATOM      4  C   UNL     1     -32.707 -19.071 -23.871  1.00  0.00     0.000 C 
BRANCH   4   5
ATOM      5  C   UNL     1     -31.824 -20.091 -24.604  1.00  0.00     0.000 C 
BRANCH   5   6
ATOM      6  C   UNL     1     -31.130 -19.496 -25.839  1.00  0.00     0.006 C 
BRANCH   6   7
ATOM      7  C   UNL     1     -31.204 -20.419 -27.063  1.00  0.00     0.053 C 
BRANCH   7   8
ATOM      8  C   UNL     1     -30.987 -21.842 -26.657  1.00  0.00     0.041 C 
ATOM      9  O   UNL     1     -31.756 -22.745 -27.077  1.00  0.00    -0.550 OA
ATOM     10  O   UNL     1     -29.964 -22.165 -25.774  1.00  0.00    -0.550 OA
ENDBRANCH   7   8
ENDBRANCH   6   7
ENDBRANCH   5   6
ENDBRANCH   4   5
ENDBRANCH   3   4
ENDBRANCH   2   3
ENDBRANCH   1   2
BRANCH   1  11
ATOM     11  C   UNL     1     -31.907 -22.029 -21.852  1.00  0.00     0.000 C 
BRANCH  11  12
ATOM     12  C   UNL     1     -30.819 -23.117 -21.851  1.00  0.00     0.000 C 
BRANCH  12  13
ATOM     13  C   UNL     1     -29.647 -22.788 -22.790  1.00  0.00     0.000 C 
BRANCH  13  14
ATOM     14  C   UNL     1     -28.509 -22.043 -22.073  1.00  0.00     0.000 C 
BRANCH  14  15
ATOM     15  C   UNL     1     -27.711 -22.952 -21.125  1.00  0.00     0.000 C 
BRANCH  15  16
ATOM     16  C   UNL     1     -27.759 -22.419 -19.688  1.00  0.00     0.006 C 
BRANCH  16  17
ATOM     17  C   UNL     1     -28.851 -23.122 -18.876  1.00  0.00     0.053 C 
BRANCH  17  18
ATOM     18  C   UNL     1     -28.576 -23.000 -17.411  1.00  0.00     0.041 C 
ATOM     19  O   UNL     1     -29.528 -22.976 -16.587  1.00  0.00    -0.550 OA
ATOM     20  O   UNL     1     -27.266 -22.964 -16.950  1.00  0.00    -0.550 OA
ENDBRANCH  17  18
ENDBRANCH  16  17
ENDBRANCH  15  16
ENDBRANCH  14  15
ENDBRANCH  13  14
ENDBRANCH  12  13
ENDBRANCH  11  12
ENDBRANCH   1  11
TORSDOF 15
ENDMDL
MODEL 3
REMARK VINA RESULT:    -0.587      1.929      3.691
REMARK INTER + INTRA:          -1.651
REMARK INTER:                  -0.596
REMARK INTRA:                  -1.056
REMARK UNBOUND:                -0.549
REMARK SMILES O=C([O-])CCCCCCCCCCCCCCC(=O)[O-]
REMARK SMILES IDX 10 1 9 2 8 3 7 4 6 5 5 6 4 7 2 8 1 9 3 10 11 11 12 12 13 13
REMARK SMILES IDX 14 14 15 15 16 16 17 17 18 18 19 19 20 20
REMARK H PARENT
REMARK Flexibility Score: inf
ROOT
ATOM      1  C   UNL     1     -32.451 -19.525 -21.611  1.00  0.00     0.000 C 
ENDROOT
BRANCH   1   2
ATOM      2  C   UNL     1     -32.137 -21.027 -21.716  1.00  0.00     0.000 C 
BRANCH   2   3
ATOM      3  C   UNL     1     -30.756 -21.387 -21.145  1.00  0.00     0.000 C 
BRANCH   3   4
ATOM      4  C   UNL     1     -30.788 -22.648 -20.270  1.00  0.00     0.000 C 
BRANCH   4   5
ATOM      5  C   UNL     1     -29.365 -23.124 -19.943  1.00  0.00     0.000 C 
BRANCH   5   6
ATOM      6  C   UNL     1     -29.071 -23.125 -18.435  1.00  0.00     0.006 C 
BRANCH   6   7
ATOM      7  C   UNL     1     -27.611 -22.775 -18.116  1.00  0.00     0.053 C 
BRANCH   7   8
ATOM      8  C   UNL     1     -27.374 -22.816 -16.640  1.00  0.00     0.041 C 
ATOM      9  O   UNL     1     -28.335 -23.007 -15.850  1.00  0.00    -0.550 OA
ATOM     10  O   UNL     1     -26.100 -22.592 -16.134  1.00  0.00    -0.550 OA
ENDBRANCH   7   8
ENDBRANCH   6   7
ENDBRANCH   5   6
ENDBRANCH   4   5
ENDBRANCH   3   4
ENDBRANCH   2   3
ENDBRANCH   1   2
BRANCH   1  11
ATOM     11  C   UNL     1     -33.223 -19.005 -22.843  1.00  0.00     0.000 C 
BRANCH  11  12
ATOM     12  C   UNL     1     -32.891 -19.761 -24.143  1.00  0.00     0.000 C 
BRANCH  12  13
ATOM     13  C   UNL     1     -31.634 -19.218 -24.842  1.00  0.00     0.000 C 
BRANCH  13  14
ATOM     14  C   UNL     1     -31.229 -20.058 -26.064  1.00  0.00     0.000 C 
BRANCH  14  15
ATOM     15  C   UNL     1     -30.401 -21.296 -25.684  1.00  0.00     0.000 C 
BRANCH  15  16
ATOM     16  C   UNL     1     -29.522 -21.010 -24.460  1.00  0.00     0.006 C 
BRANCH  16  17
ATOM     17  C   UNL     1     -28.911 -22.302 -23.909  1.00  0.00     0.053 C 
BRANCH  17  18
ATOM     18  C   UNL     1     -27.797 -21.992 -22.961  1.00  0.00     0.041 C 
ATOM     19  O   UNL     1     -26.785 -22.741 -22.904  1.00  0.00    -0.550 OA
ATOM     20  O   UNL     1     -27.850 -20.848 -22.174  1.00  0.00    -0.550 OA
ENDBRANCH  17  18
ENDBRANCH  16  17
ENDBRANCH  15  16
ENDBRANCH  14  15
ENDBRANCH  13  14
ENDBRANCH  12  13
ENDBRANCH  11  12
ENDBRANCH   1  11
TORSDOF 15
ENDMDL
MODEL 4
REMARK VINA RESULT:    -0.135      1.159      6.866
REMARK INTER + INTRA:          -0.802
REMARK INTER:                  -2.497
REMARK INTRA:                   1.695
REMARK UNBOUND:                -0.549
REMARK SMILES O=C([O-])CCCCCCCCCCCCCCC(=O)[O-]
REMARK SMILES IDX 10 1 9 2 8 3 7 4 6 5 5 6 4 7 2 8 1 9 3 10 11 11 12 12 13 13
REMARK SMILES IDX 14 14 15 15 16 16 17 17 18 18 19 19 20 20
REMARK H PARENT
REMARK Flexibility Score: inf
ROOT
ATOM      1  C   UNL     1     -29.479 -21.944 -23.577  1.00  0.00     0.000 C 
ENDROOT
BRANCH   1   2
ATOM      2  C   UNL     1     -29.378 -20.988 -24.778  1.00  0.00     0.000 C 
BRANCH   2   3
ATOM      3  C   UNL     1     -30.110 -21.517 -26.022  1.00  0.00     0.000 C 
BRANCH   3   4
ATOM      4  C   UNL     1     -31.392 -20.730 -26.333  1.00  0.00     0.000 C 
BRANCH   4   5
ATOM      5  C   UNL     1     -31.692 -19.711 -25.223  1.00  0.00     0.000 C 
BRANCH   5   6
ATOM      6  C   UNL     1     -32.451 -20.331 -24.039  1.00  0.00     0.006 C 
BRANCH   6   7
ATOM      7  C   UNL     1     -32.730 -19.319 -22.920  1.00  0.00     0.053 C 
BRANCH   7   8
ATOM      8  C   UNL     1     -32.404 -19.911 -21.586  1.00  0.00     0.041 C 
ATOM      9  O   UNL     1     -32.256 -19.168 -20.582  1.00  0.00    -0.550 OA
ATOM     10  O   UNL     1     -32.215 -21.282 -21.462  1.00  0.00    -0.550 OA
ENDBRANCH   7   8
ENDBRANCH   6   7
ENDBRANCH   5   6
ENDBRANCH   4   5
ENDBRANCH   3   4
ENDBRANCH   2   3
ENDBRANCH   1   2
BRANCH   1  11
ATOM     11  C   UNL     1     -28.102 -22.504 -23.163  1.00  0.00     0.000 C 
BRANCH  11  12
ATOM     12  C   UNL     1     -27.851 -22.464 -21.645  1.00  0.00     0.000 C 
BRANCH  12  13
ATOM     13  C   UNL     1     -29.137 -22.233 -20.834  1.00  0.00     0.000 C 
BRANCH  13  14
ATOM     14  C   UNL     1     -29.212 -23.120 -19.581  1.00  0.00     0.000 C 
BRANCH  14  15
ATOM     15  C   UNL     1     -28.761 -22.387 -18.308  1.00  0.00     0.000 C 
BRANCH  15  16
ATOM     16  C   UNL     1     -29.348 -23.051 -17.057  1.00  0.00     0.006 C 
BRANCH  16  17
ATOM     17  C   UNL     1     -28.311 -23.119 -15.932  1.00  0.00     0.053 C 
BRANCH  17  18
ATOM     18  C   UNL     1     -26.956 -22.747 -16.445  1.00  0.00     0.041 C 
ATOM     19  O   UNL     1     -25.946 -22.848 -15.700  1.00  0.00    -0.550 OA
ATOM     20  O   UNL     1     -26.800 -22.336 -17.763  1.00  0.00    -0.550 OA
ENDBRANCH  17  18
ENDBRANCH  16  17
ENDBRANCH  15  16
ENDBRANCH  14  15
ENDBRANCH  13  14
ENDBRANCH  12  13
ENDBRANCH  11  12
ENDBRANCH   1  11
TORSDOF 15
ENDMDL
MODEL 5
REMARK VINA RESULT:    -0.130      2.150      6.989
REMARK INTER + INTRA:          -0.793
REMARK INTER:                  -0.436
REMARK INTRA:                  -0.358
REMARK UNBOUND:                -0.549
REMARK SMILES O=C([O-])CCCCCCCCCCCCCCC(=O)[O-]
REMARK SMILES IDX 10 1 9 2 8 3 7 4 6 5 5 6 4 7 2 8 1 9 3 10 11 11 12 12 13 13
REMARK SMILES IDX 14 14 15 15 16 16 17 17 18 18 19 19 20 20
REMARK H PARENT
REMARK Flexibility Score: inf
ROOT
ATOM      1  C   UNL     1     -32.690 -19.843 -21.371  1.00  0.00     0.000 C 
ENDROOT
BRANCH   1   2
ATOM      2  C   UNL     1     -33.285 -19.330 -22.694  1.00  0.00     0.000 C 
BRANCH   2   3
ATOM      3  C   UNL     1     -32.212 -19.049 -23.758  1.00  0.00     0.000 C 
BRANCH   3   4
ATOM      4  C   UNL     1     -31.987 -20.240 -24.701  1.00  0.00     0.000 C 
BRANCH   4   5
ATOM      5  C   UNL     1     -30.712 -20.044 -25.535  1.00  0.00     0.000 C 
BRANCH   5   6
ATOM      6  C   UNL     1     -29.827 -21.300 -25.569  1.00  0.00     0.006 C 
BRANCH   6   7
ATOM      7  C   UNL     1     -29.655 -21.940 -24.185  1.00  0.00     0.053 C 
BRANCH   7   8
ATOM      8  C   UNL     1     -28.301 -21.631 -23.632  1.00  0.00     0.041 C 
ATOM      9  O   UNL     1     -27.772 -20.508 -23.840  1.00  0.00    -0.550 OA
ATOM     10  O   UNL     1     -27.600 -22.602 -22.927  1.00  0.00    -0.550 OA
ENDBRANCH   7   8
ENDBRANCH   6   7
ENDBRANCH   5   6
ENDBRANCH   4   5
ENDBRANCH   3   4
ENDBRANCH   2   3
ENDBRANCH   1   2
BRANCH   1  11
ATOM     11  C   UNL     1     -31.391 -20.647 -21.591  1.00  0.00     0.000 C 
BRANCH  11  12
ATOM     12  C   UNL     1     -31.631 -22.142 -21.872  1.00  0.00     0.000 C 
BRANCH  12  13
ATOM     13  C   UNL     1     -30.671 -23.056 -21.094  1.00  0.00     0.000 C 
BRANCH  13  14
ATOM     14  C   UNL     1     -29.658 -22.265 -20.250  1.00  0.00     0.000 C 
BRANCH  14  15
ATOM     15  C   UNL     1     -28.994 -23.125 -19.163  1.00  0.00     0.000 C 
BRANCH  15  16
ATOM     16  C   UNL     1     -28.541 -22.258 -17.981  1.00  0.00     0.006 C 
BRANCH  16  17
ATOM     17  C   UNL     1     -28.002 -23.125 -16.839  1.00  0.00     0.053 C 
BRANCH  17  18
ATOM     18  C   UNL     1     -26.610 -22.713 -16.480  1.00  0.00     0.041 C 
ATOM     19  O   UNL     1     -25.935 -22.003 -17.272  1.00  0.00    -0.550 OA
ATOM     20  O   UNL     1     -26.074 -23.070 -15.249  1.00  0.00    -0.550 OA
ENDBRANCH  17  18
ENDBRANCH  16  17
ENDBRANCH  15  16
ENDBRANCH  14  15
ENDBRANCH  13  14
ENDBRANCH  12  13
ENDBRANCH  11  12
ENDBRANCH   1  11
TORSDOF 15
ENDMDL
MODEL 6
REMARK VINA RESULT:    -0.091      1.431      2.268
REMARK INTER + INTRA:          -0.719
REMARK INTER:                  -0.817
REMARK INTRA:                   0.098
REMARK UNBOUND:                -0.549
REMARK SMILES O=C([O-])CCCCCCCCCCCCCCC(=O)[O-]
REMARK SMILES IDX 10 1 9 2 8 3 7 4 6 5 5 6 4 7 2 8 1 9 3 10 11 11 12 12 13 13
REMARK SMILES IDX 14 14 15 15 16 16 17 17 18 18 19 19 20 20
REMARK H PARENT
REMARK Flexibility Score: inf
ROOT
ATOM      1  C   UNL     1     -30.123 -21.178 -20.543  1.00  0.00     0.000 C 
ENDROOT
BRANCH   1   2
ATOM      2  C   UNL     1     -28.933 -20.448 -19.896  1.00  0.00     0.000 C 
BRANCH   2   3
ATOM      3  C   UNL     1     -27.981 -21.402 -19.158  1.00  0.00     0.000 C 
BRANCH   3   4
ATOM      4  C   UNL     1     -28.509 -22.844 -19.109  1.00  0.00     0.000 C 
BRANCH   4   5
ATOM      5  C   UNL     1     -29.208 -23.125 -17.771  1.00  0.00     0.000 C 
BRANCH   5   6
ATOM      6  C   UNL     1     -28.631 -22.294 -16.614  1.00  0.00     0.006 C 
BRANCH   6   7
ATOM      7  C   UNL     1     -27.736 -23.120 -15.680  1.00  0.00     0.053 C 
BRANCH   7   8
ATOM      8  C   UNL     1     -26.303 -22.724 -15.846  1.00  0.00     0.041 C 
ATOM      9  O   UNL     1     -25.524 -22.739 -14.858  1.00  0.00    -0.550 OA
ATOM     10  O   UNL     1     -25.840 -22.290 -17.082  1.00  0.00    -0.550 OA
ENDBRANCH   7   8
ENDBRANCH   6   7
ENDBRANCH   5   6
ENDBRANCH   4   5
ENDBRANCH   3   4
ENDBRANCH   2   3
ENDBRANCH   1   2
BRANCH   1  11
ATOM     11  C   UNL     1     -29.701 -21.989 -21.786  1.00  0.00     0.000 C 
BRANCH  11  12
ATOM     12  C   UNL     1     -28.302 -21.624 -22.315  1.00  0.00     0.000 C 
BRANCH  12  13
ATOM     13  C   UNL     1     -28.255 -21.511 -23.847  1.00  0.00     0.000 C 
BRANCH  13  14
ATOM     14  C   UNL     1     -29.654 -21.533 -24.484  1.00  0.00     0.000 C 
BRANCH  14  15
ATOM     15  C   UNL     1     -30.089 -20.154 -25.004  1.00  0.00     0.000 C 
BRANCH  15  16
ATOM     16  C   UNL     1     -31.592 -19.936 -24.786  1.00  0.00     0.006 C 
BRANCH  16  17
ATOM     17  C   UNL     1     -32.104 -20.778 -23.614  1.00  0.00     0.053 C 
BRANCH  17  18
ATOM     18  C   UNL     1     -32.872 -19.927 -22.653  1.00  0.00     0.041 C 
ATOM     19  O   UNL     1     -32.306 -19.452 -21.633  1.00  0.00    -0.550 OA
ATOM     20  O   UNL     1     -34.202 -19.615 -22.909  1.00  0.00    -0.550 OA
ENDBRANCH  17  18
ENDBRANCH  16  17
ENDBRANCH  15  16
ENDBRANCH  14  15
ENDBRANCH  13  14
ENDBRANCH  12  13
ENDBRANCH  11  12
ENDBRANCH   1  11
TORSDOF 15
ENDMDL
MODEL 7
REMARK VINA RESULT:    -0.081      0.981      1.593
REMARK INTER + INTRA:          -0.702
REMARK INTER:                  -0.580
REMARK INTRA:                  -0.122
REMARK UNBOUND:                -0.549
REMARK SMILES O=C([O-])CCCCCCCCCCCCCCC(=O)[O-]
REMARK SMILES IDX 10 1 9 2 8 3 7 4 6 5 5 6 4 7 2 8 1 9 3 10 11 11 12 12 13 13
REMARK SMILES IDX 14 14 15 15 16 16 17 17 18 18 19 19 20 20
REMARK H PARENT
REMARK Flexibility Score: inf
ROOT
ATOM      1  C   UNL     1     -29.195 -21.599 -23.668  1.00  0.00     0.000 C 
ENDROOT
BRANCH   1   2
ATOM      2  C   UNL     1     -27.774 -21.974 -23.210  1.00  0.00     0.000 C 
BRANCH   2   3
ATOM      3  C   UNL     1     -27.766 -23.084 -22.148  1.00  0.00     0.000 C 
BRANCH   3   4
ATOM      4  C   UNL     1     -28.919 -22.951 -21.142  1.00  0.00     0.000 C 
BRANCH   4   5
ATOM      5  C   UNL     1     -28.906 -21.567 -20.476  1.00  0.00     0.000 C 
BRANCH   5   6
ATOM      6  C   UNL     1     -28.485 -21.624 -18.999  1.00  0.00     0.006 C 
BRANCH   6   7
ATOM      7  C   UNL     1     -28.345 -23.061 -18.478  1.00  0.00     0.053 C 
BRANCH   7   8
ATOM      8  C   UNL     1     -28.285 -23.072 -16.984  1.00  0.00     0.041 C 
ATOM      9  O   UNL     1     -27.174 -23.096 -16.395  1.00  0.00    -0.550 OA
ATOM     10  O   UNL     1     -29.459 -23.105 -16.242  1.00  0.00    -0.550 OA
ENDBRANCH   7   8
ENDBRANCH   6   7
ENDBRANCH   5   6
ENDBRANCH   4   5
ENDBRANCH   3   4
ENDBRANCH   2   3
ENDBRANCH   1   2
BRANCH   1  11
ATOM     11  C   UNL     1     -29.185 -20.505 -24.756  1.00  0.00     0.000 C 
BRANCH  11  12
ATOM     12  C   UNL     1     -29.770 -20.968 -26.102  1.00  0.00     0.000 C 
BRANCH  12  13
ATOM     13  C   UNL     1     -31.304 -21.071 -26.081  1.00  0.00     0.000 C 
BRANCH  13  14
ATOM     14  C   UNL     1     -31.848 -21.481 -24.703  1.00  0.00     0.000 C 
BRANCH  14  15
ATOM     15  C   UNL     1     -32.954 -20.539 -24.199  1.00  0.00     0.000 C 
BRANCH  15  16
ATOM     16  C   UNL     1     -32.351 -19.306 -23.515  1.00  0.00     0.006 C 
BRANCH  16  17
ATOM     17  C   UNL     1     -32.882 -19.156 -22.086  1.00  0.00     0.053 C 
BRANCH  17  18
ATOM     18  C   UNL     1     -32.055 -19.957 -21.133  1.00  0.00     0.041 C 
ATOM     19  O   UNL     1     -31.333 -19.378 -20.278  1.00  0.00    -0.550 OA
ATOM     20  O   UNL     1     -32.119 -21.344 -21.152  1.00  0.00    -0.550 OA
ENDBRANCH  17  18
ENDBRANCH  16  17
ENDBRANCH  15  16
ENDBRANCH  14  15
ENDBRANCH  13  14
ENDBRANCH  12  13
ENDBRANCH  11  12
ENDBRANCH   1  11
TORSDOF 15
ENDMDL
MODEL 8
REMARK VINA RESULT:     0.469      2.023      2.785
REMARK INTER + INTRA:           0.332
REMARK INTER:                   1.280
REMARK INTRA:                  -0.948
REMARK UNBOUND:                -0.549
REMARK SMILES O=C([O-])CCCCCCCCCCCCCCC(=O)[O-]
REMARK SMILES IDX 10 1 9 2 8 3 7 4 6 5 5 6 4 7 2 8 1 9 3 10 11 11 12 12 13 13
REMARK SMILES IDX 14 14 15 15 16 16 17 17 18 18 19 19 20 20
REMARK H PARENT
REMARK Flexibility Score: inf
ROOT
ATOM      1  C   UNL     1     -29.009 -22.783 -21.076  1.00  0.00     0.000 C 
ENDROOT
BRANCH   1   2
ATOM      2  C   UNL     1     -28.623 -22.106 -19.749  1.00  0.00     0.000 C 
BRANCH   2   3
ATOM      3  C   UNL     1     -28.429 -23.110 -18.603  1.00  0.00     0.000 C 
BRANCH   3   4
ATOM      4  C   UNL     1     -28.218 -22.425 -17.245  1.00  0.00     0.000 C 
BRANCH   4   5
ATOM      5  C   UNL     1     -29.037 -23.121 -16.147  1.00  0.00     0.000 C 
BRANCH   5   6
ATOM      6  C   UNL     1     -30.520 -22.718 -16.168  1.00  0.00     0.006 C 
BRANCH   6   7
ATOM      7  C   UNL     1     -31.141 -22.673 -14.766  1.00  0.00     0.053 C 
BRANCH   7   8
ATOM      8  C   UNL     1     -31.550 -21.277 -14.420  1.00  0.00     0.041 C 
ATOM      9  O   UNL     1     -30.700 -20.457 -13.986  1.00  0.00    -0.550 OA
ATOM     10  O   UNL     1     -32.882 -20.895 -14.531  1.00  0.00    -0.550 OA
ENDBRANCH   7   8
ENDBRANCH   6   7
ENDBRANCH   5   6
ENDBRANCH   4   5
ENDBRANCH   3   4
ENDBRANCH   2   3
ENDBRANCH   1   2
BRANCH   1  11
ATOM     11  C   UNL     1     -27.834 -22.815 -22.075  1.00  0.00     0.000 C 
BRANCH  11  12
ATOM     12  C   UNL     1     -27.992 -21.827 -23.245  1.00  0.00     0.000 C 
BRANCH  12  13
ATOM     13  C   UNL     1     -29.444 -21.713 -23.737  1.00  0.00     0.000 C 
BRANCH  13  14
ATOM     14  C   UNL     1     -29.671 -20.482 -24.629  1.00  0.00     0.000 C 
BRANCH  14  15
ATOM     15  C   UNL     1     -31.135 -20.332 -25.071  1.00  0.00     0.000 C 
BRANCH  15  16
ATOM     16  C   UNL     1     -32.080 -21.009 -24.070  1.00  0.00     0.006 C 
BRANCH  16  17
ATOM     17  C   UNL     1     -32.839 -19.968 -23.242  1.00  0.00     0.053 C 
BRANCH  17  18
ATOM     18  C   UNL     1     -32.452 -20.062 -21.800  1.00  0.00     0.041 C 
ATOM     19  O   UNL     1     -32.498 -19.042 -21.063  1.00  0.00    -0.550 OA
ATOM     20  O   UNL     1     -32.087 -21.287 -21.256  1.00  0.00    -0.550 OA
ENDBRANCH  17  18
ENDBRANCH  16  17
ENDBRANCH  15  16
ENDBRANCH  14  15
ENDBRANCH  13  14
ENDBRANCH  12  13
ENDBRANCH  11  12
ENDBRANCH   1  11
TORSDOF 15
ENDMDL
