MODEL 1
REMARK VINA RESULT:    -3.081      0.000      0.000
REMARK INTER + INTRA:          -4.029
REMARK INTER:                  -3.892
REMARK INTRA:                  -0.137
REMARK UNBOUND:                -0.137
REMARK SMILES CCCCC[C@@H](C)O
REMARK SMILES IDX 4 1 3 2 2 3 1 4 5 5 6 6 7 7 8 8
REMARK H PARENT 8 9
REMARK Flexibility Score: inf
ROOT
ATOM      1  C   UNL     1     137.778 140.311 129.575  1.00  0.00     0.003 C 
ENDROOT
BRANCH   1   2
ATOM      2  C   UNL     1     136.799 141.296 128.905  1.00  0.00    -0.000 C 
BRANCH   2   3
ATOM      3  C   UNL     1     135.415 140.709 128.576  1.00  0.00    -0.003 C 
ATOM      4  C   UNL     1     134.953 139.669 129.595  1.00  0.00     0.004 C 
ENDBRANCH   2   3
ENDBRANCH   1   2
BRANCH   1   5
ATOM      5  C   UNL     1     138.770 139.617 128.619  1.00  0.00     0.031 C 
BRANCH   5   6
ATOM      6  C   UNL     1     140.247 139.646 129.073  1.00  0.00     0.111 C 
ATOM      7  C   UNL     1     141.210 139.388 127.912  1.00  0.00     0.038 C 
BRANCH   6   8
ATOM      8  O   UNL     1     140.538 140.907 129.618  1.00  0.00    -0.393 OA
ATOM      9  H   UNL     1     140.973 141.439 128.900  1.00  0.00     0.210 HD
ENDBRANCH   6   8
ENDBRANCH   5   6
ENDBRANCH   1   5
TORSDOF 5
ENDMDL
MODEL 2
REMARK VINA RESULT:    -3.072      3.296      4.732
REMARK INTER + INTRA:          -4.017
REMARK INTER:                  -3.883
REMARK INTRA:                  -0.134
REMARK UNBOUND:                -0.137
REMARK SMILES CCCCC[C@@H](C)O
REMARK SMILES IDX 4 1 3 2 2 3 1 4 5 5 6 6 7 7 8 8
REMARK H PARENT 8 9
REMARK Flexibility Score: inf
ROOT
ATOM      1  C   UNL     1     140.574 137.151 129.352  1.00  0.00     0.003 C 
ENDROOT
BRANCH   1   2
ATOM      2  C   UNL     1     140.041 135.704 129.335  1.00  0.00    -0.000 C 
BRANCH   2   3
ATOM      3  C   UNL     1     139.460 135.245 127.986  1.00  0.00    -0.003 C 
ATOM      4  C   UNL     1     139.242 133.735 127.915  1.00  0.00     0.004 C 
ENDBRANCH   2   3
ENDBRANCH   1   2
BRANCH   1   5
ATOM      5  C   UNL     1     140.309 137.965 128.068  1.00  0.00     0.031 C 
BRANCH   5   6
ATOM      6  C   UNL     1     140.506 139.491 128.206  1.00  0.00     0.111 C 
ATOM      7  C   UNL     1     140.146 139.993 129.607  1.00  0.00     0.038 C 
BRANCH   6   8
ATOM      8  O   UNL     1     141.850 139.808 127.954  1.00  0.00    -0.393 OA
ATOM      9  H   UNL     1     142.384 139.001 128.179  1.00  0.00     0.210 HD
ENDBRANCH   6   8
ENDBRANCH   5   6
ENDBRANCH   1   5
TORSDOF 5
ENDMDL
MODEL 3
REMARK VINA RESULT:    -3.031      3.326      4.767
REMARK INTER + INTRA:          -3.966
REMARK INTER:                  -3.886
REMARK INTRA:                  -0.080
REMARK UNBOUND:                -0.137
REMARK SMILES CCCCC[C@@H](C)O
REMARK SMILES IDX 4 1 3 2 2 3 1 4 5 5 6 6 7 7 8 8
REMARK H PARENT 8 9
REMARK Flexibility Score: inf
ROOT
ATOM      1  C   UNL     1     134.997 137.914 129.425  1.00  0.00     0.003 C 
ENDROOT
BRANCH   1   2
ATOM      2  C   UNL     1     134.014 136.864 128.867  1.00  0.00    -0.000 C 
BRANCH   2   3
ATOM      3  C   UNL     1     134.641 135.493 128.559  1.00  0.00    -0.003 C 
ATOM      4  C   UNL     1     135.119 134.761 129.812  1.00  0.00     0.004 C 
ENDBRANCH   2   3
ENDBRANCH   1   2
BRANCH   1   5
ATOM      5  C   UNL     1     135.379 139.043 128.445  1.00  0.00     0.031 C 
BRANCH   5   6
ATOM      6  C   UNL     1     135.496 140.448 129.076  1.00  0.00     0.111 C 
ATOM      7  C   UNL     1     136.871 140.683 129.705  1.00  0.00     0.038 C 
BRANCH   6   8
ATOM      8  O   UNL     1     135.290 141.419 128.084  1.00  0.00    -0.393 OA
ATOM      9  H   UNL     1     134.663 141.026 127.421  1.00  0.00     0.210 HD
ENDBRANCH   6   8
ENDBRANCH   5   6
ENDBRANCH   1   5
TORSDOF 5
ENDMDL
MODEL 4
REMARK VINA RESULT:    -3.031      4.686      6.096
REMARK INTER + INTRA:          -3.965
REMARK INTER:                  -3.852
REMARK INTRA:                  -0.113
REMARK UNBOUND:                -0.137
REMARK SMILES CCCCC[C@@H](C)O
REMARK SMILES IDX 4 1 3 2 2 3 1 4 5 5 6 6 7 7 8 8
REMARK H PARENT 8 9
REMARK Flexibility Score: inf
ROOT
ATOM      1  C   UNL     1     140.290 135.912 129.751  1.00  0.00     0.003 C 
ENDROOT
BRANCH   1   2
ATOM      2  C   UNL     1     139.987 137.351 129.286  1.00  0.00    -0.000 C 
BRANCH   2   3
ATOM      3  C   UNL     1     141.229 138.212 128.999  1.00  0.00    -0.003 C 
ATOM      4  C   UNL     1     140.893 139.522 128.287  1.00  0.00     0.004 C 
ENDBRANCH   2   3
ENDBRANCH   1   2
BRANCH   1   5
ATOM      5  C   UNL     1     139.825 134.799 128.789  1.00  0.00     0.031 C 
BRANCH   5   6
ATOM      6  C   UNL     1     138.612 133.975 129.277  1.00  0.00     0.111 C 
ATOM      7  C   UNL     1     137.302 134.757 129.158  1.00  0.00     0.038 C 
BRANCH   6   8
ATOM      8  O   UNL     1     138.504 132.809 128.502  1.00  0.00    -0.393 OA
ATOM      9  H   UNL     1     138.932 132.078 129.021  1.00  0.00     0.210 HD
ENDBRANCH   6   8
ENDBRANCH   5   6
ENDBRANCH   1   5
TORSDOF 5
ENDMDL
MODEL 5
REMARK VINA RESULT:    -3.021      5.252      6.946
REMARK INTER + INTRA:          -3.953
REMARK INTER:                  -3.843
REMARK INTRA:                  -0.110
REMARK UNBOUND:                -0.137
REMARK SMILES CCCCC[C@@H](C)O
REMARK SMILES IDX 4 1 3 2 2 3 1 4 5 5 6 6 7 7 8 8
REMARK H PARENT 8 9
REMARK Flexibility Score: inf
ROOT
ATOM      1  C   UNL     1     135.945 135.007 129.485  1.00  0.00     0.003 C 
ENDROOT
BRANCH   1   2
ATOM      2  C   UNL     1     137.269 135.132 128.705  1.00  0.00    -0.000 C 
BRANCH   2   3
ATOM      3  C   UNL     1     138.307 134.039 129.014  1.00  0.00    -0.003 C 
ATOM      4  C   UNL     1     139.501 134.066 128.062  1.00  0.00     0.004 C 
ENDBRANCH   2   3
ENDBRANCH   1   2
BRANCH   1   5
ATOM      5  C   UNL     1     134.675 135.374 128.688  1.00  0.00     0.031 C 
BRANCH   5   6
ATOM      6  C   UNL     1     133.919 136.621 129.197  1.00  0.00     0.111 C 
ATOM      7  C   UNL     1     134.742 137.900 129.032  1.00  0.00     0.038 C 
BRANCH   6   8
ATOM      8  O   UNL     1     132.725 136.765 128.472  1.00  0.00    -0.393 OA
ATOM      9  H   UNL     1     132.828 136.234 127.638  1.00  0.00     0.210 HD
ENDBRANCH   6   8
ENDBRANCH   5   6
ENDBRANCH   1   5
TORSDOF 5
ENDMDL
MODEL 6
REMARK VINA RESULT:    -3.021      2.127      4.487
REMARK INTER + INTRA:          -3.953
REMARK INTER:                  -3.810
REMARK INTRA:                  -0.142
REMARK UNBOUND:                -0.137
REMARK SMILES CCCCC[C@@H](C)O
REMARK SMILES IDX 4 1 3 2 2 3 1 4 5 5 6 6 7 7 8 8
REMARK H PARENT 8 9
REMARK Flexibility Score: inf
ROOT
ATOM      1  C   UNL     1     137.850 140.272 129.670  1.00  0.00     0.003 C 
ENDROOT
BRANCH   1   2
ATOM      2  C   UNL     1     139.384 140.383 129.775  1.00  0.00    -0.000 C 
BRANCH   2   3
ATOM      3  C   UNL     1     140.162 139.649 128.669  1.00  0.00    -0.003 C 
ATOM      4  C   UNL     1     140.529 138.216 129.051  1.00  0.00     0.004 C 
ENDBRANCH   2   3
ENDBRANCH   1   2
BRANCH   1   5
ATOM      5  C   UNL     1     137.280 140.362 128.240  1.00  0.00     0.031 C 
BRANCH   5   6
ATOM      6  C   UNL     1     135.745 140.521 128.154  1.00  0.00     0.111 C 
ATOM      7  C   UNL     1     135.052 140.126 129.460  1.00  0.00     0.038 C 
BRANCH   6   8
ATOM      8  O   UNL     1     135.435 141.862 127.876  1.00  0.00    -0.393 OA
ATOM      9  H   UNL     1     134.557 141.864 127.410  1.00  0.00     0.210 HD
ENDBRANCH   6   8
ENDBRANCH   5   6
ENDBRANCH   1   5
TORSDOF 5
ENDMDL
MODEL 7
REMARK VINA RESULT:    -2.994      4.072      5.454
REMARK INTER + INTRA:          -3.919
REMARK INTER:                  -3.778
REMARK INTRA:                  -0.141
REMARK UNBOUND:                -0.137
REMARK SMILES CCCCC[C@@H](C)O
REMARK SMILES IDX 4 1 3 2 2 3 1 4 5 5 6 6 7 7 8 8
REMARK H PARENT 8 9
REMARK Flexibility Score: inf
ROOT
ATOM      1  C   UNL     1     135.018 137.839 129.883  1.00  0.00     0.003 C 
ENDROOT
BRANCH   1   2
ATOM      2  C   UNL     1     135.031 139.377 129.998  1.00  0.00    -0.000 C 
BRANCH   2   3
ATOM      3  C   UNL     1     135.382 140.119 128.696  1.00  0.00    -0.003 C 
ATOM      4  C   UNL     1     136.617 141.008 128.833  1.00  0.00     0.004 C 
ENDBRANCH   2   3
ENDBRANCH   1   2
BRANCH   1   5
ATOM      5  C   UNL     1     134.831 137.288 128.455  1.00  0.00     0.031 C 
BRANCH   5   6
ATOM      6  C   UNL     1     134.761 135.748 128.350  1.00  0.00     0.111 C 
ATOM      7  C   UNL     1     134.989 135.068 129.703  1.00  0.00     0.038 C 
BRANCH   6   8
ATOM      8  O   UNL     1     133.494 135.375 127.876  1.00  0.00    -0.393 OA
ATOM      9  H   UNL     1     133.630 134.605 127.262  1.00  0.00     0.210 HD
ENDBRANCH   6   8
ENDBRANCH   5   6
ENDBRANCH   1   5
TORSDOF 5
ENDMDL
MODEL 8
REMARK VINA RESULT:    -2.985      3.660      4.679
REMARK INTER + INTRA:          -3.907
REMARK INTER:                  -3.800
REMARK INTRA:                  -0.108
REMARK UNBOUND:                -0.137
REMARK SMILES CCCCC[C@@H](C)O
REMARK SMILES IDX 4 1 3 2 2 3 1 4 5 5 6 6 7 7 8 8
REMARK H PARENT 8 9
REMARK Flexibility Score: inf
ROOT
ATOM      1  C   UNL     1     140.236 137.629 129.577  1.00  0.00     0.003 C 
ENDROOT
BRANCH   1   2
ATOM      2  C   UNL     1     140.869 138.923 129.027  1.00  0.00    -0.000 C 
BRANCH   2   3
ATOM      3  C   UNL     1     140.214 140.224 129.523  1.00  0.00    -0.003 C 
ATOM      4  C   UNL     1     138.688 140.154 129.538  1.00  0.00     0.004 C 
ENDBRANCH   2   3
ENDBRANCH   1   2
BRANCH   1   5
ATOM      5  C   UNL     1     139.941 136.542 128.524  1.00  0.00     0.031 C 
BRANCH   5   6
ATOM      6  C   UNL     1     139.809 135.107 129.081  1.00  0.00     0.111 C 
ATOM      7  C   UNL     1     139.436 134.098 127.992  1.00  0.00     0.038 C 
BRANCH   6   8
ATOM      8  O   UNL     1     141.033 134.716 129.646  1.00  0.00    -0.393 OA
ATOM      9  H   UNL     1     141.453 134.076 129.012  1.00  0.00     0.210 HD
ENDBRANCH   6   8
ENDBRANCH   5   6
ENDBRANCH   1   5
TORSDOF 5
ENDMDL
