MODEL 1
REMARK VINA RESULT:    -8.019      0.000      0.000
REMARK INTER + INTRA:          -9.905
REMARK INTER:                  -9.660
REMARK INTRA:                  -0.246
REMARK UNBOUND:                -0.246
REMARK SMILES O=c1c(O)c(-c2ccc(O)c(O)c2)oc2cc(O)cc(O)c12
REMARK SMILES IDX 5 1 3 2 2 3 1 4 22 5 20 6 19 7 17 8 16 9 15 10 14 11 6 12
REMARK SMILES IDX 7 13 8 14 9 15 13 16 11 17 10 18 12 20 4 22 21 24 18 26
REMARK H PARENT 10 19 12 21 4 23 21 25 18 27
REMARK Flexibility Score: inf
ROOT
ATOM      1  C   UNL     1      16.048  21.299 -12.888  1.00  0.00     0.180 A 
ATOM      2  C   UNL     1      17.310  21.376 -12.269  1.00  0.00     0.208 A 
ATOM      3  C   UNL     1      18.441  21.619 -13.063  1.00  0.00     0.238 A 
ATOM      4  O   UNL     1      19.576  21.700 -12.518  1.00  0.00    -0.285 OA
ATOM      5  C   UNL     1      18.297  21.761 -14.458  1.00  0.00     0.111 A 
ATOM      6  C   UNL     1      19.386  22.003 -15.330  1.00  0.00     0.134 A 
ATOM      7  C   UNL     1      19.160  22.122 -16.709  1.00  0.00     0.093 A 
ATOM      8  C   UNL     1      17.871  22.004 -17.233  1.00  0.00     0.123 A 
ATOM      9  C   UNL     1      16.791  21.765 -16.377  1.00  0.00     0.094 A 
ATOM     10  C   UNL     1      16.994  21.644 -15.000  1.00  0.00     0.146 A 
ATOM     11  O   UNL     1      15.950  21.423 -14.208  1.00  0.00    -0.452 OA
ENDROOT
BRANCH   1  12
ATOM     12  C   UNL     1      14.806  21.066 -12.117  1.00  0.00     0.025 A 
ATOM     13  C   UNL     1      14.288  22.094 -11.314  1.00  0.00     0.016 A 
ATOM     14  C   UNL     1      13.129  21.890 -10.562  1.00  0.00     0.051 A 
ATOM     15  C   UNL     1      12.478  20.649 -10.589  1.00  0.00     0.157 A 
ATOM     16  C   UNL     1      14.162  19.815 -12.126  1.00  0.00     0.062 A 
ATOM     17  C   UNL     1      13.001  19.606 -11.371  1.00  0.00     0.158 A 
BRANCH  15  18
ATOM     18  O   UNL     1      11.320  20.448  -9.839  1.00  0.00    -0.504 OA
ATOM     19  H   UNL     1      10.406  20.697 -10.199  1.00  0.00     0.293 HD
ENDBRANCH  15  18
BRANCH  17  20
ATOM     20  O   UNL     1      12.386  18.355 -11.408  1.00  0.00    -0.504 OA
ATOM     21  H   UNL     1      12.870  17.508 -11.133  1.00  0.00     0.293 HD
ENDBRANCH  17  20
ENDBRANCH   1  12
BRANCH   2  22
ATOM     22  O   UNL     1      17.433  21.183 -10.890  1.00  0.00    -0.502 OA
ATOM     23  H   UNL     1      16.655  21.304 -10.254  1.00  0.00     0.293 HD
ENDBRANCH   2  22
BRANCH   6  24
ATOM     24  O   UNL     1      20.686  22.125 -14.837  1.00  0.00    -0.507 OA
ATOM     25  H   UNL     1      21.235  22.963 -14.985  1.00  0.00     0.293 HD
ENDBRANCH   6  24
BRANCH   8  26
ATOM     26  O   UNL     1      17.674  22.125 -18.607  1.00  0.00    -0.508 OA
ATOM     27  H   UNL     1      18.339  22.613 -19.196  1.00  0.00     0.293 HD
ENDBRANCH   8  26
TORSDOF 6
ENDMDL
MODEL 2
REMARK VINA RESULT:    -7.807      1.053      1.371
REMARK INTER + INTRA:          -9.651
REMARK INTER:                  -9.452
REMARK INTRA:                  -0.198
REMARK UNBOUND:                -0.246
REMARK SMILES O=c1c(O)c(-c2ccc(O)c(O)c2)oc2cc(O)cc(O)c12
REMARK SMILES IDX 5 1 3 2 2 3 1 4 22 5 20 6 19 7 17 8 16 9 15 10 14 11 6 12
REMARK SMILES IDX 7 13 8 14 9 15 13 16 11 17 10 18 12 20 4 22 21 24 18 26
REMARK H PARENT 10 19 12 21 4 23 21 25 18 27
REMARK Flexibility Score: inf
ROOT
ATOM      1  C   UNL     1      15.130  20.845 -12.077  1.00  0.00     0.180 A 
ATOM      2  C   UNL     1      16.306  20.979 -11.315  1.00  0.00     0.208 A 
ATOM      3  C   UNL     1      17.494  21.351 -11.963  1.00  0.00     0.238 A 
ATOM      4  O   UNL     1      18.553  21.486 -11.290  1.00  0.00    -0.285 OA
ATOM      5  C   UNL     1      17.492  21.562 -13.357  1.00  0.00     0.111 A 
ATOM      6  C   UNL     1      18.647  21.934 -14.087  1.00  0.00     0.134 A 
ATOM      7  C   UNL     1      18.565  22.114 -15.475  1.00  0.00     0.093 A 
ATOM      8  C   UNL     1      17.355  21.931 -16.147  1.00  0.00     0.123 A 
ATOM      9  C   UNL     1      16.210  21.564 -15.433  1.00  0.00     0.094 A 
ATOM     10  C   UNL     1      16.270  21.380 -14.048  1.00  0.00     0.146 A 
ATOM     11  O   UNL     1      15.168  21.036 -13.392  1.00  0.00    -0.452 OA
ENDROOT
BRANCH   1  12
ATOM     12  C   UNL     1      13.834  20.475 -11.464  1.00  0.00     0.025 A 
ATOM     13  C   UNL     1      13.205  21.372 -10.586  1.00  0.00     0.016 A 
ATOM     14  C   UNL     1      11.992  21.036  -9.980  1.00  0.00     0.051 A 
ATOM     15  C   UNL     1      11.397  19.793 -10.230  1.00  0.00     0.157 A 
ATOM     16  C   UNL     1      13.244  19.219 -11.697  1.00  0.00     0.062 A 
ATOM     17  C   UNL     1      12.029  18.879 -11.090  1.00  0.00     0.158 A 
BRANCH  15  18
ATOM     18  O   UNL     1      10.185  19.460  -9.627  1.00  0.00    -0.504 OA
ATOM     19  H   UNL     1       9.717  18.583  -9.824  1.00  0.00     0.293 HD
ENDBRANCH  15  18
BRANCH  17  20
ATOM     20  O   UNL     1      11.471  17.627 -11.348  1.00  0.00    -0.504 OA
ATOM     21  H   UNL     1      10.540  17.378 -11.036  1.00  0.00     0.293 HD
ENDBRANCH  17  20
ENDBRANCH   1  12
BRANCH   2  22
ATOM     22  O   UNL     1      16.293  20.718  -9.942  1.00  0.00    -0.502 OA
ATOM     23  H   UNL     1      15.511  20.967  -9.350  1.00  0.00     0.293 HD
ENDBRANCH   2  22
BRANCH   6  24
ATOM     24  O   UNL     1      19.872  22.124 -13.445  1.00  0.00    -0.507 OA
ATOM     25  H   UNL     1      20.177  23.040 -13.140  1.00  0.00     0.293 HD
ENDBRANCH   6  24
BRANCH   8  26
ATOM     26  O   UNL     1      17.300  22.116 -17.527  1.00  0.00    -0.508 OA
ATOM     27  H   UNL     1      16.460  21.912 -18.056  1.00  0.00     0.293 HD
ENDBRANCH   8  26
TORSDOF 6
ENDMDL
MODEL 3
REMARK VINA RESULT:    -7.356      2.022      3.926
REMARK INTER + INTRA:          -9.107
REMARK INTER:                  -8.834
REMARK INTRA:                  -0.273
REMARK UNBOUND:                -0.246
REMARK SMILES O=c1c(O)c(-c2ccc(O)c(O)c2)oc2cc(O)cc(O)c12
REMARK SMILES IDX 5 1 3 2 2 3 1 4 22 5 20 6 19 7 17 8 16 9 15 10 14 11 6 12
REMARK SMILES IDX 7 13 8 14 9 15 13 16 11 17 10 18 12 20 4 22 21 24 18 26
REMARK H PARENT 10 19 12 21 4 23 21 25 18 27
REMARK Flexibility Score: inf
ROOT
ATOM      1  C   UNL     1      15.884  21.026 -11.575  1.00  0.00     0.180 A 
ATOM      2  C   UNL     1      16.310  21.369 -12.872  1.00  0.00     0.208 A 
ATOM      3  C   UNL     1      17.673  21.614 -13.095  1.00  0.00     0.238 A 
ATOM      4  O   UNL     1      18.068  21.911 -14.256  1.00  0.00    -0.285 OA
ATOM      5  C   UNL     1      18.581  21.534 -12.020  1.00  0.00     0.111 A 
ATOM      6  C   UNL     1      19.970  21.771 -12.160  1.00  0.00     0.134 A 
ATOM      7  C   UNL     1      20.807  21.681 -11.038  1.00  0.00     0.093 A 
ATOM      8  C   UNL     1      20.286  21.360  -9.783  1.00  0.00     0.123 A 
ATOM      9  C   UNL     1      18.915  21.125  -9.638  1.00  0.00     0.094 A 
ATOM     10  C   UNL     1      18.063  21.208 -10.744  1.00  0.00     0.146 A 
ATOM     11  O   UNL     1      16.766  20.975 -10.581  1.00  0.00    -0.452 OA
ENDROOT
BRANCH   1  12
ATOM     12  C   UNL     1      14.466  20.734 -11.263  1.00  0.00     0.025 A 
ATOM     13  C   UNL     1      13.721  21.652 -10.507  1.00  0.00     0.016 A 
ATOM     14  C   UNL     1      12.388  21.387 -10.184  1.00  0.00     0.051 A 
ATOM     15  C   UNL     1      11.784  20.194 -10.599  1.00  0.00     0.157 A 
ATOM     16  C   UNL     1      13.862  19.527 -11.662  1.00  0.00     0.062 A 
ATOM     17  C   UNL     1      12.527  19.258 -11.338  1.00  0.00     0.158 A 
BRANCH  15  18
ATOM     18  O   UNL     1      10.453  19.933 -10.278  1.00  0.00    -0.504 OA
ATOM     19  H   UNL     1       9.717  19.999 -10.972  1.00  0.00     0.293 HD
ENDBRANCH  15  18
BRANCH  17  20
ATOM     20  O   UNL     1      11.959  18.054 -11.754  1.00  0.00    -0.504 OA
ATOM     21  H   UNL     1      11.100  17.697 -11.353  1.00  0.00     0.293 HD
ENDBRANCH  17  20
ENDBRANCH   1  12
BRANCH   2  22
ATOM     22  O   UNL     1      15.382  21.490 -13.911  1.00  0.00    -0.502 OA
ATOM     23  H   UNL     1      15.016  22.385 -14.209  1.00  0.00     0.293 HD
ENDBRANCH   2  22
BRANCH   6  24
ATOM     24  O   UNL     1      20.523  22.095 -13.400  1.00  0.00    -0.507 OA
ATOM     25  H   UNL     1      19.958  22.135 -14.240  1.00  0.00     0.293 HD
ENDBRANCH   6  24
BRANCH   8  26
ATOM     26  O   UNL     1      21.139  21.279  -8.685  1.00  0.00    -0.508 OA
ATOM     27  H   UNL     1      22.145  21.341  -8.789  1.00  0.00     0.293 HD
ENDBRANCH   8  26
TORSDOF 6
ENDMDL
MODEL 4
REMARK VINA RESULT:    -7.196      1.540      2.138
REMARK INTER + INTRA:          -8.914
REMARK INTER:                  -8.810
REMARK INTRA:                  -0.104
REMARK UNBOUND:                -0.246
REMARK SMILES O=c1c(O)c(-c2ccc(O)c(O)c2)oc2cc(O)cc(O)c12
REMARK SMILES IDX 5 1 3 2 2 3 1 4 22 5 20 6 19 7 17 8 16 9 15 10 14 11 6 12
REMARK SMILES IDX 7 13 8 14 9 15 13 16 11 17 10 18 12 20 4 22 21 24 18 26
REMARK H PARENT 10 19 12 21 4 23 21 25 18 27
REMARK Flexibility Score: inf
ROOT
ATOM      1  C   UNL     1      15.825  21.047 -11.290  1.00  0.00     0.180 A 
ATOM      2  C   UNL     1      16.783  21.154 -10.264  1.00  0.00     0.208 A 
ATOM      3  C   UNL     1      18.108  21.467 -10.603  1.00  0.00     0.238 A 
ATOM      4  O   UNL     1      18.973  21.576  -9.691  1.00  0.00    -0.285 OA
ATOM      5  C   UNL     1      18.457  21.649 -11.957  1.00  0.00     0.111 A 
ATOM      6  C   UNL     1      19.771  21.962 -12.383  1.00  0.00     0.134 A 
ATOM      7  C   UNL     1      20.040  22.117 -13.751  1.00  0.00     0.093 A 
ATOM      8  C   UNL     1      19.025  21.966 -14.698  1.00  0.00     0.123 A 
ATOM      9  C   UNL     1      17.726  21.656 -14.284  1.00  0.00     0.094 A 
ATOM     10  C   UNL     1      17.436  21.498 -12.925  1.00  0.00     0.146 A 
ATOM     11  O   UNL     1      16.193  21.210 -12.558  1.00  0.00    -0.452 OA
ENDROOT
BRANCH   1  12
ATOM     12  C   UNL     1      14.404  20.739 -11.012  1.00  0.00     0.025 A 
ATOM     13  C   UNL     1      13.663  21.593 -10.179  1.00  0.00     0.016 A 
ATOM     14  C   UNL     1      12.326  21.311  -9.886  1.00  0.00     0.051 A 
ATOM     15  C   UNL     1      11.715  20.164 -10.408  1.00  0.00     0.157 A 
ATOM     16  C   UNL     1      13.793  19.578 -11.518  1.00  0.00     0.062 A 
ATOM     17  C   UNL     1      12.454  19.291 -11.224  1.00  0.00     0.158 A 
BRANCH  15  18
ATOM     18  O   UNL     1      10.380  19.886 -10.116  1.00  0.00    -0.504 OA
ATOM     19  H   UNL     1      10.106  19.026  -9.656  1.00  0.00     0.293 HD
ENDBRANCH  15  18
BRANCH  17  20
ATOM     20  O   UNL     1      11.879  18.133 -11.747  1.00  0.00    -0.504 OA
ATOM     21  H   UNL     1      12.158  17.208 -11.441  1.00  0.00     0.293 HD
ENDBRANCH  17  20
ENDBRANCH   1  12
BRANCH   2  22
ATOM     22  O   UNL     1      16.422  20.921  -8.934  1.00  0.00    -0.502 OA
ATOM     23  H   UNL     1      15.541  20.492  -8.678  1.00  0.00     0.293 HD
ENDBRANCH   2  22
BRANCH   6  24
ATOM     24  O   UNL     1      20.807  22.119 -11.461  1.00  0.00    -0.507 OA
ATOM     25  H   UNL     1      21.566  21.453 -11.394  1.00  0.00     0.293 HD
ENDBRANCH   6  24
BRANCH   8  26
ATOM     26  O   UNL     1      19.319  22.124 -16.051  1.00  0.00    -0.508 OA
ATOM     27  H   UNL     1      18.624  21.954 -16.768  1.00  0.00     0.293 HD
ENDBRANCH   8  26
TORSDOF 6
ENDMDL
MODEL 5
REMARK VINA RESULT:    -6.875      1.956      3.080
REMARK INTER + INTRA:          -8.527
REMARK INTER:                  -8.255
REMARK INTRA:                  -0.272
REMARK UNBOUND:                -0.246
REMARK SMILES O=c1c(O)c(-c2ccc(O)c(O)c2)oc2cc(O)cc(O)c12
REMARK SMILES IDX 5 1 3 2 2 3 1 4 22 5 20 6 19 7 17 8 16 9 15 10 14 11 6 12
REMARK SMILES IDX 7 13 8 14 9 15 13 16 11 17 10 18 12 20 4 22 21 24 18 26
REMARK H PARENT 10 19 12 21 4 23 21 25 18 27
REMARK Flexibility Score: inf
ROOT
ATOM      1  C   UNL     1      14.244  20.364 -10.823  1.00  0.00     0.180 A 
ATOM      2  C   UNL     1      15.282  20.326  -9.872  1.00  0.00     0.208 A 
ATOM      3  C   UNL     1      16.578  20.687 -10.269  1.00  0.00     0.238 A 
ATOM      4  O   UNL     1      17.515  20.667  -9.424  1.00  0.00    -0.285 OA
ATOM      5  C   UNL     1      16.819  21.060 -11.607  1.00  0.00     0.111 A 
ATOM      6  C   UNL     1      18.097  21.434 -12.090  1.00  0.00     0.134 A 
ATOM      7  C   UNL     1      18.257  21.782 -13.438  1.00  0.00     0.093 A 
ATOM      8  C   UNL     1      17.169  21.764 -14.313  1.00  0.00     0.123 A 
ATOM      9  C   UNL     1      15.904  21.396 -13.844  1.00  0.00     0.094 A 
ATOM     10  C   UNL     1      15.723  21.046 -12.502  1.00  0.00     0.146 A 
ATOM     11  O   UNL     1      14.510  20.705 -12.080  1.00  0.00    -0.452 OA
ENDROOT
BRANCH   1  12
ATOM     12  C   UNL     1      12.847  20.016 -10.477  1.00  0.00     0.025 A 
ATOM     13  C   UNL     1      12.066  20.931  -9.753  1.00  0.00     0.016 A 
ATOM     14  C   UNL     1      10.752  20.616  -9.398  1.00  0.00     0.051 A 
ATOM     15  C   UNL     1      10.204  19.375  -9.748  1.00  0.00     0.157 A 
ATOM     16  C   UNL     1      12.300  18.763 -10.810  1.00  0.00     0.062 A 
ATOM     17  C   UNL     1      10.984  18.444 -10.454  1.00  0.00     0.158 A 
BRANCH  15  18
ATOM     18  O   UNL     1       8.892  19.064  -9.395  1.00  0.00    -0.504 OA
ATOM     19  H   UNL     1       8.613  18.960  -8.426  1.00  0.00     0.293 HD
ENDBRANCH  15  18
BRANCH  17  20
ATOM     20  O   UNL     1      10.472  17.194 -10.805  1.00  0.00    -0.504 OA
ATOM     21  H   UNL     1      11.073  16.415 -11.046  1.00  0.00     0.293 HD
ENDBRANCH  17  20
ENDBRANCH   1  12
BRANCH   2  22
ATOM     22  O   UNL     1      15.026  19.905  -8.564  1.00  0.00    -0.502 OA
ATOM     23  H   UNL     1      15.204  20.495  -7.761  1.00  0.00     0.293 HD
ENDBRANCH   2  22
BRANCH   6  24
ATOM     24  O   UNL     1      19.205  21.462 -11.241  1.00  0.00    -0.507 OA
ATOM     25  H   UNL     1      20.148  21.553 -11.599  1.00  0.00     0.293 HD
ENDBRANCH   6  24
BRANCH   8  26
ATOM     26  O   UNL     1      17.355  22.114 -15.649  1.00  0.00    -0.508 OA
ATOM     27  H   UNL     1      16.812  22.849 -16.085  1.00  0.00     0.293 HD
ENDBRANCH   8  26
TORSDOF 6
ENDMDL
MODEL 6
REMARK VINA RESULT:    -6.872      1.913      7.155
REMARK INTER + INTRA:          -8.524
REMARK INTER:                  -8.772
REMARK INTRA:                   0.248
REMARK UNBOUND:                -0.246
REMARK SMILES O=c1c(O)c(-c2ccc(O)c(O)c2)oc2cc(O)cc(O)c12
REMARK SMILES IDX 5 1 3 2 2 3 1 4 22 5 20 6 19 7 17 8 16 9 15 10 14 11 6 12
REMARK SMILES IDX 7 13 8 14 9 15 13 16 11 17 10 18 12 20 4 22 21 24 18 26
REMARK H PARENT 10 19 12 21 4 23 21 25 18 27
REMARK Flexibility Score: inf
ROOT
ATOM      1  C   UNL     1      15.270  21.446 -11.470  1.00  0.00     0.180 A 
ATOM      2  C   UNL     1      15.785  21.675 -10.180  1.00  0.00     0.208 A 
ATOM      3  C   UNL     1      14.950  21.472  -9.071  1.00  0.00     0.238 A 
ATOM      4  O   UNL     1      15.404  21.664  -7.909  1.00  0.00    -0.285 OA
ATOM      5  C   UNL     1      13.615  21.066  -9.268  1.00  0.00     0.111 A 
ATOM      6  C   UNL     1      12.707  20.844  -8.205  1.00  0.00     0.134 A 
ATOM      7  C   UNL     1      11.390  20.450  -8.485  1.00  0.00     0.093 A 
ATOM      8  C   UNL     1      10.964  20.274  -9.802  1.00  0.00     0.123 A 
ATOM      9  C   UNL     1      11.856  20.491 -10.858  1.00  0.00     0.094 A 
ATOM     10  C   UNL     1      13.173  20.883 -10.600  1.00  0.00     0.146 A 
ATOM     11  O   UNL     1      14.001  21.078 -11.620  1.00  0.00    -0.452 OA
ENDROOT
BRANCH   1  12
ATOM     12  C   UNL     1      16.094  21.619 -12.688  1.00  0.00     0.025 A 
ATOM     13  C   UNL     1      15.469  21.937 -13.905  1.00  0.00     0.016 A 
ATOM     14  C   UNL     1      16.224  22.085 -15.071  1.00  0.00     0.051 A 
ATOM     15  C   UNL     1      17.612  21.902 -15.042  1.00  0.00     0.157 A 
ATOM     16  C   UNL     1      17.485  21.415 -12.667  1.00  0.00     0.062 A 
ATOM     17  C   UNL     1      18.245  21.561 -13.835  1.00  0.00     0.158 A 
BRANCH  15  18
ATOM     18  O   UNL     1      18.364  22.052 -16.207  1.00  0.00    -0.504 OA
ATOM     19  H   UNL     1      18.388  21.331 -16.919  1.00  0.00     0.293 HD
ENDBRANCH  15  18
BRANCH  17  20
ATOM     20  O   UNL     1      19.623  21.357 -13.776  1.00  0.00    -0.504 OA
ATOM     21  H   UNL     1      20.250  21.704 -14.492  1.00  0.00     0.293 HD
ENDBRANCH  17  20
ENDBRANCH   1  12
BRANCH   2  22
ATOM     22  O   UNL     1      17.098  22.125 -10.013  1.00  0.00    -0.502 OA
ATOM     23  H   UNL     1      17.894  21.630 -10.396  1.00  0.00     0.293 HD
ENDBRANCH   2  22
BRANCH   6  24
ATOM     24  O   UNL     1      13.102  21.012  -6.876  1.00  0.00    -0.507 OA
ATOM     25  H   UNL     1      13.991  20.666  -6.537  1.00  0.00     0.293 HD
ENDBRANCH   6  24
BRANCH   8  26
ATOM     26  O   UNL     1       9.650  19.883 -10.053  1.00  0.00    -0.508 OA
ATOM     27  H   UNL     1       8.940  19.920  -9.332  1.00  0.00     0.293 HD
ENDBRANCH   8  26
TORSDOF 6
ENDMDL
MODEL 7
REMARK VINA RESULT:    -6.235      1.583      1.747
REMARK INTER + INTRA:          -7.756
REMARK INTER:                  -7.951
REMARK INTRA:                   0.194
REMARK UNBOUND:                -0.246
REMARK SMILES O=c1c(O)c(-c2ccc(O)c(O)c2)oc2cc(O)cc(O)c12
REMARK SMILES IDX 5 1 3 2 2 3 1 4 22 5 20 6 19 7 17 8 16 9 15 10 14 11 6 12
REMARK SMILES IDX 7 13 8 14 9 15 13 16 11 17 10 18 12 20 4 22 21 24 18 26
REMARK H PARENT 10 19 12 21 4 23 21 25 18 27
REMARK Flexibility Score: inf
ROOT
ATOM      1  C   UNL     1      16.838  21.398 -12.103  1.00  0.00     0.180 A 
ATOM      2  C   UNL     1      18.222  21.447 -11.852  1.00  0.00     0.208 A 
ATOM      3  C   UNL     1      19.100  21.652 -12.928  1.00  0.00     0.238 A 
ATOM      4  O   UNL     1      20.342  21.708 -12.714  1.00  0.00    -0.285 OA
ATOM      5  C   UNL     1      18.583  21.784 -14.233  1.00  0.00     0.111 A 
ATOM      6  C   UNL     1      19.399  21.988 -15.372  1.00  0.00     0.134 A 
ATOM      7  C   UNL     1      18.809  22.099 -16.640  1.00  0.00     0.093 A 
ATOM      8  C   UNL     1      17.424  22.011 -16.791  1.00  0.00     0.123 A 
ATOM      9  C   UNL     1      16.612  21.810 -15.670  1.00  0.00     0.094 A 
ATOM     10  C   UNL     1      17.180  21.697 -14.397  1.00  0.00     0.146 A 
ATOM     11  O   UNL     1      16.387  21.511 -13.348  1.00  0.00    -0.452 OA
ENDROOT
BRANCH   1  12
ATOM     12  C   UNL     1      15.848  21.206 -11.018  1.00  0.00     0.025 A 
ATOM     13  C   UNL     1      14.638  21.916 -11.054  1.00  0.00     0.016 A 
ATOM     14  C   UNL     1      13.698  21.765 -10.032  1.00  0.00     0.051 A 
ATOM     15  C   UNL     1      13.960  20.914  -8.950  1.00  0.00     0.157 A 
ATOM     16  C   UNL     1      16.117  20.368  -9.921  1.00  0.00     0.062 A 
ATOM     17  C   UNL     1      15.178  20.217  -8.893  1.00  0.00     0.158 A 
BRANCH  15  18
ATOM     18  O   UNL     1      13.020  20.764  -7.933  1.00  0.00    -0.504 OA
ATOM     19  H   UNL     1      12.632  21.564  -7.446  1.00  0.00     0.293 HD
ENDBRANCH  15  18
BRANCH  17  20
ATOM     20  O   UNL     1      15.476  19.373  -7.823  1.00  0.00    -0.504 OA
ATOM     21  H   UNL     1      16.298  19.506  -7.246  1.00  0.00     0.293 HD
ENDBRANCH  17  20
ENDBRANCH   1  12
BRANCH   2  22
ATOM     22  O   UNL     1      18.713  21.265 -10.555  1.00  0.00    -0.502 OA
ATOM     23  H   UNL     1      19.599  20.812 -10.369  1.00  0.00     0.293 HD
ENDBRANCH   2  22
BRANCH   6  24
ATOM     24  O   UNL     1      20.787  22.080 -15.255  1.00  0.00    -0.507 OA
ATOM     25  H   UNL     1      21.266  21.840 -14.395  1.00  0.00     0.293 HD
ENDBRANCH   6  24
BRANCH   8  26
ATOM     26  O   UNL     1      16.862  22.124 -18.061  1.00  0.00    -0.508 OA
ATOM     27  H   UNL     1      17.306  21.714 -18.875  1.00  0.00     0.293 HD
ENDBRANCH   8  26
TORSDOF 6
ENDMDL
MODEL 8
REMARK VINA RESULT:    -6.114      1.483      6.670
REMARK INTER + INTRA:          -7.611
REMARK INTER:                  -7.775
REMARK INTRA:                   0.164
REMARK UNBOUND:                -0.246
REMARK SMILES O=c1c(O)c(-c2ccc(O)c(O)c2)oc2cc(O)cc(O)c12
REMARK SMILES IDX 5 1 3 2 2 3 1 4 22 5 20 6 19 7 17 8 16 9 15 10 14 11 6 12
REMARK SMILES IDX 7 13 8 14 9 15 13 16 11 17 10 18 12 20 4 22 21 24 18 26
REMARK H PARENT 10 19 12 21 4 23 21 25 18 27
REMARK Flexibility Score: inf
ROOT
ATOM      1  C   UNL     1      17.804  21.664 -14.156  1.00  0.00     0.180 A 
ATOM      2  C   UNL     1      18.769  21.826 -13.144  1.00  0.00     0.208 A 
ATOM      3  C   UNL     1      18.349  21.861 -11.805  1.00  0.00     0.238 A 
ATOM      4  O   UNL     1      19.206  21.995 -10.889  1.00  0.00    -0.285 OA
ATOM      5  C   UNL     1      16.977  21.752 -11.502  1.00  0.00     0.111 A 
ATOM      6  C   UNL     1      16.470  21.782 -10.180  1.00  0.00     0.134 A 
ATOM      7  C   UNL     1      15.089  21.678  -9.962  1.00  0.00     0.093 A 
ATOM      8  C   UNL     1      14.206  21.546 -11.036  1.00  0.00     0.123 A 
ATOM      9  C   UNL     1      14.699  21.516 -12.344  1.00  0.00     0.094 A 
ATOM     10  C   UNL     1      16.073  21.616 -12.583  1.00  0.00     0.146 A 
ATOM     11  O   UNL     1      16.517  21.580 -13.834  1.00  0.00    -0.452 OA
ENDROOT
BRANCH   1  12
ATOM     12  C   UNL     1      18.170  21.598 -15.589  1.00  0.00     0.025 A 
ATOM     13  C   UNL     1      17.292  22.123 -16.550  1.00  0.00     0.016 A 
ATOM     14  C   UNL     1      17.607  22.054 -17.909  1.00  0.00     0.051 A 
ATOM     15  C   UNL     1      18.798  21.446 -18.329  1.00  0.00     0.157 A 
ATOM     16  C   UNL     1      19.355  20.971 -16.015  1.00  0.00     0.062 A 
ATOM     17  C   UNL     1      19.673  20.898 -17.377  1.00  0.00     0.158 A 
BRANCH  15  18
ATOM     18  O   UNL     1      19.111  21.381 -19.686  1.00  0.00    -0.504 OA
ATOM     19  H   UNL     1      19.316  22.215 -20.224  1.00  0.00     0.293 HD
ENDBRANCH  15  18
BRANCH  17  20
ATOM     20  O   UNL     1      20.859  20.273 -17.762  1.00  0.00    -0.504 OA
ATOM     21  H   UNL     1      20.890  19.298 -18.033  1.00  0.00     0.293 HD
ENDBRANCH  17  20
ENDBRANCH   1  12
BRANCH   2  22
ATOM     22  O   UNL     1      20.119  21.981 -13.473  1.00  0.00    -0.502 OA
ATOM     23  H   UNL     1      20.576  22.884 -13.478  1.00  0.00     0.293 HD
ENDBRANCH   2  22
BRANCH   6  24
ATOM     24  O   UNL     1      17.326  21.914  -9.086  1.00  0.00    -0.507 OA
ATOM     25  H   UNL     1      18.242  22.336  -9.174  1.00  0.00     0.293 HD
ENDBRANCH   6  24
BRANCH   8  26
ATOM     26  O   UNL     1      12.837  21.446 -10.792  1.00  0.00    -0.508 OA
ATOM     27  H   UNL     1      12.466  21.450  -9.849  1.00  0.00     0.293 HD
ENDBRANCH   8  26
TORSDOF 6
ENDMDL
MODEL 9
REMARK VINA RESULT:    -6.035      1.466      6.619
REMARK INTER + INTRA:          -7.516
REMARK INTER:                  -7.943
REMARK INTRA:                   0.427
REMARK UNBOUND:                -0.246
REMARK SMILES O=c1c(O)c(-c2ccc(O)c(O)c2)oc2cc(O)cc(O)c12
REMARK SMILES IDX 5 1 3 2 2 3 1 4 22 5 20 6 19 7 17 8 16 9 15 10 14 11 6 12
REMARK SMILES IDX 7 13 8 14 9 15 13 16 11 17 10 18 12 20 4 22 21 24 18 26
REMARK H PARENT 10 19 12 21 4 23 21 25 18 27
REMARK Flexibility Score: inf
ROOT
ATOM      1  C   UNL     1      17.173  21.692 -12.875  1.00  0.00     0.180 A 
ATOM      2  C   UNL     1      18.011  21.884 -11.760  1.00  0.00     0.208 A 
ATOM      3  C   UNL     1      17.440  21.907 -10.479  1.00  0.00     0.238 A 
ATOM      4  O   UNL     1      18.181  22.068  -9.471  1.00  0.00    -0.285 OA
ATOM      5  C   UNL     1      16.045  21.759 -10.334  1.00  0.00     0.111 A 
ATOM      6  C   UNL     1      15.390  21.775  -9.079  1.00  0.00     0.134 A 
ATOM      7  C   UNL     1      13.996  21.630  -9.021  1.00  0.00     0.093 A 
ATOM      8  C   UNL     1      13.246  21.471 -10.187  1.00  0.00     0.123 A 
ATOM      9  C   UNL     1      13.887  21.454 -11.431  1.00  0.00     0.094 A 
ATOM     10  C   UNL     1      15.275  21.595 -11.511  1.00  0.00     0.146 A 
ATOM     11  O   UNL     1      15.861  21.571 -12.703  1.00  0.00    -0.452 OA
ENDROOT
BRANCH   1  12
ATOM     12  C   UNL     1      17.703  21.636 -14.257  1.00  0.00     0.025 A 
ATOM     13  C   UNL     1      19.066  21.371 -14.464  1.00  0.00     0.016 A 
ATOM     14  C   UNL     1      19.591  21.333 -15.758  1.00  0.00     0.051 A 
ATOM     15  C   UNL     1      18.766  21.576 -16.863  1.00  0.00     0.157 A 
ATOM     16  C   UNL     1      16.881  21.899 -15.368  1.00  0.00     0.062 A 
ATOM     17  C   UNL     1      17.405  21.864 -16.666  1.00  0.00     0.158 A 
BRANCH  15  18
ATOM     18  O   UNL     1      19.292  21.535 -18.154  1.00  0.00    -0.504 OA
ATOM     19  H   UNL     1      19.574  22.380 -18.638  1.00  0.00     0.293 HD
ENDBRANCH  15  18
BRANCH  17  20
ATOM     20  O   UNL     1      16.560  22.125 -17.744  1.00  0.00    -0.504 OA
ATOM     21  H   UNL     1      16.915  22.300 -18.677  1.00  0.00     0.293 HD
ENDBRANCH  17  20
ENDBRANCH   1  12
BRANCH   2  22
ATOM     22  O   UNL     1      19.385  22.078 -11.934  1.00  0.00    -0.502 OA
ATOM     23  H   UNL     1      20.076  21.571 -11.395  1.00  0.00     0.293 HD
ENDBRANCH   2  22
BRANCH   6  24
ATOM     24  O   UNL     1      16.111  21.933  -7.894  1.00  0.00    -0.507 OA
ATOM     25  H   UNL     1      15.970  21.322  -7.100  1.00  0.00     0.293 HD
ENDBRANCH   6  24
BRANCH   8  26
ATOM     26  O   UNL     1      11.862  21.331 -10.101  1.00  0.00    -0.508 OA
ATOM     27  H   UNL     1      11.402  21.157  -9.216  1.00  0.00     0.293 HD
ENDBRANCH   8  26
TORSDOF 6
ENDMDL
