MODEL 1
REMARK VINA RESULT:    -1.283      0.000      0.000
REMARK INTER + INTRA:          -2.217
REMARK INTER:                  -1.733
REMARK INTRA:                  -0.484
REMARK UNBOUND:                -0.484
REMARK SMILES [NH3+]CCCC[C@@H]([NH3+])C(=O)[O-]
REMARK SMILES IDX 4 1 3 2 2 3 1 4 5 8 6 9 7 10 8 14 9 15 10 16
REMARK H PARENT 1 5 1 6 1 7 7 11 7 12 7 13
REMARK Flexibility Score: inf
ROOT
ATOM      1  C   UNL     1     152.473 137.888  95.595  1.00  0.00     0.012 C 
ENDROOT
BRANCH   1   2
ATOM      2  C   UNL     1     152.906 137.175  94.304  1.00  0.00     0.061 C 
BRANCH   2   3
ATOM      3  C   UNL     1     152.125 135.872  94.059  1.00  0.00     0.258 C 
BRANCH   3   4
ATOM      4  N   UNL     1     152.373 134.876  95.104  1.00  0.00    -0.358 N 
ATOM      5  H   UNL     1     152.289 135.338  96.038  1.00  0.00     0.344 HD
ATOM      6  H   UNL     1     153.339 134.487  95.016  1.00  0.00     0.344 HD
ATOM      7  H   UNL     1     151.670 134.104  95.047  1.00  0.00     0.344 HD
ENDBRANCH   3   4
ENDBRANCH   2   3
ENDBRANCH   1   2
BRANCH   1   8
ATOM      8  C   UNL     1     153.649 138.002  96.579  1.00  0.00     0.072 C 
BRANCH   8   9
ATOM      9  C   UNL     1     153.296 137.483  97.991  1.00  0.00     0.227 C 
BRANCH   9  10
ATOM     10  N   UNL     1     151.866 137.166  98.115  1.00  0.00    -0.350 N 
ATOM     11  H   UNL     1     151.292 138.003  97.863  1.00  0.00     0.345 HD
ATOM     12  H   UNL     1     151.608 136.399  97.453  1.00  0.00     0.345 HD
ATOM     13  H   UNL     1     151.633 136.874  99.092  1.00  0.00     0.345 HD
ENDBRANCH   9  10
BRANCH   9  14
ATOM     14  C   UNL     1     154.125 136.265  98.304  1.00  0.00     0.099 C 
ATOM     15  O   UNL     1     155.081 136.337  99.121  1.00  0.00    -0.544 OA
ATOM     16  O   UNL     1     153.824 135.048  97.707  1.00  0.00    -0.544 OA
ENDBRANCH   9  14
ENDBRANCH   8   9
ENDBRANCH   1   8
TORSDOF 7
ENDMDL
MODEL 2
REMARK VINA RESULT:    -1.243      2.242      2.639
REMARK INTER + INTRA:          -2.163
REMARK INTER:                  -1.668
REMARK INTRA:                  -0.494
REMARK UNBOUND:                -0.484
REMARK SMILES [NH3+]CCCC[C@@H]([NH3+])C(=O)[O-]
REMARK SMILES IDX 4 1 3 2 2 3 1 4 5 8 6 9 7 10 8 14 9 15 10 16
REMARK H PARENT 1 5 1 6 1 7 7 11 7 12 7 13
REMARK Flexibility Score: inf
ROOT
ATOM      1  C   UNL     1     152.766 137.042  93.875  1.00  0.00     0.012 C 
ENDROOT
BRANCH   1   2
ATOM      2  C   UNL     1     152.143 135.672  94.188  1.00  0.00     0.061 C 
BRANCH   2   3
ATOM      3  C   UNL     1     150.617 135.659  93.994  1.00  0.00     0.258 C 
BRANCH   3   4
ATOM      4  N   UNL     1     149.899 135.902  95.248  1.00  0.00    -0.358 N 
ATOM      5  H   UNL     1     149.752 136.931  95.359  1.00  0.00     0.344 HD
ATOM      6  H   UNL     1     150.461 135.561  96.061  1.00  0.00     0.344 HD
ATOM      7  H   UNL     1     148.967 135.429  95.233  1.00  0.00     0.344 HD
ENDBRANCH   3   4
ENDBRANCH   2   3
ENDBRANCH   1   2
BRANCH   1   8
ATOM      8  C   UNL     1     153.570 137.566  95.075  1.00  0.00     0.072 C 
BRANCH   8   9
ATOM      9  C   UNL     1     153.233 136.825  96.388  1.00  0.00     0.227 C 
BRANCH   9  10
ATOM     10  N   UNL     1     154.445 136.378  97.090  1.00  0.00    -0.350 N 
ATOM     11  H   UNL     1     154.563 136.921  97.976  1.00  0.00     0.345 HD
ATOM     12  H   UNL     1     154.360 135.369  97.350  1.00  0.00     0.345 HD
ATOM     13  H   UNL     1     155.292 136.513  96.491  1.00  0.00     0.345 HD
ENDBRANCH   9  10
BRANCH   9  14
ATOM     14  C   UNL     1     152.417 137.722  97.281  1.00  0.00     0.099 C 
ATOM     15  O   UNL     1     151.262 137.380  97.645  1.00  0.00    -0.544 OA
ATOM     16  O   UNL     1     152.948 138.926  97.725  1.00  0.00    -0.544 OA
ENDBRANCH   9  14
ENDBRANCH   8   9
ENDBRANCH   1   8
TORSDOF 7
ENDMDL
MODEL 3
REMARK VINA RESULT:    -1.222      2.122      2.478
REMARK INTER + INTRA:          -2.135
REMARK INTER:                  -1.945
REMARK INTRA:                  -0.190
REMARK UNBOUND:                -0.484
REMARK SMILES [NH3+]CCCC[C@@H]([NH3+])C(=O)[O-]
REMARK SMILES IDX 4 1 3 2 2 3 1 4 5 8 6 9 7 10 8 14 9 15 10 16
REMARK H PARENT 1 5 1 6 1 7 7 11 7 12 7 13
REMARK Flexibility Score: inf
ROOT
ATOM      1  C   UNL     1     152.264 135.931  96.661  1.00  0.00     0.012 C 
ENDROOT
BRANCH   1   2
ATOM      2  C   UNL     1     151.352 135.263  95.620  1.00  0.00     0.061 C 
BRANCH   2   3
ATOM      3  C   UNL     1     151.878 135.425  94.183  1.00  0.00     0.258 C 
BRANCH   3   4
ATOM      4  N   UNL     1     152.935 136.435  94.093  1.00  0.00    -0.358 N 
ATOM      5  H   UNL     1     152.519 137.329  93.746  1.00  0.00     0.344 HD
ATOM      6  H   UNL     1     153.671 136.132  93.416  1.00  0.00     0.344 HD
ATOM      7  H   UNL     1     153.360 136.605  95.033  1.00  0.00     0.344 HD
ENDBRANCH   3   4
ENDBRANCH   2   3
ENDBRANCH   1   2
BRANCH   1   8
ATOM      8  C   UNL     1     152.894 134.883  97.591  1.00  0.00     0.072 C 
BRANCH   8   9
ATOM      9  C   UNL     1     154.309 135.282  98.066  1.00  0.00     0.227 C 
BRANCH   9  10
ATOM     10  N   UNL     1     154.968 136.191  97.117  1.00  0.00    -0.350 N 
ATOM     11  H   UNL     1     154.354 136.344  96.285  1.00  0.00     0.345 HD
ATOM     12  H   UNL     1     155.129 137.123  97.563  1.00  0.00     0.345 HD
ATOM     13  H   UNL     1     155.883 135.795  96.798  1.00  0.00     0.345 HD
ENDBRANCH   9  10
BRANCH   9  14
ATOM     14  C   UNL     1     154.223 135.926  99.425  1.00  0.00     0.099 C 
ATOM     15  O   UNL     1     153.353 135.552 100.255  1.00  0.00    -0.544 OA
ATOM     16  O   UNL     1     155.122 136.925  99.777  1.00  0.00    -0.544 OA
ENDBRANCH   9  14
ENDBRANCH   8   9
ENDBRANCH   1   8
TORSDOF 7
ENDMDL
MODEL 4
REMARK VINA RESULT:    -1.191      2.152      3.260
REMARK INTER + INTRA:          -2.093
REMARK INTER:                  -1.547
REMARK INTRA:                  -0.545
REMARK UNBOUND:                -0.484
REMARK SMILES [NH3+]CCCC[C@@H]([NH3+])C(=O)[O-]
REMARK SMILES IDX 4 1 3 2 2 3 1 4 5 8 6 9 7 10 8 14 9 15 10 16
REMARK H PARENT 1 5 1 6 1 7 7 11 7 12 7 13
REMARK Flexibility Score: inf
ROOT
ATOM      1  C   UNL     1     153.330 139.085  94.372  1.00  0.00     0.012 C 
ENDROOT
BRANCH   1   2
ATOM      2  C   UNL     1     151.830 139.377  94.208  1.00  0.00     0.061 C 
BRANCH   2   3
ATOM      3  C   UNL     1     151.330 140.461  95.179  1.00  0.00     0.258 C 
BRANCH   3   4
ATOM      4  N   UNL     1     152.105 140.488  96.422  1.00  0.00    -0.358 N 
ATOM      5  H   UNL     1     153.090 140.757  96.201  1.00  0.00     0.344 HD
ATOM      6  H   UNL     1     152.115 139.542  96.866  1.00  0.00     0.344 HD
ATOM      7  H   UNL     1     151.705 141.190  97.086  1.00  0.00     0.344 HD
ENDBRANCH   3   4
ENDBRANCH   2   3
ENDBRANCH   1   2
BRANCH   1   8
ATOM      8  C   UNL     1     153.591 137.572  94.442  1.00  0.00     0.072 C 
BRANCH   8   9
ATOM      9  C   UNL     1     152.737 136.871  95.522  1.00  0.00     0.227 C 
BRANCH   9  10
ATOM     10  N   UNL     1     152.639 135.423  95.286  1.00  0.00    -0.350 N 
ATOM     11  H   UNL     1     151.935 135.003  95.935  1.00  0.00     0.345 HD
ATOM     12  H   UNL     1     152.314 135.239  94.309  1.00  0.00     0.345 HD
ATOM     13  H   UNL     1     153.564 134.958  95.437  1.00  0.00     0.345 HD
ENDBRANCH   9  10
BRANCH   9  14
ATOM     14  C   UNL     1     153.326 137.135  96.883  1.00  0.00     0.099 C 
ATOM     15  O   UNL     1     154.477 136.714  97.173  1.00  0.00    -0.544 OA
ATOM     16  O   UNL     1     152.607 137.866  97.819  1.00  0.00    -0.544 OA
ENDBRANCH   9  14
ENDBRANCH   8   9
ENDBRANCH   1   8
TORSDOF 7
ENDMDL
MODEL 5
REMARK VINA RESULT:    -1.154      1.697      2.057
REMARK INTER + INTRA:          -2.043
REMARK INTER:                  -1.481
REMARK INTRA:                  -0.562
REMARK UNBOUND:                -0.484
REMARK SMILES [NH3+]CCCC[C@@H]([NH3+])C(=O)[O-]
REMARK SMILES IDX 4 1 3 2 2 3 1 4 5 8 6 9 7 10 8 14 9 15 10 16
REMARK H PARENT 1 5 1 6 1 7 7 11 7 12 7 13
REMARK Flexibility Score: inf
ROOT
ATOM      1  C   UNL     1     151.297 137.680  95.930  1.00  0.00     0.012 C 
ENDROOT
BRANCH   1   2
ATOM      2  C   UNL     1     151.912 137.692  94.521  1.00  0.00     0.061 C 
BRANCH   2   3
ATOM      3  C   UNL     1     152.389 136.300  94.074  1.00  0.00     0.258 C 
BRANCH   3   4
ATOM      4  N   UNL     1     152.530 135.376  95.201  1.00  0.00    -0.358 N 
ATOM      5  H   UNL     1     152.511 134.395  94.839  1.00  0.00     0.344 HD
ATOM      6  H   UNL     1     151.735 135.493  95.870  1.00  0.00     0.344 HD
ATOM      7  H   UNL     1     153.439 135.535  95.693  1.00  0.00     0.344 HD
ENDBRANCH   3   4
ENDBRANCH   2   3
ENDBRANCH   1   2
BRANCH   1   8
ATOM      8  C   UNL     1     151.935 138.760  96.817  1.00  0.00     0.072 C 
BRANCH   8   9
ATOM      9  C   UNL     1     153.477 138.783  96.712  1.00  0.00     0.227 C 
BRANCH   9  10
ATOM     10  N   UNL     1     154.026 140.110  97.022  1.00  0.00    -0.350 N 
ATOM     11  H   UNL     1     153.429 140.585  97.737  1.00  0.00     0.345 HD
ATOM     12  H   UNL     1     154.986 140.016  97.428  1.00  0.00     0.345 HD
ATOM     13  H   UNL     1     154.070 140.705  96.163  1.00  0.00     0.345 HD
ENDBRANCH   9  10
BRANCH   9  14
ATOM     14  C   UNL     1     154.062 137.750  97.637  1.00  0.00     0.099 C 
ATOM     15  O   UNL     1     154.473 136.648  97.187  1.00  0.00    -0.544 OA
ATOM     16  O   UNL     1     154.172 138.018  98.996  1.00  0.00    -0.544 OA
ENDBRANCH   9  14
ENDBRANCH   8   9
ENDBRANCH   1   8
TORSDOF 7
ENDMDL
MODEL 6
REMARK VINA RESULT:    -1.145     22.925     23.646
REMARK INTER + INTRA:          -2.030
REMARK INTER:                  -1.473
REMARK INTRA:                  -0.557
REMARK UNBOUND:                -0.484
REMARK SMILES [NH3+]CCCC[C@@H]([NH3+])C(=O)[O-]
REMARK SMILES IDX 4 1 3 2 2 3 1 4 5 8 6 9 7 10 8 14 9 15 10 16
REMARK H PARENT 1 5 1 6 1 7 7 11 7 12 7 13
REMARK Flexibility Score: inf
ROOT
ATOM      1  C   UNL     1     138.520 153.075  96.068  1.00  0.00     0.012 C 
ENDROOT
BRANCH   1   2
ATOM      2  C   UNL     1     137.853 151.728  95.748  1.00  0.00     0.061 C 
BRANCH   2   3
ATOM      3  C   UNL     1     137.024 151.772  94.453  1.00  0.00     0.258 C 
BRANCH   3   4
ATOM      4  N   UNL     1     135.622 152.109  94.706  1.00  0.00    -0.358 N 
ATOM      5  H   UNL     1     135.024 151.621  94.000  1.00  0.00     0.344 HD
ATOM      6  H   UNL     1     135.471 153.139  94.607  1.00  0.00     0.344 HD
ATOM      7  H   UNL     1     135.337 151.795  95.662  1.00  0.00     0.344 HD
ENDBRANCH   3   4
ENDBRANCH   2   3
ENDBRANCH   1   2
BRANCH   1   8
ATOM      8  C   UNL     1     138.105 153.576  97.461  1.00  0.00     0.072 C 
BRANCH   8   9
ATOM      9  C   UNL     1     137.022 154.677  97.399  1.00  0.00     0.227 C 
BRANCH   9  10
ATOM     10  N   UNL     1     136.776 155.125  96.021  1.00  0.00    -0.350 N 
ATOM     11  H   UNL     1     137.358 154.567  95.356  1.00  0.00     0.345 HD
ATOM     12  H   UNL     1     135.774 154.971  95.766  1.00  0.00     0.345 HD
ATOM     13  H   UNL     1     137.010 156.139  95.913  1.00  0.00     0.345 HD
ENDBRANCH   9  10
BRANCH   9  14
ATOM     14  C   UNL     1     135.746 154.166  98.014  1.00  0.00     0.099 C 
ATOM     15  O   UNL     1     135.321 154.649  99.097  1.00  0.00    -0.544 OA
ATOM     16  O   UNL     1     135.018 153.171  97.375  1.00  0.00    -0.544 OA
ENDBRANCH   9  14
ENDBRANCH   8   9
ENDBRANCH   1   8
TORSDOF 7
ENDMDL
MODEL 7
REMARK VINA RESULT:    -1.143      2.957      4.397
REMARK INTER + INTRA:          -2.029
REMARK INTER:                  -1.832
REMARK INTRA:                  -0.196
REMARK UNBOUND:                -0.484
REMARK SMILES [NH3+]CCCC[C@@H]([NH3+])C(=O)[O-]
REMARK SMILES IDX 4 1 3 2 2 3 1 4 5 8 6 9 7 10 8 14 9 15 10 16
REMARK H PARENT 1 5 1 6 1 7 7 11 7 12 7 13
REMARK Flexibility Score: inf
ROOT
ATOM      1  C   UNL     1     153.349 137.625  96.489  1.00  0.00     0.012 C 
ENDROOT
BRANCH   1   2
ATOM      2  C   UNL     1     154.398 136.830  97.282  1.00  0.00     0.061 C 
BRANCH   2   3
ATOM      3  C   UNL     1     153.776 135.694  98.112  1.00  0.00     0.258 C 
BRANCH   3   4
ATOM      4  N   UNL     1     154.688 135.204  99.148  1.00  0.00    -0.358 N 
ATOM      5  H   UNL     1     155.368 135.961  99.386  1.00  0.00     0.344 HD
ATOM      6  H   UNL     1     155.225 134.378  98.798  1.00  0.00     0.344 HD
ATOM      7  H   UNL     1     154.156 134.946 100.011  1.00  0.00     0.344 HD
ENDBRANCH   3   4
ENDBRANCH   2   3
ENDBRANCH   1   2
BRANCH   1   8
ATOM      8  C   UNL     1     153.669 137.610  94.986  1.00  0.00     0.072 C 
BRANCH   8   9
ATOM      9  C   UNL     1     152.599 136.867  94.156  1.00  0.00     0.227 C 
BRANCH   9  10
ATOM     10  N   UNL     1     152.450 135.468  94.584  1.00  0.00    -0.350 N 
ATOM     11  H   UNL     1     152.214 134.867  93.761  1.00  0.00     0.345 HD
ATOM     12  H   UNL     1     153.351 135.115  94.981  1.00  0.00     0.345 HD
ATOM     13  H   UNL     1     151.695 135.377  95.301  1.00  0.00     0.345 HD
ENDBRANCH   9  10
BRANCH   9  14
ATOM     14  C   UNL     1     151.281 137.586  94.270  1.00  0.00     0.099 C 
ATOM     15  O   UNL     1     150.271 136.998  94.739  1.00  0.00    -0.544 OA
ATOM     16  O   UNL     1     151.179 138.914  93.875  1.00  0.00    -0.544 OA
ENDBRANCH   9  14
ENDBRANCH   8   9
ENDBRANCH   1   8
TORSDOF 7
ENDMDL
MODEL 8
REMARK VINA RESULT:    -1.097      2.704      4.522
REMARK INTER + INTRA:          -1.966
REMARK INTER:                  -1.447
REMARK INTRA:                  -0.519
REMARK UNBOUND:                -0.484
REMARK SMILES [NH3+]CCCC[C@@H]([NH3+])C(=O)[O-]
REMARK SMILES IDX 4 1 3 2 2 3 1 4 5 8 6 9 7 10 8 14 9 15 10 16
REMARK H PARENT 1 5 1 6 1 7 7 11 7 12 7 13
REMARK Flexibility Score: inf
ROOT
ATOM      1  C   UNL     1     153.611 137.983  99.887  1.00  0.00     0.012 C 
ENDROOT
BRANCH   1   2
ATOM      2  C   UNL     1     154.963 138.704 100.003  1.00  0.00     0.061 C 
BRANCH   2   3
ATOM      3  C   UNL     1     154.891 140.172  99.549  1.00  0.00     0.258 C 
BRANCH   3   4
ATOM      4  N   UNL     1     154.388 140.302  98.179  1.00  0.00    -0.358 N 
ATOM      5  H   UNL     1     154.864 141.111  97.720  1.00  0.00     0.344 HD
ATOM      6  H   UNL     1     153.359 140.486  98.185  1.00  0.00     0.344 HD
ATOM      7  H   UNL     1     154.593 139.435  97.631  1.00  0.00     0.344 HD
ENDBRANCH   3   4
ENDBRANCH   2   3
ENDBRANCH   1   2
BRANCH   1   8
ATOM      8  C   UNL     1     153.788 136.575  99.297  1.00  0.00     0.072 C 
BRANCH   8   9
ATOM      9  C   UNL     1     154.516 136.588  97.935  1.00  0.00     0.227 C 
BRANCH   9  10
ATOM     10  N   UNL     1     155.125 135.285  97.628  1.00  0.00    -0.350 N 
ATOM     11  H   UNL     1     154.382 134.597  97.370  1.00  0.00     0.345 HD
ATOM     12  H   UNL     1     155.769 135.373  96.808  1.00  0.00     0.345 HD
ATOM     13  H   UNL     1     155.658 134.921  98.451  1.00  0.00     0.345 HD
ENDBRANCH   9  10
BRANCH   9  14
ATOM     14  C   UNL     1     153.550 136.977  96.847  1.00  0.00     0.099 C 
ATOM     15  O   UNL     1     153.595 138.127  96.335  1.00  0.00    -0.544 OA
ATOM     16  O   UNL     1     152.615 136.058  96.389  1.00  0.00    -0.544 OA
ENDBRANCH   9  14
ENDBRANCH   8   9
ENDBRANCH   1   8
TORSDOF 7
ENDMDL
MODEL 9
REMARK VINA RESULT:    -1.065      2.598      3.714
REMARK INTER + INTRA:          -1.922
REMARK INTER:                  -1.404
REMARK INTRA:                  -0.518
REMARK UNBOUND:                -0.484
REMARK SMILES [NH3+]CCCC[C@@H]([NH3+])C(=O)[O-]
REMARK SMILES IDX 4 1 3 2 2 3 1 4 5 8 6 9 7 10 8 14 9 15 10 16
REMARK H PARENT 1 5 1 6 1 7 7 11 7 12 7 13
REMARK Flexibility Score: inf
ROOT
ATOM      1  C   UNL     1     151.555 136.133  97.655  1.00  0.00     0.012 C 
ENDROOT
BRANCH   1   2
ATOM      2  C   UNL     1     152.803 135.309  98.007  1.00  0.00     0.061 C 
BRANCH   2   3
ATOM      3  C   UNL     1     154.012 136.191  98.363  1.00  0.00     0.258 C 
BRANCH   3   4
ATOM      4  N   UNL     1     155.123 136.010  97.425  1.00  0.00    -0.358 N 
ATOM      5  H   UNL     1     155.846 136.741  97.614  1.00  0.00     0.344 HD
ATOM      6  H   UNL     1     154.790 136.124  96.441  1.00  0.00     0.344 HD
ATOM      7  H   UNL     1     155.557 135.067  97.550  1.00  0.00     0.344 HD
ENDBRANCH   3   4
ENDBRANCH   2   3
ENDBRANCH   1   2
BRANCH   1   8
ATOM      8  C   UNL     1     151.926 137.597  97.368  1.00  0.00     0.072 C 
BRANCH   8   9
ATOM      9  C   UNL     1     151.587 138.025  95.923  1.00  0.00     0.227 C 
BRANCH   9  10
ATOM     10  N   UNL     1     151.645 139.485  95.758  1.00  0.00    -0.350 N 
ATOM     11  H   UNL     1     151.872 139.722  94.766  1.00  0.00     0.345 HD
ATOM     12  H   UNL     1     150.715 139.909  95.978  1.00  0.00     0.345 HD
ATOM     13  H   UNL     1     152.373 139.901  96.384  1.00  0.00     0.345 HD
ENDBRANCH   9  10
BRANCH   9  14
ATOM     14  C   UNL     1     152.534 137.357  94.962  1.00  0.00     0.099 C 
ATOM     15  O   UNL     1     153.780 137.451  95.123  1.00  0.00    -0.544 OA
ATOM     16  O   UNL     1     152.034 136.613  93.901  1.00  0.00    -0.544 OA
ENDBRANCH   9  14
ENDBRANCH   8   9
ENDBRANCH   1   8
TORSDOF 7
ENDMDL
