MODEL 1
REMARK VINA RESULT:    -3.606      0.000      0.000
REMARK INTER + INTRA:          -4.332
REMARK INTER:                  -4.239
REMARK INTRA:                  -0.093
REMARK UNBOUND:                -0.093
REMARK SMILES CCCCC(=O)[O-]
REMARK SMILES IDX 4 1 5 2 6 3 7 4 3 5 2 6 1 7
REMARK H PARENT
REMARK Flexibility Score: inf
ROOT
ATOM      1  C   UNL     1       0.453  57.473  23.473  1.00  0.00     0.053 C 
ENDROOT
BRANCH   1   2
ATOM      2  C   UNL     1       0.753  57.813  24.901  1.00  0.00     0.041 C 
ATOM      3  O   UNL     1      -0.043  58.530  25.563  1.00  0.00    -0.550 OA
ATOM      4  O   UNL     1       1.896  57.311  25.510  1.00  0.00    -0.550 OA
ENDBRANCH   1   2
BRANCH   1   5
ATOM      5  C   UNL     1       1.503  56.522  22.884  1.00  0.00     0.006 C 
BRANCH   5   6
ATOM      6  C   UNL     1       2.263  57.154  21.708  1.00  0.00    -0.003 C 
ATOM      7  C   UNL     1       3.210  58.248  22.190  1.00  0.00     0.004 C 
ENDBRANCH   5   6
ENDBRANCH   1   5
TORSDOF 3
ENDMDL
MODEL 2
REMARK VINA RESULT:    -3.597      1.456      2.367
REMARK INTER + INTRA:          -4.320
REMARK INTER:                  -4.233
REMARK INTRA:                  -0.087
REMARK UNBOUND:                -0.093
REMARK SMILES CCCCC(=O)[O-]
REMARK SMILES IDX 4 1 5 2 6 3 7 4 3 5 2 6 1 7
REMARK H PARENT
REMARK Flexibility Score: inf
ROOT
ATOM      1  C   UNL     1       3.503  57.552  24.424  1.00  0.00     0.053 C 
ENDROOT
BRANCH   1   2
ATOM      2  C   UNL     1       2.426  57.094  25.359  1.00  0.00     0.041 C 
ATOM      3  O   UNL     1       2.681  56.245  26.254  1.00  0.00    -0.550 OA
ATOM      4  O   UNL     1       1.148  57.630  25.262  1.00  0.00    -0.550 OA
ENDBRANCH   1   2
BRANCH   1   5
ATOM      5  C   UNL     1       2.992  58.620  23.448  1.00  0.00     0.006 C 
BRANCH   5   6
ATOM      6  C   UNL     1       3.091  58.163  21.985  1.00  0.00    -0.003 C 
ATOM      7  C   UNL     1       2.124  57.019  21.700  1.00  0.00     0.004 C 
ENDBRANCH   5   6
ENDBRANCH   1   5
TORSDOF 3
ENDMDL
MODEL 3
REMARK VINA RESULT:    -3.573      2.012      3.281
REMARK INTER + INTRA:          -4.292
REMARK INTER:                  -4.204
REMARK INTRA:                  -0.088
REMARK UNBOUND:                -0.093
REMARK SMILES CCCCC(=O)[O-]
REMARK SMILES IDX 4 1 5 2 6 3 7 4 3 5 2 6 1 7
REMARK H PARENT
REMARK Flexibility Score: inf
ROOT
ATOM      1  C   UNL     1       2.019  57.104  22.023  1.00  0.00     0.053 C 
ENDROOT
BRANCH   1   2
ATOM      2  C   UNL     1       3.134  57.992  22.482  1.00  0.00     0.041 C 
ATOM      3  O   UNL     1       3.476  58.990  21.793  1.00  0.00    -0.550 OA
ATOM      4  O   UNL     1       3.777  57.736  23.687  1.00  0.00    -0.550 OA
ENDBRANCH   1   2
BRANCH   1   5
ATOM      5  C   UNL     1       0.915  56.984  23.081  1.00  0.00     0.006 C 
BRANCH   5   6
ATOM      6  C   UNL     1       0.476  58.355  23.619  1.00  0.00    -0.003 C 
ATOM      7  C   UNL     1       0.445  58.363  25.144  1.00  0.00     0.004 C 
ENDBRANCH   5   6
ENDBRANCH   1   5
TORSDOF 3
ENDMDL
MODEL 4
REMARK VINA RESULT:    -3.524      2.492      3.578
REMARK INTER + INTRA:          -4.235
REMARK INTER:                  -4.155
REMARK INTRA:                  -0.080
REMARK UNBOUND:                -0.093
REMARK SMILES CCCCC(=O)[O-]
REMARK SMILES IDX 4 1 5 2 6 3 7 4 3 5 2 6 1 7
REMARK H PARENT
REMARK Flexibility Score: inf
ROOT
ATOM      1  C   UNL     1       0.920  57.033  22.718  1.00  0.00     0.053 C 
ENDROOT
BRANCH   1   2
ATOM      2  C   UNL     1       2.090  57.045  21.782  1.00  0.00     0.041 C 
ATOM      3  O   UNL     1       2.971  57.940  21.879  1.00  0.00    -0.550 OA
ATOM      4  O   UNL     1       2.224  56.049  20.823  1.00  0.00    -0.550 OA
ENDBRANCH   1   2
BRANCH   1   5
ATOM      5  C   UNL     1       0.934  58.242  23.661  1.00  0.00     0.006 C 
BRANCH   5   6
ATOM      6  C   UNL     1       1.052  57.827  25.136  1.00  0.00    -0.003 C 
ATOM      7  C   UNL     1       2.374  57.113  25.401  1.00  0.00     0.004 C 
ENDBRANCH   5   6
ENDBRANCH   1   5
TORSDOF 3
ENDMDL
MODEL 5
REMARK VINA RESULT:    -3.469      2.294      3.622
REMARK INTER + INTRA:          -4.170
REMARK INTER:                  -4.126
REMARK INTRA:                  -0.045
REMARK UNBOUND:                -0.093
REMARK SMILES CCCCC(=O)[O-]
REMARK SMILES IDX 4 1 5 2 6 3 7 4 3 5 2 6 1 7
REMARK H PARENT
REMARK Flexibility Score: inf
ROOT
ATOM      1  C   UNL     1       0.799  57.448  23.166  1.00  0.00     0.053 C 
ENDROOT
BRANCH   1   2
ATOM      2  C   UNL     1       2.001  57.412  22.272  1.00  0.00     0.041 C 
ATOM      3  O   UNL     1       2.049  56.607  21.305  1.00  0.00    -0.550 OA
ATOM      4  O   UNL     1       3.055  58.292  22.489  1.00  0.00    -0.550 OA
ENDBRANCH   1   2
BRANCH   1   5
ATOM      5  C   UNL     1       1.184  57.734  24.623  1.00  0.00     0.006 C 
BRANCH   5   6
ATOM      6  C   UNL     1       0.079  58.490  25.377  1.00  0.00    -0.003 C 
ATOM      7  C   UNL     1       0.087  59.973  25.019  1.00  0.00     0.004 C 
ENDBRANCH   5   6
ENDBRANCH   1   5
TORSDOF 3
ENDMDL
MODEL 6
REMARK VINA RESULT:    -3.439      2.277      3.080
REMARK INTER + INTRA:          -4.135
REMARK INTER:                  -4.063
REMARK INTRA:                  -0.071
REMARK UNBOUND:                -0.093
REMARK SMILES CCCCC(=O)[O-]
REMARK SMILES IDX 4 1 5 2 6 3 7 4 3 5 2 6 1 7
REMARK H PARENT
REMARK Flexibility Score: inf
ROOT
ATOM      1  C   UNL     1       0.918  57.845  24.972  1.00  0.00     0.053 C 
ENDROOT
BRANCH   1   2
ATOM      2  C   UNL     1       2.305  57.305  25.144  1.00  0.00     0.041 C 
ATOM      3  O   UNL     1       2.549  56.459  26.044  1.00  0.00    -0.550 OA
ATOM      4  O   UNL     1       3.321  57.713  24.289  1.00  0.00    -0.550 OA
ENDBRANCH   1   2
BRANCH   1   5
ATOM      5  C   UNL     1       0.773  58.633  23.664  1.00  0.00     0.006 C 
BRANCH   5   6
ATOM      6  C   UNL     1       0.777  60.152  23.899  1.00  0.00    -0.003 C 
ATOM      7  C   UNL     1      -0.103  60.525  25.088  1.00  0.00     0.004 C 
ENDBRANCH   5   6
ENDBRANCH   1   5
TORSDOF 3
ENDMDL
MODEL 7
REMARK VINA RESULT:    -3.429     10.022     10.606
REMARK INTER + INTRA:          -4.123
REMARK INTER:                  -4.076
REMARK INTRA:                  -0.046
REMARK UNBOUND:                -0.093
REMARK SMILES CCCCC(=O)[O-]
REMARK SMILES IDX 4 1 5 2 6 3 7 4 3 5 2 6 1 7
REMARK H PARENT
REMARK Flexibility Score: inf
ROOT
ATOM      1  C   UNL     1       6.848  49.148  24.827  1.00  0.00     0.053 C 
ENDROOT
BRANCH   1   2
ATOM      2  C   UNL     1       7.735  49.474  25.990  1.00  0.00     0.041 C 
ATOM      3  O   UNL     1       7.655  48.808  27.055  1.00  0.00    -0.550 OA
ATOM      4  O   UNL     1       8.671  50.496  25.885  1.00  0.00    -0.550 OA
ENDBRANCH   1   2
BRANCH   1   5
ATOM      5  C   UNL     1       5.851  48.033  25.168  1.00  0.00     0.006 C 
BRANCH   5   6
ATOM      6  C   UNL     1       4.394  48.478  24.974  1.00  0.00    -0.003 C 
ATOM      7  C   UNL     1       3.514  47.990  26.121  1.00  0.00     0.004 C 
ENDBRANCH   5   6
ENDBRANCH   1   5
TORSDOF 3
ENDMDL
MODEL 8
REMARK VINA RESULT:    -3.422     10.135     10.721
REMARK INTER + INTRA:          -4.115
REMARK INTER:                  -4.095
REMARK INTRA:                  -0.020
REMARK UNBOUND:                -0.093
REMARK SMILES CCCCC(=O)[O-]
REMARK SMILES IDX 4 1 5 2 6 3 7 4 3 5 2 6 1 7
REMARK H PARENT
REMARK Flexibility Score: inf
ROOT
ATOM      1  C   UNL     1       1.304  48.057  22.823  1.00  0.00     0.053 C 
ENDROOT
BRANCH   1   2
ATOM      2  C   UNL     1       0.270  47.448  21.926  1.00  0.00     0.041 C 
ATOM      3  O   UNL     1       0.518  47.265  20.705  1.00  0.00    -0.550 OA
ATOM      4  O   UNL     1      -0.957  47.054  22.446  1.00  0.00    -0.550 OA
ENDBRANCH   1   2
BRANCH   1   5
ATOM      5  C   UNL     1       1.340  47.371  24.195  1.00  0.00     0.006 C 
BRANCH   5   6
ATOM      6  C   UNL     1       2.763  46.949  24.594  1.00  0.00    -0.003 C 
ATOM      7  C   UNL     1       3.193  47.626  25.891  1.00  0.00     0.004 C 
ENDBRANCH   5   6
ENDBRANCH   1   5
TORSDOF 3
ENDMDL
MODEL 9
REMARK VINA RESULT:    -3.409      2.789      3.716
REMARK INTER + INTRA:          -4.100
REMARK INTER:                  -4.002
REMARK INTRA:                  -0.097
REMARK UNBOUND:                -0.093
REMARK SMILES CCCCC(=O)[O-]
REMARK SMILES IDX 4 1 5 2 6 3 7 4 3 5 2 6 1 7
REMARK H PARENT
REMARK Flexibility Score: inf
ROOT
ATOM      1  C   UNL     1       3.520  57.820  23.961  1.00  0.00     0.053 C 
ENDROOT
BRANCH   1   2
ATOM      2  C   UNL     1       2.986  58.010  22.574  1.00  0.00     0.041 C 
ATOM      3  O   UNL     1       2.018  57.317  22.165  1.00  0.00    -0.550 OA
ATOM      4  O   UNL     1       3.540  58.977  21.742  1.00  0.00    -0.550 OA
ENDBRANCH   1   2
BRANCH   1   5
ATOM      5  C   UNL     1       2.437  57.313  24.921  1.00  0.00     0.006 C 
BRANCH   5   6
ATOM      6  C   UNL     1       2.853  56.016  25.632  1.00  0.00    -0.003 C 
ATOM      7  C   UNL     1       3.281  54.952  24.626  1.00  0.00     0.004 C 
ENDBRANCH   5   6
ENDBRANCH   1   5
TORSDOF 3
ENDMDL
