MODEL 1
REMARK VINA RESULT:    -5.138      0.000      0.000
REMARK INTER + INTRA:          -5.949
REMARK INTER:                  -5.738
REMARK INTRA:                  -0.211
REMARK UNBOUND:                -0.211
REMARK SMILES CC(C)c1ccc(C(=O)[O-])cc1
REMARK SMILES IDX 7 1 6 2 11 3 5 4 12 5 4 6 8 7 9 8 10 9 2 10 1 11 3 12
REMARK H PARENT
REMARK Flexibility Score: inf
ROOT
ATOM      1  C   UNL     1      14.470  -1.029 -18.457  1.00  0.00    -0.003 A 
ATOM      2  C   UNL     1      13.310  -0.780 -17.703  1.00  0.00     0.010 A 
ATOM      3  C   UNL     1      15.092   0.041 -19.121  1.00  0.00     0.010 A 
ATOM      4  C   UNL     1      12.785   0.512 -17.615  1.00  0.00     0.004 A 
ATOM      5  C   UNL     1      14.567   1.334 -19.033  1.00  0.00     0.004 A 
ATOM      6  C   UNL     1      13.408   1.583 -18.279  1.00  0.00    -0.045 A 
ENDROOT
BRANCH   1   7
ATOM      7  C   UNL     1      15.023  -2.398 -18.548  1.00  0.00     0.071 C 
ATOM      8  O   UNL     1      16.124  -2.607 -19.123  1.00  0.00    -0.545 OA
ATOM      9  O   UNL     1      14.333  -3.475 -18.001  1.00  0.00    -0.545 OA
ENDBRANCH   1   7
BRANCH   6  10
ATOM     10  C   UNL     1      12.847   2.991 -18.191  1.00  0.00     0.013 C 
ATOM     11  C   UNL     1      12.353   3.474 -19.560  1.00  0.00     0.012 C 
ATOM     12  C   UNL     1      13.877   3.961 -17.604  1.00  0.00     0.012 C 
ENDBRANCH   6  10
TORSDOF 2
ENDMDL
MODEL 2
REMARK VINA RESULT:    -5.108      0.104      1.681
REMARK INTER + INTRA:          -5.916
REMARK INTER:                  -5.708
REMARK INTRA:                  -0.208
REMARK UNBOUND:                -0.211
REMARK SMILES CC(C)c1ccc(C(=O)[O-])cc1
REMARK SMILES IDX 7 1 6 2 11 3 5 4 12 5 4 6 8 7 9 8 10 9 2 10 1 11 3 12
REMARK H PARENT
REMARK Flexibility Score: inf
ROOT
ATOM      1  C   UNL     1      14.359  -1.071 -18.411  1.00  0.00    -0.003 A 
ATOM      2  C   UNL     1      15.036  -0.027 -19.063  1.00  0.00     0.010 A 
ATOM      3  C   UNL     1      13.185  -0.780 -17.696  1.00  0.00     0.010 A 
ATOM      4  C   UNL     1      14.548   1.282 -19.001  1.00  0.00     0.004 A 
ATOM      5  C   UNL     1      12.698   0.529 -17.634  1.00  0.00     0.004 A 
ATOM      6  C   UNL     1      13.374   1.574 -18.286  1.00  0.00    -0.045 A 
ENDROOT
BRANCH   1   7
ATOM      7  C   UNL     1      14.878  -2.455 -18.479  1.00  0.00     0.071 C 
ATOM      8  O   UNL     1      14.199  -3.416 -18.030  1.00  0.00    -0.545 OA
ATOM      9  O   UNL     1      16.124  -2.714 -19.041  1.00  0.00    -0.545 OA
ENDBRANCH   1   7
BRANCH   6  10
ATOM     10  C   UNL     1      12.834   2.990 -18.210  1.00  0.00     0.013 C 
ATOM     11  C   UNL     1      12.384   3.485 -19.590  1.00  0.00     0.012 C 
ATOM     12  C   UNL     1      13.863   3.942 -17.592  1.00  0.00     0.012 C 
ENDBRANCH   6  10
TORSDOF 2
ENDMDL
MODEL 3
REMARK VINA RESULT:    -4.998      0.632      1.414
REMARK INTER + INTRA:          -5.792
REMARK INTER:                  -5.579
REMARK INTRA:                  -0.214
REMARK UNBOUND:                -0.211
REMARK SMILES CC(C)c1ccc(C(=O)[O-])cc1
REMARK SMILES IDX 7 1 6 2 11 3 5 4 12 5 4 6 8 7 9 8 10 9 2 10 1 11 3 12
REMARK H PARENT
REMARK Flexibility Score: inf
ROOT
ATOM      1  C   UNL     1      14.328  -0.698 -18.418  1.00  0.00    -0.003 A 
ATOM      2  C   UNL     1      13.200  -0.238 -17.717  1.00  0.00     0.010 A 
ATOM      3  C   UNL     1      15.108   0.226 -19.133  1.00  0.00     0.010 A 
ATOM      4  C   UNL     1      12.861   1.117 -17.730  1.00  0.00     0.004 A 
ATOM      5  C   UNL     1      14.769   1.581 -19.146  1.00  0.00     0.004 A 
ATOM      6  C   UNL     1      13.642   2.043 -18.445  1.00  0.00    -0.045 A 
ENDROOT
BRANCH   1   7
ATOM      7  C   UNL     1      14.684  -2.134 -18.402  1.00  0.00     0.071 C 
ATOM      8  O   UNL     1      13.870  -2.991 -17.963  1.00  0.00    -0.545 OA
ATOM      9  O   UNL     1      15.922  -2.559 -18.871  1.00  0.00    -0.545 OA
ENDBRANCH   1   7
BRANCH   6  10
ATOM     10  C   UNL     1      13.285   3.517 -18.468  1.00  0.00     0.013 C 
ATOM     11  C   UNL     1      12.286   3.861 -17.356  1.00  0.00     0.012 C 
ATOM     12  C   UNL     1      12.747   3.935 -19.840  1.00  0.00     0.012 C 
ENDBRANCH   6  10
TORSDOF 2
ENDMDL
MODEL 4
REMARK VINA RESULT:    -4.969      3.345      5.034
REMARK INTER + INTRA:          -5.760
REMARK INTER:                  -5.545
REMARK INTRA:                  -0.215
REMARK UNBOUND:                -0.211
REMARK SMILES CC(C)c1ccc(C(=O)[O-])cc1
REMARK SMILES IDX 7 1 6 2 11 3 5 4 12 5 4 6 8 7 9 8 10 9 2 10 1 11 3 12
REMARK H PARENT
REMARK Flexibility Score: inf
ROOT
ATOM      1  C   UNL     1      13.287   2.379 -18.357  1.00  0.00    -0.003 A 
ATOM      2  C   UNL     1      12.710   1.341 -17.606  1.00  0.00     0.010 A 
ATOM      3  C   UNL     1      14.315   2.073 -19.264  1.00  0.00     0.010 A 
ATOM      4  C   UNL     1      13.154   0.024 -17.759  1.00  0.00     0.004 A 
ATOM      5  C   UNL     1      14.758   0.756 -19.417  1.00  0.00     0.004 A 
ATOM      6  C   UNL     1      14.182  -0.283 -18.667  1.00  0.00    -0.045 A 
ENDROOT
BRANCH   1   7
ATOM      7  C   UNL     1      12.815   3.772 -18.192  1.00  0.00     0.071 C 
ATOM      8  O   UNL     1      13.110   4.653 -19.042  1.00  0.00    -0.545 OA
ATOM      9  O   UNL     1      12.039   4.128 -17.094  1.00  0.00    -0.545 OA
ENDBRANCH   1   7
BRANCH   6  10
ATOM     10  C   UNL     1      14.673  -1.708 -18.842  1.00  0.00     0.013 C 
ATOM     11  C   UNL     1      13.757  -2.701 -18.117  1.00  0.00     0.012 C 
ATOM     12  C   UNL     1      16.125  -1.855 -18.375  1.00  0.00     0.012 C 
ENDBRANCH   6  10
TORSDOF 2
ENDMDL
MODEL 5
REMARK VINA RESULT:    -4.961      3.283      5.231
REMARK INTER + INTRA:          -5.752
REMARK INTER:                  -5.544
REMARK INTRA:                  -0.208
REMARK UNBOUND:                -0.211
REMARK SMILES CC(C)c1ccc(C(=O)[O-])cc1
REMARK SMILES IDX 7 1 6 2 11 3 5 4 12 5 4 6 8 7 9 8 10 9 2 10 1 11 3 12
REMARK H PARENT
REMARK Flexibility Score: inf
ROOT
ATOM      1  C   UNL     1      13.537   2.218 -18.309  1.00  0.00    -0.003 A 
ATOM      2  C   UNL     1      14.619   1.865 -19.134  1.00  0.00     0.010 A 
ATOM      3  C   UNL     1      12.842   1.205 -17.629  1.00  0.00     0.010 A 
ATOM      4  C   UNL     1      14.997   0.527 -19.274  1.00  0.00     0.004 A 
ATOM      5  C   UNL     1      13.219  -0.133 -17.769  1.00  0.00     0.004 A 
ATOM      6  C   UNL     1      14.301  -0.488 -18.593  1.00  0.00    -0.045 A 
ENDROOT
BRANCH   1   7
ATOM      7  C   UNL     1      13.141   3.636 -18.164  1.00  0.00     0.071 C 
ATOM      8  O   UNL     1      12.362   4.172 -18.996  1.00  0.00    -0.545 OA
ATOM      9  O   UNL     1      13.623   4.398 -17.105  1.00  0.00    -0.545 OA
ENDBRANCH   1   7
BRANCH   6  10
ATOM     10  C   UNL     1      14.700  -1.945 -18.737  1.00  0.00     0.013 C 
ATOM     11  C   UNL     1      13.700  -2.864 -18.027  1.00  0.00     0.012 C 
ATOM     12  C   UNL     1      16.125  -2.181 -18.226  1.00  0.00     0.012 C 
ENDBRANCH   6  10
TORSDOF 2
ENDMDL
MODEL 6
REMARK VINA RESULT:    -4.921      0.778      2.044
REMARK INTER + INTRA:          -5.707
REMARK INTER:                  -5.494
REMARK INTRA:                  -0.213
REMARK UNBOUND:                -0.211
REMARK SMILES CC(C)c1ccc(C(=O)[O-])cc1
REMARK SMILES IDX 7 1 6 2 11 3 5 4 12 5 4 6 8 7 9 8 10 9 2 10 1 11 3 12
REMARK H PARENT
REMARK Flexibility Score: inf
ROOT
ATOM      1  C   UNL     1      14.317  -0.465 -18.440  1.00  0.00    -0.003 A 
ATOM      2  C   UNL     1      15.046   0.459 -19.208  1.00  0.00     0.010 A 
ATOM      3  C   UNL     1      13.218  -0.012 -17.693  1.00  0.00     0.010 A 
ATOM      4  C   UNL     1      14.681   1.808 -19.227  1.00  0.00     0.004 A 
ATOM      5  C   UNL     1      12.853   1.337 -17.713  1.00  0.00     0.004 A 
ATOM      6  C   UNL     1      13.580   2.262 -18.480  1.00  0.00    -0.045 A 
ENDROOT
BRANCH   1   7
ATOM      7  C   UNL     1      14.707  -1.893 -18.422  1.00  0.00     0.071 C 
ATOM      8  O   UNL     1      13.881  -2.777 -18.072  1.00  0.00    -0.545 OA
ATOM      9  O   UNL     1      15.991  -2.278 -18.791  1.00  0.00    -0.545 OA
ENDBRANCH   1   7
BRANCH   6  10
ATOM     10  C   UNL     1      13.174   3.724 -18.492  1.00  0.00     0.013 C 
ATOM     11  C   UNL     1      12.270   4.056 -17.299  1.00  0.00     0.012 C 
ATOM     12  C   UNL     1      12.499   4.100 -19.816  1.00  0.00     0.012 C 
ENDBRANCH   6  10
TORSDOF 2
ENDMDL
MODEL 7
REMARK VINA RESULT:    -4.053      9.765     10.844
REMARK INTER + INTRA:          -4.738
REMARK INTER:                  -4.537
REMARK INTRA:                  -0.200
REMARK UNBOUND:                -0.211
REMARK SMILES CC(C)c1ccc(C(=O)[O-])cc1
REMARK SMILES IDX 7 1 6 2 11 3 5 4 12 5 4 6 8 7 9 8 10 9 2 10 1 11 3 12
REMARK H PARENT
REMARK Flexibility Score: inf
ROOT
ATOM      1  C   UNL     1       3.858   0.876 -18.693  1.00  0.00    -0.003 A 
ATOM      2  C   UNL     1       2.686   1.648 -18.761  1.00  0.00     0.010 A 
ATOM      3  C   UNL     1       4.771   1.115 -17.652  1.00  0.00     0.010 A 
ATOM      4  C   UNL     1       2.432   2.638 -17.808  1.00  0.00     0.004 A 
ATOM      5  C   UNL     1       4.517   2.105 -16.699  1.00  0.00     0.004 A 
ATOM      6  C   UNL     1       3.345   2.877 -16.766  1.00  0.00    -0.045 A 
ENDROOT
BRANCH   1   7
ATOM      7  C   UNL     1       4.123  -0.172 -19.704  1.00  0.00     0.071 C 
ATOM      8  O   UNL     1       3.748  -1.358 -19.510  1.00  0.00    -0.545 OA
ATOM      9  O   UNL     1       4.792   0.140 -20.883  1.00  0.00    -0.545 OA
ENDBRANCH   1   7
BRANCH   6  10
ATOM     10  C   UNL     1       3.082   3.950 -15.725  1.00  0.00     0.013 C 
ATOM     11  C   UNL     1       1.628   3.905 -15.240  1.00  0.00     0.012 C 
ATOM     12  C   UNL     1       3.442   5.340 -16.259  1.00  0.00     0.012 C 
ENDBRANCH   6  10
TORSDOF 2
ENDMDL
MODEL 8
REMARK VINA RESULT:    -4.027      9.008     10.135
REMARK INTER + INTRA:          -4.709
REMARK INTER:                  -4.506
REMARK INTRA:                  -0.202
REMARK UNBOUND:                -0.211
REMARK SMILES CC(C)c1ccc(C(=O)[O-])cc1
REMARK SMILES IDX 7 1 6 2 11 3 5 4 12 5 4 6 8 7 9 8 10 9 2 10 1 11 3 12
REMARK H PARENT
REMARK Flexibility Score: inf
ROOT
ATOM      1  C   UNL     1       4.856   1.139 -19.109  1.00  0.00    -0.003 A 
ATOM      2  C   UNL     1       4.198   0.059 -19.722  1.00  0.00     0.010 A 
ATOM      3  C   UNL     1       5.600   2.024 -19.907  1.00  0.00     0.010 A 
ATOM      4  C   UNL     1       4.282  -0.131 -21.104  1.00  0.00     0.004 A 
ATOM      5  C   UNL     1       5.683   1.834 -21.289  1.00  0.00     0.004 A 
ATOM      6  C   UNL     1       5.025   0.754 -21.903  1.00  0.00    -0.045 A 
ENDROOT
BRANCH   1   7
ATOM      7  C   UNL     1       4.765   1.336 -17.646  1.00  0.00     0.071 C 
ATOM      8  O   UNL     1       5.557   0.740 -16.868  1.00  0.00    -0.545 OA
ATOM      9  O   UNL     1       3.803   2.184 -17.107  1.00  0.00    -0.545 OA
ENDBRANCH   1   7
BRANCH   6  10
ATOM     10  C   UNL     1       5.125   0.559 -23.405  1.00  0.00     0.013 C 
ATOM     11  C   UNL     1       3.897  -0.181 -23.949  1.00  0.00     0.012 C 
ATOM     12  C   UNL     1       6.419  -0.168 -23.784  1.00  0.00     0.012 C 
ENDBRANCH   6  10
TORSDOF 2
ENDMDL
MODEL 9
REMARK VINA RESULT:    -3.937      1.673      2.777
REMARK INTER + INTRA:          -4.608
REMARK INTER:                  -4.406
REMARK INTRA:                  -0.202
REMARK UNBOUND:                -0.211
REMARK SMILES CC(C)c1ccc(C(=O)[O-])cc1
REMARK SMILES IDX 7 1 6 2 11 3 5 4 12 5 4 6 8 7 9 8 10 9 2 10 1 11 3 12
REMARK H PARENT
REMARK Flexibility Score: inf
ROOT
ATOM      1  C   UNL     1      13.816   0.705 -18.711  1.00  0.00    -0.003 A 
ATOM      2  C   UNL     1      13.924   0.956 -20.090  1.00  0.00     0.010 A 
ATOM      3  C   UNL     1      13.476   1.763 -17.852  1.00  0.00     0.010 A 
ATOM      4  C   UNL     1      13.697   2.238 -20.597  1.00  0.00     0.004 A 
ATOM      5  C   UNL     1      13.249   3.046 -18.359  1.00  0.00     0.004 A 
ATOM      6  C   UNL     1      13.356   3.298 -19.738  1.00  0.00    -0.045 A 
ENDROOT
BRANCH   1   7
ATOM      7  C   UNL     1      14.058  -0.653 -18.178  1.00  0.00     0.071 C 
ATOM      8  O   UNL     1      13.093  -1.392 -17.847  1.00  0.00    -0.545 OA
ATOM      9  O   UNL     1      15.355  -1.133 -18.033  1.00  0.00    -0.545 OA
ENDBRANCH   1   7
BRANCH   6  10
ATOM     10  C   UNL     1      13.107   4.694 -20.276  1.00  0.00     0.013 C 
ATOM     11  C   UNL     1      11.641   4.874 -20.688  1.00  0.00     0.012 C 
ATOM     12  C   UNL     1      14.050   5.016 -21.440  1.00  0.00     0.012 C 
ENDBRANCH   6  10
TORSDOF 2
ENDMDL
