MODEL 1
REMARK VINA RESULT:    -4.663      0.000      0.000
REMARK INTER + INTRA:          -7.328
REMARK INTER:                  -6.299
REMARK INTRA:                  -1.028
REMARK UNBOUND:                -1.028
REMARK SMILES C=CC(C)=CCC=C(C)CCC=C(C)C
REMARK SMILES IDX 8 1 7 2 9 3 10 4 11 5 12 6 14 7 13 8 15 9 6 10 5 11 3 12
REMARK SMILES IDX 4 13 2 14 1 15
REMARK H PARENT
REMARK Flexibility Score: inf
ROOT
ATOM      1  C   UNL     1     134.414 139.986 135.629  1.00  0.00    -0.077 C 
ATOM      2  C   UNL     1     135.203 140.063 134.533  1.00  0.00    -0.024 C 
ATOM      3  C   UNL     1     134.878 140.485 136.976  1.00  0.00     0.039 C 
ENDROOT
BRANCH   1   4
ATOM      4  C   UNL     1     133.029 139.392 135.500  1.00  0.00     0.034 C 
BRANCH   4   5
ATOM      5  C   UNL     1     133.022 138.249 134.479  1.00  0.00     0.032 C 
BRANCH   5   6
ATOM      6  C   UNL     1     132.237 137.070 135.001  1.00  0.00    -0.028 C 
ATOM      7  C   UNL     1     131.857 134.956 136.194  1.00  0.00     0.039 C 
ATOM      8  C   UNL     1     132.773 136.047 135.701  1.00  0.00    -0.080 C 
ATOM      9  C   UNL     1     134.254 135.958 135.984  1.00  0.00     0.039 C 
ENDBRANCH   5   6
ENDBRANCH   4   5
ENDBRANCH   1   4
BRANCH   2  10
ATOM     10  C   UNL     1     136.603 140.619 134.535  1.00  0.00     0.055 C 
BRANCH  10  11
ATOM     11  C   UNL     1     137.582 139.571 134.072  1.00  0.00    -0.020 C 
ATOM     12  C   UNL     1     138.711 139.208 134.716  1.00  0.00    -0.055 C 
ATOM     13  C   UNL     1     139.634 138.223 134.041  1.00  0.00     0.044 C 
BRANCH  12  14
ATOM     14  C   UNL     1     139.087 139.767 136.040  1.00  0.00    -0.005 C 
ATOM     15  C   UNL     1     138.987 139.065 137.169  1.00  0.00     0.009 C 
ENDBRANCH  12  14
ENDBRANCH  10  11
ENDBRANCH   2  10
TORSDOF 6
ENDMDL
MODEL 2
REMARK VINA RESULT:    -4.656      3.011      5.616
REMARK INTER + INTRA:          -7.318
REMARK INTER:                  -6.314
REMARK INTRA:                  -1.003
REMARK UNBOUND:                -1.028
REMARK SMILES C=CC(C)=CCC=C(C)CCC=C(C)C
REMARK SMILES IDX 8 1 7 2 9 3 10 4 11 5 12 6 14 7 13 8 15 9 6 10 5 11 3 12
REMARK SMILES IDX 4 13 2 14 1 15
REMARK H PARENT
REMARK Flexibility Score: inf
ROOT
ATOM      1  C   UNL     1     139.977 138.247 135.657  1.00  0.00    -0.077 C 
ATOM      2  C   UNL     1     140.031 137.449 134.566  1.00  0.00    -0.024 C 
ATOM      3  C   UNL     1     140.514 137.798 136.995  1.00  0.00     0.039 C 
ENDROOT
BRANCH   1   4
ATOM      4  C   UNL     1     139.370 139.627 135.531  1.00  0.00     0.034 C 
BRANCH   4   5
ATOM      5  C   UNL     1     138.231 139.627 134.505  1.00  0.00     0.032 C 
BRANCH   5   6
ATOM      6  C   UNL     1     137.054 140.422 135.012  1.00  0.00    -0.028 C 
ATOM      7  C   UNL     1     134.954 140.833 136.221  1.00  0.00     0.039 C 
ATOM      8  C   UNL     1     136.046 139.907 135.749  1.00  0.00    -0.080 C 
ATOM      9  C   UNL     1     135.975 138.437 136.093  1.00  0.00     0.039 C 
ENDBRANCH   5   6
ENDBRANCH   4   5
ENDBRANCH   1   4
BRANCH   2  10
ATOM     10  C   UNL     1     140.597 136.053 134.567  1.00  0.00     0.055 C 
BRANCH  10  11
ATOM     11  C   UNL     1     139.569 135.072 134.062  1.00  0.00    -0.020 C 
ATOM     12  C   UNL     1     139.223 133.915 134.663  1.00  0.00    -0.055 C 
ATOM     13  C   UNL     1     138.258 132.999 133.950  1.00  0.00     0.044 C 
BRANCH  12  14
ATOM     14  C   UNL     1     139.781 133.501 135.977  1.00  0.00    -0.005 C 
ATOM     15  C   UNL     1     139.120 133.672 137.122  1.00  0.00     0.009 C 
ENDBRANCH  12  14
ENDBRANCH  10  11
ENDBRANCH   2  10
TORSDOF 6
ENDMDL
MODEL 3
REMARK VINA RESULT:    -4.655      3.839      6.864
REMARK INTER + INTRA:          -7.316
REMARK INTER:                  -5.769
REMARK INTRA:                  -1.546
REMARK UNBOUND:                -1.028
REMARK SMILES C=CC(C)=CCC=C(C)CCC=C(C)C
REMARK SMILES IDX 8 1 7 2 9 3 10 4 11 5 12 6 14 7 13 8 15 9 6 10 5 11 3 12
REMARK SMILES IDX 4 13 2 14 1 15
REMARK H PARENT
REMARK Flexibility Score: inf
ROOT
ATOM      1  C   UNL     1     134.241 132.911 134.428  1.00  0.00    -0.077 C 
ATOM      2  C   UNL     1     133.418 132.990 135.499  1.00  0.00    -0.024 C 
ATOM      3  C   UNL     1     134.161 133.901 133.291  1.00  0.00     0.039 C 
ENDROOT
BRANCH   1   4
ATOM      4  C   UNL     1     135.273 131.806 134.373  1.00  0.00     0.034 C 
BRANCH   4   5
ATOM      5  C   UNL     1     136.683 132.370 134.582  1.00  0.00     0.032 C 
BRANCH   5   6
ATOM      6  C   UNL     1     137.108 132.229 136.023  1.00  0.00    -0.028 C 
ATOM      7  C   UNL     1     137.477 132.925 138.350  1.00  0.00     0.039 C 
ATOM      8  C   UNL     1     137.056 133.224 136.934  1.00  0.00    -0.080 C 
ATOM      9  C   UNL     1     136.610 134.621 136.571  1.00  0.00     0.039 C 
ENDBRANCH   5   6
ENDBRANCH   4   5
ENDBRANCH   1   4
BRANCH   2  10
ATOM     10  C   UNL     1     132.343 134.033 135.663  1.00  0.00     0.055 C 
BRANCH  10  11
ATOM     11  C   UNL     1     132.814 135.128 136.587  1.00  0.00    -0.020 C 
ATOM     12  C   UNL     1     133.136 136.385 136.219  1.00  0.00    -0.055 C 
ATOM     13  C   UNL     1     133.704 137.313 137.264  1.00  0.00     0.044 C 
BRANCH  12  14
ATOM     14  C   UNL     1     132.980 136.871 134.823  1.00  0.00    -0.005 C 
ATOM     15  C   UNL     1     131.857 137.436 134.382  1.00  0.00     0.009 C 
ENDBRANCH  12  14
ENDBRANCH  10  11
ENDBRANCH   2  10
TORSDOF 6
ENDMDL
MODEL 4
REMARK VINA RESULT:    -4.653      3.507      5.896
REMARK INTER + INTRA:          -7.314
REMARK INTER:                  -6.283
REMARK INTRA:                  -1.031
REMARK UNBOUND:                -1.028
REMARK SMILES C=CC(C)=CCC=C(C)CCC=C(C)C
REMARK SMILES IDX 8 1 7 2 9 3 10 4 11 5 12 6 14 7 13 8 15 9 6 10 5 11 3 12
REMARK SMILES IDX 4 13 2 14 1 15
REMARK H PARENT
REMARK Flexibility Score: inf
ROOT
ATOM      1  C   UNL     1     133.670 133.360 134.928  1.00  0.00    -0.077 C 
ATOM      2  C   UNL     1     134.601 132.835 134.097  1.00  0.00    -0.024 C 
ATOM      3  C   UNL     1     133.638 133.019 136.398  1.00  0.00     0.039 C 
ENDROOT
BRANCH   1   4
ATOM      4  C   UNL     1     132.641 134.318 134.370  1.00  0.00     0.034 C 
BRANCH   4   5
ATOM      5  C   UNL     1     132.077 135.214 135.478  1.00  0.00     0.032 C 
BRANCH   5   6
ATOM      6  C   UNL     1     132.189 136.670 135.099  1.00  0.00    -0.028 C 
ATOM      7  C   UNL     1     133.039 138.973 135.198  1.00  0.00     0.039 C 
ATOM      8  C   UNL     1     133.002 137.557 135.713  1.00  0.00    -0.080 C 
ATOM      9  C   UNL     1     133.853 137.176 136.902  1.00  0.00     0.039 C 
ENDBRANCH   5   6
ENDBRANCH   4   5
ENDBRANCH   1   4
BRANCH   2  10
ATOM     10  C   UNL     1     135.666 131.862 134.529  1.00  0.00     0.055 C 
BRANCH  10  11
ATOM     11  C   UNL     1     137.033 132.475 134.360  1.00  0.00    -0.020 C 
ATOM     12  C   UNL     1     137.980 132.565 135.317  1.00  0.00    -0.055 C 
ATOM     13  C   UNL     1     139.247 133.320 135.000  1.00  0.00     0.044 C 
BRANCH  12  14
ATOM     14  C   UNL     1     137.803 131.978 136.670  1.00  0.00    -0.005 C 
ATOM     15  C   UNL     1     137.435 132.706 137.725  1.00  0.00     0.009 C 
ENDBRANCH  12  14
ENDBRANCH  10  11
ENDBRANCH   2  10
TORSDOF 6
ENDMDL
MODEL 5
REMARK VINA RESULT:    -4.643      2.503      4.397
REMARK INTER + INTRA:          -7.301
REMARK INTER:                  -5.641
REMARK INTRA:                  -1.660
REMARK UNBOUND:                -1.028
REMARK SMILES C=CC(C)=CCC=C(C)CCC=C(C)C
REMARK SMILES IDX 8 1 7 2 9 3 10 4 11 5 12 6 14 7 13 8 15 9 6 10 5 11 3 12
REMARK SMILES IDX 4 13 2 14 1 15
REMARK H PARENT
REMARK Flexibility Score: inf
ROOT
ATOM      1  C   UNL     1     138.289 139.773 134.497  1.00  0.00    -0.077 C 
ATOM      2  C   UNL     1     139.096 139.775 135.583  1.00  0.00    -0.024 C 
ATOM      3  C   UNL     1     138.399 138.711 133.429  1.00  0.00     0.039 C 
ENDROOT
BRANCH   1   4
ATOM      4  C   UNL     1     137.245 140.859 134.352  1.00  0.00     0.034 C 
BRANCH   4   5
ATOM      5  C   UNL     1     135.842 140.300 134.614  1.00  0.00     0.032 C 
BRANCH   5   6
ATOM      6  C   UNL     1     135.466 140.455 136.067  1.00  0.00    -0.028 C 
ATOM      7  C   UNL     1     135.146 139.770 138.404  1.00  0.00     0.039 C 
ATOM      8  C   UNL     1     135.513 139.458 136.977  1.00  0.00    -0.080 C 
ATOM      9  C   UNL     1     135.900 138.046 136.600  1.00  0.00     0.039 C 
ENDBRANCH   5   6
ENDBRANCH   4   5
ENDBRANCH   1   4
BRANCH   2  10
ATOM     10  C   UNL     1     140.179 138.759 135.833  1.00  0.00     0.055 C 
BRANCH  10  11
ATOM     11  C   UNL     1     139.805 137.871 136.993  1.00  0.00    -0.020 C 
ATOM     12  C   UNL     1     139.338 136.609 136.901  1.00  0.00    -0.055 C 
ATOM     13  C   UNL     1     138.902 135.914 138.167  1.00  0.00     0.044 C 
BRANCH  12  14
ATOM     14  C   UNL     1     139.210 135.900 135.601  1.00  0.00    -0.005 C 
ATOM     15  C   UNL     1     140.159 135.091 135.129  1.00  0.00     0.009 C 
ENDBRANCH  12  14
ENDBRANCH  10  11
ENDBRANCH   2  10
TORSDOF 6
ENDMDL
MODEL 6
REMARK VINA RESULT:    -4.643      3.805      7.976
REMARK INTER + INTRA:          -7.300
REMARK INTER:                  -6.286
REMARK INTRA:                  -1.014
REMARK UNBOUND:                -1.028
REMARK SMILES C=CC(C)=CCC=C(C)CCC=C(C)C
REMARK SMILES IDX 8 1 7 2 9 3 10 4 11 5 12 6 14 7 13 8 15 9 6 10 5 11 3 12
REMARK SMILES IDX 4 13 2 14 1 15
REMARK H PARENT
REMARK Flexibility Score: inf
ROOT
ATOM      1  C   UNL     1     138.354 132.732 135.193  1.00  0.00    -0.077 C 
ATOM      2  C   UNL     1     137.742 132.868 133.994  1.00  0.00    -0.024 C 
ATOM      3  C   UNL     1     137.770 131.872 136.288  1.00  0.00     0.039 C 
ENDROOT
BRANCH   1   4
ATOM      4  C   UNL     1     139.660 133.455 135.440  1.00  0.00     0.034 C 
BRANCH   4   5
ATOM      5  C   UNL     1     139.859 134.579 134.417  1.00  0.00     0.032 C 
BRANCH   5   6
ATOM      6  C   UNL     1     140.610 135.735 135.031  1.00  0.00    -0.028 C 
ATOM      7  C   UNL     1     140.905 137.853 136.240  1.00  0.00     0.039 C 
ATOM      8  C   UNL     1     140.024 136.791 135.635  1.00  0.00    -0.080 C 
ATOM      9  C   UNL     1     138.522 136.944 135.701  1.00  0.00     0.039 C 
ENDBRANCH   5   6
ENDBRANCH   4   5
ENDBRANCH   1   4
BRANCH   2  10
ATOM     10  C   UNL     1     136.435 132.212 133.633  1.00  0.00     0.055 C 
BRANCH  10  11
ATOM     11  C   UNL     1     135.366 133.256 133.428  1.00  0.00    -0.020 C 
ATOM     12  C   UNL     1     134.277 133.431 134.205  1.00  0.00    -0.055 C 
ATOM     13  C   UNL     1     133.251 134.451 133.777  1.00  0.00     0.044 C 
BRANCH  12  14
ATOM     14  C   UNL     1     134.042 132.637 135.439  1.00  0.00    -0.005 C 
ATOM     15  C   UNL     1     133.301 133.087 136.451  1.00  0.00     0.009 C 
ENDBRANCH  12  14
ENDBRANCH  10  11
ENDBRANCH   2  10
TORSDOF 6
ENDMDL
MODEL 7
REMARK VINA RESULT:    -4.636      4.287      7.655
REMARK INTER + INTRA:          -7.290
REMARK INTER:                  -5.678
REMARK INTRA:                  -1.612
REMARK UNBOUND:                -1.028
REMARK SMILES C=CC(C)=CCC=C(C)CCC=C(C)C
REMARK SMILES IDX 8 1 7 2 9 3 10 4 11 5 12 6 14 7 13 8 15 9 6 10 5 11 3 12
REMARK SMILES IDX 4 13 2 14 1 15
REMARK H PARENT
REMARK Flexibility Score: inf
ROOT
ATOM      1  C   UNL     1     139.740 134.256 134.466  1.00  0.00    -0.077 C 
ATOM      2  C   UNL     1     139.705 133.428 135.536  1.00  0.00    -0.024 C 
ATOM      3  C   UNL     1     138.696 134.189 133.377  1.00  0.00     0.039 C 
ENDROOT
BRANCH   1   4
ATOM      4  C   UNL     1     140.849 135.279 134.361  1.00  0.00     0.034 C 
BRANCH   4   5
ATOM      5  C   UNL     1     140.305 136.694 134.583  1.00  0.00     0.032 C 
BRANCH   5   6
ATOM      6  C   UNL     1     140.458 137.107 136.026  1.00  0.00    -0.028 C 
ATOM      7  C   UNL     1     139.775 137.471 138.359  1.00  0.00     0.039 C 
ATOM      8  C   UNL     1     139.464 137.066 136.941  1.00  0.00    -0.080 C 
ATOM      9  C   UNL     1     138.058 136.646 136.579  1.00  0.00     0.039 C 
ENDBRANCH   5   6
ENDBRANCH   4   5
ENDBRANCH   1   4
BRANCH   2  10
ATOM     10  C   UNL     1     138.662 132.362 135.746  1.00  0.00     0.055 C 
BRANCH  10  11
ATOM     11  C   UNL     1     137.688 132.787 136.816  1.00  0.00    -0.020 C 
ATOM     12  C   UNL     1     136.426 133.215 136.608  1.00  0.00    -0.055 C 
ATOM     13  C   UNL     1     135.635 133.713 137.792  1.00  0.00     0.044 C 
BRANCH  12  14
ATOM     14  C   UNL     1     135.806 133.240 135.257  1.00  0.00    -0.005 C 
ATOM     15  C   UNL     1     135.044 132.248 134.799  1.00  0.00     0.009 C 
ENDBRANCH  12  14
ENDBRANCH  10  11
ENDBRANCH   2  10
TORSDOF 6
ENDMDL
MODEL 8
REMARK VINA RESULT:    -4.625      2.976      5.504
REMARK INTER + INTRA:          -7.276
REMARK INTER:                  -6.139
REMARK INTRA:                  -1.137
REMARK UNBOUND:                -1.028
REMARK SMILES C=CC(C)=CCC=C(C)CCC=C(C)C
REMARK SMILES IDX 8 1 7 2 9 3 10 4 11 5 12 6 14 7 13 8 15 9 6 10 5 11 3 12
REMARK SMILES IDX 4 13 2 14 1 15
REMARK H PARENT
REMARK Flexibility Score: inf
ROOT
ATOM      1  C   UNL     1     132.663 134.644 135.712  1.00  0.00    -0.077 C 
ATOM      2  C   UNL     1     132.316 135.368 134.622  1.00  0.00    -0.024 C 
ATOM      3  C   UNL     1     132.603 135.228 137.103  1.00  0.00     0.039 C 
ENDROOT
BRANCH   1   4
ATOM      4  C   UNL     1     133.114 133.212 135.532  1.00  0.00     0.034 C 
BRANCH   4   5
ATOM      5  C   UNL     1     134.212 133.119 134.465  1.00  0.00     0.032 C 
BRANCH   5   6
ATOM      6  C   UNL     1     135.379 132.306 134.967  1.00  0.00    -0.028 C 
ATOM      7  C   UNL     1     137.525 131.882 136.085  1.00  0.00     0.039 C 
ATOM      8  C   UNL     1     136.452 132.824 135.603  1.00  0.00    -0.080 C 
ATOM      9  C   UNL     1     136.612 134.310 135.825  1.00  0.00     0.039 C 
ENDBRANCH   5   6
ENDBRANCH   4   5
ENDBRANCH   1   4
BRANCH   2  10
ATOM     10  C   UNL     1     131.865 136.804 134.670  1.00  0.00     0.055 C 
BRANCH  10  11
ATOM     11  C   UNL     1     132.960 137.713 134.171  1.00  0.00    -0.020 C 
ATOM     12  C   UNL     1     133.404 138.826 134.791  1.00  0.00    -0.055 C 
ATOM     13  C   UNL     1     134.428 139.678 134.084  1.00  0.00     0.044 C 
BRANCH  12  14
ATOM     14  C   UNL     1     132.897 139.251 136.122  1.00  0.00    -0.005 C 
ATOM     15  C   UNL     1     133.574 139.035 137.250  1.00  0.00     0.009 C 
ENDBRANCH  12  14
ENDBRANCH  10  11
ENDBRANCH   2  10
TORSDOF 6
ENDMDL
MODEL 9
REMARK VINA RESULT:    -4.602      2.201      4.345
REMARK INTER + INTRA:          -7.245
REMARK INTER:                  -5.846
REMARK INTRA:                  -1.399
REMARK UNBOUND:                -1.028
REMARK SMILES C=CC(C)=CCC=C(C)CCC=C(C)C
REMARK SMILES IDX 8 1 7 2 9 3 10 4 11 5 12 6 14 7 13 8 15 9 6 10 5 11 3 12
REMARK SMILES IDX 4 13 2 14 1 15
REMARK H PARENT
REMARK Flexibility Score: inf
ROOT
ATOM      1  C   UNL     1     133.158 136.358 134.585  1.00  0.00    -0.077 C 
ATOM      2  C   UNL     1     132.324 137.279 135.123  1.00  0.00    -0.024 C 
ATOM      3  C   UNL     1     134.590 136.691 134.242  1.00  0.00     0.039 C 
ENDROOT
BRANCH   1   4
ATOM      4  C   UNL     1     132.644 134.959 134.330  1.00  0.00     0.034 C 
BRANCH   4   5
ATOM      5  C   UNL     1     132.232 134.284 135.644  1.00  0.00     0.032 C 
BRANCH   5   6
ATOM      6  C   UNL     1     133.447 133.853 136.428  1.00  0.00    -0.028 C 
ATOM      7  C   UNL     1     134.999 133.775 138.331  1.00  0.00     0.039 C 
ATOM      8  C   UNL     1     133.775 134.330 137.648  1.00  0.00    -0.080 C 
ATOM      9  C   UNL     1     132.967 135.409 138.332  1.00  0.00     0.039 C 
ENDBRANCH   5   6
ENDBRANCH   4   5
ENDBRANCH   1   4
BRANCH   2  10
ATOM     10  C   UNL     1     132.713 138.706 135.410  1.00  0.00     0.055 C 
BRANCH  10  11
ATOM     11  C   UNL     1     133.383 138.803 136.757  1.00  0.00    -0.020 C 
ATOM     12  C   UNL     1     134.373 139.660 137.085  1.00  0.00    -0.055 C 
ATOM     13  C   UNL     1     135.006 139.533 138.448  1.00  0.00     0.044 C 
BRANCH  12  14
ATOM     14  C   UNL     1     134.875 140.694 136.142  1.00  0.00    -0.005 C 
ATOM     15  C   UNL     1     135.957 140.510 135.386  1.00  0.00     0.009 C 
ENDBRANCH  12  14
ENDBRANCH  10  11
ENDBRANCH   2  10
TORSDOF 6
ENDMDL
