MODEL 1
REMARK VINA RESULT:    -5.450      0.000      0.000
REMARK INTER + INTRA:          -6.172
REMARK INTER:                  -6.087
REMARK INTRA:                  -0.085
REMARK UNBOUND:                -0.085
REMARK SMILES CCc1ccc(O)cc1O
REMARK SMILES IDX 3 1 9 2 8 3 6 4 5 5 4 6 2 7 1 8 10 9 7 11
REMARK H PARENT 10 10 7 12
REMARK Flexibility Score: inf
ROOT
ATOM      1  C   UNL     1      32.152 -14.406  42.145  1.00  0.00    -0.006 A 
ATOM      2  C   UNL     1      31.723 -13.110  41.760  1.00  0.00     0.122 A 
ATOM      3  C   UNL     1      30.889 -12.960  40.645  1.00  0.00     0.092 A 
ATOM      4  C   UNL     1      30.488 -14.073  39.898  1.00  0.00     0.119 A 
ATOM      5  C   UNL     1      30.923 -15.347  40.265  1.00  0.00     0.047 A 
ATOM      6  C   UNL     1      31.753 -15.513  41.376  1.00  0.00     0.011 A 
ENDROOT
BRANCH   1   7
ATOM      7  C   UNL     1      33.061 -14.633  43.330  1.00  0.00     0.036 C 
ATOM      8  C   UNL     1      33.986 -15.822  43.089  1.00  0.00     0.009 C 
ENDBRANCH   1   7
BRANCH   2   9
ATOM      9  O   UNL     1      32.106 -11.959  42.451  1.00  0.00    -0.508 OA
ATOM     10  H   UNL     1      32.170 -11.045  42.024  1.00  0.00     0.293 HD
ENDBRANCH   2   9
BRANCH   4  11
ATOM     11  O   UNL     1      29.659 -13.923  38.788  1.00  0.00    -0.508 OA
ATOM     12  H   UNL     1      28.848 -13.316  38.811  1.00  0.00     0.293 HD
ENDBRANCH   4  11
TORSDOF 3
ENDMDL
MODEL 2
REMARK VINA RESULT:    -5.116      2.114      3.717
REMARK INTER + INTRA:          -5.799
REMARK INTER:                  -5.714
REMARK INTRA:                  -0.085
REMARK UNBOUND:                -0.085
REMARK SMILES CCc1ccc(O)cc1O
REMARK SMILES IDX 3 1 9 2 8 3 6 4 5 5 4 6 2 7 1 8 10 9 7 11
REMARK H PARENT 10 10 7 12
REMARK Flexibility Score: inf
ROOT
ATOM      1  C   UNL     1      32.083 -13.049  42.315  1.00  0.00    -0.006 A 
ATOM      2  C   UNL     1      30.962 -12.413  41.724  1.00  0.00     0.122 A 
ATOM      3  C   UNL     1      30.524 -11.179  42.221  1.00  0.00     0.092 A 
ATOM      4  C   UNL     1      31.171 -10.575  43.305  1.00  0.00     0.119 A 
ATOM      5  C   UNL     1      32.264 -11.207  43.899  1.00  0.00     0.047 A 
ATOM      6  C   UNL     1      32.715 -12.436  43.413  1.00  0.00     0.011 A 
ENDROOT
BRANCH   1   7
ATOM      7  C   UNL     1      32.598 -14.385  41.833  1.00  0.00     0.036 C 
ATOM      8  C   UNL     1      33.176 -15.196  42.988  1.00  0.00     0.009 C 
ENDBRANCH   1   7
BRANCH   2   9
ATOM      9  O   UNL     1      30.260 -12.975  40.655  1.00  0.00    -0.508 OA
ATOM     10  H   UNL     1      30.526 -13.839  40.204  1.00  0.00     0.293 HD
ENDBRANCH   2   9
BRANCH   4  11
ATOM     11  O   UNL     1      30.734  -9.348  43.800  1.00  0.00    -0.508 OA
ATOM     12  H   UNL     1      31.323  -8.524  43.768  1.00  0.00     0.293 HD
ENDBRANCH   4  11
TORSDOF 3
ENDMDL
MODEL 3
REMARK VINA RESULT:    -5.107      1.940      2.768
REMARK INTER + INTRA:          -5.789
REMARK INTER:                  -5.719
REMARK INTRA:                  -0.070
REMARK UNBOUND:                -0.085
REMARK SMILES CCc1ccc(O)cc1O
REMARK SMILES IDX 3 1 9 2 8 3 6 4 5 5 4 6 2 7 1 8 10 9 7 11
REMARK H PARENT 10 10 7 12
REMARK Flexibility Score: inf
ROOT
ATOM      1  C   UNL     1      32.234 -12.532  42.511  1.00  0.00    -0.006 A 
ATOM      2  C   UNL     1      31.083 -12.511  41.684  1.00  0.00     0.122 A 
ATOM      3  C   UNL     1      30.620 -13.703  41.112  1.00  0.00     0.092 A 
ATOM      4  C   UNL     1      31.292 -14.911  41.335  1.00  0.00     0.119 A 
ATOM      5  C   UNL     1      32.436 -14.929  42.135  1.00  0.00     0.047 A 
ATOM      6  C   UNL     1      32.907 -13.750  42.715  1.00  0.00     0.011 A 
ENDROOT
BRANCH   1   7
ATOM      7  C   UNL     1      32.790 -11.279  43.148  1.00  0.00     0.036 C 
ATOM      8  C   UNL     1      31.990 -10.897  44.389  1.00  0.00     0.009 C 
ENDBRANCH   1   7
BRANCH   2   9
ATOM      9  O   UNL     1      30.382 -11.336  41.406  1.00  0.00    -0.508 OA
ATOM     10  H   UNL     1      30.158 -10.640  42.103  1.00  0.00     0.293 HD
ENDBRANCH   2   9
BRANCH   4  11
ATOM     11  O   UNL     1      30.833 -16.095  40.765  1.00  0.00    -0.508 OA
ATOM     12  H   UNL     1      29.867 -16.388  40.856  1.00  0.00     0.293 HD
ENDBRANCH   4  11
TORSDOF 3
ENDMDL
MODEL 4
REMARK VINA RESULT:    -5.073      1.444      2.653
REMARK INTER + INTRA:          -5.752
REMARK INTER:                  -5.667
REMARK INTRA:                  -0.085
REMARK UNBOUND:                -0.085
REMARK SMILES CCc1ccc(O)cc1O
REMARK SMILES IDX 3 1 9 2 8 3 6 4 5 5 4 6 2 7 1 8 10 9 7 11
REMARK H PARENT 10 10 7 12
REMARK Flexibility Score: inf
ROOT
ATOM      1  C   UNL     1      32.405 -14.856  42.155  1.00  0.00    -0.006 A 
ATOM      2  C   UNL     1      31.283 -14.845  41.289  1.00  0.00     0.122 A 
ATOM      3  C   UNL     1      30.619 -13.638  41.031  1.00  0.00     0.092 A 
ATOM      4  C   UNL     1      31.042 -12.448  41.632  1.00  0.00     0.119 A 
ATOM      5  C   UNL     1      32.136 -12.460  42.498  1.00  0.00     0.047 A 
ATOM      6  C   UNL     1      32.810 -13.654  42.763  1.00  0.00     0.011 A 
ENDROOT
BRANCH   1   7
ATOM      7  C   UNL     1      33.157 -16.125  42.482  1.00  0.00     0.036 C 
ATOM      8  C   UNL     1      34.436 -15.819  43.253  1.00  0.00     0.009 C 
ENDBRANCH   1   7
BRANCH   2   9
ATOM      9  O   UNL     1      30.798 -16.002  40.675  1.00  0.00    -0.508 OA
ATOM     10  H   UNL     1      30.481 -16.037  39.716  1.00  0.00     0.293 HD
ENDBRANCH   2   9
BRANCH   4  11
ATOM     11  O   UNL     1      30.381 -11.249  41.376  1.00  0.00    -0.508 OA
ATOM     12  H   UNL     1      29.753 -10.834  42.056  1.00  0.00     0.293 HD
ENDBRANCH   4  11
TORSDOF 3
ENDMDL
MODEL 5
REMARK VINA RESULT:    -5.050      2.435      3.718
REMARK INTER + INTRA:          -5.726
REMARK INTER:                  -5.641
REMARK INTRA:                  -0.085
REMARK UNBOUND:                -0.085
REMARK SMILES CCc1ccc(O)cc1O
REMARK SMILES IDX 3 1 9 2 8 3 6 4 5 5 4 6 2 7 1 8 10 9 7 11
REMARK H PARENT 10 10 7 12
REMARK Flexibility Score: inf
ROOT
ATOM      1  C   UNL     1      31.695 -13.622  41.990  1.00  0.00    -0.006 A 
ATOM      2  C   UNL     1      32.557 -13.204  43.035  1.00  0.00     0.122 A 
ATOM      3  C   UNL     1      32.419 -11.918  43.574  1.00  0.00     0.092 A 
ATOM      4  C   UNL     1      31.451 -11.036  43.079  1.00  0.00     0.119 A 
ATOM      5  C   UNL     1      30.614 -11.440  42.038  1.00  0.00     0.047 A 
ATOM      6  C   UNL     1      30.737 -12.720  41.494  1.00  0.00     0.011 A 
ENDROOT
BRANCH   1   7
ATOM      7  C   UNL     1      31.800 -14.991  41.360  1.00  0.00     0.036 C 
ATOM      8  C   UNL     1      30.766 -15.163  40.252  1.00  0.00     0.009 C 
ENDBRANCH   1   7
BRANCH   2   9
ATOM      9  O   UNL     1      33.557 -14.028  43.557  1.00  0.00    -0.508 OA
ATOM     10  H   UNL     1      33.698 -14.179  44.546  1.00  0.00     0.293 HD
ENDBRANCH   2   9
BRANCH   4  11
ATOM     11  O   UNL     1      31.316  -9.757  43.614  1.00  0.00    -0.508 OA
ATOM     12  H   UNL     1      31.142  -8.952  43.024  1.00  0.00     0.293 HD
ENDBRANCH   4  11
TORSDOF 3
ENDMDL
MODEL 6
REMARK VINA RESULT:    -5.037      2.110      3.886
REMARK INTER + INTRA:          -5.711
REMARK INTER:                  -5.626
REMARK INTRA:                  -0.085
REMARK UNBOUND:                -0.085
REMARK SMILES CCc1ccc(O)cc1O
REMARK SMILES IDX 3 1 9 2 8 3 6 4 5 5 4 6 2 7 1 8 10 9 7 11
REMARK H PARENT 10 10 7 12
REMARK Flexibility Score: inf
ROOT
ATOM      1  C   UNL     1      31.443 -13.894  41.405  1.00  0.00    -0.006 A 
ATOM      2  C   UNL     1      32.611 -13.855  42.207  1.00  0.00     0.122 A 
ATOM      3  C   UNL     1      32.894 -12.711  42.964  1.00  0.00     0.092 A 
ATOM      4  C   UNL     1      32.044 -11.599  42.924  1.00  0.00     0.119 A 
ATOM      5  C   UNL     1      30.903 -11.629  42.121  1.00  0.00     0.047 A 
ATOM      6  C   UNL     1      30.606 -12.764  41.363  1.00  0.00     0.011 A 
ENDROOT
BRANCH   1   7
ATOM      7  C   UNL     1      31.088 -15.093  40.558  1.00  0.00     0.036 C 
ATOM      8  C   UNL     1      30.221 -14.686  39.370  1.00  0.00     0.009 C 
ENDBRANCH   1   7
BRANCH   2   9
ATOM      9  O   UNL     1      33.509 -14.922  42.274  1.00  0.00    -0.508 OA
ATOM     10  H   UNL     1      33.786 -15.471  41.472  1.00  0.00     0.293 HD
ENDBRANCH   2   9
BRANCH   4  11
ATOM     11  O   UNL     1      32.326 -10.461  43.675  1.00  0.00    -0.508 OA
ATOM     12  H   UNL     1      33.264 -10.079  43.727  1.00  0.00     0.293 HD
ENDBRANCH   4  11
TORSDOF 3
ENDMDL
MODEL 7
REMARK VINA RESULT:    -4.959      4.110      5.013
REMARK INTER + INTRA:          -5.624
REMARK INTER:                  -5.527
REMARK INTRA:                  -0.097
REMARK UNBOUND:                -0.085
REMARK SMILES CCc1ccc(O)cc1O
REMARK SMILES IDX 3 1 9 2 8 3 6 4 5 5 4 6 2 7 1 8 10 9 7 11
REMARK H PARENT 10 10 7 12
REMARK Flexibility Score: inf
ROOT
ATOM      1  C   UNL     1      30.166 -11.262  45.346  1.00  0.00    -0.006 A 
ATOM      2  C   UNL     1      31.165 -10.471  44.724  1.00  0.00     0.122 A 
ATOM      3  C   UNL     1      31.310 -10.509  43.331  1.00  0.00     0.092 A 
ATOM      4  C   UNL     1      30.491 -11.331  42.549  1.00  0.00     0.119 A 
ATOM      5  C   UNL     1      29.519 -12.123  43.162  1.00  0.00     0.047 A 
ATOM      6  C   UNL     1      29.359 -12.094  44.548  1.00  0.00     0.011 A 
ENDROOT
BRANCH   1   7
ATOM      7  C   UNL     1      29.966 -11.274  46.843  1.00  0.00     0.036 C 
ATOM      8  C   UNL     1      29.063 -10.127  47.283  1.00  0.00     0.009 C 
ENDBRANCH   1   7
BRANCH   2   9
ATOM      9  O   UNL     1      32.028  -9.647  45.450  1.00  0.00    -0.508 OA
ATOM     10  H   UNL     1      32.936  -9.356  45.116  1.00  0.00     0.293 HD
ENDBRANCH   2   9
BRANCH   4  11
ATOM     11  O   UNL     1      30.637 -11.370  41.165  1.00  0.00    -0.508 OA
ATOM     12  H   UNL     1      31.548 -11.308  40.726  1.00  0.00     0.293 HD
ENDBRANCH   4  11
TORSDOF 3
ENDMDL
MODEL 8
REMARK VINA RESULT:    -4.876      1.942      2.956
REMARK INTER + INTRA:          -5.531
REMARK INTER:                  -5.442
REMARK INTRA:                  -0.090
REMARK UNBOUND:                -0.085
REMARK SMILES CCc1ccc(O)cc1O
REMARK SMILES IDX 3 1 9 2 8 3 6 4 5 5 4 6 2 7 1 8 10 9 7 11
REMARK H PARENT 10 10 7 12
REMARK Flexibility Score: inf
ROOT
ATOM      1  C   UNL     1      32.178 -12.821  42.502  1.00  0.00    -0.006 A 
ATOM      2  C   UNL     1      32.718 -14.115  42.714  1.00  0.00     0.122 A 
ATOM      3  C   UNL     1      32.193 -15.208  42.012  1.00  0.00     0.092 A 
ATOM      4  C   UNL     1      31.132 -15.038  41.115  1.00  0.00     0.119 A 
ATOM      5  C   UNL     1      30.589 -13.768  40.918  1.00  0.00     0.047 A 
ATOM      6  C   UNL     1      31.103 -12.668  41.608  1.00  0.00     0.011 A 
ENDROOT
BRANCH   1   7
ATOM      7  C   UNL     1      32.691 -11.605  43.237  1.00  0.00     0.036 C 
ATOM      8  C   UNL     1      31.552 -10.863  43.928  1.00  0.00     0.009 C 
ENDBRANCH   1   7
BRANCH   2   9
ATOM      9  O   UNL     1      33.761 -14.353  43.611  1.00  0.00    -0.508 OA
ATOM     10  H   UNL     1      33.671 -14.257  44.613  1.00  0.00     0.293 HD
ENDBRANCH   2   9
BRANCH   4  11
ATOM     11  O   UNL     1      30.611 -16.125  40.418  1.00  0.00    -0.508 OA
ATOM     12  H   UNL     1      31.009 -17.052  40.507  1.00  0.00     0.293 HD
ENDBRANCH   4  11
TORSDOF 3
ENDMDL
MODEL 9
REMARK VINA RESULT:    -4.870      1.706      3.762
REMARK INTER + INTRA:          -5.524
REMARK INTER:                  -5.439
REMARK INTRA:                  -0.085
REMARK UNBOUND:                -0.085
REMARK SMILES CCc1ccc(O)cc1O
REMARK SMILES IDX 3 1 9 2 8 3 6 4 5 5 4 6 2 7 1 8 10 9 7 11
REMARK H PARENT 10 10 7 12
REMARK Flexibility Score: inf
ROOT
ATOM      1  C   UNL     1      31.640 -14.117  41.283  1.00  0.00    -0.006 A 
ATOM      2  C   UNL     1      32.336 -13.343  42.245  1.00  0.00     0.122 A 
ATOM      3  C   UNL     1      33.214 -13.973  43.137  1.00  0.00     0.092 A 
ATOM      4  C   UNL     1      33.398 -15.360  43.098  1.00  0.00     0.119 A 
ATOM      5  C   UNL     1      32.700 -16.125  42.163  1.00  0.00     0.047 A 
ATOM      6  C   UNL     1      31.825 -15.511  41.265  1.00  0.00     0.011 A 
ENDROOT
BRANCH   1   7
ATOM      7  C   UNL     1      30.672 -13.499  40.301  1.00  0.00     0.036 C 
ATOM      8  C   UNL     1      30.079 -14.559  39.378  1.00  0.00     0.009 C 
ENDBRANCH   1   7
BRANCH   2   9
ATOM      9  O   UNL     1      32.179 -11.959  42.349  1.00  0.00    -0.508 OA
ATOM     10  H   UNL     1      32.754 -11.292  41.853  1.00  0.00     0.293 HD
ENDBRANCH   2   9
BRANCH   4  11
ATOM     11  O   UNL     1      34.270 -15.986  43.986  1.00  0.00    -0.508 OA
ATOM     12  H   UNL     1      35.076 -16.506  43.659  1.00  0.00     0.293 HD
ENDBRANCH   4  11
TORSDOF 3
ENDMDL
