MODEL 1
REMARK VINA RESULT:    -2.712      0.000      0.000
REMARK INTER + INTRA:          -2.791
REMARK INTER:                  -2.791
REMARK INTRA:                   0.000
REMARK UNBOUND:                 0.000
REMARK SMILES CC1(C)[C@@H]2CC[C@@](C)(C2)[C@H]1O
REMARK SMILES IDX 1 1 2 2 4 3 5 4 6 5 7 6 9 7 10 8 8 9 3 10 11 11
REMARK H PARENT 11 12
REMARK Flexibility Score: inf
ROOT
ATOM      1  C   UNL     1     122.068 116.390 108.748  1.00  0.00     0.014 C 
ATOM      2  C   UNL     1     121.820 117.894 108.475  1.00  0.00    -0.006 C 
ATOM      3  C   UNL     1     122.476 118.404 107.146  1.00  0.00    -0.002 C 
ATOM      4  C   UNL     1     123.949 117.957 107.040  1.00  0.00     0.005 C 
ATOM      5  C   UNL     1     124.631 118.766 108.153  1.00  0.00     0.010 C 
ATOM      6  C   UNL     1     123.484 119.659 108.680  1.00  0.00    -0.006 C 
ATOM      7  C   UNL     1     122.670 119.884 107.425  1.00  0.00     0.013 C 
ATOM      8  C   UNL     1     122.529 118.790 109.547  1.00  0.00     0.126 C 
ATOM      9  C   UNL     1     123.979 120.949 109.347  1.00  0.00     0.014 C 
ATOM     10  C   UNL     1     120.283 118.102 108.414  1.00  0.00     0.014 C 
ENDROOT
BRANCH   8  11
ATOM     11  O   UNL     1     121.604 119.594 110.242  1.00  0.00    -0.392 OA
ATOM     12  H   UNL     1     122.115 120.347 110.639  1.00  0.00     0.211 HD
ENDBRANCH   8  11
TORSDOF 1
ENDMDL
MODEL 2
REMARK VINA RESULT:    -2.703     12.343     14.864
REMARK INTER + INTRA:          -2.782
REMARK INTER:                  -2.782
REMARK INTRA:                   0.000
REMARK UNBOUND:                 0.000
REMARK SMILES CC1(C)[C@@H]2CC[C@@](C)(C2)[C@H]1O
REMARK SMILES IDX 1 1 2 2 4 3 5 4 6 5 7 6 9 7 10 8 8 9 3 10 11 11
REMARK H PARENT 11 12
REMARK Flexibility Score: inf
ROOT
ATOM      1  C   UNL     1     109.937 115.592 108.769  1.00  0.00     0.014 C 
ATOM      2  C   UNL     1     110.171 114.088 108.486  1.00  0.00    -0.006 C 
ATOM      3  C   UNL     1     109.532 113.599 107.141  1.00  0.00    -0.002 C 
ATOM      4  C   UNL     1     108.067 114.065 107.013  1.00  0.00     0.005 C 
ATOM      5  C   UNL     1     107.355 113.255 108.107  1.00  0.00     0.010 C 
ATOM      6  C   UNL     1     108.482 112.342 108.645  1.00  0.00    -0.006 C 
ATOM      7  C   UNL     1     109.315 112.119 107.402  1.00  0.00     0.013 C 
ATOM      8  C   UNL     1     109.432 113.191 109.537  1.00  0.00     0.126 C 
ATOM      9  C   UNL     1     107.959 111.053 109.290  1.00  0.00     0.014 C 
ATOM     10  C   UNL     1     111.706 113.861 108.450  1.00  0.00     0.014 C 
ENDROOT
BRANCH   8  11
ATOM     11  O   UNL     1     110.335 112.369 110.240  1.00  0.00    -0.392 OA
ATOM     12  H   UNL     1     110.696 111.712 109.590  1.00  0.00     0.211 HD
ENDBRANCH   8  11
TORSDOF 1
ENDMDL
MODEL 3
REMARK VINA RESULT:    -2.698      8.604     10.165
REMARK INTER + INTRA:          -2.777
REMARK INTER:                  -2.777
REMARK INTRA:                   0.000
REMARK UNBOUND:                 0.000
REMARK SMILES CC1(C)[C@@H]2CC[C@@](C)(C2)[C@H]1O
REMARK SMILES IDX 1 1 2 2 4 3 5 4 6 5 7 6 9 7 10 8 8 9 3 10 11 11
REMARK H PARENT 11 12
REMARK Flexibility Score: inf
ROOT
ATOM      1  C   UNL     1     116.997 107.657 107.673  1.00  0.00     0.014 C 
ATOM      2  C   UNL     1     117.400 109.130 107.417  1.00  0.00    -0.006 C 
ATOM      3  C   UNL     1     118.942 109.331 107.220  1.00  0.00    -0.002 C 
ATOM      4  C   UNL     1     119.747 108.617 108.326  1.00  0.00     0.005 C 
ATOM      5  C   UNL     1     119.400 109.434 109.580  1.00  0.00     0.010 C 
ATOM      6  C   UNL     1     118.531 110.581 109.012  1.00  0.00    -0.006 C 
ATOM      7  C   UNL     1     119.140 110.776 107.641  1.00  0.00     0.013 C 
ATOM      8  C   UNL     1     117.120 110.022 108.675  1.00  0.00     0.126 C 
ATOM      9  C   UNL     1     118.543 111.839 109.889  1.00  0.00     0.014 C 
ATOM     10  C   UNL     1     116.644 109.600 106.147  1.00  0.00     0.014 C 
ENDROOT
BRANCH   8  11
ATOM     11  O   UNL     1     116.220 111.064 108.379  1.00  0.00    -0.392 OA
ATOM     12  H   UNL     1     115.518 111.050 109.082  1.00  0.00     0.211 HD
ENDBRANCH   8  11
TORSDOF 1
ENDMDL
MODEL 4
REMARK VINA RESULT:    -2.698      8.510     10.025
REMARK INTER + INTRA:          -2.777
REMARK INTER:                  -2.777
REMARK INTRA:                   0.000
REMARK UNBOUND:                 0.000
REMARK SMILES CC1(C)[C@@H]2CC[C@@](C)(C2)[C@H]1O
REMARK SMILES IDX 1 1 2 2 4 3 5 4 6 5 7 6 9 7 10 8 8 9 3 10 11 11
REMARK H PARENT 11 12
REMARK Flexibility Score: inf
ROOT
ATOM      1  C   UNL     1     114.943 124.366 107.643  1.00  0.00     0.014 C 
ATOM      2  C   UNL     1     114.568 122.883 107.404  1.00  0.00    -0.006 C 
ATOM      3  C   UNL     1     113.032 122.655 107.186  1.00  0.00    -0.002 C 
ATOM      4  C   UNL     1     112.199 123.373 108.268  1.00  0.00     0.005 C 
ATOM      5  C   UNL     1     112.539 122.581 109.540  1.00  0.00     0.010 C 
ATOM      6  C   UNL     1     113.434 121.440 109.004  1.00  0.00    -0.006 C 
ATOM      7  C   UNL     1     112.851 121.213 107.626  1.00  0.00     0.013 C 
ATOM      8  C   UNL     1     114.842 122.016 108.680  1.00  0.00     0.126 C 
ATOM      9  C   UNL     1     113.428 120.195 109.900  1.00  0.00     0.014 C 
ATOM     10  C   UNL     1     115.351 122.406 106.153  1.00  0.00     0.014 C 
ENDROOT
BRANCH   8  11
ATOM     11  O   UNL     1     115.763 120.983 108.415  1.00  0.00    -0.392 OA
ATOM     12  H   UNL     1     116.563 121.406 108.005  1.00  0.00     0.211 HD
ENDBRANCH   8  11
TORSDOF 1
ENDMDL
MODEL 5
REMARK VINA RESULT:    -2.697     12.304     14.004
REMARK INTER + INTRA:          -2.776
REMARK INTER:                  -2.776
REMARK INTRA:                   0.000
REMARK UNBOUND:                 0.000
REMARK SMILES CC1(C)[C@@H]2CC[C@@](C)(C2)[C@H]1O
REMARK SMILES IDX 1 1 2 2 4 3 5 4 6 5 7 6 9 7 10 8 8 9 3 10 11 11
REMARK H PARENT 11 12
REMARK Flexibility Score: inf
ROOT
ATOM      1  C   UNL     1     107.624 114.972 107.658  1.00  0.00     0.014 C 
ATOM      2  C   UNL     1     109.105 114.602 107.401  1.00  0.00    -0.006 C 
ATOM      3  C   UNL     1     109.335 113.068 107.174  1.00  0.00    -0.002 C 
ATOM      4  C   UNL     1     108.632 112.227 108.260  1.00  0.00     0.005 C 
ATOM      5  C   UNL     1     109.436 112.563 109.524  1.00  0.00     0.010 C 
ATOM      6  C   UNL     1     110.569 113.465 108.980  1.00  0.00    -0.006 C 
ATOM      7  C   UNL     1     110.782 112.888 107.598  1.00  0.00     0.013 C 
ATOM      8  C   UNL     1     109.986 114.872 108.669  1.00  0.00     0.126 C 
ATOM      9  C   UNL     1     111.823 113.458 109.863  1.00  0.00     0.014 C 
ATOM     10  C   UNL     1     109.567 115.392 106.149  1.00  0.00     0.014 C 
ENDROOT
BRANCH   8  11
ATOM     11  O   UNL     1     111.013 115.797 108.397  1.00  0.00    -0.392 OA
ATOM     12  H   UNL     1     110.668 116.418 107.703  1.00  0.00     0.211 HD
ENDBRANCH   8  11
TORSDOF 1
ENDMDL
MODEL 6
REMARK VINA RESULT:    -2.694      1.628      2.718
REMARK INTER + INTRA:          -2.773
REMARK INTER:                  -2.773
REMARK INTRA:                   0.000
REMARK UNBOUND:                 0.000
REMARK SMILES CC1(C)[C@@H]2CC[C@@](C)(C2)[C@H]1O
REMARK SMILES IDX 1 1 2 2 4 3 5 4 6 5 7 6 9 7 10 8 8 9 3 10 11 11
REMARK H PARENT 11 12
REMARK Flexibility Score: inf
ROOT
ATOM      1  C   UNL     1     124.314 116.997 107.705  1.00  0.00     0.014 C 
ATOM      2  C   UNL     1     122.845 117.399 107.424  1.00  0.00    -0.006 C 
ATOM      3  C   UNL     1     122.651 118.938 107.198  1.00  0.00    -0.002 C 
ATOM      4  C   UNL     1     123.353 119.760 108.300  1.00  0.00     0.005 C 
ATOM      5  C   UNL     1     122.519 119.436 109.549  1.00  0.00     0.010 C 
ATOM      6  C   UNL     1     121.378 118.560 108.981  1.00  0.00    -0.006 C 
ATOM      7  C   UNL     1     121.201 119.146 107.598  1.00  0.00     0.013 C 
ATOM      8  C   UNL     1     121.938 117.142 108.675  1.00  0.00     0.126 C 
ATOM      9  C   UNL     1     120.109 118.590 109.842  1.00  0.00     0.014 C 
ATOM     10  C   UNL     1     122.389 116.622 106.161  1.00  0.00     0.014 C 
ENDROOT
BRANCH   8  11
ATOM     11  O   UNL     1     120.897 116.239 108.382  1.00  0.00    -0.392 OA
ATOM     12  H   UNL     1     120.094 116.551 108.876  1.00  0.00     0.211 HD
ENDBRANCH   8  11
TORSDOF 1
ENDMDL
MODEL 7
REMARK VINA RESULT:    -2.685      8.781     10.565
REMARK INTER + INTRA:          -2.764
REMARK INTER:                  -2.764
REMARK INTRA:                   0.000
REMARK UNBOUND:                 0.000
REMARK SMILES CC1(C)[C@@H]2CC[C@@](C)(C2)[C@H]1O
REMARK SMILES IDX 1 1 2 2 4 3 5 4 6 5 7 6 9 7 10 8 8 9 3 10 11 11
REMARK H PARENT 11 12
REMARK Flexibility Score: inf
ROOT
ATOM      1  C   UNL     1     115.518 122.035 108.824  1.00  0.00     0.014 C 
ATOM      2  C   UNL     1     114.005 121.890 108.528  1.00  0.00    -0.006 C 
ATOM      3  C   UNL     1     113.558 122.593 107.200  1.00  0.00    -0.002 C 
ATOM      4  C   UNL     1     114.104 124.034 107.117  1.00  0.00     0.005 C 
ATOM      5  C   UNL     1     113.326 124.757 108.227  1.00  0.00     0.010 C 
ATOM      6  C   UNL     1     112.351 123.666 108.728  1.00  0.00    -0.006 C 
ATOM      7  C   UNL     1     112.091 122.882 107.460  1.00  0.00     0.013 C 
ATOM      8  C   UNL     1     113.142 122.646 109.596  1.00  0.00     0.126 C 
ATOM      9  C   UNL     1     111.088 124.239 109.382  1.00  0.00     0.014 C 
ATOM     10  C   UNL     1     113.695 120.372 108.446  1.00  0.00     0.014 C 
ENDROOT
BRANCH   8  11
ATOM     11  O   UNL     1     112.269 121.769 110.269  1.00  0.00    -0.392 OA
ATOM     12  H   UNL     1     112.833 121.091 110.724  1.00  0.00     0.211 HD
ENDBRANCH   8  11
TORSDOF 1
ENDMDL
MODEL 8
REMARK VINA RESULT:    -2.678      8.618     10.533
REMARK INTER + INTRA:          -2.756
REMARK INTER:                  -2.756
REMARK INTRA:                   0.000
REMARK UNBOUND:                 0.000
REMARK SMILES CC1(C)[C@@H]2CC[C@@](C)(C2)[C@H]1O
REMARK SMILES IDX 1 1 2 2 4 3 5 4 6 5 7 6 9 7 10 8 8 9 3 10 11 11
REMARK H PARENT 11 12
REMARK Flexibility Score: inf
ROOT
ATOM      1  C   UNL     1     116.502 109.985 108.821  1.00  0.00     0.014 C 
ATOM      2  C   UNL     1     118.012 110.167 108.529  1.00  0.00    -0.006 C 
ATOM      3  C   UNL     1     118.468 109.522 107.175  1.00  0.00    -0.002 C 
ATOM      4  C   UNL     1     117.947 108.076 107.038  1.00  0.00     0.005 C 
ATOM      5  C   UNL     1     118.738 107.325 108.119  1.00  0.00     0.010 C 
ATOM      6  C   UNL     1     119.695 108.413 108.660  1.00  0.00    -0.006 C 
ATOM      7  C   UNL     1     119.941 109.248 107.423  1.00  0.00     0.013 C 
ATOM      8  C   UNL     1     118.889 109.386 109.567  1.00  0.00     0.126 C 
ATOM      9  C   UNL     1     120.969 107.837 109.291  1.00  0.00     0.014 C 
ATOM     10  C   UNL     1     118.296 111.692 108.505  1.00  0.00     0.014 C 
ENDROOT
BRANCH   8  11
ATOM     11  O   UNL     1     119.748 110.251 110.272  1.00  0.00    -0.392 OA
ATOM     12  H   UNL     1     120.017 110.969 109.642  1.00  0.00     0.211 HD
ENDBRANCH   8  11
TORSDOF 1
ENDMDL
MODEL 9
REMARK VINA RESULT:    -2.523      1.356      3.253
REMARK INTER + INTRA:          -2.597
REMARK INTER:                  -2.597
REMARK INTRA:                   0.000
REMARK UNBOUND:                 0.000
REMARK SMILES CC1(C)[C@@H]2CC[C@@](C)(C2)[C@H]1O
REMARK SMILES IDX 1 1 2 2 4 3 5 4 6 5 7 6 9 7 10 8 8 9 3 10 11 11
REMARK H PARENT 11 12
REMARK Flexibility Score: inf
ROOT
ATOM      1  C   UNL     1     124.652 121.132 107.312  1.00  0.00     0.014 C 
ATOM      2  C   UNL     1     124.381 119.830 108.106  1.00  0.00    -0.006 C 
ATOM      3  C   UNL     1     123.933 118.630 107.203  1.00  0.00    -0.002 C 
ATOM      4  C   UNL     1     122.809 119.047 106.231  1.00  0.00     0.005 C 
ATOM      5  C   UNL     1     121.621 119.298 107.172  1.00  0.00     0.010 C 
ATOM      6  C   UNL     1     122.183 118.882 108.551  1.00  0.00    -0.006 C 
ATOM      7  C   UNL     1     123.138 117.771 108.171  1.00  0.00     0.013 C 
ATOM      8  C   UNL     1     123.146 119.993 109.057  1.00  0.00     0.126 C 
ATOM      9  C   UNL     1     121.093 118.459 109.545  1.00  0.00     0.014 C 
ATOM     10  C   UNL     1     125.691 119.464 108.852  1.00  0.00     0.014 C 
ENDROOT
BRANCH   8  11
ATOM     11  O   UNL     1     123.500 119.781 110.404  1.00  0.00    -0.392 OA
ATOM     12  H   UNL     1     122.734 120.087 110.957  1.00  0.00     0.211 HD
ENDBRANCH   8  11
TORSDOF 1
ENDMDL
