MODEL 1
REMARK VINA RESULT:    -4.242      0.000      0.000
REMARK INTER + INTRA:          -5.189
REMARK INTER:                  -5.110
REMARK INTRA:                  -0.079
REMARK UNBOUND:                -0.079
REMARK SMILES NC(=O)C[C@@H]([NH3+])C(=O)[O-]
REMARK SMILES IDX 4 1 5 2 6 3 7 7 8 8 9 9 2 10 3 11 1 12
REMARK H PARENT 6 4 6 5 6 6 1 13 1 14
REMARK Flexibility Score: inf
ROOT
ATOM      1  C   UNL     1     121.503 145.317 133.933  1.00  0.00     0.171 C 
ENDROOT
BRANCH   1   2
ATOM      2  C   UNL     1     120.480 146.409 134.307  1.00  0.00     0.237 C 
BRANCH   2   3
ATOM      3  N   UNL     1     120.937 147.723 133.838  1.00  0.00    -0.350 N 
ATOM      4  H   UNL     1     121.899 147.658 133.433  1.00  0.00     0.345 HD
ATOM      5  H   UNL     1     120.281 148.088 133.109  1.00  0.00     0.345 HD
ATOM      6  H   UNL     1     120.947 148.398 134.637  1.00  0.00     0.345 HD
ENDBRANCH   2   3
BRANCH   2   7
ATOM      7  C   UNL     1     119.120 146.096 133.734  1.00  0.00     0.100 C 
ATOM      8  O   UNL     1     118.277 145.445 134.407  1.00  0.00    -0.544 OA
ATOM      9  O   UNL     1     118.784 146.542 132.462  1.00  0.00    -0.544 OA
ENDBRANCH   2   7
ENDBRANCH   1   2
BRANCH   1  10
ATOM     10  C   UNL     1     122.436 145.021 135.073  1.00  0.00     0.223 C 
ATOM     11  O   UNL     1     122.108 144.177 135.949  1.00  0.00    -0.275 OA
ATOM     12  N   UNL     1     123.677 145.717 135.189  1.00  0.00    -0.369 N 
ATOM     13  H   UNL     1     124.319 145.519 135.988  1.00  0.00     0.159 HD
ATOM     14  H   UNL     1     123.955 146.431 134.479  1.00  0.00     0.159 HD
ENDBRANCH   1  10
TORSDOF 4
ENDMDL
MODEL 2
REMARK VINA RESULT:    -4.177      1.848      2.303
REMARK INTER + INTRA:          -5.110
REMARK INTER:                  -4.854
REMARK INTRA:                  -0.257
REMARK UNBOUND:                -0.079
REMARK SMILES NC(=O)C[C@@H]([NH3+])C(=O)[O-]
REMARK SMILES IDX 4 1 5 2 6 3 7 7 8 8 9 9 2 10 3 11 1 12
REMARK H PARENT 6 4 6 5 6 6 1 13 1 14
REMARK Flexibility Score: inf
ROOT
ATOM      1  C   UNL     1     122.043 145.496 133.154  1.00  0.00     0.171 C 
ENDROOT
BRANCH   1   2
ATOM      2  C   UNL     1     120.887 146.509 133.023  1.00  0.00     0.237 C 
BRANCH   2   3
ATOM      3  N   UNL     1     120.825 147.373 134.209  1.00  0.00    -0.350 N 
ATOM      4  H   UNL     1     121.435 148.214 134.087  1.00  0.00     0.345 HD
ATOM      5  H   UNL     1     119.839 147.684 134.371  1.00  0.00     0.345 HD
ATOM      6  H   UNL     1     121.141 146.840 135.051  1.00  0.00     0.345 HD
ENDBRANCH   2   3
BRANCH   2   7
ATOM      7  C   UNL     1     121.037 147.345 131.777  1.00  0.00     0.100 C 
ATOM      8  O   UNL     1     121.850 147.010 130.877  1.00  0.00    -0.544 OA
ATOM      9  O   UNL     1     120.261 148.485 131.610  1.00  0.00    -0.544 OA
ENDBRANCH   2   7
ENDBRANCH   1   2
BRANCH   1  10
ATOM     10  C   UNL     1     122.326 145.165 134.592  1.00  0.00     0.223 C 
ATOM     11  O   UNL     1     121.467 144.546 135.274  1.00  0.00    -0.275 OA
ATOM     12  N   UNL     1     123.549 145.579 135.200  1.00  0.00    -0.369 N 
ATOM     13  H   UNL     1     123.740 145.359 136.203  1.00  0.00     0.159 HD
ATOM     14  H   UNL     1     124.265 146.106 134.652  1.00  0.00     0.159 HD
ENDBRANCH   1  10
TORSDOF 4
ENDMDL
MODEL 3
REMARK VINA RESULT:    -4.106      1.514      1.964
REMARK INTER + INTRA:          -5.025
REMARK INTER:                  -4.712
REMARK INTRA:                  -0.313
REMARK UNBOUND:                -0.079
REMARK SMILES NC(=O)C[C@@H]([NH3+])C(=O)[O-]
REMARK SMILES IDX 4 1 5 2 6 3 7 7 8 8 9 9 2 10 3 11 1 12
REMARK H PARENT 6 4 6 5 6 6 1 13 1 14
REMARK Flexibility Score: inf
ROOT
ATOM      1  C   UNL     1     120.927 146.232 134.315  1.00  0.00     0.171 C 
ENDROOT
BRANCH   1   2
ATOM      2  C   UNL     1     120.559 147.346 133.313  1.00  0.00     0.237 C 
BRANCH   2   3
ATOM      3  N   UNL     1     121.678 147.602 132.397  1.00  0.00    -0.350 N 
ATOM      4  H   UNL     1     122.321 148.327 132.791  1.00  0.00     0.345 HD
ATOM      5  H   UNL     1     122.214 146.718 132.235  1.00  0.00     0.345 HD
ATOM      6  H   UNL     1     121.311 147.934 131.476  1.00  0.00     0.345 HD
ENDBRANCH   2   3
BRANCH   2   7
ATOM      7  C   UNL     1     119.320 146.985 132.532  1.00  0.00     0.100 C 
ATOM      8  O   UNL     1     119.205 147.320 131.324  1.00  0.00    -0.544 OA
ATOM      9  O   UNL     1     118.301 146.265 133.143  1.00  0.00    -0.544 OA
ENDBRANCH   2   7
ENDBRANCH   1   2
BRANCH   1  10
ATOM     10  C   UNL     1     122.167 145.497 133.893  1.00  0.00     0.223 C 
ATOM     11  O   UNL     1     122.148 144.776 132.861  1.00  0.00    -0.275 OA
ATOM     12  N   UNL     1     123.357 145.582 134.677  1.00  0.00    -0.369 N 
ATOM     13  H   UNL     1     124.215 145.061 134.389  1.00  0.00     0.159 HD
ATOM     14  H   UNL     1     123.384 146.163 135.544  1.00  0.00     0.159 HD
ENDBRANCH   1  10
TORSDOF 4
ENDMDL
MODEL 4
REMARK VINA RESULT:    -4.103      2.028      2.806
REMARK INTER + INTRA:          -5.021
REMARK INTER:                  -4.695
REMARK INTRA:                  -0.326
REMARK UNBOUND:                -0.079
REMARK SMILES NC(=O)C[C@@H]([NH3+])C(=O)[O-]
REMARK SMILES IDX 4 1 5 2 6 3 7 7 8 8 9 9 2 10 3 11 1 12
REMARK H PARENT 6 4 6 5 6 6 1 13 1 14
REMARK Flexibility Score: inf
ROOT
ATOM      1  C   UNL     1     121.255 145.664 132.810  1.00  0.00     0.171 C 
ENDROOT
BRANCH   1   2
ATOM      2  C   UNL     1     120.514 146.189 134.057  1.00  0.00     0.237 C 
BRANCH   2   3
ATOM      3  N   UNL     1     120.820 147.608 134.276  1.00  0.00    -0.350 N 
ATOM      4  H   UNL     1     121.854 147.760 134.327  1.00  0.00     0.345 HD
ATOM      5  H   UNL     1     120.425 148.181 133.495  1.00  0.00     0.345 HD
ATOM      6  H   UNL     1     120.383 147.929 135.171  1.00  0.00     0.345 HD
ENDBRANCH   2   3
BRANCH   2   7
ATOM      7  C   UNL     1     119.024 145.992 133.925  1.00  0.00     0.100 C 
ATOM      8  O   UNL     1     118.419 146.370 132.888  1.00  0.00    -0.544 OA
ATOM      9  O   UNL     1     118.314 145.376 134.947  1.00  0.00    -0.544 OA
ENDBRANCH   2   7
ENDBRANCH   1   2
BRANCH   1  10
ATOM     10  C   UNL     1     121.869 146.785 132.020  1.00  0.00     0.223 C 
ATOM     11  O   UNL     1     121.141 147.514 131.296  1.00  0.00    -0.275 OA
ATOM     12  N   UNL     1     123.278 147.005 132.057  1.00  0.00    -0.369 N 
ATOM     13  H   UNL     1     123.706 147.776 131.498  1.00  0.00     0.159 HD
ATOM     14  H   UNL     1     123.897 146.399 132.640  1.00  0.00     0.159 HD
ENDBRANCH   1  10
TORSDOF 4
ENDMDL
MODEL 5
REMARK VINA RESULT:    -3.933      1.759      2.136
REMARK INTER + INTRA:          -4.817
REMARK INTER:                  -4.473
REMARK INTRA:                  -0.343
REMARK UNBOUND:                -0.079
REMARK SMILES NC(=O)C[C@@H]([NH3+])C(=O)[O-]
REMARK SMILES IDX 4 1 5 2 6 3 7 7 8 8 9 9 2 10 3 11 1 12
REMARK H PARENT 6 4 6 5 6 6 1 13 1 14
REMARK Flexibility Score: inf
ROOT
ATOM      1  C   UNL     1     121.292 145.795 134.373  1.00  0.00     0.171 C 
ENDROOT
BRANCH   1   2
ATOM      2  C   UNL     1     120.904 144.887 133.188  1.00  0.00     0.237 C 
BRANCH   2   3
ATOM      3  N   UNL     1     121.943 143.876 132.954  1.00  0.00    -0.350 N 
ATOM      4  H   UNL     1     121.696 142.976 133.425  1.00  0.00     0.345 HD
ATOM      5  H   UNL     1     122.050 143.709 131.926  1.00  0.00     0.345 HD
ATOM      6  H   UNL     1     122.858 144.218 133.326  1.00  0.00     0.345 HD
ENDBRANCH   2   3
BRANCH   2   7
ATOM      7  C   UNL     1     119.573 144.219 133.430  1.00  0.00     0.100 C 
ATOM      8  O   UNL     1     119.167 143.307 132.662  1.00  0.00    -0.544 OA
ATOM      9  O   UNL     1     118.794 144.600 134.514  1.00  0.00    -0.544 OA
ENDBRANCH   2   7
ENDBRANCH   1   2
BRANCH   1  10
ATOM     10  C   UNL     1     122.363 145.168 135.221  1.00  0.00     0.223 C 
ATOM     11  O   UNL     1     122.094 144.161 135.928  1.00  0.00    -0.275 OA
ATOM     12  N   UNL     1     123.675 145.730 135.258  1.00  0.00    -0.369 N 
ATOM     13  H   UNL     1     124.415 145.301 135.857  1.00  0.00     0.159 HD
ATOM     14  H   UNL     1     123.908 146.574 134.690  1.00  0.00     0.159 HD
ENDBRANCH   1  10
TORSDOF 4
ENDMDL
MODEL 6
REMARK VINA RESULT:    -3.918      1.565      3.591
REMARK INTER + INTRA:          -4.798
REMARK INTER:                  -4.698
REMARK INTRA:                  -0.100
REMARK UNBOUND:                -0.079
REMARK SMILES NC(=O)C[C@@H]([NH3+])C(=O)[O-]
REMARK SMILES IDX 4 1 5 2 6 3 7 7 8 8 9 9 2 10 3 11 1 12
REMARK H PARENT 6 4 6 5 6 6 1 13 1 14
REMARK Flexibility Score: inf
ROOT
ATOM      1  C   UNL     1     121.107 146.049 134.270  1.00  0.00     0.171 C 
ENDROOT
BRANCH   1   2
ATOM      2  C   UNL     1     122.102 144.935 134.654  1.00  0.00     0.237 C 
BRANCH   2   3
ATOM      3  N   UNL     1     123.250 145.500 135.375  1.00  0.00    -0.350 N 
ATOM      4  H   UNL     1     123.476 146.458 135.020  1.00  0.00     0.345 HD
ATOM      5  H   UNL     1     123.036 145.554 136.398  1.00  0.00     0.345 HD
ATOM      6  H   UNL     1     124.085 144.882 135.249  1.00  0.00     0.345 HD
ENDBRANCH   2   3
BRANCH   2   7
ATOM      7  C   UNL     1     121.432 143.874 135.492  1.00  0.00     0.100 C 
ATOM      8  O   UNL     1     122.084 143.244 136.365  1.00  0.00    -0.544 OA
ATOM      9  O   UNL     1     120.083 143.599 135.311  1.00  0.00    -0.544 OA
ENDBRANCH   2   7
ENDBRANCH   1   2
BRANCH   1  10
ATOM     10  C   UNL     1     121.212 146.405 132.814  1.00  0.00     0.223 C 
ATOM     11  O   UNL     1     120.480 145.822 131.971  1.00  0.00    -0.275 OA
ATOM     12  N   UNL     1     122.163 147.375 132.375  1.00  0.00    -0.369 N 
ATOM     13  H   UNL     1     122.243 147.613 131.362  1.00  0.00     0.159 HD
ATOM     14  H   UNL     1     122.787 147.856 133.060  1.00  0.00     0.159 HD
ENDBRANCH   1  10
TORSDOF 4
ENDMDL
MODEL 7
REMARK VINA RESULT:    -3.750      1.520      3.816
REMARK INTER + INTRA:          -4.596
REMARK INTER:                  -4.245
REMARK INTRA:                  -0.351
REMARK UNBOUND:                -0.079
REMARK SMILES NC(=O)C[C@@H]([NH3+])C(=O)[O-]
REMARK SMILES IDX 4 1 5 2 6 3 7 7 8 8 9 9 2 10 3 11 1 12
REMARK H PARENT 6 4 6 5 6 6 1 13 1 14
REMARK Flexibility Score: inf
ROOT
ATOM      1  C   UNL     1     120.099 145.238 133.038  1.00  0.00     0.171 C 
ENDROOT
BRANCH   1   2
ATOM      2  C   UNL     1     121.313 145.855 133.763  1.00  0.00     0.237 C 
BRANCH   2   3
ATOM      3  N   UNL     1     120.946 147.135 134.382  1.00  0.00    -0.350 N 
ATOM      4  H   UNL     1     120.752 147.857 133.651  1.00  0.00     0.345 HD
ATOM      5  H   UNL     1     120.094 147.010 134.976  1.00  0.00     0.345 HD
ATOM      6  H   UNL     1     121.725 147.468 134.994  1.00  0.00     0.345 HD
ENDBRANCH   2   3
BRANCH   2   7
ATOM      7  C   UNL     1     121.860 144.911 134.805  1.00  0.00     0.100 C 
ATOM      8  O   UNL     1     122.758 145.290 135.601  1.00  0.00    -0.544 OA
ATOM      9  O   UNL     1     121.360 143.619 134.899  1.00  0.00    -0.544 OA
ENDBRANCH   2   7
ENDBRANCH   1   2
BRANCH   1  10
ATOM     10  C   UNL     1     118.809 145.854 133.499  1.00  0.00     0.223 C 
ATOM     11  O   UNL     1     118.431 145.699 134.691  1.00  0.00    -0.275 OA
ATOM     12  N   UNL     1     117.990 146.584 132.586  1.00  0.00    -0.369 N 
ATOM     13  H   UNL     1     117.088 147.002 132.904  1.00  0.00     0.159 HD
ATOM     14  H   UNL     1     118.283 146.708 131.591  1.00  0.00     0.159 HD
ENDBRANCH   1  10
TORSDOF 4
ENDMDL
MODEL 8
REMARK VINA RESULT:    -3.704      2.470      3.517
REMARK INTER + INTRA:          -4.540
REMARK INTER:                  -4.268
REMARK INTRA:                  -0.272
REMARK UNBOUND:                -0.079
REMARK SMILES NC(=O)C[C@@H]([NH3+])C(=O)[O-]
REMARK SMILES IDX 4 1 5 2 6 3 7 7 8 8 9 9 2 10 3 11 1 12
REMARK H PARENT 6 4 6 5 6 6 1 13 1 14
REMARK Flexibility Score: inf
ROOT
ATOM      1  C   UNL     1     119.450 146.381 132.492  1.00  0.00     0.171 C 
ENDROOT
BRANCH   1   2
ATOM      2  C   UNL     1     118.231 146.080 133.387  1.00  0.00     0.237 C 
BRANCH   2   3
ATOM      3  N   UNL     1     117.029 145.882 132.567  1.00  0.00    -0.350 N 
ATOM      4  H   UNL     1     116.243 145.506 133.147  1.00  0.00     0.345 HD
ATOM      5  H   UNL     1     116.737 146.791 132.139  1.00  0.00     0.345 HD
ATOM      6  H   UNL     1     117.236 145.209 131.794  1.00  0.00     0.345 HD
ENDBRANCH   2   3
BRANCH   2   7
ATOM      7  C   UNL     1     118.478 144.869 134.251  1.00  0.00     0.100 C 
ATOM      8  O   UNL     1     117.521 144.131 134.605  1.00  0.00    -0.544 OA
ATOM      9  O   UNL     1     119.770 144.552 134.647  1.00  0.00    -0.544 OA
ENDBRANCH   2   7
ENDBRANCH   1   2
BRANCH   1  10
ATOM     10  C   UNL     1     120.229 147.562 132.999  1.00  0.00     0.223 C 
ATOM     11  O   UNL     1     120.269 148.624 132.322  1.00  0.00    -0.275 OA
ATOM     12  N   UNL     1     120.954 147.475 134.225  1.00  0.00    -0.369 N 
ATOM     13  H   UNL     1     121.505 148.292 134.570  1.00  0.00     0.159 HD
ATOM     14  H   UNL     1     120.943 146.597 134.789  1.00  0.00     0.159 HD
ENDBRANCH   1  10
TORSDOF 4
ENDMDL
MODEL 9
REMARK VINA RESULT:    -3.568      2.030      3.709
REMARK INTER + INTRA:          -4.377
REMARK INTER:                  -3.878
REMARK INTRA:                  -0.499
REMARK UNBOUND:                -0.079
REMARK SMILES NC(=O)C[C@@H]([NH3+])C(=O)[O-]
REMARK SMILES IDX 4 1 5 2 6 3 7 7 8 8 9 9 2 10 3 11 1 12
REMARK H PARENT 6 4 6 5 6 6 1 13 1 14
REMARK Flexibility Score: inf
ROOT
ATOM      1  C   UNL     1     120.717 146.125 132.108  1.00  0.00     0.171 C 
ENDROOT
BRANCH   1   2
ATOM      2  C   UNL     1     120.934 146.046 133.633  1.00  0.00     0.237 C 
BRANCH   2   3
ATOM      3  N   UNL     1     120.923 147.390 134.223  1.00  0.00    -0.350 N 
ATOM      4  H   UNL     1     120.473 148.076 133.574  1.00  0.00     0.345 HD
ATOM      5  H   UNL     1     120.398 147.377 135.128  1.00  0.00     0.345 HD
ATOM      6  H   UNL     1     121.903 147.698 134.419  1.00  0.00     0.345 HD
ENDBRANCH   2   3
BRANCH   2   7
ATOM      7  C   UNL     1     119.885 145.182 134.286  1.00  0.00     0.100 C 
ATOM      8  O   UNL     1     120.168 144.019 134.678  1.00  0.00    -0.544 OA
ATOM      9  O   UNL     1     118.600 145.675 134.474  1.00  0.00    -0.544 OA
ENDBRANCH   2   7
ENDBRANCH   1   2
BRANCH   1  10
ATOM     10  C   UNL     1     119.817 147.270 131.736  1.00  0.00     0.223 C 
ATOM     11  O   UNL     1     120.308 148.412 131.530  1.00  0.00    -0.275 OA
ATOM     12  N   UNL     1     118.406 147.080 131.652  1.00  0.00    -0.369 N 
ATOM     13  H   UNL     1     117.780 147.879 131.406  1.00  0.00     0.159 HD
ATOM     14  H   UNL     1     117.982 146.143 131.836  1.00  0.00     0.159 HD
ENDBRANCH   1  10
TORSDOF 4
ENDMDL
