MODEL 1
REMARK VINA RESULT:    -2.581      0.000      0.000
REMARK INTER + INTRA:         -12.697
REMARK INTER:                  -6.806
REMARK INTRA:                  -5.891
REMARK UNBOUND:                -5.891
REMARK SMILES CCCCCCCCCCCCCCCCCCCCCCCCCCCCCC(=O)[O-]
REMARK SMILES IDX 16 1 17 2 18 3 19 4 20 5 21 6 22 7 23 8 24 9 25 10 26 11
REMARK SMILES IDX 27 12 28 13 29 14 30 15 31 16 32 17 15 18 14 19 13 20 12 21
REMARK SMILES IDX 11 22 10 23 9 24 8 25 7 26 6 27 5 28 4 29 3 30 2 31 1 32
REMARK H PARENT
REMARK Flexibility Score: inf
ROOT
ATOM      1  C   UNL     1      23.371  29.016  46.687  1.00  0.00     0.000 C 
ENDROOT
BRANCH   1   2
ATOM      2  C   UNL     1      23.917  30.270  47.394  1.00  0.00     0.000 C 
BRANCH   2   3
ATOM      3  C   UNL     1      23.926  31.515  46.489  1.00  0.00     0.000 C 
BRANCH   3   4
ATOM      4  C   UNL     1      25.335  31.852  45.976  1.00  0.00     0.000 C 
BRANCH   4   5
ATOM      5  C   UNL     1      25.624  31.238  44.596  1.00  0.00     0.000 C 
BRANCH   5   6
ATOM      6  C   UNL     1      25.974  32.305  43.542  1.00  0.00     0.000 C 
BRANCH   6   7
ATOM      7  C   UNL     1      24.736  33.099  43.088  1.00  0.00     0.000 C 
BRANCH   7   8
ATOM      8  C   UNL     1      23.698  32.211  42.368  1.00  0.00     0.000 C 
BRANCH   8   9
ATOM      9  C   UNL     1      22.382  32.038  43.148  1.00  0.00     0.000 C 
BRANCH   9  10
ATOM     10  C   UNL     1      22.041  30.584  43.532  1.00  0.00     0.000 C 
BRANCH  10  11
ATOM     11  C   UNL     1      22.555  29.519  42.544  1.00  0.00     0.000 C 
BRANCH  11  12
ATOM     12  C   UNL     1      23.627  28.566  43.117  1.00  0.00     0.000 C 
BRANCH  12  13
ATOM     13  C   UNL     1      24.604  28.028  42.050  1.00  0.00     0.006 C 
BRANCH  13  14
ATOM     14  C   UNL     1      25.838  28.933  41.840  1.00  0.00     0.053 C 
BRANCH  14  15
ATOM     15  C   UNL     1      26.796  28.335  40.855  1.00  0.00     0.041 C 
ATOM     16  O   UNL     1      26.696  27.123  40.537  1.00  0.00    -0.550 OA
ATOM     17  O   UNL     1      27.774  29.126  40.258  1.00  0.00    -0.550 OA
ENDBRANCH  14  15
ENDBRANCH  13  14
ENDBRANCH  12  13
ENDBRANCH  11  12
ENDBRANCH  10  11
ENDBRANCH   9  10
ENDBRANCH   8   9
ENDBRANCH   7   8
ENDBRANCH   6   7
ENDBRANCH   5   6
ENDBRANCH   4   5
ENDBRANCH   3   4
ENDBRANCH   2   3
ENDBRANCH   1   2
BRANCH   1  18
ATOM     18  C   UNL     1      22.837  27.909  47.624  1.00  0.00     0.000 C 
BRANCH  18  19
ATOM     19  C   UNL     1      23.715  27.600  48.854  1.00  0.00     0.000 C 
BRANCH  19  20
ATOM     20  C   UNL     1      22.932  27.658  50.178  1.00  0.00     0.000 C 
BRANCH  20  21
ATOM     21  C   UNL     1      21.443  27.976  49.967  1.00  0.00     0.000 C 
BRANCH  21  22
ATOM     22  C   UNL     1      20.931  29.088  50.900  1.00  0.00     0.000 C 
BRANCH  22  23
ATOM     23  C   UNL     1      21.922  30.269  50.988  1.00  0.00     0.000 C 
BRANCH  23  24
ATOM     24  C   UNL     1      21.239  31.640  51.118  1.00  0.00    -0.000 C 
BRANCH  24  25
ATOM     25  C   UNL     1      20.275  31.945  49.961  1.00  0.00    -0.000 C 
BRANCH  25  26
ATOM     26  C   UNL     1      21.046  32.279  48.675  1.00  0.00    -0.000 C 
BRANCH  26  27
ATOM     27  C   UNL     1      20.431  31.618  47.425  1.00  0.00    -0.000 C 
BRANCH  27  28
ATOM     28  C   UNL     1      19.656  30.318  47.717  1.00  0.00    -0.000 C 
BRANCH  28  29
ATOM     29  C   UNL     1      19.570  29.353  46.515  1.00  0.00    -0.000 C 
BRANCH  29  30
ATOM     30  C   UNL     1      19.096  27.939  46.895  1.00  0.00    -0.000 C 
BRANCH  30  31
ATOM     31  C   UNL     1      19.730  26.853  46.011  1.00  0.00    -0.003 C 
ATOM     32  C   UNL     1      20.409  27.467  44.792  1.00  0.00     0.004 C 
ENDBRANCH  30  31
ENDBRANCH  29  30
ENDBRANCH  28  29
ENDBRANCH  27  28
ENDBRANCH  26  27
ENDBRANCH  25  26
ENDBRANCH  24  25
ENDBRANCH  23  24
ENDBRANCH  22  23
ENDBRANCH  21  22
ENDBRANCH  20  21
ENDBRANCH  19  20
ENDBRANCH  18  19
ENDBRANCH   1  18
TORSDOF 28
ENDMDL
MODEL 2
REMARK VINA RESULT:    -2.552      3.085      7.403
REMARK INTER + INTRA:         -12.620
REMARK INTER:                  -6.250
REMARK INTRA:                  -6.370
REMARK UNBOUND:                -5.891
REMARK SMILES CCCCCCCCCCCCCCCCCCCCCCCCCCCCCC(=O)[O-]
REMARK SMILES IDX 16 1 17 2 18 3 19 4 20 5 21 6 22 7 23 8 24 9 25 10 26 11
REMARK SMILES IDX 27 12 28 13 29 14 30 15 31 16 32 17 15 18 14 19 13 20 12 21
REMARK SMILES IDX 11 22 10 23 9 24 8 25 7 26 6 27 5 28 4 29 3 30 2 31 1 32
REMARK H PARENT
REMARK Flexibility Score: inf
ROOT
ATOM      1  C   UNL     1      24.495  28.492  42.156  1.00  0.00     0.000 C 
ENDROOT
BRANCH   1   2
ATOM      2  C   UNL     1      23.020  28.891  42.342  1.00  0.00     0.000 C 
BRANCH   2   3
ATOM      3  C   UNL     1      22.521  28.698  43.784  1.00  0.00     0.000 C 
BRANCH   3   4
ATOM      4  C   UNL     1      22.935  29.858  44.704  1.00  0.00     0.000 C 
BRANCH   4   5
ATOM      5  C   UNL     1      23.700  29.381  45.950  1.00  0.00     0.000 C 
BRANCH   5   6
ATOM      6  C   UNL     1      23.909  30.508  46.977  1.00  0.00     0.000 C 
BRANCH   6   7
ATOM      7  C   UNL     1      23.225  31.819  46.546  1.00  0.00     0.000 C 
BRANCH   7   8
ATOM      8  C   UNL     1      22.221  32.332  47.600  1.00  0.00     0.000 C 
BRANCH   8   9
ATOM      9  C   UNL     1      20.870  31.592  47.582  1.00  0.00     0.000 C 
BRANCH   9  10
ATOM     10  C   UNL     1      20.169  31.488  48.951  1.00  0.00     0.000 C 
BRANCH  10  11
ATOM     11  C   UNL     1      21.089  31.720  50.166  1.00  0.00     0.000 C 
BRANCH  11  12
ATOM     12  C   UNL     1      21.464  30.444  50.951  1.00  0.00     0.000 C 
BRANCH  12  13
ATOM     13  C   UNL     1      22.640  29.663  50.327  1.00  0.00     0.006 C 
BRANCH  13  14
ATOM     14  C   UNL     1      22.442  28.131  50.360  1.00  0.00     0.053 C 
BRANCH  14  15
ATOM     15  C   UNL     1      21.333  27.701  49.448  1.00  0.00     0.041 C 
ATOM     16  O   UNL     1      21.305  28.106  48.258  1.00  0.00    -0.550 OA
ATOM     17  O   UNL     1      20.354  26.821  49.900  1.00  0.00    -0.550 OA
ENDBRANCH  14  15
ENDBRANCH  13  14
ENDBRANCH  12  13
ENDBRANCH  11  12
ENDBRANCH  10  11
ENDBRANCH   9  10
ENDBRANCH   8   9
ENDBRANCH   7   8
ENDBRANCH   6   7
ENDBRANCH   5   6
ENDBRANCH   4   5
ENDBRANCH   3   4
ENDBRANCH   2   3
ENDBRANCH   1   2
BRANCH   1  18
ATOM     18  C   UNL     1      25.288  29.343  41.139  1.00  0.00     0.000 C 
BRANCH  18  19
ATOM     19  C   UNL     1      26.410  30.216  41.736  1.00  0.00     0.000 C 
BRANCH  19  20
ATOM     20  C   UNL     1      26.362  30.288  43.272  1.00  0.00     0.000 C 
BRANCH  20  21
ATOM     21  C   UNL     1      26.197  31.727  43.788  1.00  0.00     0.000 C 
BRANCH  21  22
ATOM     22  C   UNL     1      25.490  32.647  42.777  1.00  0.00     0.000 C 
BRANCH  22  23
ATOM     23  C   UNL     1      24.039  32.961  43.199  1.00  0.00     0.000 C 
BRANCH  23  24
ATOM     24  C   UNL     1      22.993  32.595  42.133  1.00  0.00    -0.000 C 
BRANCH  24  25
ATOM     25  C   UNL     1      23.575  32.537  40.712  1.00  0.00    -0.000 C 
BRANCH  25  26
ATOM     26  C   UNL     1      22.742  31.610  39.813  1.00  0.00    -0.000 C 
BRANCH  26  27
ATOM     27  C   UNL     1      21.225  31.767  40.043  1.00  0.00    -0.000 C 
BRANCH  27  28
ATOM     28  C   UNL     1      20.461  30.433  40.141  1.00  0.00    -0.000 C 
BRANCH  28  29
ATOM     29  C   UNL     1      19.706  30.235  41.473  1.00  0.00    -0.000 C 
BRANCH  29  30
ATOM     30  C   UNL     1      19.353  31.556  42.181  1.00  0.00    -0.000 C 
BRANCH  30  31
ATOM     31  C   UNL     1      19.791  31.565  43.654  1.00  0.00    -0.003 C 
ATOM     32  C   UNL     1      19.214  30.369  44.404  1.00  0.00     0.004 C 
ENDBRANCH  30  31
ENDBRANCH  29  30
ENDBRANCH  28  29
ENDBRANCH  27  28
ENDBRANCH  26  27
ENDBRANCH  25  26
ENDBRANCH  24  25
ENDBRANCH  23  24
ENDBRANCH  22  23
ENDBRANCH  21  22
ENDBRANCH  20  21
ENDBRANCH  19  20
ENDBRANCH  18  19
ENDBRANCH   1  18
TORSDOF 28
ENDMDL
MODEL 3
REMARK VINA RESULT:    -2.515      2.862      4.585
REMARK INTER + INTRA:         -12.522
REMARK INTER:                  -6.192
REMARK INTRA:                  -6.331
REMARK UNBOUND:                -5.891
REMARK SMILES CCCCCCCCCCCCCCCCCCCCCCCCCCCCCC(=O)[O-]
REMARK SMILES IDX 16 1 17 2 18 3 19 4 20 5 21 6 22 7 23 8 24 9 25 10 26 11
REMARK SMILES IDX 27 12 28 13 29 14 30 15 31 16 32 17 15 18 14 19 13 20 12 21
REMARK SMILES IDX 11 22 10 23 9 24 8 25 7 26 6 27 5 28 4 29 3 30 2 31 1 32
REMARK H PARENT
REMARK Flexibility Score: inf
ROOT
ATOM      1  C   UNL     1      21.181  31.863  48.140  1.00  0.00     0.000 C 
ENDROOT
BRANCH   1   2
ATOM      2  C   UNL     1      22.519  31.942  47.382  1.00  0.00     0.000 C 
BRANCH   2   3
ATOM      3  C   UNL     1      23.304  30.619  47.406  1.00  0.00     0.000 C 
BRANCH   3   4
ATOM      4  C   UNL     1      24.287  30.504  46.231  1.00  0.00     0.000 C 
BRANCH   4   5
ATOM      5  C   UNL     1      24.921  31.854  45.855  1.00  0.00     0.000 C 
BRANCH   5   6
ATOM      6  C   UNL     1      26.020  31.709  44.788  1.00  0.00     0.000 C 
BRANCH   6   7
ATOM      7  C   UNL     1      25.466  31.868  43.360  1.00  0.00     0.000 C 
BRANCH   7   8
ATOM      8  C   UNL     1      26.048  30.823  42.383  1.00  0.00     0.000 C 
BRANCH   8   9
ATOM      9  C   UNL     1      25.001  29.835  41.835  1.00  0.00     0.000 C 
BRANCH   9  10
ATOM     10  C   UNL     1      24.355  28.921  42.895  1.00  0.00     0.000 C 
BRANCH  10  11
ATOM     11  C   UNL     1      22.814  28.952  42.921  1.00  0.00     0.000 C 
BRANCH  11  12
ATOM     12  C   UNL     1      22.186  30.311  42.541  1.00  0.00     0.000 C 
BRANCH  12  13
ATOM     13  C   UNL     1      21.789  31.168  43.762  1.00  0.00     0.006 C 
BRANCH  13  14
ATOM     14  C   UNL     1      20.541  30.638  44.501  1.00  0.00     0.053 C 
BRANCH  14  15
ATOM     15  C   UNL     1      19.445  31.659  44.528  1.00  0.00     0.041 C 
ATOM     16  O   UNL     1      18.329  31.399  44.010  1.00  0.00    -0.550 OA
ATOM     17  O   UNL     1      19.643  32.884  45.161  1.00  0.00    -0.550 OA
ENDBRANCH  14  15
ENDBRANCH  13  14
ENDBRANCH  12  13
ENDBRANCH  11  12
ENDBRANCH  10  11
ENDBRANCH   9  10
ENDBRANCH   8   9
ENDBRANCH   7   8
ENDBRANCH   6   7
ENDBRANCH   5   6
ENDBRANCH   4   5
ENDBRANCH   3   4
ENDBRANCH   2   3
ENDBRANCH   1   2
BRANCH   1  18
ATOM     18  C   UNL     1      20.543  30.457  48.209  1.00  0.00     0.000 C 
BRANCH  18  19
ATOM     19  C   UNL     1      20.351  29.884  49.627  1.00  0.00     0.000 C 
BRANCH  19  20
ATOM     20  C   UNL     1      21.509  30.236  50.578  1.00  0.00     0.000 C 
BRANCH  20  21
ATOM     21  C   UNL     1      22.481  29.063  50.781  1.00  0.00     0.000 C 
BRANCH  21  22
ATOM     22  C   UNL     1      21.968  27.748  50.166  1.00  0.00     0.000 C 
BRANCH  22  23
ATOM     23  C   UNL     1      22.922  26.568  50.450  1.00  0.00     0.000 C 
BRANCH  23  24
ATOM     24  C   UNL     1      24.117  26.493  49.487  1.00  0.00    -0.000 C 
BRANCH  24  25
ATOM     25  C   UNL     1      23.826  27.122  48.115  1.00  0.00    -0.000 C 
BRANCH  25  26
ATOM     26  C   UNL     1      23.771  26.048  47.018  1.00  0.00    -0.000 C 
BRANCH  26  27
ATOM     27  C   UNL     1      22.778  26.401  45.892  1.00  0.00    -0.000 C 
BRANCH  27  28
ATOM     28  C   UNL     1      21.852  27.589  46.218  1.00  0.00    -0.000 C 
BRANCH  28  29
ATOM     29  C   UNL     1      20.358  27.213  46.321  1.00  0.00    -0.000 C 
BRANCH  29  30
ATOM     30  C   UNL     1      20.056  26.198  47.438  1.00  0.00    -0.000 C 
BRANCH  30  31
ATOM     31  C   UNL     1      18.882  26.640  48.326  1.00  0.00    -0.003 C 
ATOM     32  C   UNL     1      18.045  27.711  47.635  1.00  0.00     0.004 C 
ENDBRANCH  30  31
ENDBRANCH  29  30
ENDBRANCH  28  29
ENDBRANCH  27  28
ENDBRANCH  26  27
ENDBRANCH  25  26
ENDBRANCH  24  25
ENDBRANCH  23  24
ENDBRANCH  22  23
ENDBRANCH  21  22
ENDBRANCH  20  21
ENDBRANCH  19  20
ENDBRANCH  18  19
ENDBRANCH   1  18
TORSDOF 28
ENDMDL
MODEL 4
REMARK VINA RESULT:    -2.500     10.361     13.717
REMARK INTER + INTRA:         -12.482
REMARK INTER:                  -6.197
REMARK INTRA:                  -6.285
REMARK UNBOUND:                -5.891
REMARK SMILES CCCCCCCCCCCCCCCCCCCCCCCCCCCCCC(=O)[O-]
REMARK SMILES IDX 16 1 17 2 18 3 19 4 20 5 21 6 22 7 23 8 24 9 25 10 26 11
REMARK SMILES IDX 27 12 28 13 29 14 30 15 31 16 32 17 15 18 14 19 13 20 12 21
REMARK SMILES IDX 11 22 10 23 9 24 8 25 7 26 6 27 5 28 4 29 3 30 2 31 1 32
REMARK H PARENT
REMARK Flexibility Score: inf
ROOT
ATOM      1  C   UNL     1      20.851  30.118  33.875  1.00  0.00     0.000 C 
ENDROOT
BRANCH   1   2
ATOM      2  C   UNL     1      21.166  31.559  33.433  1.00  0.00     0.000 C 
BRANCH   2   3
ATOM      3  C   UNL     1      20.819  31.826  31.958  1.00  0.00     0.000 C 
BRANCH   3   4
ATOM      4  C   UNL     1      19.543  32.668  31.803  1.00  0.00     0.000 C 
BRANCH   4   5
ATOM      5  C   UNL     1      19.123  33.353  33.115  1.00  0.00     0.000 C 
BRANCH   5   6
ATOM      6  C   UNL     1      18.996  34.879  32.965  1.00  0.00     0.000 C 
BRANCH   6   7
ATOM      7  C   UNL     1      20.369  35.570  32.875  1.00  0.00     0.000 C 
BRANCH   7   8
ATOM      8  C   UNL     1      20.994  35.818  34.266  1.00  0.00     0.000 C 
BRANCH   8   9
ATOM      9  C   UNL     1      22.070  34.787  34.655  1.00  0.00     0.000 C 
BRANCH   9  10
ATOM     10  C   UNL     1      21.900  34.170  36.057  1.00  0.00     0.000 C 
BRANCH  10  11
ATOM     11  C   UNL     1      20.441  33.884  36.463  1.00  0.00     0.000 C 
BRANCH  11  12
ATOM     12  C   UNL     1      20.145  32.414  36.834  1.00  0.00     0.000 C 
BRANCH  12  13
ATOM     13  C   UNL     1      18.666  32.018  36.645  1.00  0.00     0.006 C 
BRANCH  13  14
ATOM     14  C   UNL     1      18.006  31.486  37.936  1.00  0.00     0.053 C 
BRANCH  14  15
ATOM     15  C   UNL     1      16.740  32.224  38.250  1.00  0.00     0.041 C 
ATOM     16  O   UNL     1      15.656  31.868  37.723  1.00  0.00    -0.550 OA
ATOM     17  O   UNL     1      16.751  33.282  39.157  1.00  0.00    -0.550 OA
ENDBRANCH  14  15
ENDBRANCH  13  14
ENDBRANCH  12  13
ENDBRANCH  11  12
ENDBRANCH  10  11
ENDBRANCH   9  10
ENDBRANCH   8   9
ENDBRANCH   7   8
ENDBRANCH   6   7
ENDBRANCH   5   6
ENDBRANCH   4   5
ENDBRANCH   3   4
ENDBRANCH   2   3
ENDBRANCH   1   2
BRANCH   1  18
ATOM     18  C   UNL     1      21.544  29.009  33.053  1.00  0.00     0.000 C 
BRANCH  18  19
ATOM     19  C   UNL     1      20.599  28.009  32.357  1.00  0.00     0.000 C 
BRANCH  19  20
ATOM     20  C   UNL     1      19.111  28.325  32.595  1.00  0.00     0.000 C 
BRANCH  20  21
ATOM     21  C   UNL     1      18.451  28.995  31.379  1.00  0.00     0.000 C 
BRANCH  21  22
ATOM     22  C   UNL     1      17.237  29.862  31.760  1.00  0.00     0.000 C 
BRANCH  22  23
ATOM     23  C   UNL     1      17.230  30.216  33.262  1.00  0.00     0.000 C 
BRANCH  23  24
ATOM     24  C   UNL     1      15.888  29.934  33.957  1.00  0.00    -0.000 C 
BRANCH  24  25
ATOM     25  C   UNL     1      16.051  29.329  35.361  1.00  0.00    -0.000 C 
BRANCH  25  26
ATOM     26  C   UNL     1      17.454  28.728  35.541  1.00  0.00    -0.000 C 
BRANCH  26  27
ATOM     27  C   UNL     1      17.415  27.283  36.077  1.00  0.00    -0.000 C 
BRANCH  27  28
ATOM     28  C   UNL     1      16.155  26.493  35.670  1.00  0.00    -0.000 C 
BRANCH  28  29
ATOM     29  C   UNL     1      16.253  25.824  34.281  1.00  0.00    -0.000 C 
BRANCH  29  30
ATOM     30  C   UNL     1      15.025  26.078  33.389  1.00  0.00    -0.000 C 
BRANCH  30  31
ATOM     31  C   UNL     1      15.401  26.727  32.048  1.00  0.00    -0.003 C 
ATOM     32  C   UNL     1      16.451  25.900  31.315  1.00  0.00     0.004 C 
ENDBRANCH  30  31
ENDBRANCH  29  30
ENDBRANCH  28  29
ENDBRANCH  27  28
ENDBRANCH  26  27
ENDBRANCH  25  26
ENDBRANCH  24  25
ENDBRANCH  23  24
ENDBRANCH  22  23
ENDBRANCH  21  22
ENDBRANCH  20  21
ENDBRANCH  19  20
ENDBRANCH  18  19
ENDBRANCH   1  18
TORSDOF 28
ENDMDL
MODEL 5
REMARK VINA RESULT:    -2.483      3.771      7.772
REMARK INTER + INTRA:         -12.438
REMARK INTER:                  -5.960
REMARK INTRA:                  -6.477
REMARK UNBOUND:                -5.891
REMARK SMILES CCCCCCCCCCCCCCCCCCCCCCCCCCCCCC(=O)[O-]
REMARK SMILES IDX 16 1 17 2 18 3 19 4 20 5 21 6 22 7 23 8 24 9 25 10 26 11
REMARK SMILES IDX 27 12 28 13 29 14 30 15 31 16 32 17 15 18 14 19 13 20 12 21
REMARK SMILES IDX 11 22 10 23 9 24 8 25 7 26 6 27 5 28 4 29 3 30 2 31 1 32
REMARK H PARENT
REMARK Flexibility Score: inf
ROOT
ATOM      1  C   UNL     1      21.558  29.588  46.908  1.00  0.00     0.000 C 
ENDROOT
BRANCH   1   2
ATOM      2  C   UNL     1      20.324  28.669  46.869  1.00  0.00     0.000 C 
BRANCH   2   3
ATOM      3  C   UNL     1      19.000  29.431  47.054  1.00  0.00     0.000 C 
BRANCH   3   4
ATOM      4  C   UNL     1      18.892  30.083  48.442  1.00  0.00     0.000 C 
BRANCH   4   5
ATOM      5  C   UNL     1      18.773  31.615  48.369  1.00  0.00     0.000 C 
BRANCH   5   6
ATOM      6  C   UNL     1      19.442  32.313  49.566  1.00  0.00     0.000 C 
BRANCH   6   7
ATOM      7  C   UNL     1      20.967  32.103  49.581  1.00  0.00     0.000 C 
BRANCH   7   8
ATOM      8  C   UNL     1      21.451  31.400  50.869  1.00  0.00     0.000 C 
BRANCH   8   9
ATOM      9  C   UNL     1      22.201  30.080  50.610  1.00  0.00     0.000 C 
BRANCH   9  10
ATOM     10  C   UNL     1      21.341  28.808  50.746  1.00  0.00     0.000 C 
BRANCH  10  11
ATOM     11  C   UNL     1      22.066  27.498  50.381  1.00  0.00     0.000 C 
BRANCH  11  12
ATOM     12  C   UNL     1      21.161  26.401  49.777  1.00  0.00     0.000 C 
BRANCH  12  13
ATOM     13  C   UNL     1      19.655  26.728  49.868  1.00  0.00     0.006 C 
BRANCH  13  14
ATOM     14  C   UNL     1      18.751  25.480  49.769  1.00  0.00     0.053 C 
BRANCH  14  15
ATOM     15  C   UNL     1      17.351  25.846  49.378  1.00  0.00     0.041 C 
ATOM     16  O   UNL     1      17.152  26.753  48.531  1.00  0.00    -0.550 OA
ATOM     17  O   UNL     1      16.269  25.157  49.919  1.00  0.00    -0.550 OA
ENDBRANCH  14  15
ENDBRANCH  13  14
ENDBRANCH  12  13
ENDBRANCH  11  12
ENDBRANCH  10  11
ENDBRANCH   9  10
ENDBRANCH   8   9
ENDBRANCH   7   8
ENDBRANCH   6   7
ENDBRANCH   5   6
ENDBRANCH   4   5
ENDBRANCH   3   4
ENDBRANCH   2   3
ENDBRANCH   1   2
BRANCH   1  18
ATOM     18  C   UNL     1      22.895  28.885  47.233  1.00  0.00     0.000 C 
BRANCH  18  19
ATOM     19  C   UNL     1      24.111  29.818  47.403  1.00  0.00     0.000 C 
BRANCH  19  20
ATOM     20  C   UNL     1      23.826  31.263  46.959  1.00  0.00     0.000 C 
BRANCH  20  21
ATOM     21  C   UNL     1      24.681  31.688  45.755  1.00  0.00     0.000 C 
BRANCH  21  22
ATOM     22  C   UNL     1      23.837  32.087  44.532  1.00  0.00     0.000 C 
BRANCH  22  23
ATOM     23  C   UNL     1      23.294  30.853  43.778  1.00  0.00     0.000 C 
BRANCH  23  24
ATOM     24  C   UNL     1      24.302  29.697  43.679  1.00  0.00    -0.000 C 
BRANCH  24  25
ATOM     25  C   UNL     1      23.675  28.394  43.159  1.00  0.00    -0.000 C 
BRANCH  25  26
ATOM     26  C   UNL     1      22.187  28.310  43.535  1.00  0.00    -0.000 C 
BRANCH  26  27
ATOM     27  C   UNL     1      21.753  26.883  43.923  1.00  0.00    -0.000 C 
BRANCH  27  28
ATOM     28  C   UNL     1      22.673  26.202  44.955  1.00  0.00    -0.000 C 
BRANCH  28  29
ATOM     29  C   UNL     1      21.930  25.301  45.964  1.00  0.00    -0.000 C 
BRANCH  29  30
ATOM     30  C   UNL     1      22.837  24.746  47.077  1.00  0.00    -0.000 C 
BRANCH  30  31
ATOM     31  C   UNL     1      24.228  25.399  47.076  1.00  0.00    -0.003 C 
ATOM     32  C   UNL     1      24.732  25.617  48.498  1.00  0.00     0.004 C 
ENDBRANCH  30  31
ENDBRANCH  29  30
ENDBRANCH  28  29
ENDBRANCH  27  28
ENDBRANCH  26  27
ENDBRANCH  25  26
ENDBRANCH  24  25
ENDBRANCH  23  24
ENDBRANCH  22  23
ENDBRANCH  21  22
ENDBRANCH  20  21
ENDBRANCH  19  20
ENDBRANCH  18  19
ENDBRANCH   1  18
TORSDOF 28
ENDMDL
MODEL 6
REMARK VINA RESULT:    -2.466      1.397      3.118
REMARK INTER + INTRA:         -12.394
REMARK INTER:                  -6.433
REMARK INTRA:                  -5.961
REMARK UNBOUND:                -5.891
REMARK SMILES CCCCCCCCCCCCCCCCCCCCCCCCCCCCCC(=O)[O-]
REMARK SMILES IDX 16 1 17 2 18 3 19 4 20 5 21 6 22 7 23 8 24 9 25 10 26 11
REMARK SMILES IDX 27 12 28 13 29 14 30 15 31 16 32 17 15 18 14 19 13 20 12 21
REMARK SMILES IDX 11 22 10 23 9 24 8 25 7 26 6 27 5 28 4 29 3 30 2 31 1 32
REMARK H PARENT
REMARK Flexibility Score: inf
ROOT
ATOM      1  C   UNL     1      24.661  30.727  45.643  1.00  0.00     0.000 C 
ENDROOT
BRANCH   1   2
ATOM      2  C   UNL     1      25.642  31.878  45.356  1.00  0.00     0.000 C 
BRANCH   2   3
ATOM      3  C   UNL     1      26.056  31.963  43.876  1.00  0.00     0.000 C 
BRANCH   3   4
ATOM      4  C   UNL     1      26.452  30.593  43.304  1.00  0.00     0.000 C 
BRANCH   4   5
ATOM      5  C   UNL     1      26.229  30.500  41.785  1.00  0.00     0.000 C 
BRANCH   5   6
ATOM      6  C   UNL     1      25.810  31.847  41.170  1.00  0.00     0.000 C 
BRANCH   6   7
ATOM      7  C   UNL     1      24.408  31.785  40.537  1.00  0.00     0.000 C 
BRANCH   7   8
ATOM      8  C   UNL     1      23.379  32.645  41.303  1.00  0.00     0.000 C 
BRANCH   8   9
ATOM      9  C   UNL     1      22.175  31.846  41.835  1.00  0.00     0.000 C 
BRANCH   9  10
ATOM     10  C   UNL     1      22.361  31.257  43.248  1.00  0.00     0.000 C 
BRANCH  10  11
ATOM     11  C   UNL     1      21.308  30.207  43.652  1.00  0.00     0.000 C 
BRANCH  11  12
ATOM     12  C   UNL     1      21.767  28.739  43.512  1.00  0.00     0.000 C 
BRANCH  12  13
ATOM     13  C   UNL     1      23.269  28.593  43.190  1.00  0.00     0.006 C 
BRANCH  13  14
ATOM     14  C   UNL     1      23.541  28.068  41.763  1.00  0.00     0.053 C 
BRANCH  14  15
ATOM     15  C   UNL     1      24.607  27.014  41.760  1.00  0.00     0.041 C 
ATOM     16  O   UNL     1      24.565  26.074  42.593  1.00  0.00    -0.550 OA
ATOM     17  O   UNL     1      25.624  27.049  40.809  1.00  0.00    -0.550 OA
ENDBRANCH  14  15
ENDBRANCH  13  14
ENDBRANCH  12  13
ENDBRANCH  11  12
ENDBRANCH  10  11
ENDBRANCH   9  10
ENDBRANCH   8   9
ENDBRANCH   7   8
ENDBRANCH   6   7
ENDBRANCH   5   6
ENDBRANCH   4   5
ENDBRANCH   3   4
ENDBRANCH   2   3
ENDBRANCH   1   2
BRANCH   1  18
ATOM     18  C   UNL     1      23.861  30.854  46.958  1.00  0.00     0.000 C 
BRANCH  18  19
ATOM     19  C   UNL     1      22.756  31.929  46.963  1.00  0.00     0.000 C 
BRANCH  19  20
ATOM     20  C   UNL     1      21.442  31.436  47.594  1.00  0.00     0.000 C 
BRANCH  20  21
ATOM     21  C   UNL     1      21.409  31.637  49.117  1.00  0.00     0.000 C 
BRANCH  21  22
ATOM     22  C   UNL     1      21.239  30.318  49.892  1.00  0.00     0.000 C 
BRANCH  22  23
ATOM     23  C   UNL     1      22.594  29.628  50.160  1.00  0.00     0.000 C 
BRANCH  23  24
ATOM     24  C   UNL     1      22.463  28.168  50.623  1.00  0.00    -0.000 C 
BRANCH  24  25
ATOM     25  C   UNL     1      23.394  27.208  49.864  1.00  0.00    -0.000 C 
BRANCH  25  26
ATOM     26  C   UNL     1      23.792  27.792  48.500  1.00  0.00    -0.000 C 
BRANCH  26  27
ATOM     27  C   UNL     1      23.038  27.131  47.329  1.00  0.00    -0.000 C 
BRANCH  27  28
ATOM     28  C   UNL     1      21.705  27.817  46.970  1.00  0.00    -0.000 C 
BRANCH  28  29
ATOM     29  C   UNL     1      20.469  27.181  47.643  1.00  0.00    -0.000 C 
BRANCH  29  30
ATOM     30  C   UNL     1      19.233  28.099  47.649  1.00  0.00    -0.000 C 
BRANCH  30  31
ATOM     31  C   UNL     1      19.142  28.965  46.383  1.00  0.00    -0.003 C 
ATOM     32  C   UNL     1      18.238  28.318  45.341  1.00  0.00     0.004 C 
ENDBRANCH  30  31
ENDBRANCH  29  30
ENDBRANCH  28  29
ENDBRANCH  27  28
ENDBRANCH  26  27
ENDBRANCH  25  26
ENDBRANCH  24  25
ENDBRANCH  23  24
ENDBRANCH  22  23
ENDBRANCH  21  22
ENDBRANCH  20  21
ENDBRANCH  19  20
ENDBRANCH  18  19
ENDBRANCH   1  18
TORSDOF 28
ENDMDL
MODEL 7
REMARK VINA RESULT:    -2.434      2.281      4.319
REMARK INTER + INTRA:         -12.308
REMARK INTER:                  -6.453
REMARK INTRA:                  -5.855
REMARK UNBOUND:                -5.891
REMARK SMILES CCCCCCCCCCCCCCCCCCCCCCCCCCCCCC(=O)[O-]
REMARK SMILES IDX 16 1 17 2 18 3 19 4 20 5 21 6 22 7 23 8 24 9 25 10 26 11
REMARK SMILES IDX 27 12 28 13 29 14 30 15 31 16 32 17 15 18 14 19 13 20 12 21
REMARK SMILES IDX 11 22 10 23 9 24 8 25 7 26 6 27 5 28 4 29 3 30 2 31 1 32
REMARK H PARENT
REMARK Flexibility Score: inf
ROOT
ATOM      1  C   UNL     1      20.910  31.865  46.301  1.00  0.00     0.000 C 
ENDROOT
BRANCH   1   2
ATOM      2  C   UNL     1      22.334  31.804  45.721  1.00  0.00     0.000 C 
BRANCH   2   3
ATOM      3  C   UNL     1      23.429  31.898  46.799  1.00  0.00     0.000 C 
BRANCH   3   4
ATOM      4  C   UNL     1      24.825  31.586  46.239  1.00  0.00     0.000 C 
BRANCH   4   5
ATOM      5  C   UNL     1      24.967  31.966  44.755  1.00  0.00     0.000 C 
BRANCH   5   6
ATOM      6  C   UNL     1      26.036  31.127  44.034  1.00  0.00     0.000 C 
BRANCH   6   7
ATOM      7  C   UNL     1      25.924  31.236  42.502  1.00  0.00     0.000 C 
BRANCH   7   8
ATOM      8  C   UNL     1      24.666  30.529  41.953  1.00  0.00     0.000 C 
BRANCH   8   9
ATOM      9  C   UNL     1      24.448  29.117  42.528  1.00  0.00     0.000 C 
BRANCH   9  10
ATOM     10  C   UNL     1      23.086  28.901  43.218  1.00  0.00     0.000 C 
BRANCH  10  11
ATOM     11  C   UNL     1      23.173  28.520  44.709  1.00  0.00     0.000 C 
BRANCH  11  12
ATOM     12  C   UNL     1      21.888  27.893  45.295  1.00  0.00     0.000 C 
BRANCH  12  13
ATOM     13  C   UNL     1      21.955  26.356  45.414  1.00  0.00     0.006 C 
BRANCH  13  14
ATOM     14  C   UNL     1      23.396  25.802  45.382  1.00  0.00     0.053 C 
BRANCH  14  15
ATOM     15  C   UNL     1      23.499  24.591  44.504  1.00  0.00     0.041 C 
ATOM     16  O   UNL     1      24.437  24.494  43.674  1.00  0.00    -0.550 OA
ATOM     17  O   UNL     1      22.581  23.552  44.633  1.00  0.00    -0.550 OA
ENDBRANCH  14  15
ENDBRANCH  13  14
ENDBRANCH  12  13
ENDBRANCH  11  12
ENDBRANCH  10  11
ENDBRANCH   9  10
ENDBRANCH   8   9
ENDBRANCH   7   8
ENDBRANCH   6   7
ENDBRANCH   5   6
ENDBRANCH   4   5
ENDBRANCH   3   4
ENDBRANCH   2   3
ENDBRANCH   1   2
BRANCH   1  18
ATOM     18  C   UNL     1      20.719  31.152  47.659  1.00  0.00     0.000 C 
BRANCH  18  19
ATOM     19  C   UNL     1      19.775  31.858  48.653  1.00  0.00     0.000 C 
BRANCH  19  20
ATOM     20  C   UNL     1      20.154  31.605  50.123  1.00  0.00     0.000 C 
BRANCH  20  21
ATOM     21  C   UNL     1      21.573  31.033  50.273  1.00  0.00     0.000 C 
BRANCH  21  22
ATOM     22  C   UNL     1      21.606  29.720  51.076  1.00  0.00     0.000 C 
BRANCH  22  23
ATOM     23  C   UNL     1      22.658  28.733  50.527  1.00  0.00     0.000 C 
BRANCH  23  24
ATOM     24  C   UNL     1      23.239  29.145  49.164  1.00  0.00    -0.000 C 
BRANCH  24  25
ATOM     25  C   UNL     1      23.755  27.951  48.344  1.00  0.00    -0.000 C 
BRANCH  25  26
ATOM     26  C   UNL     1      24.429  26.910  49.250  1.00  0.00    -0.000 C 
BRANCH  26  27
ATOM     27  C   UNL     1      23.816  25.504  49.095  1.00  0.00    -0.000 C 
BRANCH  27  28
ATOM     28  C   UNL     1      23.119  24.977  50.365  1.00  0.00    -0.000 C 
BRANCH  28  29
ATOM     29  C   UNL     1      21.577  25.010  50.296  1.00  0.00    -0.000 C 
BRANCH  29  30
ATOM     30  C   UNL     1      21.033  25.530  48.954  1.00  0.00    -0.000 C 
BRANCH  30  31
ATOM     31  C   UNL     1      19.754  26.365  49.126  1.00  0.00    -0.003 C 
ATOM     32  C   UNL     1      19.855  27.684  48.369  1.00  0.00     0.004 C 
ENDBRANCH  30  31
ENDBRANCH  29  30
ENDBRANCH  28  29
ENDBRANCH  27  28
ENDBRANCH  26  27
ENDBRANCH  25  26
ENDBRANCH  24  25
ENDBRANCH  23  24
ENDBRANCH  22  23
ENDBRANCH  21  22
ENDBRANCH  20  21
ENDBRANCH  19  20
ENDBRANCH  18  19
ENDBRANCH   1  18
TORSDOF 28
ENDMDL
MODEL 8
REMARK VINA RESULT:    -2.403      1.637      3.836
REMARK INTER + INTRA:         -12.229
REMARK INTER:                  -5.460
REMARK INTRA:                  -6.769
REMARK UNBOUND:                -5.891
REMARK SMILES CCCCCCCCCCCCCCCCCCCCCCCCCCCCCC(=O)[O-]
REMARK SMILES IDX 16 1 17 2 18 3 19 4 20 5 21 6 22 7 23 8 24 9 25 10 26 11
REMARK SMILES IDX 27 12 28 13 29 14 30 15 31 16 32 17 15 18 14 19 13 20 12 21
REMARK SMILES IDX 11 22 10 23 9 24 8 25 7 26 6 27 5 28 4 29 3 30 2 31 1 32
REMARK H PARENT
REMARK Flexibility Score: inf
ROOT
ATOM      1  C   UNL     1      21.364  25.202  46.140  1.00  0.00     0.000 C 
ENDROOT
BRANCH   1   2
ATOM      2  C   UNL     1      20.093  25.846  45.556  1.00  0.00     0.000 C 
BRANCH   2   3
ATOM      3  C   UNL     1      20.237  27.361  45.327  1.00  0.00     0.000 C 
BRANCH   3   4
ATOM      4  C   UNL     1      19.990  28.169  46.610  1.00  0.00     0.000 C 
BRANCH   4   5
ATOM      5  C   UNL     1      21.252  28.898  47.102  1.00  0.00     0.000 C 
BRANCH   5   6
ATOM      6  C   UNL     1      22.459  28.672  46.175  1.00  0.00     0.000 C 
BRANCH   6   7
ATOM      7  C   UNL     1      23.780  29.132  46.819  1.00  0.00     0.000 C 
BRANCH   7   8
ATOM      8  C   UNL     1      23.637  30.483  47.554  1.00  0.00     0.000 C 
BRANCH   8   9
ATOM      9  C   UNL     1      24.088  31.695  46.718  1.00  0.00     0.000 C 
BRANCH   9  10
ATOM     10  C   UNL     1      25.025  31.359  45.541  1.00  0.00     0.000 C 
BRANCH  10  11
ATOM     11  C   UNL     1      24.653  32.034  44.207  1.00  0.00     0.000 C 
BRANCH  11  12
ATOM     12  C   UNL     1      24.748  31.119  42.966  1.00  0.00     0.000 C 
BRANCH  12  13
ATOM     13  C   UNL     1      24.373  29.651  43.257  1.00  0.00     0.006 C 
BRANCH  13  14
ATOM     14  C   UNL     1      23.225  29.125  42.367  1.00  0.00     0.053 C 
BRANCH  14  15
ATOM     15  C   UNL     1      23.434  27.689  41.992  1.00  0.00     0.041 C 
ATOM     16  O   UNL     1      22.597  26.819  42.341  1.00  0.00    -0.550 OA
ATOM     17  O   UNL     1      24.534  27.319  41.222  1.00  0.00    -0.550 OA
ENDBRANCH  14  15
ENDBRANCH  13  14
ENDBRANCH  12  13
ENDBRANCH  11  12
ENDBRANCH  10  11
ENDBRANCH   9  10
ENDBRANCH   8   9
ENDBRANCH   7   8
ENDBRANCH   6   7
ENDBRANCH   5   6
ENDBRANCH   4   5
ENDBRANCH   3   4
ENDBRANCH   2   3
ENDBRANCH   1   2
BRANCH   1  18
ATOM     18  C   UNL     1      21.348  24.978  47.669  1.00  0.00     0.000 C 
BRANCH  18  19
ATOM     19  C   UNL     1      22.514  25.620  48.446  1.00  0.00     0.000 C 
BRANCH  19  20
ATOM     20  C   UNL     1      22.042  26.487  49.627  1.00  0.00     0.000 C 
BRANCH  20  21
ATOM     21  C   UNL     1      23.146  27.421  50.149  1.00  0.00     0.000 C 
BRANCH  21  22
ATOM     22  C   UNL     1      22.597  28.757  50.679  1.00  0.00     0.000 C 
BRANCH  22  23
ATOM     23  C   UNL     1      21.053  28.781  50.699  1.00  0.00     0.000 C 
BRANCH  23  24
ATOM     24  C   UNL     1      20.456  30.197  50.694  1.00  0.00    -0.000 C 
BRANCH  24  25
ATOM     25  C   UNL     1      21.381  31.239  50.044  1.00  0.00    -0.000 C 
BRANCH  25  26
ATOM     26  C   UNL     1      20.627  32.549  49.769  1.00  0.00    -0.000 C 
BRANCH  26  27
ATOM     27  C   UNL     1      20.427  32.813  48.263  1.00  0.00    -0.000 C 
BRANCH  27  28
ATOM     28  C   UNL     1      19.235  32.058  47.643  1.00  0.00    -0.000 C 
BRANCH  28  29
ATOM     29  C   UNL     1      19.360  31.824  46.121  1.00  0.00    -0.000 C 
BRANCH  29  30
ATOM     30  C   UNL     1      20.746  32.183  45.557  1.00  0.00    -0.000 C 
BRANCH  30  31
ATOM     31  C   UNL     1      21.054  31.439  44.248  1.00  0.00    -0.003 C 
ATOM     32  C   UNL     1      19.819  30.716  43.725  1.00  0.00     0.004 C 
ENDBRANCH  30  31
ENDBRANCH  29  30
ENDBRANCH  28  29
ENDBRANCH  27  28
ENDBRANCH  26  27
ENDBRANCH  25  26
ENDBRANCH  24  25
ENDBRANCH  23  24
ENDBRANCH  22  23
ENDBRANCH  21  22
ENDBRANCH  20  21
ENDBRANCH  19  20
ENDBRANCH  18  19
ENDBRANCH   1  18
TORSDOF 28
ENDMDL
MODEL 9
REMARK VINA RESULT:    -2.340      3.586      6.398
REMARK INTER + INTRA:         -12.061
REMARK INTER:                  -6.545
REMARK INTRA:                  -5.516
REMARK UNBOUND:                -5.891
REMARK SMILES CCCCCCCCCCCCCCCCCCCCCCCCCCCCCC(=O)[O-]
REMARK SMILES IDX 16 1 17 2 18 3 19 4 20 5 21 6 22 7 23 8 24 9 25 10 26 11
REMARK SMILES IDX 27 12 28 13 29 14 30 15 31 16 32 17 15 18 14 19 13 20 12 21
REMARK SMILES IDX 11 22 10 23 9 24 8 25 7 26 6 27 5 28 4 29 3 30 2 31 1 32
REMARK H PARENT
REMARK Flexibility Score: inf
ROOT
ATOM      1  C   UNL     1      23.893  32.126  44.904  1.00  0.00     0.000 C 
ENDROOT
BRANCH   1   2
ATOM      2  C   UNL     1      24.794  32.225  43.660  1.00  0.00     0.000 C 
BRANCH   2   3
ATOM      3  C   UNL     1      26.055  31.349  43.758  1.00  0.00     0.000 C 
BRANCH   3   4
ATOM      4  C   UNL     1      26.008  30.149  42.798  1.00  0.00     0.000 C 
BRANCH   4   5
ATOM      5  C   UNL     1      24.576  29.804  42.354  1.00  0.00     0.000 C 
BRANCH   5   6
ATOM      6  C   UNL     1      24.130  28.414  42.841  1.00  0.00     0.000 C 
BRANCH   6   7
ATOM      7  C   UNL     1      23.014  28.502  43.899  1.00  0.00     0.000 C 
BRANCH   7   8
ATOM      8  C   UNL     1      21.878  29.459  43.477  1.00  0.00     0.000 C 
BRANCH   8   9
ATOM      9  C   UNL     1      20.728  29.545  44.497  1.00  0.00     0.000 C 
BRANCH   9  10
ATOM     10  C   UNL     1      20.511  30.941  45.115  1.00  0.00     0.000 C 
BRANCH  10  11
ATOM     11  C   UNL     1      19.630  30.957  46.379  1.00  0.00     0.000 C 
BRANCH  11  12
ATOM     12  C   UNL     1      19.773  32.221  47.255  1.00  0.00     0.000 C 
BRANCH  12  13
ATOM     13  C   UNL     1      19.762  31.923  48.769  1.00  0.00     0.006 C 
BRANCH  13  14
ATOM     14  C   UNL     1      21.162  31.607  49.341  1.00  0.00     0.053 C 
BRANCH  14  15
ATOM     15  C   UNL     1      21.110  30.478  50.325  1.00  0.00     0.041 C 
ATOM     16  O   UNL     1      20.002  30.006  50.683  1.00  0.00    -0.550 OA
ATOM     17  O   UNL     1      22.289  29.920  50.815  1.00  0.00    -0.550 OA
ENDBRANCH  14  15
ENDBRANCH  13  14
ENDBRANCH  12  13
ENDBRANCH  11  12
ENDBRANCH  10  11
ENDBRANCH   9  10
ENDBRANCH   8   9
ENDBRANCH   7   8
ENDBRANCH   6   7
ENDBRANCH   5   6
ENDBRANCH   4   5
ENDBRANCH   3   4
ENDBRANCH   2   3
ENDBRANCH   1   2
BRANCH   1  18
ATOM     18  C   UNL     1      24.500  31.359  46.100  1.00  0.00     0.000 C 
BRANCH  18  19
ATOM     19  C   UNL     1      23.486  30.640  47.012  1.00  0.00     0.000 C 
BRANCH  19  20
ATOM     20  C   UNL     1      24.104  29.459  47.781  1.00  0.00     0.000 C 
BRANCH  20  21
ATOM     21  C   UNL     1      23.359  28.139  47.530  1.00  0.00     0.000 C 
BRANCH  21  22
ATOM     22  C   UNL     1      21.830  28.287  47.632  1.00  0.00     0.000 C 
BRANCH  22  23
ATOM     23  C   UNL     1      21.157  26.991  48.134  1.00  0.00     0.000 C 
BRANCH  23  24
ATOM     24  C   UNL     1      21.377  26.721  49.632  1.00  0.00    -0.000 C 
BRANCH  24  25
ATOM     25  C   UNL     1      22.434  25.638  49.899  1.00  0.00    -0.000 C 
BRANCH  25  26
ATOM     26  C   UNL     1      23.578  26.187  50.766  1.00  0.00    -0.000 C 
BRANCH  26  27
ATOM     27  C   UNL     1      24.940  26.147  50.045  1.00  0.00    -0.000 C 
BRANCH  27  28
ATOM     28  C   UNL     1      25.745  24.856  50.290  1.00  0.00    -0.000 C 
BRANCH  28  29
ATOM     29  C   UNL     1      25.976  24.008  49.020  1.00  0.00    -0.000 C 
BRANCH  29  30
ATOM     30  C   UNL     1      25.539  24.713  47.723  1.00  0.00    -0.000 C 
BRANCH  30  31
ATOM     31  C   UNL     1      24.380  23.986  47.025  1.00  0.00    -0.003 C 
ATOM     32  C   UNL     1      23.588  24.941  46.139  1.00  0.00     0.004 C 
ENDBRANCH  30  31
ENDBRANCH  29  30
ENDBRANCH  28  29
ENDBRANCH  27  28
ENDBRANCH  26  27
ENDBRANCH  25  26
ENDBRANCH  24  25
ENDBRANCH  23  24
ENDBRANCH  22  23
ENDBRANCH  21  22
ENDBRANCH  20  21
ENDBRANCH  19  20
ENDBRANCH  18  19
ENDBRANCH   1  18
TORSDOF 28
ENDMDL
