MODEL 1
REMARK VINA RESULT:    -3.807      0.000      0.000
REMARK INTER + INTRA:          -4.030
REMARK INTER:                  -4.030
REMARK INTRA:                   0.000
REMARK UNBOUND:                 0.000
REMARK SMILES Cc1cc(O)c(C)c(C)c1O
REMARK SMILES IDX 1 1 2 2 3 3 4 4 6 5 8 6 10 7 9 8 7 9 11 10 5 12
REMARK H PARENT 11 11 5 13
REMARK Flexibility Score: inf
ROOT
ATOM      1  C   UNL     1     -98.588 -20.021 -65.688  1.00  0.00     0.048 C 
ATOM      2  C   UNL     1     -97.581 -19.005 -65.223  1.00  0.00    -0.005 A 
ATOM      3  C   UNL     1     -98.000 -17.717 -64.877  1.00  0.00     0.053 A 
ATOM      4  C   UNL     1     -97.091 -16.768 -64.411  1.00  0.00     0.119 A 
ATOM      5  C   UNL     1     -95.724 -17.107 -64.266  1.00  0.00    -0.003 A 
ATOM      6  C   UNL     1     -95.270 -18.372 -64.734  1.00  0.00    -0.002 A 
ATOM      7  C   UNL     1     -96.220 -19.341 -65.145  1.00  0.00     0.121 A 
ATOM      8  C   UNL     1     -93.794 -18.701 -64.787  1.00  0.00     0.049 C 
ATOM      9  C   UNL     1     -94.770 -16.117 -63.636  1.00  0.00     0.049 C 
ENDROOT
BRANCH   7  10
ATOM     10  O   UNL     1     -95.844 -20.650 -65.470  1.00  0.00    -0.507 OA
ATOM     11  H   UNL     1     -95.391 -20.906 -66.337  1.00  0.00     0.293 HD
ENDBRANCH   7  10
BRANCH   4  12
ATOM     12  O   UNL     1     -97.582 -15.494 -64.113  1.00  0.00    -0.508 OA
ATOM     13  H   UNL     1     -98.385 -15.328 -63.521  1.00  0.00     0.293 HD
ENDBRANCH   4  12
TORSDOF 2
ENDMDL
MODEL 2
REMARK VINA RESULT:    -3.663      1.746      3.798
REMARK INTER + INTRA:          -3.877
REMARK INTER:                  -3.877
REMARK INTRA:                   0.000
REMARK UNBOUND:                 0.000
REMARK SMILES Cc1cc(O)c(C)c(C)c1O
REMARK SMILES IDX 1 1 2 2 3 3 4 4 6 5 8 6 10 7 9 8 7 9 11 10 5 12
REMARK H PARENT 11 11 5 13
REMARK Flexibility Score: inf
ROOT
ATOM      1  C   UNL     1     -96.495 -15.870 -64.923  1.00  0.00     0.048 C 
ATOM      2  C   UNL     1     -95.707 -17.113 -64.609  1.00  0.00    -0.005 A 
ATOM      3  C   UNL     1     -96.097 -18.341 -65.151  1.00  0.00     0.053 A 
ATOM      4  C   UNL     1     -95.363 -19.500 -64.903  1.00  0.00     0.119 A 
ATOM      5  C   UNL     1     -94.194 -19.442 -64.106  1.00  0.00    -0.003 A 
ATOM      6  C   UNL     1     -93.863 -18.223 -63.449  1.00  0.00    -0.002 A 
ATOM      7  C   UNL     1     -94.586 -17.046 -63.766  1.00  0.00     0.121 A 
ATOM      8  C   UNL     1     -92.744 -18.165 -62.432  1.00  0.00     0.049 C 
ATOM      9  C   UNL     1     -93.332 -20.675 -63.952  1.00  0.00     0.049 C 
ENDROOT
BRANCH   7  10
ATOM     10  O   UNL     1     -94.208 -15.793 -63.268  1.00  0.00    -0.507 OA
ATOM     11  H   UNL     1     -94.623 -15.364 -62.452  1.00  0.00     0.293 HD
ENDBRANCH   7  10
BRANCH   4  12
ATOM     12  O   UNL     1     -95.833 -20.693 -65.458  1.00  0.00    -0.508 OA
ATOM     13  H   UNL     1     -96.457 -21.326 -64.977  1.00  0.00     0.293 HD
ENDBRANCH   4  12
TORSDOF 2
ENDMDL
MODEL 3
REMARK VINA RESULT:    -3.641      2.018      3.502
REMARK INTER + INTRA:          -3.854
REMARK INTER:                  -3.854
REMARK INTRA:                   0.000
REMARK UNBOUND:                 0.000
REMARK SMILES Cc1cc(O)c(C)c(C)c1O
REMARK SMILES IDX 1 1 2 2 3 3 4 4 6 5 8 6 10 7 9 8 7 9 11 10 5 12
REMARK H PARENT 11 11 5 13
REMARK Flexibility Score: inf
ROOT
ATOM      1  C   UNL     1     -93.114 -20.312 -63.764  1.00  0.00     0.048 C 
ATOM      2  C   UNL     1     -94.030 -19.144 -64.005  1.00  0.00    -0.005 A 
ATOM      3  C   UNL     1     -95.162 -19.300 -64.811  1.00  0.00     0.053 A 
ATOM      4  C   UNL     1     -96.045 -18.242 -65.020  1.00  0.00     0.119 A 
ATOM      5  C   UNL     1     -95.812 -16.990 -64.400  1.00  0.00    -0.003 A 
ATOM      6  C   UNL     1     -94.599 -16.787 -63.683  1.00  0.00    -0.002 A 
ATOM      7  C   UNL     1     -93.749 -17.894 -63.431  1.00  0.00     0.121 A 
ATOM      8  C   UNL     1     -94.213 -15.415 -63.176  1.00  0.00     0.049 C 
ATOM      9  C   UNL     1     -96.842 -15.890 -64.525  1.00  0.00     0.049 C 
ENDROOT
BRANCH   7  10
ATOM     10  O   UNL     1     -92.624 -17.785 -62.604  1.00  0.00    -0.507 OA
ATOM     11  H   UNL     1     -92.235 -16.903 -62.297  1.00  0.00     0.293 HD
ENDBRANCH   7  10
BRANCH   4  12
ATOM     12  O   UNL     1     -97.137 -18.469 -65.861  1.00  0.00    -0.508 OA
ATOM     13  H   UNL     1     -97.303 -17.956 -66.716  1.00  0.00     0.293 HD
ENDBRANCH   4  12
TORSDOF 2
ENDMDL
MODEL 4
REMARK VINA RESULT:    -3.640      1.690      4.358
REMARK INTER + INTRA:          -3.852
REMARK INTER:                  -3.852
REMARK INTRA:                   0.000
REMARK UNBOUND:                 0.000
REMARK SMILES Cc1cc(O)c(C)c(C)c1O
REMARK SMILES IDX 1 1 2 2 3 3 4 4 6 5 8 6 10 7 9 8 7 9 11 10 5 12
REMARK H PARENT 11 11 5 13
REMARK Flexibility Score: inf
ROOT
ATOM      1  C   UNL     1     -92.187 -18.575 -62.888  1.00  0.00     0.048 C 
ATOM      2  C   UNL     1     -93.536 -18.505 -63.550  1.00  0.00    -0.005 A 
ATOM      3  C   UNL     1     -94.063 -19.635 -64.182  1.00  0.00     0.053 A 
ATOM      4  C   UNL     1     -95.326 -19.603 -64.771  1.00  0.00     0.119 A 
ATOM      5  C   UNL     1     -96.102 -18.420 -64.722  1.00  0.00    -0.003 A 
ATOM      6  C   UNL     1     -95.523 -17.232 -64.194  1.00  0.00    -0.002 A 
ATOM      7  C   UNL     1     -94.264 -17.304 -63.545  1.00  0.00     0.121 A 
ATOM      8  C   UNL     1     -96.235 -15.902 -64.303  1.00  0.00     0.049 C 
ATOM      9  C   UNL     1     -97.521 -18.434 -65.246  1.00  0.00     0.049 C 
ENDROOT
BRANCH   7  10
ATOM     10  O   UNL     1     -93.717 -16.203 -62.875  1.00  0.00    -0.507 OA
ATOM     11  H   UNL     1     -92.730 -16.094 -62.685  1.00  0.00     0.293 HD
ENDBRANCH   7  10
BRANCH   4  12
ATOM     12  O   UNL     1     -95.771 -20.766 -65.407  1.00  0.00    -0.508 OA
ATOM     13  H   UNL     1     -95.732 -20.907 -66.407  1.00  0.00     0.293 HD
ENDBRANCH   4  12
TORSDOF 2
ENDMDL
MODEL 5
REMARK VINA RESULT:    -3.608      2.093      3.527
REMARK INTER + INTRA:          -3.819
REMARK INTER:                  -3.819
REMARK INTRA:                   0.000
REMARK UNBOUND:                 0.000
REMARK SMILES Cc1cc(O)c(C)c(C)c1O
REMARK SMILES IDX 1 1 2 2 3 3 4 4 6 5 8 6 10 7 9 8 7 9 11 10 5 12
REMARK H PARENT 11 11 5 13
REMARK Flexibility Score: inf
ROOT
ATOM      1  C   UNL     1     -93.036 -21.201 -63.654  1.00  0.00     0.048 C 
ATOM      2  C   UNL     1     -93.678 -19.840 -63.685  1.00  0.00    -0.005 A 
ATOM      3  C   UNL     1     -93.100 -18.781 -62.980  1.00  0.00     0.053 A 
ATOM      4  C   UNL     1     -93.656 -17.503 -63.021  1.00  0.00     0.119 A 
ATOM      5  C   UNL     1     -94.815 -17.259 -63.797  1.00  0.00    -0.003 A 
ATOM      6  C   UNL     1     -95.479 -18.356 -64.414  1.00  0.00    -0.002 A 
ATOM      7  C   UNL     1     -94.862 -19.632 -64.411  1.00  0.00     0.121 A 
ATOM      8  C   UNL     1     -96.825 -18.177 -65.083  1.00  0.00     0.049 C 
ATOM      9  C   UNL     1     -95.334 -15.846 -63.943  1.00  0.00     0.049 C 
ENDROOT
BRANCH   7  10
ATOM     10  O   UNL     1     -95.393 -20.710 -65.130  1.00  0.00    -0.507 OA
ATOM     11  H   UNL     1     -94.986 -21.635 -65.138  1.00  0.00     0.293 HD
ENDBRANCH   7  10
BRANCH   4  12
ATOM     12  O   UNL     1     -93.035 -16.504 -62.266  1.00  0.00    -0.508 OA
ATOM     13  H   UNL     1     -93.539 -15.832 -61.704  1.00  0.00     0.293 HD
ENDBRANCH   4  12
TORSDOF 2
ENDMDL
MODEL 6
REMARK VINA RESULT:    -3.600      1.288      4.249
REMARK INTER + INTRA:          -3.810
REMARK INTER:                  -3.810
REMARK INTRA:                   0.000
REMARK UNBOUND:                 0.000
REMARK SMILES Cc1cc(O)c(C)c(C)c1O
REMARK SMILES IDX 1 1 2 2 3 3 4 4 6 5 8 6 10 7 9 8 7 9 11 10 5 12
REMARK H PARENT 11 11 5 13
REMARK Flexibility Score: inf
ROOT
ATOM      1  C   UNL     1     -95.078 -15.838 -63.993  1.00  0.00     0.048 C 
ATOM      2  C   UNL     1     -95.386 -17.264 -64.361  1.00  0.00    -0.005 A 
ATOM      3  C   UNL     1     -94.412 -18.252 -64.197  1.00  0.00     0.053 A 
ATOM      4  C   UNL     1     -94.685 -19.586 -64.497  1.00  0.00     0.119 A 
ATOM      5  C   UNL     1     -95.970 -19.959 -64.961  1.00  0.00    -0.003 A 
ATOM      6  C   UNL     1     -96.925 -18.944 -65.249  1.00  0.00    -0.002 A 
ATOM      7  C   UNL     1     -96.647 -17.604 -64.877  1.00  0.00     0.121 A 
ATOM      8  C   UNL     1     -98.233 -19.275 -65.933  1.00  0.00     0.049 C 
ATOM      9  C   UNL     1     -96.299 -21.423 -65.157  1.00  0.00     0.049 C 
ENDROOT
BRANCH   7  10
ATOM     10  O   UNL     1     -97.607 -16.592 -64.997  1.00  0.00    -0.507 OA
ATOM     11  H   UNL     1     -98.590 -16.724 -64.800  1.00  0.00     0.293 HD
ENDBRANCH   7  10
BRANCH   4  12
ATOM     12  O   UNL     1     -93.650 -20.510 -64.334  1.00  0.00    -0.508 OA
ATOM     13  H   UNL     1     -93.668 -21.257 -63.653  1.00  0.00     0.293 HD
ENDBRANCH   4  12
TORSDOF 2
ENDMDL
MODEL 7
REMARK VINA RESULT:    -3.566      0.536      3.190
REMARK INTER + INTRA:          -3.774
REMARK INTER:                  -3.774
REMARK INTRA:                   0.000
REMARK UNBOUND:                 0.000
REMARK SMILES Cc1cc(O)c(C)c(C)c1O
REMARK SMILES IDX 1 1 2 2 3 3 4 4 6 5 8 6 10 7 9 8 7 9 11 10 5 12
REMARK H PARENT 11 11 5 13
REMARK Flexibility Score: inf
ROOT
ATOM      1  C   UNL     1     -99.629 -17.745 -64.856  1.00  0.00     0.048 C 
ATOM      2  C   UNL     1     -98.145 -17.980 -64.803  1.00  0.00    -0.005 A 
ATOM      3  C   UNL     1     -97.625 -19.236 -65.130  1.00  0.00     0.053 A 
ATOM      4  C   UNL     1     -96.251 -19.469 -65.123  1.00  0.00     0.119 A 
ATOM      5  C   UNL     1     -95.356 -18.421 -64.796  1.00  0.00    -0.003 A 
ATOM      6  C   UNL     1     -95.881 -17.178 -64.340  1.00  0.00    -0.002 A 
ATOM      7  C   UNL     1     -97.278 -16.945 -64.417  1.00  0.00     0.121 A 
ATOM      8  C   UNL     1     -94.971 -16.102 -63.791  1.00  0.00     0.049 C 
ATOM      9  C   UNL     1     -93.865 -18.644 -64.919  1.00  0.00     0.049 C 
ENDROOT
BRANCH   7  10
ATOM     10  O   UNL     1     -97.832 -15.693 -64.127  1.00  0.00    -0.507 OA
ATOM     11  H   UNL     1     -97.894 -14.937 -64.796  1.00  0.00     0.293 HD
ENDBRANCH   7  10
BRANCH   4  12
ATOM     12  O   UNL     1     -95.812 -20.758 -65.434  1.00  0.00    -0.508 OA
ATOM     13  H   UNL     1     -95.031 -21.209 -64.979  1.00  0.00     0.293 HD
ENDBRANCH   4  12
TORSDOF 2
ENDMDL
MODEL 8
REMARK VINA RESULT:    -3.557      2.319      3.346
REMARK INTER + INTRA:          -3.765
REMARK INTER:                  -3.765
REMARK INTRA:                   0.000
REMARK UNBOUND:                 0.000
REMARK SMILES Cc1cc(O)c(C)c(C)c1O
REMARK SMILES IDX 1 1 2 2 3 3 4 4 6 5 8 6 10 7 9 8 7 9 11 10 5 12
REMARK H PARENT 11 11 5 13
REMARK Flexibility Score: inf
ROOT
ATOM      1  C   UNL     1     -93.683 -18.900 -64.441  1.00  0.00     0.048 C 
ATOM      2  C   UNL     1     -94.856 -18.066 -64.004  1.00  0.00    -0.005 A 
ATOM      3  C   UNL     1     -95.444 -17.167 -64.897  1.00  0.00     0.053 A 
ATOM      4  C   UNL     1     -96.553 -16.408 -64.526  1.00  0.00     0.119 A 
ATOM      5  C   UNL     1     -97.112 -16.554 -63.233  1.00  0.00    -0.003 A 
ATOM      6  C   UNL     1     -96.445 -17.373 -62.279  1.00  0.00    -0.002 A 
ATOM      7  C   UNL     1     -95.357 -18.180 -62.697  1.00  0.00     0.121 A 
ATOM      8  C   UNL     1     -96.887 -17.402 -60.832  1.00  0.00     0.049 C 
ATOM      9  C   UNL     1     -98.392 -15.828 -62.885  1.00  0.00     0.049 C 
ENDROOT
BRANCH   7  10
ATOM     10  O   UNL     1     -94.762 -19.115 -61.841  1.00  0.00    -0.507 OA
ATOM     11  H   UNL     1     -94.082 -18.875 -61.133  1.00  0.00     0.293 HD
ENDBRANCH   7  10
BRANCH   4  12
ATOM     12  O   UNL     1     -97.066 -15.511 -65.467  1.00  0.00    -0.508 OA
ATOM     13  H   UNL     1     -97.508 -14.635 -65.223  1.00  0.00     0.293 HD
ENDBRANCH   4  12
TORSDOF 2
ENDMDL
MODEL 9
REMARK VINA RESULT:    -3.556      2.234      3.506
REMARK INTER + INTRA:          -3.764
REMARK INTER:                  -3.764
REMARK INTRA:                   0.000
REMARK UNBOUND:                 0.000
REMARK SMILES Cc1cc(O)c(C)c(C)c1O
REMARK SMILES IDX 1 1 2 2 3 3 4 4 6 5 8 6 10 7 9 8 7 9 11 10 5 12
REMARK H PARENT 11 11 5 13
REMARK Flexibility Score: inf
ROOT
ATOM      1  C   UNL     1     -96.592 -15.615 -64.692  1.00  0.00     0.048 C 
ATOM      2  C   UNL     1     -95.771 -16.813 -64.298  1.00  0.00    -0.005 A 
ATOM      3  C   UNL     1     -94.615 -16.644 -63.530  1.00  0.00     0.053 A 
ATOM      4  C   UNL     1     -93.858 -17.740 -63.122  1.00  0.00     0.119 A 
ATOM      5  C   UNL     1     -94.263 -19.051 -63.471  1.00  0.00    -0.003 A 
ATOM      6  C   UNL     1     -95.365 -19.224 -64.356  1.00  0.00    -0.002 A 
ATOM      7  C   UNL     1     -96.156 -18.100 -64.706  1.00  0.00     0.121 A 
ATOM      8  C   UNL     1     -95.710 -20.586 -64.915  1.00  0.00     0.049 C 
ATOM      9  C   UNL     1     -93.512 -20.240 -62.914  1.00  0.00     0.049 C 
ENDROOT
BRANCH   7  10
ATOM     10  O   UNL     1     -97.337 -18.232 -65.446  1.00  0.00    -0.507 OA
ATOM     11  H   UNL     1     -98.151 -17.647 -65.316  1.00  0.00     0.293 HD
ENDBRANCH   7  10
BRANCH   4  12
ATOM     12  O   UNL     1     -92.700 -17.487 -62.381  1.00  0.00    -0.508 OA
ATOM     13  H   UNL     1     -92.396 -18.058 -61.605  1.00  0.00     0.293 HD
ENDBRANCH   4  12
TORSDOF 2
ENDMDL
