MODEL 1
REMARK VINA RESULT:    -4.486      0.000      0.000
REMARK INTER + INTRA:          -4.906
REMARK INTER:                  -4.748
REMARK INTRA:                  -0.158
REMARK UNBOUND:                -0.158
REMARK SMILES C=C(C)[C@H]1CC=C(C)CC1
REMARK SMILES IDX 8 1 7 2 6 3 5 4 4 5 10 6 9 7 2 8 1 9 3 10
REMARK H PARENT
REMARK Flexibility Score: inf
ROOT
ATOM      1  C   UNL     1       0.085   6.668  -8.459  1.00  0.00     0.039 C 
ATOM      2  C   UNL     1      -0.919   7.711  -8.860  1.00  0.00    -0.077 C 
ATOM      3  C   UNL     1      -2.234   7.449  -8.785  1.00  0.00    -0.027 C 
ATOM      4  C   UNL     1      -3.224   8.522  -9.145  1.00  0.00     0.035 C 
ATOM      5  C   UNL     1      -2.825   9.866  -8.487  1.00  0.00     0.018 C 
ATOM      6  C   UNL     1      -1.294  10.174  -8.577  1.00  0.00     0.013 C 
ATOM      7  C   UNL     1      -0.483   9.088  -9.308  1.00  0.00     0.031 C 
ENDROOT
BRANCH   5   8
ATOM      8  C   UNL     1      -3.660  11.003  -9.058  1.00  0.00    -0.077 C 
ATOM      9  C   UNL     1      -3.376  12.277  -8.747  1.00  0.00     0.008 C 
ATOM     10  C   UNL     1      -4.837  10.718  -9.957  1.00  0.00     0.039 C 
ENDBRANCH   5   8
TORSDOF 1
ENDMDL
MODEL 2
REMARK VINA RESULT:    -4.421      5.852      8.530
REMARK INTER + INTRA:          -4.837
REMARK INTER:                  -4.674
REMARK INTRA:                  -0.163
REMARK UNBOUND:                -0.158
REMARK SMILES C=C(C)[C@H]1CC=C(C)CC1
REMARK SMILES IDX 8 1 7 2 6 3 5 4 4 5 10 6 9 7 2 8 1 9 3 10
REMARK H PARENT
REMARK Flexibility Score: inf
ROOT
ATOM      1  C   UNL     1      -8.608  16.228 -12.023  1.00  0.00     0.039 C 
ATOM      2  C   UNL     1      -7.779  16.099 -10.776  1.00  0.00    -0.077 C 
ATOM      3  C   UNL     1      -8.262  16.524  -9.597  1.00  0.00    -0.027 C 
ATOM      4  C   UNL     1      -7.437  16.342  -8.352  1.00  0.00     0.035 C 
ATOM      5  C   UNL     1      -6.852  14.911  -8.298  1.00  0.00     0.018 C 
ATOM      6  C   UNL     1      -6.287  14.416  -9.670  1.00  0.00     0.013 C 
ATOM      7  C   UNL     1      -6.414  15.449 -10.804  1.00  0.00     0.031 C 
ENDROOT
BRANCH   5   8
ATOM      8  C   UNL     1      -5.811  14.806  -7.193  1.00  0.00    -0.077 C 
ATOM      9  C   UNL     1      -5.979  15.467  -6.037  1.00  0.00     0.008 C 
ATOM     10  C   UNL     1      -4.561  13.984  -7.386  1.00  0.00     0.039 C 
ENDBRANCH   5   8
TORSDOF 1
ENDMDL
MODEL 3
REMARK VINA RESULT:    -4.415     20.000     21.739
REMARK INTER + INTRA:          -4.831
REMARK INTER:                  -4.663
REMARK INTRA:                  -0.168
REMARK UNBOUND:                -0.158
REMARK SMILES C=C(C)[C@H]1CC=C(C)CC1
REMARK SMILES IDX 8 1 7 2 6 3 5 4 4 5 10 6 9 7 2 8 1 9 3 10
REMARK H PARENT
REMARK Flexibility Score: inf
ROOT
ATOM      1  C   UNL     1     -19.784  17.256 -22.984  1.00  0.00     0.039 C 
ATOM      2  C   UNL     1     -19.106  17.566 -21.680  1.00  0.00    -0.077 C 
ATOM      3  C   UNL     1     -17.765  17.626 -21.613  1.00  0.00    -0.027 C 
ATOM      4  C   UNL     1     -17.106  17.984 -20.309  1.00  0.00     0.035 C 
ATOM      5  C   UNL     1     -17.810  19.204 -19.667  1.00  0.00     0.018 C 
ATOM      6  C   UNL     1     -19.370  19.135 -19.742  1.00  0.00     0.013 C 
ATOM      7  C   UNL     1     -19.904  17.865 -20.431  1.00  0.00     0.031 C 
ENDROOT
BRANCH   5   8
ATOM      8  C   UNL     1     -17.326  19.403 -18.238  1.00  0.00    -0.077 C 
ATOM      9  C   UNL     1     -17.766  18.603 -17.254  1.00  0.00     0.008 C 
ATOM     10  C   UNL     1     -16.367  20.516 -17.897  1.00  0.00     0.039 C 
ENDBRANCH   5   8
TORSDOF 1
ENDMDL
MODEL 4
REMARK VINA RESULT:    -4.347      1.390      4.518
REMARK INTER + INTRA:          -4.759
REMARK INTER:                  -4.596
REMARK INTRA:                  -0.163
REMARK UNBOUND:                -0.158
REMARK SMILES C=C(C)[C@H]1CC=C(C)CC1
REMARK SMILES IDX 8 1 7 2 6 3 5 4 4 5 10 6 9 7 2 8 1 9 3 10
REMARK H PARENT
REMARK Flexibility Score: inf
ROOT
ATOM      1  C   UNL     1      -6.627  10.583 -10.427  1.00  0.00     0.039 C 
ATOM      2  C   UNL     1      -5.254   9.977 -10.366  1.00  0.00    -0.077 C 
ATOM      3  C   UNL     1      -4.175  10.712 -10.685  1.00  0.00    -0.027 C 
ATOM      4  C   UNL     1      -2.805  10.102 -10.572  1.00  0.00     0.035 C 
ATOM      5  C   UNL     1      -2.661   9.348  -9.228  1.00  0.00     0.018 C 
ATOM      6  C   UNL     1      -3.914   8.489  -8.857  1.00  0.00     0.013 C 
ATOM      7  C   UNL     1      -5.043   8.553  -9.902  1.00  0.00     0.031 C 
ENDROOT
BRANCH   5   8
ATOM      8  C   UNL     1      -1.388   8.513  -9.224  1.00  0.00    -0.077 C 
ATOM      9  C   UNL     1      -0.221   9.051  -9.611  1.00  0.00     0.008 C 
ATOM     10  C   UNL     1      -1.420   7.061  -8.815  1.00  0.00     0.039 C 
ENDBRANCH   5   8
TORSDOF 1
ENDMDL
MODEL 5
REMARK VINA RESULT:    -4.292      6.696      8.971
REMARK INTER + INTRA:          -4.701
REMARK INTER:                  -4.538
REMARK INTRA:                  -0.163
REMARK UNBOUND:                -0.158
REMARK SMILES C=C(C)[C@H]1CC=C(C)CC1
REMARK SMILES IDX 8 1 7 2 6 3 5 4 4 5 10 6 9 7 2 8 1 9 3 10
REMARK H PARENT
REMARK Flexibility Score: inf
ROOT
ATOM      1  C   UNL     1      -9.117  11.991 -15.331  1.00  0.00     0.039 C 
ATOM      2  C   UNL     1      -7.773  11.353 -15.540  1.00  0.00    -0.077 C 
ATOM      3  C   UNL     1      -7.463  10.803 -16.726  1.00  0.00    -0.027 C 
ATOM      4  C   UNL     1      -6.095  10.212 -16.932  1.00  0.00     0.035 C 
ATOM      5  C   UNL     1      -5.007  11.173 -16.395  1.00  0.00     0.018 C 
ATOM      6  C   UNL     1      -5.365  11.812 -15.013  1.00  0.00     0.013 C 
ATOM      7  C   UNL     1      -6.725  11.355 -14.451  1.00  0.00     0.031 C 
ENDROOT
BRANCH   5   8
ATOM      8  C   UNL     1      -3.656  10.474 -16.355  1.00  0.00    -0.077 C 
ATOM      9  C   UNL     1      -3.253   9.716 -17.387  1.00  0.00     0.008 C 
ATOM     10  C   UNL     1      -2.761  10.595 -15.147  1.00  0.00     0.039 C 
ENDBRANCH   5   8
TORSDOF 1
ENDMDL
MODEL 6
REMARK VINA RESULT:    -4.277     13.197     16.085
REMARK INTER + INTRA:          -4.685
REMARK INTER:                  -4.527
REMARK INTRA:                  -0.158
REMARK UNBOUND:                -0.158
REMARK SMILES C=C(C)[C@H]1CC=C(C)CC1
REMARK SMILES IDX 8 1 7 2 6 3 5 4 4 5 10 6 9 7 2 8 1 9 3 10
REMARK H PARENT
REMARK Flexibility Score: inf
ROOT
ATOM      1  C   UNL     1     -10.958  16.929 -13.572  1.00  0.00     0.039 C 
ATOM      2  C   UNL     1     -11.804  18.036 -14.135  1.00  0.00    -0.077 C 
ATOM      3  C   UNL     1     -11.383  19.310 -14.066  1.00  0.00    -0.027 C 
ATOM      4  C   UNL     1     -12.221  20.400 -14.677  1.00  0.00     0.035 C 
ATOM      5  C   UNL     1     -12.697  19.984 -16.090  1.00  0.00     0.018 C 
ATOM      6  C   UNL     1     -13.190  18.502 -16.171  1.00  0.00     0.013 C 
ATOM      7  C   UNL     1     -13.114  17.747 -14.831  1.00  0.00     0.031 C 
ENDROOT
BRANCH   5   8
ATOM      8  C   UNL     1     -13.754  20.954 -16.599  1.00  0.00    -0.077 C 
ATOM      9  C   UNL     1     -14.888  20.496 -17.151  1.00  0.00     0.008 C 
ATOM     10  C   UNL     1     -13.533  22.444 -16.520  1.00  0.00     0.039 C 
ENDBRANCH   5   8
TORSDOF 1
ENDMDL
MODEL 7
REMARK VINA RESULT:    -4.266     17.720     20.644
REMARK INTER + INTRA:          -4.674
REMARK INTER:                  -4.512
REMARK INTRA:                  -0.161
REMARK UNBOUND:                -0.158
REMARK SMILES C=C(C)[C@H]1CC=C(C)CC1
REMARK SMILES IDX 8 1 7 2 6 3 5 4 4 5 10 6 9 7 2 8 1 9 3 10
REMARK H PARENT
REMARK Flexibility Score: inf
ROOT
ATOM      1  C   UNL     1     -13.705  17.517 -19.345  1.00  0.00     0.039 C 
ATOM      2  C   UNL     1     -15.181  17.442 -19.612  1.00  0.00    -0.077 C 
ATOM      3  C   UNL     1     -16.032  18.235 -18.939  1.00  0.00    -0.027 C 
ATOM      4  C   UNL     1     -17.501  18.179 -19.254  1.00  0.00     0.035 C 
ATOM      5  C   UNL     1     -17.725  18.194 -20.786  1.00  0.00     0.018 C 
ATOM      6  C   UNL     1     -16.738  17.269 -21.570  1.00  0.00     0.013 C 
ATOM      7  C   UNL     1     -15.742  16.516 -20.668  1.00  0.00     0.031 C 
ENDROOT
BRANCH   5   8
ATOM      8  C   UNL     1     -19.176  17.870 -21.112  1.00  0.00    -0.077 C 
ATOM      9  C   UNL     1     -20.125  17.980 -20.170  1.00  0.00     0.008 C 
ATOM     10  C   UNL     1     -19.568  17.393 -22.488  1.00  0.00     0.039 C 
ENDBRANCH   5   8
TORSDOF 1
ENDMDL
MODEL 8
REMARK VINA RESULT:    -4.209      1.967      3.192
REMARK INTER + INTRA:          -4.613
REMARK INTER:                  -4.452
REMARK INTRA:                  -0.161
REMARK UNBOUND:                -0.158
REMARK SMILES C=C(C)[C@H]1CC=C(C)CC1
REMARK SMILES IDX 8 1 7 2 6 3 5 4 4 5 10 6 9 7 2 8 1 9 3 10
REMARK H PARENT
REMARK Flexibility Score: inf
ROOT
ATOM      1  C   UNL     1      -0.480  10.557  -9.290  1.00  0.00     0.039 C 
ATOM      2  C   UNL     1      -1.769   9.911  -9.711  1.00  0.00    -0.077 C 
ATOM      3  C   UNL     1      -2.471   9.171  -8.837  1.00  0.00    -0.027 C 
ATOM      4  C   UNL     1      -3.783   8.571  -9.263  1.00  0.00     0.035 C 
ATOM      5  C   UNL     1      -4.640   9.623 -10.008  1.00  0.00     0.018 C 
ATOM      6  C   UNL     1      -3.824  10.483 -11.028  1.00  0.00     0.013 C 
ATOM      7  C   UNL     1      -2.331  10.112 -11.100  1.00  0.00     0.031 C 
ENDROOT
BRANCH   5   8
ATOM      8  C   UNL     1      -5.839   8.958 -10.669  1.00  0.00    -0.077 C 
ATOM      9  C   UNL     1      -6.213   7.720 -10.308  1.00  0.00     0.008 C 
ATOM     10  C   UNL     1      -6.609   9.663 -11.757  1.00  0.00     0.039 C 
ENDBRANCH   5   8
TORSDOF 1
ENDMDL
MODEL 9
REMARK VINA RESULT:    -4.140     17.223     19.554
REMARK INTER + INTRA:          -4.540
REMARK INTER:                  -4.378
REMARK INTRA:                  -0.162
REMARK UNBOUND:                -0.158
REMARK SMILES C=C(C)[C@H]1CC=C(C)CC1
REMARK SMILES IDX 8 1 7 2 6 3 5 4 4 5 10 6 9 7 2 8 1 9 3 10
REMARK H PARENT
REMARK Flexibility Score: inf
ROOT
ATOM      1  C   UNL     1     -19.224  17.249 -20.558  1.00  0.00     0.039 C 
ATOM      2  C   UNL     1     -17.756  17.507 -20.371  1.00  0.00    -0.077 C 
ATOM      3  C   UNL     1     -17.285  17.891 -19.172  1.00  0.00    -0.027 C 
ATOM      4  C   UNL     1     -15.806  18.098 -18.991  1.00  0.00     0.035 C 
ATOM      5  C   UNL     1     -15.018  16.921 -19.616  1.00  0.00     0.018 C 
ATOM      6  C   UNL     1     -15.563  16.476 -21.012  1.00  0.00     0.013 C 
ATOM      7  C   UNL     1     -16.772  17.297 -21.498  1.00  0.00     0.031 C 
ENDROOT
BRANCH   5   8
ATOM      8  C   UNL     1     -13.533  17.252 -19.674  1.00  0.00    -0.077 C 
ATOM      9  C   UNL     1     -13.019  18.209 -18.887  1.00  0.00     0.008 C 
ATOM     10  C   UNL     1     -12.620  16.531 -20.634  1.00  0.00     0.039 C 
ENDBRANCH   5   8
TORSDOF 1
ENDMDL
