MODEL 1
REMARK VINA RESULT:    -7.065      0.000      0.000
REMARK INTER + INTRA:          -7.065
REMARK INTER:                  -7.065
REMARK INTRA:                   0.000
REMARK UNBOUND:                 0.000
REMARK SMILES O=c1ccc2ccccc2o1
REMARK SMILES IDX 7 1 8 2 9 3 10 4 5 5 6 6 4 7 3 8 2 9 1 10 11 11
REMARK H PARENT
REMARK Flexibility Score: inf
ROOT
ATOM      1  C   UNL     1      14.211 -14.497  27.871  1.00  0.00     0.001 A 
ATOM      2  C   UNL     1      15.010 -14.063  28.936  1.00  0.00     0.004 A 
ATOM      3  C   UNL     1      14.663 -12.915  29.654  1.00  0.00     0.048 A 
ATOM      4  C   UNL     1      13.512 -12.194  29.310  1.00  0.00     0.138 A 
ATOM      5  C   UNL     1      12.706 -12.632  28.236  1.00  0.00     0.018 A 
ATOM      6  C   UNL     1      13.060 -13.784  27.520  1.00  0.00     0.012 A 
ATOM      7  C   UNL     1      11.563 -11.891  27.916  1.00  0.00     0.019 A 
ATOM      8  C   UNL     1      11.256 -10.753  28.659  1.00  0.00     0.094 A 
ATOM      9  C   UNL     1      12.101 -10.379  29.710  1.00  0.00     0.336 A 
ATOM     10  O   UNL     1      11.840  -9.354  30.392  1.00  0.00    -0.246 OA
ATOM     11  O   UNL     1      13.182 -11.101  29.994  1.00  0.00    -0.423 OA
ENDROOT
TORSDOF 0
ENDMDL
MODEL 2
REMARK VINA RESULT:    -6.988      1.441      2.232
REMARK INTER + INTRA:          -6.988
REMARK INTER:                  -6.988
REMARK INTRA:                   0.000
REMARK UNBOUND:                 0.000
REMARK SMILES O=c1ccc2ccccc2o1
REMARK SMILES IDX 7 1 8 2 9 3 10 4 5 5 6 6 4 7 3 8 2 9 1 10 11 11
REMARK H PARENT
REMARK Flexibility Score: inf
ROOT
ATOM      1  C   UNL     1      14.798 -13.337  28.045  1.00  0.00     0.001 A 
ATOM      2  C   UNL     1      13.746 -13.976  27.378  1.00  0.00     0.004 A 
ATOM      3  C   UNL     1      12.436 -13.508  27.516  1.00  0.00     0.048 A 
ATOM      4  C   UNL     1      12.172 -12.395  28.325  1.00  0.00     0.138 A 
ATOM      5  C   UNL     1      13.232 -11.750  28.998  1.00  0.00     0.018 A 
ATOM      6  C   UNL     1      14.544 -12.224  28.854  1.00  0.00     0.012 A 
ATOM      7  C   UNL     1      12.937 -10.641  29.798  1.00  0.00     0.019 A 
ATOM      8  C   UNL     1      11.616 -10.209  29.907  1.00  0.00     0.094 A 
ATOM      9  C   UNL     1      10.617 -10.898  29.211  1.00  0.00     0.336 A 
ATOM     10  O   UNL     1       9.418 -10.523  29.298  1.00  0.00    -0.246 OA
ATOM     11  O   UNL     1      10.924 -11.950  28.457  1.00  0.00    -0.423 OA
ENDROOT
TORSDOF 0
ENDMDL
MODEL 3
REMARK VINA RESULT:    -6.924     10.615     11.879
REMARK INTER + INTRA:          -6.924
REMARK INTER:                  -6.924
REMARK INTRA:                   0.000
REMARK UNBOUND:                 0.000
REMARK SMILES O=c1ccc2ccccc2o1
REMARK SMILES IDX 7 1 8 2 9 3 10 4 5 5 6 6 4 7 3 8 2 9 1 10 11 11
REMARK H PARENT
REMARK Flexibility Score: inf
ROOT
ATOM      1  C   UNL     1      18.160  -0.625  24.829  1.00  0.00     0.001 A 
ATOM      2  C   UNL     1      16.859  -0.510  25.334  1.00  0.00     0.004 A 
ATOM      3  C   UNL     1      16.509  -1.147  26.529  1.00  0.00     0.048 A 
ATOM      4  C   UNL     1      17.460  -1.903  27.225  1.00  0.00     0.138 A 
ATOM      5  C   UNL     1      18.772  -2.019  26.717  1.00  0.00     0.018 A 
ATOM      6  C   UNL     1      19.118  -1.378  25.518  1.00  0.00     0.012 A 
ATOM      7  C   UNL     1      19.700  -2.780  27.434  1.00  0.00     0.019 A 
ATOM      8  C   UNL     1      19.306  -3.398  28.621  1.00  0.00     0.094 A 
ATOM      9  C   UNL     1      17.989  -3.238  29.064  1.00  0.00     0.336 A 
ATOM     10  O   UNL     1      17.615  -3.788  30.133  1.00  0.00    -0.246 OA
ATOM     11  O   UNL     1      17.126  -2.509  28.362  1.00  0.00    -0.423 OA
ENDROOT
TORSDOF 0
ENDMDL
MODEL 4
REMARK VINA RESULT:    -6.896     10.720     12.025
REMARK INTER + INTRA:          -6.896
REMARK INTER:                  -6.896
REMARK INTRA:                   0.000
REMARK UNBOUND:                 0.000
REMARK SMILES O=c1ccc2ccccc2o1
REMARK SMILES IDX 7 1 8 2 9 3 10 4 5 5 6 6 4 7 3 8 2 9 1 10 11 11
REMARK H PARENT
REMARK Flexibility Score: inf
ROOT
ATOM      1  C   UNL     1      15.360  -0.932  26.007  1.00  0.00     0.001 A 
ATOM      2  C   UNL     1      16.385  -0.348  25.252  1.00  0.00     0.004 A 
ATOM      3  C   UNL     1      17.721  -0.670  25.511  1.00  0.00     0.048 A 
ATOM      4  C   UNL     1      18.039  -1.579  26.529  1.00  0.00     0.138 A 
ATOM      5  C   UNL     1      17.005  -2.168  27.290  1.00  0.00     0.018 A 
ATOM      6  C   UNL     1      15.667  -1.841  27.025  1.00  0.00     0.012 A 
ATOM      7  C   UNL     1      17.353  -3.071  28.299  1.00  0.00     0.019 A 
ATOM      8  C   UNL     1      18.698  -3.363  28.523  1.00  0.00     0.094 A 
ATOM      9  C   UNL     1      19.668  -2.741  27.728  1.00  0.00     0.336 A 
ATOM     10  O   UNL     1      20.887  -2.990  27.916  1.00  0.00    -0.246 OA
ATOM     11  O   UNL     1      19.310  -1.884  26.775  1.00  0.00    -0.423 OA
ENDROOT
TORSDOF 0
ENDMDL
MODEL 5
REMARK VINA RESULT:    -6.837      1.144      2.564
REMARK INTER + INTRA:          -6.837
REMARK INTER:                  -6.837
REMARK INTRA:                   0.000
REMARK UNBOUND:                 0.000
REMARK SMILES O=c1ccc2ccccc2o1
REMARK SMILES IDX 7 1 8 2 9 3 10 4 5 5 6 6 4 7 3 8 2 9 1 10 11 11
REMARK H PARENT
REMARK Flexibility Score: inf
ROOT
ATOM      1  C   UNL     1      12.381 -13.760  27.060  1.00  0.00     0.001 A 
ATOM      2  C   UNL     1      11.261 -12.924  26.985  1.00  0.00     0.004 A 
ATOM      3  C   UNL     1      11.126 -11.846  27.865  1.00  0.00     0.048 A 
ATOM      4  C   UNL     1      12.114 -11.600  28.827  1.00  0.00     0.138 A 
ATOM      5  C   UNL     1      13.244 -12.443  28.904  1.00  0.00     0.018 A 
ATOM      6  C   UNL     1      13.373 -13.522  28.017  1.00  0.00     0.012 A 
ATOM      7  C   UNL     1      14.214 -12.172  29.875  1.00  0.00     0.019 A 
ATOM      8  C   UNL     1      14.038 -11.087  30.732  1.00  0.00     0.094 A 
ATOM      9  C   UNL     1      12.893 -10.294  30.598  1.00  0.00     0.336 A 
ATOM     10  O   UNL     1      12.717  -9.310  31.363  1.00  0.00    -0.246 OA
ATOM     11  O   UNL     1      11.985 -10.574  29.665  1.00  0.00    -0.423 OA
ENDROOT
TORSDOF 0
ENDMDL
MODEL 6
REMARK VINA RESULT:    -6.639      1.783      3.831
REMARK INTER + INTRA:          -6.639
REMARK INTER:                  -6.639
REMARK INTRA:                   0.000
REMARK UNBOUND:                 0.000
REMARK SMILES O=c1ccc2ccccc2o1
REMARK SMILES IDX 7 1 8 2 9 3 10 4 5 5 6 6 4 7 3 8 2 9 1 10 11 11
REMARK H PARENT
REMARK Flexibility Score: inf
ROOT
ATOM      1  C   UNL     1      11.120  -9.996  29.785  1.00  0.00     0.001 A 
ATOM      2  C   UNL     1      12.345 -10.030  30.463  1.00  0.00     0.004 A 
ATOM      3  C   UNL     1      13.301 -10.998  30.142  1.00  0.00     0.048 A 
ATOM      4  C   UNL     1      13.037 -11.939  29.139  1.00  0.00     0.138 A 
ATOM      5  C   UNL     1      11.802 -11.905  28.455  1.00  0.00     0.018 A 
ATOM      6  C   UNL     1      10.847 -10.932  28.781  1.00  0.00     0.012 A 
ATOM      7  C   UNL     1      11.566 -12.858  27.458  1.00  0.00     0.019 A 
ATOM      8  C   UNL     1      12.548 -13.805  27.171  1.00  0.00     0.094 A 
ATOM      9  C   UNL     1      13.748 -13.777  27.890  1.00  0.00     0.336 A 
ATOM     10  O   UNL     1      14.647 -14.624  27.645  1.00  0.00    -0.246 OA
ATOM     11  O   UNL     1      13.947 -12.860  28.833  1.00  0.00    -0.423 OA
ENDROOT
TORSDOF 0
ENDMDL
MODEL 7
REMARK VINA RESULT:    -6.563      1.972      4.321
REMARK INTER + INTRA:          -6.563
REMARK INTER:                  -6.563
REMARK INTRA:                   0.000
REMARK UNBOUND:                 0.000
REMARK SMILES O=c1ccc2ccccc2o1
REMARK SMILES IDX 7 1 8 2 9 3 10 4 5 5 6 6 4 7 3 8 2 9 1 10 11 11
REMARK H PARENT
REMARK Flexibility Score: inf
ROOT
ATOM      1  C   UNL     1      11.150 -10.439  29.546  1.00  0.00     0.001 A 
ATOM      2  C   UNL     1      10.656 -11.082  28.405  1.00  0.00     0.004 A 
ATOM      3  C   UNL     1      11.350 -12.162  27.849  1.00  0.00     0.048 A 
ATOM      4  C   UNL     1      12.543 -12.604  28.434  1.00  0.00     0.138 A 
ATOM      5  C   UNL     1      13.041 -11.955  29.586  1.00  0.00     0.018 A 
ATOM      6  C   UNL     1      12.341 -10.873  30.138  1.00  0.00     0.012 A 
ATOM      7  C   UNL     1      14.235 -12.419  30.147  1.00  0.00     0.019 A 
ATOM      8  C   UNL     1      14.894 -13.499  29.560  1.00  0.00     0.094 A 
ATOM      9  C   UNL     1      14.340 -14.092  28.420  1.00  0.00     0.336 A 
ATOM     10  O   UNL     1      14.920 -15.067  27.875  1.00  0.00    -0.246 OA
ATOM     11  O   UNL     1      13.203 -13.631  27.905  1.00  0.00    -0.423 OA
ENDROOT
TORSDOF 0
ENDMDL
MODEL 8
REMARK VINA RESULT:    -6.542     11.141     12.163
REMARK INTER + INTRA:          -6.542
REMARK INTER:                  -6.542
REMARK INTRA:                   0.000
REMARK UNBOUND:                 0.000
REMARK SMILES O=c1ccc2ccccc2o1
REMARK SMILES IDX 7 1 8 2 9 3 10 4 5 5 6 6 4 7 3 8 2 9 1 10 11 11
REMARK H PARENT
REMARK Flexibility Score: inf
ROOT
ATOM      1  C   UNL     1      18.819  -3.225  27.375  1.00  0.00     0.001 A 
ATOM      2  C   UNL     1      19.469  -2.435  26.419  1.00  0.00     0.004 A 
ATOM      3  C   UNL     1      18.863  -1.271  25.937  1.00  0.00     0.048 A 
ATOM      4  C   UNL     1      17.601  -0.891  26.410  1.00  0.00     0.138 A 
ATOM      5  C   UNL     1      16.944  -1.687  27.374  1.00  0.00     0.018 A 
ATOM      6  C   UNL     1      17.558  -2.854  27.853  1.00  0.00     0.012 A 
ATOM      7  C   UNL     1      15.685  -1.282  27.827  1.00  0.00     0.019 A 
ATOM      8  C   UNL     1      15.118  -0.114  27.318  1.00  0.00     0.094 A 
ATOM      9  C   UNL     1      15.827   0.625  26.365  1.00  0.00     0.336 A 
ATOM     10  O   UNL     1      15.332   1.682  25.894  1.00  0.00    -0.246 OA
ATOM     11  O   UNL     1      17.024   0.217  25.951  1.00  0.00    -0.423 OA
ENDROOT
TORSDOF 0
ENDMDL
