MODEL 1
REMARK VINA RESULT:    -5.556      0.000      0.000
REMARK INTER + INTRA:          -6.341
REMARK INTER:                  -6.205
REMARK INTRA:                  -0.135
REMARK UNBOUND:                -0.135
REMARK SMILES O=C([O-])C=Cc1ccccc1
REMARK SMILES IDX 4 1 5 2 2 3 1 4 3 5 6 6 7 7 11 8 8 9 10 10 9 11
REMARK H PARENT
REMARK Flexibility Score: inf
ROOT
ATOM      1  C   UNL     1     -10.806  -2.141  -9.644  1.00  0.00     0.025 C 
ATOM      2  C   UNL     1     -10.987  -0.939 -10.209  1.00  0.00     0.010 C 
ENDROOT
BRANCH   1   3
ATOM      3  C   UNL     1      -9.592  -2.938  -9.884  1.00  0.00     0.064 C 
ATOM      4  O   UNL     1      -9.074  -2.953 -11.031  1.00  0.00    -0.545 OA
ATOM      5  O   UNL     1      -9.005  -3.676  -8.862  1.00  0.00    -0.545 OA
ENDBRANCH   1   3
BRANCH   2   6
ATOM      6  C   UNL     1     -12.186  -0.079 -10.013  1.00  0.00    -0.026 A 
ATOM      7  C   UNL     1     -13.440  -0.594 -10.390  1.00  0.00     0.008 A 
ATOM      8  C   UNL     1     -12.127   1.223  -9.469  1.00  0.00     0.008 A 
ATOM      9  C   UNL     1     -14.602   0.166 -10.230  1.00  0.00     0.001 A 
ATOM     10  C   UNL     1     -13.294   1.979  -9.312  1.00  0.00     0.001 A 
ATOM     11  C   UNL     1     -14.529   1.451  -9.692  1.00  0.00     0.000 A 
ENDBRANCH   2   6
TORSDOF 2
ENDMDL
MODEL 2
REMARK VINA RESULT:    -5.420      0.370      1.777
REMARK INTER + INTRA:          -6.189
REMARK INTER:                  -6.060
REMARK INTRA:                  -0.129
REMARK UNBOUND:                -0.135
REMARK SMILES O=C([O-])C=Cc1ccccc1
REMARK SMILES IDX 4 1 5 2 2 3 1 4 3 5 6 6 7 7 11 8 8 9 10 10 9 11
REMARK H PARENT
REMARK Flexibility Score: inf
ROOT
ATOM      1  C   UNL     1     -10.971  -1.951  -9.721  1.00  0.00     0.025 C 
ATOM      2  C   UNL     1     -11.152  -0.727 -10.236  1.00  0.00     0.010 C 
ENDROOT
BRANCH   1   3
ATOM      3  C   UNL     1      -9.760  -2.741  -9.998  1.00  0.00     0.064 C 
ATOM      4  O   UNL     1      -9.419  -3.657  -9.205  1.00  0.00    -0.545 OA
ATOM      5  O   UNL     1      -8.984  -2.491 -11.125  1.00  0.00    -0.545 OA
ENDBRANCH   1   3
BRANCH   2   6
ATOM      6  C   UNL     1     -12.348   0.127 -10.000  1.00  0.00    -0.026 A 
ATOM      7  C   UNL     1     -12.147   1.423  -9.490  1.00  0.00     0.008 A 
ATOM      8  C   UNL     1     -13.669  -0.298 -10.261  1.00  0.00     0.008 A 
ATOM      9  C   UNL     1     -13.231   2.271  -9.247  1.00  0.00     0.001 A 
ATOM     10  C   UNL     1     -14.750   0.556 -10.015  1.00  0.00     0.001 A 
ATOM     11  C   UNL     1     -14.531   1.839  -9.510  1.00  0.00     0.000 A 
ENDBRANCH   2   6
TORSDOF 2
ENDMDL
MODEL 3
REMARK VINA RESULT:    -5.070      4.330      6.709
REMARK INTER + INTRA:          -5.798
REMARK INTER:                  -5.663
REMARK INTRA:                  -0.135
REMARK UNBOUND:                -0.135
REMARK SMILES O=C([O-])C=Cc1ccccc1
REMARK SMILES IDX 4 1 5 2 2 3 1 4 3 5 6 6 7 7 11 8 8 9 10 10 9 11
REMARK H PARENT
REMARK Flexibility Score: inf
ROOT
ATOM      1  C   UNL     1     -10.560  -4.209  -9.083  1.00  0.00     0.025 C 
ATOM      2  C   UNL     1     -10.248  -4.401  -7.793  1.00  0.00     0.010 C 
ENDROOT
BRANCH   1   3
ATOM      3  C   UNL     1     -10.141  -2.999  -9.811  1.00  0.00     0.064 C 
ATOM      4  O   UNL     1      -9.240  -3.081 -10.686  1.00  0.00    -0.545 OA
ATOM      5  O   UNL     1     -10.727  -1.766  -9.549  1.00  0.00    -0.545 OA
ENDBRANCH   1   3
BRANCH   2   6
ATOM      6  C   UNL     1     -10.636  -5.595  -6.994  1.00  0.00    -0.026 A 
ATOM      7  C   UNL     1     -10.347  -6.868  -7.520  1.00  0.00     0.008 A 
ATOM      8  C   UNL     1     -11.276  -5.515  -5.738  1.00  0.00     0.008 A 
ATOM      9  C   UNL     1     -10.687  -8.027  -6.817  1.00  0.00     0.001 A 
ATOM     10  C   UNL     1     -11.614  -6.678  -5.038  1.00  0.00     0.001 A 
ATOM     11  C   UNL     1     -11.320  -7.932  -5.577  1.00  0.00     0.000 A 
ENDBRANCH   2   6
TORSDOF 2
ENDMDL
MODEL 4
REMARK VINA RESULT:    -4.796      5.133      7.009
REMARK INTER + INTRA:          -5.492
REMARK INTER:                  -5.351
REMARK INTRA:                  -0.142
REMARK UNBOUND:                -0.135
REMARK SMILES O=C([O-])C=Cc1ccccc1
REMARK SMILES IDX 4 1 5 2 2 3 1 4 3 5 6 6 7 7 11 8 8 9 10 10 9 11
REMARK H PARENT
REMARK Flexibility Score: inf
ROOT
ATOM      1  C   UNL     1     -10.499  -4.842  -8.117  1.00  0.00     0.025 C 
ATOM      2  C   UNL     1     -10.619  -5.139  -6.815  1.00  0.00     0.010 C 
ENDROOT
BRANCH   1   3
ATOM      3  C   UNL     1      -9.557  -3.816  -8.596  1.00  0.00     0.064 C 
ATOM      4  O   UNL     1      -8.760  -3.277  -7.786  1.00  0.00    -0.545 OA
ATOM      5  O   UNL     1      -9.534  -3.433  -9.932  1.00  0.00    -0.545 OA
ENDBRANCH   1   3
BRANCH   2   6
ATOM      6  C   UNL     1     -11.547  -6.161  -6.258  1.00  0.00    -0.026 A 
ATOM      7  C   UNL     1     -12.851  -6.229  -6.784  1.00  0.00     0.008 A 
ATOM      8  C   UNL     1     -11.186  -7.062  -5.233  1.00  0.00     0.008 A 
ATOM      9  C   UNL     1     -13.768  -7.167  -6.302  1.00  0.00     0.001 A 
ATOM     10  C   UNL     1     -12.108  -7.999  -4.755  1.00  0.00     0.001 A 
ATOM     11  C   UNL     1     -13.397  -8.051  -5.289  1.00  0.00     0.000 A 
ENDBRANCH   2   6
TORSDOF 2
ENDMDL
MODEL 5
REMARK VINA RESULT:    -4.778      5.250      6.620
REMARK INTER + INTRA:          -5.472
REMARK INTER:                  -5.344
REMARK INTRA:                  -0.128
REMARK UNBOUND:                -0.135
REMARK SMILES O=C([O-])C=Cc1ccccc1
REMARK SMILES IDX 4 1 5 2 2 3 1 4 3 5 6 6 7 7 11 8 8 9 10 10 9 11
REMARK H PARENT
REMARK Flexibility Score: inf
ROOT
ATOM      1  C   UNL     1     -12.186  -6.364  -5.884  1.00  0.00     0.025 C 
ATOM      2  C   UNL     1     -11.139  -6.355  -6.722  1.00  0.00     0.010 C 
ENDROOT
BRANCH   1   3
ATOM      3  C   UNL     1     -12.578  -7.575  -5.143  1.00  0.00     0.064 C 
ATOM      4  O   UNL     1     -11.753  -8.122  -4.366  1.00  0.00    -0.545 OA
ATOM      5  O   UNL     1     -13.846  -8.125  -5.289  1.00  0.00    -0.545 OA
ENDBRANCH   1   3
BRANCH   2   6
ATOM      6  C   UNL     1     -10.686  -5.171  -7.502  1.00  0.00    -0.026 A 
ATOM      7  C   UNL     1     -11.066  -5.083  -8.854  1.00  0.00     0.008 A 
ATOM      8  C   UNL     1      -9.896  -4.136  -6.955  1.00  0.00     0.008 A 
ATOM      9  C   UNL     1     -10.671  -3.996  -9.638  1.00  0.00     0.001 A 
ATOM     10  C   UNL     1      -9.503  -3.050  -7.745  1.00  0.00     0.001 A 
ATOM     11  C   UNL     1      -9.891  -2.980  -9.084  1.00  0.00     0.000 A 
ENDBRANCH   2   6
TORSDOF 2
ENDMDL
MODEL 6
REMARK VINA RESULT:    -4.669     17.633     18.668
REMARK INTER + INTRA:          -5.350
REMARK INTER:                  -5.223
REMARK INTRA:                  -0.127
REMARK UNBOUND:                -0.135
REMARK SMILES O=C([O-])C=Cc1ccccc1
REMARK SMILES IDX 4 1 5 2 2 3 1 4 3 5 6 6 7 7 11 8 8 9 10 10 9 11
REMARK H PARENT
REMARK Flexibility Score: inf
ROOT
ATOM      1  C   UNL     1      -9.364   7.463   6.151  1.00  0.00     0.025 C 
ATOM      2  C   UNL     1      -9.072   6.369   6.870  1.00  0.00     0.010 C 
ENDROOT
BRANCH   1   3
ATOM      3  C   UNL     1      -8.358   8.501   5.872  1.00  0.00     0.064 C 
ATOM      4  O   UNL     1      -8.016   8.732   4.683  1.00  0.00    -0.545 OA
ATOM      5  O   UNL     1      -7.778   9.233   6.902  1.00  0.00    -0.545 OA
ENDBRANCH   1   3
BRANCH   2   6
ATOM      6  C   UNL     1     -10.035   5.281   7.192  1.00  0.00    -0.026 A 
ATOM      7  C   UNL     1     -10.222   4.940   8.544  1.00  0.00     0.008 A 
ATOM      8  C   UNL     1     -10.767   4.577   6.211  1.00  0.00     0.008 A 
ATOM      9  C   UNL     1     -11.113   3.926   8.908  1.00  0.00     0.001 A 
ATOM     10  C   UNL     1     -11.658   3.563   6.582  1.00  0.00     0.001 A 
ATOM     11  C   UNL     1     -11.830   3.239   7.929  1.00  0.00     0.000 A 
ENDBRANCH   2   6
TORSDOF 2
ENDMDL
MODEL 7
REMARK VINA RESULT:    -4.362     16.318     17.529
REMARK INTER + INTRA:          -5.007
REMARK INTER:                  -4.876
REMARK INTRA:                  -0.132
REMARK UNBOUND:                -0.135
REMARK SMILES O=C([O-])C=Cc1ccccc1
REMARK SMILES IDX 4 1 5 2 2 3 1 4 3 5 6 6 7 7 11 8 8 9 10 10 9 11
REMARK H PARENT
REMARK Flexibility Score: inf
ROOT
ATOM      1  C   UNL     1     -13.895   6.460   4.803  1.00  0.00     0.025 C 
ATOM      2  C   UNL     1     -13.616   5.164   5.008  1.00  0.00     0.010 C 
ENDROOT
BRANCH   1   3
ATOM      3  C   UNL     1     -14.493   6.936   3.544  1.00  0.00     0.064 C 
ATOM      4  O   UNL     1     -15.125   6.131   2.813  1.00  0.00    -0.545 OA
ATOM      5  O   UNL     1     -14.372   8.264   3.151  1.00  0.00    -0.545 OA
ENDBRANCH   1   3
BRANCH   2   6
ATOM      6  C   UNL     1     -13.012   4.611   6.251  1.00  0.00    -0.026 A 
ATOM      7  C   UNL     1     -11.977   3.666   6.122  1.00  0.00     0.008 A 
ATOM      8  C   UNL     1     -13.425   4.987   7.548  1.00  0.00     0.008 A 
ATOM      9  C   UNL     1     -11.372   3.111   7.252  1.00  0.00     0.001 A 
ATOM     10  C   UNL     1     -12.814   4.427   8.676  1.00  0.00     0.001 A 
ATOM     11  C   UNL     1     -11.789   3.492   8.528  1.00  0.00     0.000 A 
ENDBRANCH   2   6
TORSDOF 2
ENDMDL
MODEL 8
REMARK VINA RESULT:    -4.143     17.744     18.938
REMARK INTER + INTRA:          -4.763
REMARK INTER:                  -4.630
REMARK INTRA:                  -0.132
REMARK UNBOUND:                -0.135
REMARK SMILES O=C([O-])C=Cc1ccccc1
REMARK SMILES IDX 4 1 5 2 2 3 1 4 3 5 6 6 7 7 11 8 8 9 10 10 9 11
REMARK H PARENT
REMARK Flexibility Score: inf
ROOT
ATOM      1  C   UNL     1      -9.059   6.583   6.489  1.00  0.00     0.025 C 
ATOM      2  C   UNL     1      -9.470   7.800   6.104  1.00  0.00     0.010 C 
ENDROOT
BRANCH   1   3
ATOM      3  C   UNL     1      -9.987   5.444   6.585  1.00  0.00     0.064 C 
ATOM      4  O   UNL     1     -10.561   5.020   5.548  1.00  0.00    -0.545 OA
ATOM      5  O   UNL     1     -10.240   4.826   7.804  1.00  0.00    -0.545 OA
ENDBRANCH   1   3
BRANCH   2   6
ATOM      6  C   UNL     1      -8.591   8.995   5.985  1.00  0.00    -0.026 A 
ATOM      7  C   UNL     1      -9.193  10.234   5.697  1.00  0.00     0.008 A 
ATOM      8  C   UNL     1      -7.189   8.948   6.146  1.00  0.00     0.008 A 
ATOM      9  C   UNL     1      -8.420  11.392   5.572  1.00  0.00     0.001 A 
ATOM     10  C   UNL     1      -6.421  10.110   6.020  1.00  0.00     0.001 A 
ATOM     11  C   UNL     1      -7.036  11.330   5.734  1.00  0.00     0.000 A 
ENDBRANCH   2   6
TORSDOF 2
ENDMDL
MODEL 9
REMARK VINA RESULT:    -4.061     16.020     17.173
REMARK INTER + INTRA:          -4.671
REMARK INTER:                  -4.533
REMARK INTRA:                  -0.138
REMARK UNBOUND:                -0.135
REMARK SMILES O=C([O-])C=Cc1ccccc1
REMARK SMILES IDX 4 1 5 2 2 3 1 4 3 5 6 6 7 7 11 8 8 9 10 10 9 11
REMARK H PARENT
REMARK Flexibility Score: inf
ROOT
ATOM      1  C   UNL     1     -11.621   4.976   6.992  1.00  0.00     0.025 C 
ATOM      2  C   UNL     1     -12.754   4.717   6.324  1.00  0.00     0.010 C 
ENDROOT
BRANCH   1   3
ATOM      3  C   UNL     1     -11.057   4.025   7.965  1.00  0.00     0.064 C 
ATOM      4  O   UNL     1     -11.294   2.796   7.840  1.00  0.00    -0.545 OA
ATOM      5  O   UNL     1     -10.266   4.464   9.021  1.00  0.00    -0.545 OA
ENDBRANCH   1   3
BRANCH   2   6
ATOM      6  C   UNL     1     -13.381   5.629   5.328  1.00  0.00    -0.026 A 
ATOM      7  C   UNL     1     -13.632   6.959   5.713  1.00  0.00     0.008 A 
ATOM      8  C   UNL     1     -13.736   5.227   4.022  1.00  0.00     0.008 A 
ATOM      9  C   UNL     1     -14.219   7.862   4.823  1.00  0.00     0.001 A 
ATOM     10  C   UNL     1     -14.324   6.135   3.135  1.00  0.00     0.001 A 
ATOM     11  C   UNL     1     -14.564   7.451   3.535  1.00  0.00     0.000 A 
ENDBRANCH   2   6
TORSDOF 2
ENDMDL
