MODEL 1
REMARK VINA RESULT:    -4.676      0.000      0.000
REMARK INTER + INTRA:          -5.444
REMARK INTER:                  -5.223
REMARK INTRA:                  -0.221
REMARK UNBOUND:                -0.221
REMARK SMILES O=C([O-])c1ccccc1C(=O)[O-]
REMARK SMILES IDX 4 1 9 2 5 3 8 4 6 5 7 6 2 7 1 8 3 9 10 10 11 11 12 12
REMARK H PARENT
REMARK Flexibility Score: inf
ROOT
ATOM      1  C   UNL     1      38.434  18.582   9.267  1.00  0.00     0.006 A 
ATOM      2  C   UNL     1      37.527  18.287  10.322  1.00  0.00     0.006 A 
ATOM      3  C   UNL     1      37.970  19.297   8.146  1.00  0.00     0.010 A 
ATOM      4  C   UNL     1      36.178  18.663  10.191  1.00  0.00     0.010 A 
ATOM      5  C   UNL     1      36.632  19.678   8.046  1.00  0.00     0.001 A 
ATOM      6  C   UNL     1      35.735  19.352   9.061  1.00  0.00     0.001 A 
ENDROOT
BRANCH   1   7
ATOM      7  C   UNL     1      39.834  18.101   9.260  1.00  0.00     0.072 C 
ATOM      8  O   UNL     1      40.120  16.987   8.746  1.00  0.00    -0.545 OA
ATOM      9  O   UNL     1      40.839  18.837   9.876  1.00  0.00    -0.545 OA
ENDBRANCH   1   7
BRANCH   2  10
ATOM     10  C   UNL     1      37.960  17.665  11.596  1.00  0.00     0.072 C 
ATOM     11  O   UNL     1      37.686  16.460  11.836  1.00  0.00    -0.545 OA
ATOM     12  O   UNL     1      38.613  18.416  12.566  1.00  0.00    -0.545 OA
ENDBRANCH   2  10
TORSDOF 2
ENDMDL
MODEL 2
REMARK VINA RESULT:    -4.674      0.049      2.860
REMARK INTER + INTRA:          -5.442
REMARK INTER:                  -5.221
REMARK INTRA:                  -0.221
REMARK UNBOUND:                -0.221
REMARK SMILES O=C([O-])c1ccccc1C(=O)[O-]
REMARK SMILES IDX 4 1 9 2 5 3 8 4 6 5 7 6 2 7 1 8 3 9 10 10 11 11 12 12
REMARK H PARENT
REMARK Flexibility Score: inf
ROOT
ATOM      1  C   UNL     1      37.498  18.311  10.295  1.00  0.00     0.006 A 
ATOM      2  C   UNL     1      38.406  18.614   9.243  1.00  0.00     0.006 A 
ATOM      3  C   UNL     1      36.148  18.686  10.162  1.00  0.00     0.010 A 
ATOM      4  C   UNL     1      37.944  19.335   8.126  1.00  0.00     0.010 A 
ATOM      5  C   UNL     1      35.707  19.381   9.036  1.00  0.00     0.001 A 
ATOM      6  C   UNL     1      36.606  19.715   8.025  1.00  0.00     0.001 A 
ENDROOT
BRANCH   1   7
ATOM      7  C   UNL     1      37.928  17.682  11.564  1.00  0.00     0.072 C 
ATOM      8  O   UNL     1      37.666  16.471  11.793  1.00  0.00    -0.545 OA
ATOM      9  O   UNL     1      38.567  18.431  12.546  1.00  0.00    -0.545 OA
ENDBRANCH   1   7
BRANCH   2  10
ATOM     10  C   UNL     1      39.808  18.136   9.236  1.00  0.00     0.072 C 
ATOM     11  O   UNL     1      40.097  17.029   8.708  1.00  0.00    -0.545 OA
ATOM     12  O   UNL     1      40.810  18.865   9.865  1.00  0.00    -0.545 OA
ENDBRANCH   2  10
TORSDOF 2
ENDMDL
MODEL 3
REMARK VINA RESULT:    -4.632      2.689      4.024
REMARK INTER + INTRA:          -5.394
REMARK INTER:                  -5.186
REMARK INTRA:                  -0.208
REMARK UNBOUND:                -0.221
REMARK SMILES O=C([O-])c1ccccc1C(=O)[O-]
REMARK SMILES IDX 4 1 9 2 5 3 8 4 6 5 7 6 2 7 1 8 3 9 10 10 11 11 12 12
REMARK H PARENT
REMARK Flexibility Score: inf
ROOT
ATOM      1  C   UNL     1      35.745  19.010  10.447  1.00  0.00     0.006 A 
ATOM      2  C   UNL     1      35.362  19.781   9.315  1.00  0.00     0.006 A 
ATOM      3  C   UNL     1      35.152  19.284  11.693  1.00  0.00     0.010 A 
ATOM      4  C   UNL     1      34.448  20.837   9.483  1.00  0.00     0.010 A 
ATOM      5  C   UNL     1      34.231  20.322  11.833  1.00  0.00     0.001 A 
ATOM      6  C   UNL     1      33.888  21.105  10.732  1.00  0.00     0.001 A 
ENDROOT
BRANCH   1   7
ATOM      7  C   UNL     1      36.803  17.976  10.387  1.00  0.00     0.072 C 
ATOM      8  O   UNL     1      36.496  16.753  10.397  1.00  0.00    -0.545 OA
ATOM      9  O   UNL     1      38.146  18.334  10.385  1.00  0.00    -0.545 OA
ENDBRANCH   1   7
BRANCH   2  10
ATOM     10  C   UNL     1      35.829  19.472   7.943  1.00  0.00     0.072 C 
ATOM     11  O   UNL     1      35.121  18.764   7.178  1.00  0.00    -0.545 OA
ATOM     12  O   UNL     1      37.076  19.899   7.505  1.00  0.00    -0.545 OA
ENDBRANCH   2  10
TORSDOF 2
ENDMDL
MODEL 4
REMARK VINA RESULT:    -4.629      1.702      3.550
REMARK INTER + INTRA:          -5.391
REMARK INTER:                  -5.177
REMARK INTRA:                  -0.214
REMARK UNBOUND:                -0.221
REMARK SMILES O=C([O-])c1ccccc1C(=O)[O-]
REMARK SMILES IDX 4 1 9 2 5 3 8 4 6 5 7 6 2 7 1 8 3 9 10 10 11 11 12 12
REMARK H PARENT
REMARK Flexibility Score: inf
ROOT
ATOM      1  C   UNL     1      35.861  18.828  10.424  1.00  0.00     0.006 A 
ATOM      2  C   UNL     1      37.204  18.365  10.470  1.00  0.00     0.006 A 
ATOM      3  C   UNL     1      35.331  19.271   9.197  1.00  0.00     0.010 A 
ATOM      4  C   UNL     1      37.988  18.421   9.302  1.00  0.00     0.010 A 
ATOM      5  C   UNL     1      36.119  19.298   8.047  1.00  0.00     0.001 A 
ATOM      6  C   UNL     1      37.449  18.884   8.102  1.00  0.00     0.001 A 
ENDROOT
BRANCH   1   7
ATOM      7  C   UNL     1      35.012  18.936  11.632  1.00  0.00     0.072 C 
ATOM      8  O   UNL     1      34.908  20.036  12.239  1.00  0.00    -0.545 OA
ATOM      9  O   UNL     1      34.373  17.817  12.152  1.00  0.00    -0.545 OA
ENDBRANCH   1   7
BRANCH   2  10
ATOM     10  C   UNL     1      37.797  17.753  11.682  1.00  0.00     0.072 C 
ATOM     11  O   UNL     1      37.675  16.516  11.890  1.00  0.00    -0.545 OA
ATOM     12  O   UNL     1      38.436  18.538  12.633  1.00  0.00    -0.545 OA
ENDBRANCH   2  10
TORSDOF 2
ENDMDL
MODEL 5
REMARK VINA RESULT:    -4.628      1.690      2.900
REMARK INTER + INTRA:          -5.389
REMARK INTER:                  -5.168
REMARK INTRA:                  -0.221
REMARK UNBOUND:                -0.221
REMARK SMILES O=C([O-])c1ccccc1C(=O)[O-]
REMARK SMILES IDX 4 1 9 2 5 3 8 4 6 5 7 6 2 7 1 8 3 9 10 10 11 11 12 12
REMARK H PARENT
REMARK Flexibility Score: inf
ROOT
ATOM      1  C   UNL     1      37.221  18.379  10.471  1.00  0.00     0.006 A 
ATOM      2  C   UNL     1      35.882  18.858  10.439  1.00  0.00     0.006 A 
ATOM      3  C   UNL     1      37.996  18.437   9.298  1.00  0.00     0.010 A 
ATOM      4  C   UNL     1      35.348  19.319   9.221  1.00  0.00     0.010 A 
ATOM      5  C   UNL     1      37.453  18.918   8.106  1.00  0.00     0.001 A 
ATOM      6  C   UNL     1      36.128  19.347   8.065  1.00  0.00     0.001 A 
ENDROOT
BRANCH   1   7
ATOM      7  C   UNL     1      37.815  17.749  11.672  1.00  0.00     0.072 C 
ATOM      8  O   UNL     1      37.676  16.513  11.874  1.00  0.00    -0.545 OA
ATOM      9  O   UNL     1      38.475  18.518  12.623  1.00  0.00    -0.545 OA
ENDBRANCH   1   7
BRANCH   2  10
ATOM     10  C   UNL     1      35.043  18.965  11.656  1.00  0.00     0.072 C 
ATOM     11  O   UNL     1      34.984  20.051  12.290  1.00  0.00    -0.545 OA
ATOM     12  O   UNL     1      34.365  17.857  12.149  1.00  0.00    -0.545 OA
ENDBRANCH   2  10
TORSDOF 2
ENDMDL
MODEL 6
REMARK VINA RESULT:    -4.627      1.923      2.772
REMARK INTER + INTRA:          -5.389
REMARK INTER:                  -5.332
REMARK INTRA:                  -0.057
REMARK UNBOUND:                -0.221
REMARK SMILES O=C([O-])c1ccccc1C(=O)[O-]
REMARK SMILES IDX 4 1 9 2 5 3 8 4 6 5 7 6 2 7 1 8 3 9 10 10 11 11 12 12
REMARK H PARENT
REMARK Flexibility Score: inf
ROOT
ATOM      1  C   UNL     1      36.122  18.749  10.310  1.00  0.00     0.006 A 
ATOM      2  C   UNL     1      35.600  18.989  11.610  1.00  0.00     0.006 A 
ATOM      3  C   UNL     1      35.695  19.560   9.241  1.00  0.00     0.010 A 
ATOM      4  C   UNL     1      34.624  19.987  11.783  1.00  0.00     0.010 A 
ATOM      5  C   UNL     1      34.742  20.558   9.439  1.00  0.00     0.001 A 
ATOM      6  C   UNL     1      34.198  20.764  10.706  1.00  0.00     0.001 A 
ENDROOT
BRANCH   1   7
ATOM      7  C   UNL     1      37.045  17.630  10.014  1.00  0.00     0.072 C 
ATOM      8  O   UNL     1      38.110  17.838   9.373  1.00  0.00    -0.545 OA
ATOM      9  O   UNL     1      36.721  16.329  10.378  1.00  0.00    -0.545 OA
ENDBRANCH   1   7
BRANCH   2  10
ATOM     10  C   UNL     1      36.096  18.280  12.813  1.00  0.00     0.072 C 
ATOM     11  O   UNL     1      35.405  17.369  13.341  1.00  0.00    -0.545 OA
ATOM     12  O   UNL     1      37.294  18.651  13.411  1.00  0.00    -0.545 OA
ENDBRANCH   2  10
TORSDOF 2
ENDMDL
MODEL 7
REMARK VINA RESULT:    -4.625      2.683      3.474
REMARK INTER + INTRA:          -5.386
REMARK INTER:                  -5.178
REMARK INTRA:                  -0.208
REMARK UNBOUND:                -0.221
REMARK SMILES O=C([O-])c1ccccc1C(=O)[O-]
REMARK SMILES IDX 4 1 9 2 5 3 8 4 6 5 7 6 2 7 1 8 3 9 10 10 11 11 12 12
REMARK H PARENT
REMARK Flexibility Score: inf
ROOT
ATOM      1  C   UNL     1      35.364  19.751   9.354  1.00  0.00     0.006 A 
ATOM      2  C   UNL     1      35.754  18.970  10.476  1.00  0.00     0.006 A 
ATOM      3  C   UNL     1      34.446  20.802   9.537  1.00  0.00     0.010 A 
ATOM      4  C   UNL     1      35.166  19.229  11.728  1.00  0.00     0.010 A 
ATOM      5  C   UNL     1      33.891  21.055  10.792  1.00  0.00     0.001 A 
ATOM      6  C   UNL     1      34.242  20.263  11.883  1.00  0.00     0.001 A 
ENDROOT
BRANCH   1   7
ATOM      7  C   UNL     1      35.825  19.457   7.978  1.00  0.00     0.072 C 
ATOM      8  O   UNL     1      35.117  18.755   7.207  1.00  0.00    -0.545 OA
ATOM      9  O   UNL     1      37.070  19.893   7.539  1.00  0.00    -0.545 OA
ENDBRANCH   1   7
BRANCH   2  10
ATOM     10  C   UNL     1      36.815  17.939  10.402  1.00  0.00     0.072 C 
ATOM     11  O   UNL     1      36.511  16.717  10.396  1.00  0.00    -0.545 OA
ATOM     12  O   UNL     1      38.157  18.301  10.403  1.00  0.00    -0.545 OA
ENDBRANCH   2  10
TORSDOF 2
ENDMDL
MODEL 8
REMARK VINA RESULT:    -4.571      1.142      3.236
REMARK INTER + INTRA:          -5.326
REMARK INTER:                  -5.096
REMARK INTRA:                  -0.230
REMARK UNBOUND:                -0.221
REMARK SMILES O=C([O-])c1ccccc1C(=O)[O-]
REMARK SMILES IDX 4 1 9 2 5 3 8 4 6 5 7 6 2 7 1 8 3 9 10 10 11 11 12 12
REMARK H PARENT
REMARK Flexibility Score: inf
ROOT
ATOM      1  C   UNL     1      36.650  18.487  10.933  1.00  0.00     0.006 A 
ATOM      2  C   UNL     1      37.052  18.861   9.621  1.00  0.00     0.006 A 
ATOM      3  C   UNL     1      35.376  18.869  11.393  1.00  0.00     0.010 A 
ATOM      4  C   UNL     1      36.192  19.656   8.842  1.00  0.00     0.010 A 
ATOM      5  C   UNL     1      34.530  19.639  10.595  1.00  0.00     0.001 A 
ATOM      6  C   UNL     1      34.942  20.042   9.326  1.00  0.00     0.001 A 
ENDROOT
BRANCH   1   7
ATOM      7  C   UNL     1      37.547  17.773  11.870  1.00  0.00     0.072 C 
ATOM      8  O   UNL     1      38.324  18.420  12.622  1.00  0.00    -0.545 OA
ATOM      9  O   UNL     1      37.593  16.384  11.888  1.00  0.00    -0.545 OA
ENDBRANCH   1   7
BRANCH   2  10
ATOM     10  C   UNL     1      38.314  18.384   9.006  1.00  0.00     0.072 C 
ATOM     11  O   UNL     1      38.363  17.250   8.462  1.00  0.00    -0.545 OA
ATOM     12  O   UNL     1      39.471  19.149   9.079  1.00  0.00    -0.545 OA
ENDBRANCH   2  10
TORSDOF 2
ENDMDL
MODEL 9
REMARK VINA RESULT:    -4.570      1.171      1.994
REMARK INTER + INTRA:          -5.325
REMARK INTER:                  -5.101
REMARK INTRA:                  -0.224
REMARK UNBOUND:                -0.221
REMARK SMILES O=C([O-])c1ccccc1C(=O)[O-]
REMARK SMILES IDX 4 1 9 2 5 3 8 4 6 5 7 6 2 7 1 8 3 9 10 10 11 11 12 12
REMARK H PARENT
REMARK Flexibility Score: inf
ROOT
ATOM      1  C   UNL     1      37.032  18.884   9.647  1.00  0.00     0.006 A 
ATOM      2  C   UNL     1      36.592  18.479  10.937  1.00  0.00     0.006 A 
ATOM      3  C   UNL     1      36.193  19.698   8.863  1.00  0.00     0.010 A 
ATOM      4  C   UNL     1      35.306  18.852  11.371  1.00  0.00     0.010 A 
ATOM      5  C   UNL     1      34.931  20.073   9.321  1.00  0.00     0.001 A 
ATOM      6  C   UNL     1      34.483  19.641  10.568  1.00  0.00     0.001 A 
ENDROOT
BRANCH   1   7
ATOM      7  C   UNL     1      38.308  18.421   9.058  1.00  0.00     0.072 C 
ATOM      8  O   UNL     1      39.297  19.200   8.994  1.00  0.00    -0.545 OA
ATOM      9  O   UNL     1      38.416  17.148   8.509  1.00  0.00    -0.545 OA
ENDBRANCH   1   7
BRANCH   2  10
ATOM     10  C   UNL     1      37.463  17.742  11.883  1.00  0.00     0.072 C 
ATOM     11  O   UNL     1      38.203  18.372  12.684  1.00  0.00    -0.545 OA
ATOM     12  O   UNL     1      37.525  16.355  11.856  1.00  0.00    -0.545 OA
ENDBRANCH   2  10
TORSDOF 2
ENDMDL
