MODEL 1
REMARK VINA RESULT:     0.881      0.000      0.000
REMARK INTER + INTRA:           0.103
REMARK INTER:                   1.397
REMARK INTRA:                  -1.294
REMARK UNBOUND:                -1.294
REMARK SMILES C[C@@H]1O[C@@H](O[C@@H]2CC[C@@]3(C)[C@@H](CC[C@@]4(C)[C@H]3C=C[C@@]35OC[C@]6(CCC(C)(C)C[C@@H]63)[C@@H](O)C[C@]45C)[C@]2(C)CO)[C@@H](O)[C@@H](O[C@H]2O[C@@H](CO)[C@@H](O)[C@@H](O)[C@@H]2O)[C@H]1O
REMARK SMILES IDX 1 1 2 2 54 3 41 4 39 5 4 6 3 7 55 8 42 10 43 11 52 12 44 13
REMARK SMILES IDX 50 14 45 15 48 16 53 17 51 19 46 21 47 22 49 24 5 26 6 27
REMARK SMILES IDX 7 28 35 29 8 30 11 31 36 32 9 33 12 34 10 35 16 36 13 37
REMARK SMILES IDX 14 38 17 39 15 40 33 41 18 42 19 43 32 44 34 45 29 46 20 47
REMARK SMILES IDX 30 48 22 49 28 50 21 51 23 52 25 53 24 54 26 55 27 56 37 57
REMARK SMILES IDX 38 58 31 60 40 62
REMARK H PARENT 55 9 53 18 51 20 47 23 49 25 38 59 31 61 40 63
REMARK Flexibility Score: inf
ROOT
ATOM      1  C   UNL     1     -46.071  10.816 -22.744  1.00  0.00     0.041 C 
ATOM      2  C   UNL     1     -45.916  10.893 -24.257  1.00  0.00     0.150 C 
ATOM      3  C   UNL     1     -45.540   9.536 -24.926  1.00  0.00     0.175 C 
ATOM      4  C   UNL     1     -46.298   9.380 -26.258  1.00  0.00     0.186 C 
ATOM      5  C   UNL     1     -47.767   9.278 -25.802  1.00  0.00     0.202 C 
ATOM      6  C   UNL     1     -48.208  10.698 -25.231  1.00  0.00     0.282 C 
ATOM      7  O   UNL     1     -47.090  11.518 -24.808  1.00  0.00    -0.344 OA
ENDROOT
BRANCH   3   8
ATOM      8  O   UNL     1     -44.114   9.320 -25.146  1.00  0.00    -0.388 OA
ATOM      9  H   UNL     1     -43.871   8.659 -24.430  1.00  0.00     0.211 HD
ENDBRANCH   3   8
BRANCH   4  10
ATOM     10  O   UNL     1     -46.275  10.464 -27.181  1.00  0.00    -0.341 OA
BRANCH  10  11
ATOM     11  C   UNL     1     -45.331  10.328 -28.232  1.00  0.00     0.282 C 
ATOM     12  C   UNL     1     -44.211  11.472 -28.741  1.00  0.00     0.202 C 
ATOM     13  O   UNL     1     -46.206  10.186 -29.380  1.00  0.00    -0.341 OA
ATOM     14  C   UNL     1     -44.796  12.908 -28.851  1.00  0.00     0.179 C 
ATOM     15  C   UNL     1     -46.665  11.365 -30.101  1.00  0.00     0.178 C 
ATOM     16  C   UNL     1     -46.063  12.876 -29.700  1.00  0.00     0.177 C 
BRANCH  12  17
ATOM     17  O   UNL     1     -43.662  11.082 -29.977  1.00  0.00    -0.385 OA
ATOM     18  H   UNL     1     -44.057  11.679 -30.685  1.00  0.00     0.211 HD
ENDBRANCH  12  17
BRANCH  14  19
ATOM     19  O   UNL     1     -45.090  13.345 -27.533  1.00  0.00    -0.387 OA
ATOM     20  H   UNL     1     -45.847  12.759 -27.229  1.00  0.00     0.211 HD
ENDBRANCH  14  19
BRANCH  15  21
ATOM     21  C   UNL     1     -48.268  11.380 -30.033  1.00  0.00     0.191 C 
BRANCH  21  22
ATOM     22  O   UNL     1     -48.633  10.795 -28.836  1.00  0.00    -0.394 OA
ATOM     23  H   UNL     1     -48.355  11.367 -28.102  1.00  0.00     0.210 HD
ENDBRANCH  21  22
ENDBRANCH  15  21
BRANCH  16  24
ATOM     24  O   UNL     1     -47.059  13.634 -29.004  1.00  0.00    -0.387 OA
ATOM     25  H   UNL     1     -46.952  14.605 -29.195  1.00  0.00     0.211 HD
ENDBRANCH  16  24
ENDBRANCH  10  11
ENDBRANCH   4  10
BRANCH   6  26
ATOM     26  O   UNL     1     -48.914  11.454 -26.224  1.00  0.00    -0.346 OA
BRANCH  26  27
ATOM     27  C   UNL     1     -50.082  12.216 -25.746  1.00  0.00     0.130 C 
ATOM     28  C   UNL     1     -49.534  13.382 -24.792  1.00  0.00     0.033 C 
ATOM     29  C   UNL     1     -51.325  11.452 -24.978  1.00  0.00     0.020 C 
ATOM     30  C   UNL     1     -49.110  12.812 -23.466  1.00  0.00     0.010 C 
ATOM     31  C   UNL     1     -50.865  11.062 -23.485  1.00  0.00     0.006 C 
ATOM     32  C   UNL     1     -52.550  12.418 -25.114  1.00  0.00     0.017 C 
ATOM     33  C   UNL     1     -50.354  12.270 -22.669  1.00  0.00    -0.022 C 
ATOM     34  C   UNL     1     -51.704  10.061 -22.577  1.00  0.00     0.005 C 
ATOM     35  C   UNL     1     -51.541  13.255 -22.536  1.00  0.00     0.012 C 
ATOM     36  C   UNL     1     -49.977  11.872 -21.147  1.00  0.00     0.024 C 
ATOM     37  C   UNL     1     -51.012   9.601 -21.255  1.00  0.00     0.008 C 
ATOM     38  C   UNL     1     -49.710  10.376 -20.784  1.00  0.00    -0.017 C 
ATOM     39  C   UNL     1     -49.107  12.912 -20.527  1.00  0.00    -0.024 C 
ATOM     40  C   UNL     1     -48.514   9.743 -21.672  1.00  0.00     0.013 C 
ATOM     41  C   UNL     1     -49.307  10.321 -19.228  1.00  0.00     0.009 C 
ATOM     42  C   UNL     1     -48.246  12.654 -19.552  1.00  0.00     0.005 C 
ATOM     43  C   UNL     1     -48.031  11.243 -19.041  1.00  0.00     0.096 C 
ATOM     44  C   UNL     1     -49.009   8.878 -18.630  1.00  0.00     0.043 C 
ATOM     45  C   UNL     1     -50.449  10.912 -18.310  1.00  0.00     0.015 C 
ATOM     46  C   UNL     1     -47.382  11.323 -17.680  1.00  0.00     0.037 C 
ATOM     47  O   UNL     1     -46.937  10.671 -19.785  1.00  0.00    -0.369 OA
ATOM     48  C   UNL     1     -48.087   8.920 -17.372  1.00  0.00     0.124 C 
ATOM     49  C   UNL     1     -46.900   9.928 -17.480  1.00  0.00     0.026 C 
ATOM     50  C   UNL     1     -47.890  12.105 -16.410  1.00  0.00     0.014 C 
ATOM     51  C   UNL     1     -46.222   9.783 -18.881  1.00  0.00     0.171 C 
ATOM     52  C   UNL     1     -45.835   9.916 -16.320  1.00  0.00     0.013 C 
ATOM     53  C   UNL     1     -46.635  12.212 -15.443  1.00  0.00    -0.035 C 
ATOM     54  C   UNL     1     -46.095  10.804 -15.106  1.00  0.00     0.007 C 
ATOM     55  C   UNL     1     -47.116  12.921 -14.118  1.00  0.00     0.011 C 
ATOM     56  C   UNL     1     -45.511  13.146 -16.029  1.00  0.00     0.011 C 
BRANCH  29  57
ATOM     57  C   UNL     1     -51.929  10.162 -25.656  1.00  0.00     0.165 C 
BRANCH  57  58
ATOM     58  O   UNL     1     -51.343   9.823 -26.888  1.00  0.00    -0.396 OA
ATOM     59  H   UNL     1     -51.852  10.343 -27.571  1.00  0.00     0.210 HD
ENDBRANCH  57  58
ENDBRANCH  29  57
BRANCH  48  60
ATOM     60  O   UNL     1     -48.874   8.935 -16.184  1.00  0.00    -0.392 OA
ATOM     61  H   UNL     1     -49.062   7.969 -16.014  1.00  0.00     0.210 HD
ENDBRANCH  48  60
ENDBRANCH  26  27
ENDBRANCH   6  26
BRANCH   5  62
ATOM     62  O   UNL     1     -48.555   8.875 -26.883  1.00  0.00    -0.385 OA
ATOM     63  H   UNL     1     -49.245   8.243 -26.521  1.00  0.00     0.211 HD
ENDBRANCH   5  62
TORSDOF 14
ENDMDL
