MODEL 1
REMARK VINA RESULT:    -7.537      0.000      0.000
REMARK INTER + INTRA:          -9.214
REMARK INTER:                  -9.299
REMARK INTRA:                   0.085
REMARK UNBOUND:                 0.085
REMARK SMILES Oc1cc(O)c2cc(O)c(-c3cc(O)c(O)c(O)c3)[o+]c2c1
REMARK SMILES IDX 10 1 20 2 21 3 22 4 2 5 3 6 4 7 6 8 7 9 8 10 11 11 12 12
REMARK SMILES IDX 13 13 19 14 15 15 17 16 14 17 16 19 18 21 9 23 1 25 5 27
REMARK H PARENT 14 18 16 20 18 22 9 24 1 26 5 28
REMARK Flexibility Score: inf
ROOT
ATOM      1  C   UNL     1     -12.707 -29.391  -9.414  1.00  0.00     0.402 A 
ATOM      2  O   UNL     1     -12.183 -30.615  -9.412  1.00  0.00    -0.202 OA
ATOM      3  C   UNL     1     -11.347 -31.048  -8.473  1.00  0.00     0.368 A 
ATOM      4  C   UNL     1     -10.836 -32.347  -8.546  1.00  0.00     0.162 A 
ATOM      5  C   UNL     1      -9.954 -32.814  -7.566  1.00  0.00     0.128 A 
ATOM      6  C   UNL     1      -9.580 -31.977  -6.507  1.00  0.00     0.093 A 
ATOM      7  C   UNL     1     -10.085 -30.671  -6.419  1.00  0.00     0.136 A 
ATOM      8  C   UNL     1     -10.973 -30.202  -7.406  1.00  0.00     0.125 A 
ATOM      9  C   UNL     1     -11.514 -28.912  -7.366  1.00  0.00     0.078 A 
ATOM     10  C   UNL     1     -12.398 -28.498  -8.367  1.00  0.00     0.223 A 
ENDROOT
BRANCH   1  11
ATOM     11  C   UNL     1     -13.620 -29.021 -10.519  1.00  0.00     0.091 A 
ATOM     12  C   UNL     1     -14.444 -30.002 -11.090  1.00  0.00     0.068 A 
ATOM     13  C   UNL     1     -15.301 -29.687 -12.149  1.00  0.00     0.162 A 
ATOM     14  C   UNL     1     -13.637 -27.720 -11.050  1.00  0.00     0.068 A 
ATOM     15  C   UNL     1     -15.331 -28.379 -12.663  1.00  0.00     0.200 A 
ATOM     16  C   UNL     1     -14.491 -27.395 -12.113  1.00  0.00     0.162 A 
BRANCH  13  17
ATOM     17  O   UNL     1     -16.116 -30.687 -12.679  1.00  0.00    -0.504 OA
ATOM     18  H   UNL     1     -16.313 -31.545 -12.177  1.00  0.00     0.293 HD
ENDBRANCH  13  17
BRANCH  15  19
ATOM     19  O   UNL     1     -16.192 -28.072 -13.718  1.00  0.00    -0.502 OA
ATOM     20  H   UNL     1     -17.186 -27.936 -13.580  1.00  0.00     0.293 HD
ENDBRANCH  15  19
BRANCH  16  21
ATOM     21  O   UNL     1     -14.505 -26.100 -12.626  1.00  0.00    -0.504 OA
ATOM     22  H   UNL     1     -15.297 -25.743 -13.150  1.00  0.00     0.293 HD
ENDBRANCH  16  21
ENDBRANCH   1  11
BRANCH  10  23
ATOM     23  O   UNL     1     -12.980 -27.232  -8.306  1.00  0.00    -0.500 OA
ATOM     24  H   UNL     1     -12.448 -26.392  -8.498  1.00  0.00     0.294 HD
ENDBRANCH  10  23
BRANCH   5  25
ATOM     25  O   UNL     1      -9.454 -34.111  -7.656  1.00  0.00    -0.507 OA
ATOM     26  H   UNL     1      -8.465 -34.290  -7.783  1.00  0.00     0.293 HD
ENDBRANCH   5  25
BRANCH   7  27
ATOM     27  O   UNL     1      -9.707 -29.847  -5.359  1.00  0.00    -0.507 OA
ATOM     28  H   UNL     1     -10.379 -29.269  -4.869  1.00  0.00     0.293 HD
ENDBRANCH   7  27
TORSDOF 7
ENDMDL
MODEL 2
REMARK VINA RESULT:    -7.342      0.095      1.796
REMARK INTER + INTRA:          -8.973
REMARK INTER:                  -9.172
REMARK INTRA:                   0.199
REMARK UNBOUND:                 0.085
REMARK SMILES Oc1cc(O)c2cc(O)c(-c3cc(O)c(O)c(O)c3)[o+]c2c1
REMARK SMILES IDX 10 1 20 2 21 3 22 4 2 5 3 6 4 7 6 8 7 9 8 10 11 11 12 12
REMARK SMILES IDX 13 13 19 14 15 15 17 16 14 17 16 19 18 21 9 23 1 25 5 27
REMARK H PARENT 14 18 16 20 18 22 9 24 1 26 5 28
REMARK Flexibility Score: inf
ROOT
ATOM      1  C   UNL     1     -12.716 -29.469  -9.485  1.00  0.00     0.402 A 
ATOM      2  O   UNL     1     -12.187 -30.691  -9.439  1.00  0.00    -0.202 OA
ATOM      3  C   UNL     1     -11.355 -31.089  -8.482  1.00  0.00     0.368 A 
ATOM      4  C   UNL     1     -10.839 -32.388  -8.509  1.00  0.00     0.162 A 
ATOM      5  C   UNL     1      -9.961 -32.819  -7.509  1.00  0.00     0.128 A 
ATOM      6  C   UNL     1      -9.596 -31.945  -6.476  1.00  0.00     0.093 A 
ATOM      7  C   UNL     1     -10.106 -30.639  -6.434  1.00  0.00     0.136 A 
ATOM      8  C   UNL     1     -10.990 -30.207  -7.441  1.00  0.00     0.125 A 
ATOM      9  C   UNL     1     -11.537 -28.918  -7.447  1.00  0.00     0.078 A 
ATOM     10  C   UNL     1     -12.416 -28.541  -8.467  1.00  0.00     0.223 A 
ENDROOT
BRANCH   1  11
ATOM     11  C   UNL     1     -13.623 -29.140 -10.607  1.00  0.00     0.091 A 
ATOM     12  C   UNL     1     -13.672 -27.824 -11.090  1.00  0.00     0.068 A 
ATOM     13  C   UNL     1     -14.535 -27.478 -12.136  1.00  0.00     0.162 A 
ATOM     14  C   UNL     1     -14.482 -30.104 -11.162  1.00  0.00     0.068 A 
ATOM     15  C   UNL     1     -15.376 -28.451 -12.703  1.00  0.00     0.200 A 
ATOM     16  C   UNL     1     -15.351 -29.767 -12.209  1.00  0.00     0.162 A 
BRANCH  13  17
ATOM     17  O   UNL     1     -14.542 -26.163 -12.598  1.00  0.00    -0.504 OA
ATOM     18  H   UNL     1     -13.976 -25.863 -13.384  1.00  0.00     0.293 HD
ENDBRANCH  13  17
BRANCH  15  19
ATOM     19  O   UNL     1     -16.231 -28.099 -13.748  1.00  0.00    -0.502 OA
ATOM     20  H   UNL     1     -17.145 -27.694 -13.583  1.00  0.00     0.293 HD
ENDBRANCH  15  19
BRANCH  16  21
ATOM     21  O   UNL     1     -16.192 -30.733 -12.756  1.00  0.00    -0.504 OA
ATOM     22  H   UNL     1     -16.961 -31.130 -12.228  1.00  0.00     0.293 HD
ENDBRANCH  16  21
ENDBRANCH   1  11
BRANCH  10  23
ATOM     23  O   UNL     1     -13.004 -27.276  -8.450  1.00  0.00    -0.500 OA
ATOM     24  H   UNL     1     -12.456 -26.437  -8.301  1.00  0.00     0.294 HD
ENDBRANCH  10  23
BRANCH   5  25
ATOM     25  O   UNL     1      -9.456 -34.116  -7.553  1.00  0.00    -0.507 OA
ATOM     26  H   UNL     1      -8.520 -34.309  -7.890  1.00  0.00     0.293 HD
ENDBRANCH   5  25
BRANCH   7  27
ATOM     27  O   UNL     1      -9.738 -29.779  -5.400  1.00  0.00    -0.507 OA
ATOM     28  H   UNL     1      -9.609 -28.786  -5.554  1.00  0.00     0.293 HD
ENDBRANCH   7  27
TORSDOF 7
ENDMDL
MODEL 3
REMARK VINA RESULT:    -7.161      1.171      6.905
REMARK INTER + INTRA:          -8.750
REMARK INTER:                  -8.792
REMARK INTRA:                   0.041
REMARK UNBOUND:                 0.085
REMARK SMILES Oc1cc(O)c2cc(O)c(-c3cc(O)c(O)c(O)c3)[o+]c2c1
REMARK SMILES IDX 10 1 20 2 21 3 22 4 2 5 3 6 4 7 6 8 7 9 8 10 11 11 12 12
REMARK SMILES IDX 13 13 19 14 15 15 17 16 14 17 16 19 18 21 9 23 1 25 5 27
REMARK H PARENT 14 18 16 20 18 22 9 24 1 26 5 28
REMARK Flexibility Score: inf
ROOT
ATOM      1  C   UNL     1     -12.480 -29.435  -9.903  1.00  0.00     0.402 A 
ATOM      2  O   UNL     1     -13.444 -30.025 -10.607  1.00  0.00    -0.202 OA
ATOM      3  C   UNL     1     -14.189 -29.384 -11.502  1.00  0.00     0.368 A 
ATOM      4  C   UNL     1     -15.185 -30.076 -12.197  1.00  0.00     0.162 A 
ATOM      5  C   UNL     1     -15.977 -29.412 -13.140  1.00  0.00     0.128 A 
ATOM      6  C   UNL     1     -15.772 -28.049 -13.390  1.00  0.00     0.093 A 
ATOM      7  C   UNL     1     -14.775 -27.341 -12.701  1.00  0.00     0.136 A 
ATOM      8  C   UNL     1     -13.979 -28.010 -11.753  1.00  0.00     0.125 A 
ATOM      9  C   UNL     1     -12.965 -27.358 -11.042  1.00  0.00     0.078 A 
ATOM     10  C   UNL     1     -12.197 -28.070 -10.115  1.00  0.00     0.223 A 
ENDROOT
BRANCH   1  11
ATOM     11  C   UNL     1     -11.724 -30.253  -8.927  1.00  0.00     0.091 A 
ATOM     12  C   UNL     1     -11.429 -31.590  -9.231  1.00  0.00     0.068 A 
ATOM     13  C   UNL     1     -10.734 -32.392  -8.320  1.00  0.00     0.162 A 
ATOM     14  C   UNL     1     -11.345 -29.735  -7.676  1.00  0.00     0.068 A 
ATOM     15  C   UNL     1     -10.338 -31.865  -7.079  1.00  0.00     0.200 A 
ATOM     16  C   UNL     1     -10.650 -30.533  -6.757  1.00  0.00     0.162 A 
BRANCH  13  17
ATOM     17  O   UNL     1     -10.446 -33.712  -8.666  1.00  0.00    -0.504 OA
ATOM     18  H   UNL     1      -9.768 -34.268  -8.158  1.00  0.00     0.293 HD
ENDBRANCH  13  17
BRANCH  15  19
ATOM     19  O   UNL     1      -9.642 -32.671  -6.178  1.00  0.00    -0.502 OA
ATOM     20  H   UNL     1      -8.641 -32.589  -6.042  1.00  0.00     0.293 HD
ENDBRANCH  15  19
BRANCH  16  21
ATOM     21  O   UNL     1     -10.273 -30.007  -5.523  1.00  0.00    -0.504 OA
ATOM     22  H   UNL     1     -10.450 -29.038  -5.280  1.00  0.00     0.293 HD
ENDBRANCH  16  21
ENDBRANCH   1  11
BRANCH  10  23
ATOM     23  O   UNL     1     -11.152 -27.438  -9.441  1.00  0.00    -0.500 OA
ATOM     24  H   UNL     1     -10.468 -27.964  -8.909  1.00  0.00     0.294 HD
ENDBRANCH  10  23
BRANCH   5  25
ATOM     25  O   UNL     1     -16.966 -30.117 -13.822  1.00  0.00    -0.507 OA
ATOM     26  H   UNL     1     -16.734 -30.828 -14.506  1.00  0.00     0.293 HD
ENDBRANCH   5  25
BRANCH   7  27
ATOM     27  O   UNL     1     -14.579 -25.985 -12.959  1.00  0.00    -0.507 OA
ATOM     28  H   UNL     1     -13.834 -25.661 -13.565  1.00  0.00     0.293 HD
ENDBRANCH   7  27
TORSDOF 7
ENDMDL
MODEL 4
REMARK VINA RESULT:    -6.806      2.216      7.557
REMARK INTER + INTRA:          -8.312
REMARK INTER:                  -8.643
REMARK INTRA:                   0.331
REMARK UNBOUND:                 0.085
REMARK SMILES Oc1cc(O)c2cc(O)c(-c3cc(O)c(O)c(O)c3)[o+]c2c1
REMARK SMILES IDX 10 1 20 2 21 3 22 4 2 5 3 6 4 7 6 8 7 9 8 10 11 11 12 12
REMARK SMILES IDX 13 13 19 14 15 15 17 16 14 17 16 19 18 21 9 23 1 25 5 27
REMARK H PARENT 14 18 16 20 18 22 9 24 1 26 5 28
REMARK Flexibility Score: inf
ROOT
ATOM      1  C   UNL     1     -12.823 -28.130 -10.487  1.00  0.00     0.402 A 
ATOM      2  O   UNL     1     -12.588 -27.389 -11.568  1.00  0.00    -0.202 OA
ATOM      3  C   UNL     1     -13.399 -27.360 -12.621  1.00  0.00     0.368 A 
ATOM      4  C   UNL     1     -13.078 -26.558 -13.721  1.00  0.00     0.162 A 
ATOM      5  C   UNL     1     -13.922 -26.520 -14.835  1.00  0.00     0.128 A 
ATOM      6  C   UNL     1     -15.094 -27.288 -14.852  1.00  0.00     0.093 A 
ATOM      7  C   UNL     1     -15.430 -28.097 -13.755  1.00  0.00     0.136 A 
ATOM      8  C   UNL     1     -14.580 -28.134 -12.634  1.00  0.00     0.125 A 
ATOM      9  C   UNL     1     -14.868 -28.915 -11.509  1.00  0.00     0.078 A 
ATOM     10  C   UNL     1     -13.995 -28.911 -10.418  1.00  0.00     0.223 A 
ENDROOT
BRANCH   1  11
ATOM     11  C   UNL     1     -11.840 -28.087  -9.380  1.00  0.00     0.091 A 
ATOM     12  C   UNL     1     -10.819 -27.125  -9.403  1.00  0.00     0.068 A 
ATOM     13  C   UNL     1      -9.865 -27.073  -8.381  1.00  0.00     0.162 A 
ATOM     14  C   UNL     1     -11.872 -29.027  -8.336  1.00  0.00     0.068 A 
ATOM     15  C   UNL     1      -9.913 -28.002  -7.327  1.00  0.00     0.200 A 
ATOM     16  C   UNL     1     -10.918 -28.984  -7.310  1.00  0.00     0.162 A 
BRANCH  13  17
ATOM     17  O   UNL     1      -8.875 -26.092  -8.432  1.00  0.00    -0.504 OA
ATOM     18  H   UNL     1      -8.974 -25.201  -7.960  1.00  0.00     0.293 HD
ENDBRANCH  13  17
BRANCH  15  19
ATOM     19  O   UNL     1      -8.958 -27.941  -6.311  1.00  0.00    -0.502 OA
ATOM     20  H   UNL     1      -9.102 -28.381  -5.410  1.00  0.00     0.293 HD
ENDBRANCH  15  19
BRANCH  16  21
ATOM     21  O   UNL     1     -10.964 -29.916  -6.275  1.00  0.00    -0.504 OA
ATOM     22  H   UNL     1     -11.531 -29.767  -5.449  1.00  0.00     0.293 HD
ENDBRANCH  16  21
ENDBRANCH   1  11
BRANCH  10  23
ATOM     23  O   UNL     1     -14.302 -29.648  -9.274  1.00  0.00    -0.500 OA
ATOM     24  H   UNL     1     -14.957 -29.306  -8.581  1.00  0.00     0.294 HD
ENDBRANCH  10  23
BRANCH   5  25
ATOM     25  O   UNL     1     -13.585 -25.716 -15.922  1.00  0.00    -0.507 OA
ATOM     26  H   UNL     1     -14.296 -25.305 -16.517  1.00  0.00     0.293 HD
ENDBRANCH   5  25
BRANCH   7  27
ATOM     27  O   UNL     1     -16.600 -28.855 -13.782  1.00  0.00    -0.507 OA
ATOM     28  H   UNL     1     -16.578 -29.864 -13.866  1.00  0.00     0.293 HD
ENDBRANCH   7  27
TORSDOF 7
ENDMDL
MODEL 5
REMARK VINA RESULT:    -6.594      2.235      7.348
REMARK INTER + INTRA:          -8.051
REMARK INTER:                  -8.483
REMARK INTRA:                   0.431
REMARK UNBOUND:                 0.085
REMARK SMILES Oc1cc(O)c2cc(O)c(-c3cc(O)c(O)c(O)c3)[o+]c2c1
REMARK SMILES IDX 10 1 20 2 21 3 22 4 2 5 3 6 4 7 6 8 7 9 8 10 11 11 12 12
REMARK SMILES IDX 13 13 19 14 15 15 17 16 14 17 16 19 18 21 9 23 1 25 5 27
REMARK H PARENT 14 18 16 20 18 22 9 24 1 26 5 28
REMARK Flexibility Score: inf
ROOT
ATOM      1  C   UNL     1     -12.831 -28.186 -10.500  1.00  0.00     0.402 A 
ATOM      2  O   UNL     1     -12.629 -27.457 -11.596  1.00  0.00    -0.202 OA
ATOM      3  C   UNL     1     -13.464 -27.450 -12.630  1.00  0.00     0.368 A 
ATOM      4  C   UNL     1     -13.177 -26.660 -13.747  1.00  0.00     0.162 A 
ATOM      5  C   UNL     1     -14.046 -26.645 -14.843  1.00  0.00     0.128 A 
ATOM      6  C   UNL     1     -15.210 -27.425 -14.822  1.00  0.00     0.093 A 
ATOM      7  C   UNL     1     -15.512 -28.223 -13.708  1.00  0.00     0.136 A 
ATOM      8  C   UNL     1     -14.637 -28.236 -12.606  1.00  0.00     0.125 A 
ATOM      9  C   UNL     1     -14.891 -29.006 -11.465  1.00  0.00     0.078 A 
ATOM     10  C   UNL     1     -13.993 -28.978 -10.394  1.00  0.00     0.223 A 
ENDROOT
BRANCH   1  11
ATOM     11  C   UNL     1     -11.824 -28.118  -9.417  1.00  0.00     0.091 A 
ATOM     12  C   UNL     1     -11.915 -29.005  -8.334  1.00  0.00     0.068 A 
ATOM     13  C   UNL     1     -10.990 -28.950  -7.286  1.00  0.00     0.162 A 
ATOM     14  C   UNL     1     -10.811 -27.144  -9.420  1.00  0.00     0.068 A 
ATOM     15  C   UNL     1      -9.965 -27.989  -7.304  1.00  0.00     0.200 A 
ATOM     16  C   UNL     1      -9.880 -27.081  -8.373  1.00  0.00     0.162 A 
BRANCH  13  17
ATOM     17  O   UNL     1     -11.106 -29.860  -6.236  1.00  0.00    -0.504 OA
ATOM     18  H   UNL     1     -10.602 -30.739  -6.224  1.00  0.00     0.293 HD
ENDBRANCH  13  17
BRANCH  15  19
ATOM     19  O   UNL     1      -9.044 -27.943  -6.256  1.00  0.00    -0.502 OA
ATOM     20  H   UNL     1      -8.085 -28.251  -6.367  1.00  0.00     0.293 HD
ENDBRANCH  15  19
BRANCH  16  21
ATOM     21  O   UNL     1      -8.875 -26.116  -8.391  1.00  0.00    -0.504 OA
ATOM     22  H   UNL     1      -8.224 -26.039  -9.164  1.00  0.00     0.293 HD
ENDBRANCH  16  21
ENDBRANCH   1  11
BRANCH  10  23
ATOM     23  O   UNL     1     -14.266 -29.703  -9.233  1.00  0.00    -0.500 OA
ATOM     24  H   UNL     1     -13.611 -30.381  -8.863  1.00  0.00     0.294 HD
ENDBRANCH  10  23
BRANCH   5  25
ATOM     25  O   UNL     1     -13.743 -25.852 -15.948  1.00  0.00    -0.507 OA
ATOM     26  H   UNL     1     -12.889 -25.986 -16.477  1.00  0.00     0.293 HD
ENDBRANCH   5  25
BRANCH   7  27
ATOM     27  O   UNL     1     -16.674 -28.993 -13.698  1.00  0.00    -0.507 OA
ATOM     28  H   UNL     1     -16.654 -29.983 -13.480  1.00  0.00     0.293 HD
ENDBRANCH   7  27
TORSDOF 7
ENDMDL
MODEL 6
REMARK VINA RESULT:    -6.535      4.668      7.602
REMARK INTER + INTRA:          -7.978
REMARK INTER:                  -7.687
REMARK INTRA:                  -0.291
REMARK UNBOUND:                 0.085
REMARK SMILES Oc1cc(O)c2cc(O)c(-c3cc(O)c(O)c(O)c3)[o+]c2c1
REMARK SMILES IDX 10 1 20 2 21 3 22 4 2 5 3 6 4 7 6 8 7 9 8 10 11 11 12 12
REMARK SMILES IDX 13 13 19 14 15 15 17 16 14 17 16 19 18 21 9 23 1 25 5 27
REMARK H PARENT 14 18 16 20 18 22 9 24 1 26 5 28
REMARK Flexibility Score: inf
ROOT
ATOM      1  C   UNL     1     -14.997 -31.864 -13.294  1.00  0.00     0.402 A 
ATOM      2  O   UNL     1     -14.700 -30.872 -14.131  1.00  0.00    -0.202 OA
ATOM      3  C   UNL     1     -14.620 -29.600 -13.753  1.00  0.00     0.368 A 
ATOM      4  C   UNL     1     -14.307 -28.615 -14.696  1.00  0.00     0.162 A 
ATOM      5  C   UNL     1     -14.222 -27.273 -14.312  1.00  0.00     0.128 A 
ATOM      6  C   UNL     1     -14.450 -26.912 -12.977  1.00  0.00     0.093 A 
ATOM      7  C   UNL     1     -14.764 -27.889 -12.019  1.00  0.00     0.136 A 
ATOM      8  C   UNL     1     -14.849 -29.239 -12.407  1.00  0.00     0.125 A 
ATOM      9  C   UNL     1     -15.151 -30.257 -11.495  1.00  0.00     0.078 A 
ATOM     10  C   UNL     1     -15.216 -31.584 -11.930  1.00  0.00     0.223 A 
ENDROOT
BRANCH   1  11
ATOM     11  C   UNL     1     -15.066 -33.240 -13.835  1.00  0.00     0.091 A 
ATOM     12  C   UNL     1     -13.905 -33.841 -14.342  1.00  0.00     0.068 A 
ATOM     13  C   UNL     1     -13.944 -35.132 -14.878  1.00  0.00     0.162 A 
ATOM     14  C   UNL     1     -16.284 -33.939 -13.906  1.00  0.00     0.068 A 
ATOM     15  C   UNL     1     -15.159 -35.835 -14.927  1.00  0.00     0.200 A 
ATOM     16  C   UNL     1     -16.333 -35.232 -14.443  1.00  0.00     0.162 A 
BRANCH  13  17
ATOM     17  O   UNL     1     -12.764 -35.700 -15.358  1.00  0.00    -0.504 OA
ATOM     18  H   UNL     1     -12.678 -36.044 -16.307  1.00  0.00     0.293 HD
ENDBRANCH  13  17
BRANCH  15  19
ATOM     19  O   UNL     1     -15.189 -37.125 -15.461  1.00  0.00    -0.502 OA
ATOM     20  H   UNL     1     -15.789 -37.850 -15.085  1.00  0.00     0.293 HD
ENDBRANCH  15  19
BRANCH  16  21
ATOM     21  O   UNL     1     -17.545 -35.918 -14.501  1.00  0.00    -0.504 OA
ATOM     22  H   UNL     1     -17.598 -36.878 -14.823  1.00  0.00     0.293 HD
ENDBRANCH  16  21
ENDBRANCH   1  11
BRANCH  10  23
ATOM     23  O   UNL     1     -15.466 -32.607 -11.015  1.00  0.00    -0.500 OA
ATOM     24  H   UNL     1     -15.569 -32.422 -10.025  1.00  0.00     0.294 HD
ENDBRANCH  10  23
BRANCH   5  25
ATOM     25  O   UNL     1     -13.910 -26.306 -15.265  1.00  0.00    -0.507 OA
ATOM     26  H   UNL     1     -14.577 -26.029 -15.976  1.00  0.00     0.293 HD
ENDBRANCH   5  25
BRANCH   7  27
ATOM     27  O   UNL     1     -14.988 -27.517 -10.694  1.00  0.00    -0.507 OA
ATOM     28  H   UNL     1     -14.360 -26.891 -10.204  1.00  0.00     0.293 HD
ENDBRANCH   7  27
TORSDOF 7
ENDMDL
MODEL 7
REMARK VINA RESULT:    -6.532      1.884      7.474
REMARK INTER + INTRA:          -7.974
REMARK INTER:                  -7.855
REMARK INTRA:                  -0.119
REMARK UNBOUND:                 0.085
REMARK SMILES Oc1cc(O)c2cc(O)c(-c3cc(O)c(O)c(O)c3)[o+]c2c1
REMARK SMILES IDX 10 1 20 2 21 3 22 4 2 5 3 6 4 7 6 8 7 9 8 10 11 11 12 12
REMARK SMILES IDX 13 13 19 14 15 15 17 16 14 17 16 19 18 21 9 23 1 25 5 27
REMARK H PARENT 14 18 16 20 18 22 9 24 1 26 5 28
REMARK Flexibility Score: inf
ROOT
ATOM      1  C   UNL     1     -12.920 -28.649 -10.364  1.00  0.00     0.402 A 
ATOM      2  O   UNL     1     -12.496 -27.886 -11.370  1.00  0.00    -0.202 OA
ATOM      3  C   UNL     1     -13.250 -27.583 -12.422  1.00  0.00     0.368 A 
ATOM      4  C   UNL     1     -12.729 -26.779 -13.440  1.00  0.00     0.162 A 
ATOM      5  C   UNL     1     -13.511 -26.454 -14.553  1.00  0.00     0.128 A 
ATOM      6  C   UNL     1     -14.823 -26.937 -14.650  1.00  0.00     0.093 A 
ATOM      7  C   UNL     1     -15.361 -27.745 -13.636  1.00  0.00     0.136 A 
ATOM      8  C   UNL     1     -14.573 -28.070 -12.516  1.00  0.00     0.125 A 
ATOM      9  C   UNL     1     -15.058 -28.864 -11.471  1.00  0.00     0.078 A 
ATOM     10  C   UNL     1     -14.237 -29.152 -10.377  1.00  0.00     0.223 A 
ENDROOT
BRANCH   1  11
ATOM     11  C   UNL     1     -11.984 -28.925  -9.251  1.00  0.00     0.091 A 
ATOM     12  C   UNL     1     -11.286 -27.862  -8.658  1.00  0.00     0.068 A 
ATOM     13  C   UNL     1     -10.380 -28.094  -7.618  1.00  0.00     0.162 A 
ATOM     14  C   UNL     1     -11.734 -30.236  -8.812  1.00  0.00     0.068 A 
ATOM     15  C   UNL     1     -10.149 -29.405  -7.168  1.00  0.00     0.200 A 
ATOM     16  C   UNL     1     -10.826 -30.479  -7.772  1.00  0.00     0.162 A 
BRANCH  13  17
ATOM     17  O   UNL     1      -9.718 -27.009  -7.045  1.00  0.00    -0.504 OA
ATOM     18  H   UNL     1     -10.214 -26.204  -6.680  1.00  0.00     0.293 HD
ENDBRANCH  13  17
BRANCH  15  19
ATOM     19  O   UNL     1      -9.246 -29.628  -6.127  1.00  0.00    -0.502 OA
ATOM     20  H   UNL     1      -9.445 -29.352  -5.173  1.00  0.00     0.293 HD
ENDBRANCH  15  19
BRANCH  16  21
ATOM     21  O   UNL     1     -10.592 -31.783  -7.340  1.00  0.00    -0.504 OA
ATOM     22  H   UNL     1      -9.664 -32.191  -7.359  1.00  0.00     0.293 HD
ENDBRANCH  16  21
ENDBRANCH   1  11
BRANCH  10  23
ATOM     23  O   UNL     1     -14.732 -29.901  -9.309  1.00  0.00    -0.500 OA
ATOM     24  H   UNL     1     -15.704 -30.182  -9.263  1.00  0.00     0.294 HD
ENDBRANCH  10  23
BRANCH   5  25
ATOM     25  O   UNL     1     -12.974 -25.653 -15.558  1.00  0.00    -0.507 OA
ATOM     26  H   UNL     1     -13.558 -25.246 -16.279  1.00  0.00     0.293 HD
ENDBRANCH   5  25
BRANCH   7  27
ATOM     27  O   UNL     1     -16.668 -28.217 -13.743  1.00  0.00    -0.507 OA
ATOM     28  H   UNL     1     -17.113 -28.353 -14.643  1.00  0.00     0.293 HD
ENDBRANCH   7  27
TORSDOF 7
ENDMDL
MODEL 8
REMARK VINA RESULT:    -6.394      2.089      6.605
REMARK INTER + INTRA:          -7.804
REMARK INTER:                  -7.882
REMARK INTRA:                   0.078
REMARK UNBOUND:                 0.085
REMARK SMILES Oc1cc(O)c2cc(O)c(-c3cc(O)c(O)c(O)c3)[o+]c2c1
REMARK SMILES IDX 10 1 20 2 21 3 22 4 2 5 3 6 4 7 6 8 7 9 8 10 11 11 12 12
REMARK SMILES IDX 13 13 19 14 15 15 17 16 14 17 16 19 18 21 9 23 1 25 5 27
REMARK H PARENT 14 18 16 20 18 22 9 24 1 26 5 28
REMARK Flexibility Score: inf
ROOT
ATOM      1  C   UNL     1     -13.379 -29.166 -10.394  1.00  0.00     0.402 A 
ATOM      2  O   UNL     1     -13.442 -30.451 -10.737  1.00  0.00    -0.202 OA
ATOM      3  C   UNL     1     -14.317 -30.927 -11.617  1.00  0.00     0.368 A 
ATOM      4  C   UNL     1     -14.322 -32.292 -11.920  1.00  0.00     0.162 A 
ATOM      5  C   UNL     1     -15.239 -32.806 -12.842  1.00  0.00     0.128 A 
ATOM      6  C   UNL     1     -16.157 -31.951 -13.467  1.00  0.00     0.093 A 
ATOM      7  C   UNL     1     -16.164 -30.579 -13.174  1.00  0.00     0.136 A 
ATOM      8  C   UNL     1     -15.240 -30.063 -12.246  1.00  0.00     0.125 A 
ATOM      9  C   UNL     1     -15.195 -28.702 -11.921  1.00  0.00     0.078 A 
ATOM     10  C   UNL     1     -14.253 -28.239 -10.997  1.00  0.00     0.223 A 
ENDROOT
BRANCH   1  11
ATOM     11  C   UNL     1     -12.367 -28.756  -9.394  1.00  0.00     0.091 A 
ATOM     12  C   UNL     1     -11.609 -27.597  -9.615  1.00  0.00     0.068 A 
ATOM     13  C   UNL     1     -10.632 -27.196  -8.698  1.00  0.00     0.162 A 
ATOM     14  C   UNL     1     -12.106 -29.537  -8.254  1.00  0.00     0.068 A 
ATOM     15  C   UNL     1     -10.389 -27.968  -7.549  1.00  0.00     0.200 A 
ATOM     16  C   UNL     1     -11.127 -29.145  -7.331  1.00  0.00     0.162 A 
BRANCH  13  17
ATOM     17  O   UNL     1      -9.911 -26.029  -8.946  1.00  0.00    -0.504 OA
ATOM     18  H   UNL     1     -10.129 -25.415  -9.723  1.00  0.00     0.293 HD
ENDBRANCH  13  17
BRANCH  15  19
ATOM     19  O   UNL     1      -9.414 -27.560  -6.637  1.00  0.00    -0.502 OA
ATOM     20  H   UNL     1      -9.624 -27.401  -5.659  1.00  0.00     0.293 HD
ENDBRANCH  15  19
BRANCH  16  21
ATOM     21  O   UNL     1     -10.882 -29.922  -6.201  1.00  0.00    -0.504 OA
ATOM     22  H   UNL     1     -11.620 -30.157  -5.546  1.00  0.00     0.293 HD
ENDBRANCH  16  21
ENDBRANCH   1  11
BRANCH  10  23
ATOM     23  O   UNL     1     -14.170 -26.876 -10.707  1.00  0.00    -0.500 OA
ATOM     24  H   UNL     1     -13.500 -26.515 -10.039  1.00  0.00     0.294 HD
ENDBRANCH  10  23
BRANCH   5  25
ATOM     25  O   UNL     1     -15.230 -34.169 -13.131  1.00  0.00    -0.507 OA
ATOM     26  H   UNL     1     -16.090 -34.698 -13.216  1.00  0.00     0.293 HD
ENDBRANCH   5  25
BRANCH   7  27
ATOM     27  O   UNL     1     -17.080 -29.737 -13.803  1.00  0.00    -0.507 OA
ATOM     28  H   UNL     1     -17.543 -30.004 -14.664  1.00  0.00     0.293 HD
ENDBRANCH   7  27
TORSDOF 7
ENDMDL
MODEL 9
REMARK VINA RESULT:    -6.364      1.815      3.071
REMARK INTER + INTRA:          -7.767
REMARK INTER:                  -8.064
REMARK INTRA:                   0.297
REMARK UNBOUND:                 0.085
REMARK SMILES Oc1cc(O)c2cc(O)c(-c3cc(O)c(O)c(O)c3)[o+]c2c1
REMARK SMILES IDX 10 1 20 2 21 3 22 4 2 5 3 6 4 7 6 8 7 9 8 10 11 11 12 12
REMARK SMILES IDX 13 13 19 14 15 15 17 16 14 17 16 19 18 21 9 23 1 25 5 27
REMARK H PARENT 14 18 16 20 18 22 9 24 1 26 5 28
REMARK Flexibility Score: inf
ROOT
ATOM      1  C   UNL     1     -13.607 -29.308 -10.358  1.00  0.00     0.402 A 
ATOM      2  O   UNL     1     -12.642 -29.951  -9.703  1.00  0.00    -0.202 OA
ATOM      3  C   UNL     1     -11.821 -29.354  -8.845  1.00  0.00     0.368 A 
ATOM      4  C   UNL     1     -10.829 -30.100  -8.201  1.00  0.00     0.162 A 
ATOM      5  C   UNL     1      -9.957 -29.483  -7.299  1.00  0.00     0.128 A 
ATOM      6  C   UNL     1     -10.077 -28.112  -7.037  1.00  0.00     0.093 A 
ATOM      7  C   UNL     1     -11.067 -27.349  -7.674  1.00  0.00     0.136 A 
ATOM      8  C   UNL     1     -11.945 -27.972  -8.583  1.00  0.00     0.125 A 
ATOM      9  C   UNL     1     -12.956 -27.264  -9.242  1.00  0.00     0.078 A 
ATOM     10  C   UNL     1     -13.806 -27.930 -10.130  1.00  0.00     0.223 A 
ENDROOT
BRANCH   1  11
ATOM     11  C   UNL     1     -14.453 -30.080 -11.295  1.00  0.00     0.091 A 
ATOM     12  C   UNL     1     -14.425 -31.482 -11.254  1.00  0.00     0.068 A 
ATOM     13  C   UNL     1     -15.199 -32.238 -12.141  1.00  0.00     0.162 A 
ATOM     14  C   UNL     1     -15.241 -29.440 -12.268  1.00  0.00     0.068 A 
ATOM     15  C   UNL     1     -16.002 -31.593 -13.098  1.00  0.00     0.200 A 
ATOM     16  C   UNL     1     -16.017 -30.189 -13.162  1.00  0.00     0.162 A 
BRANCH  13  17
ATOM     17  O   UNL     1     -15.155 -33.629 -12.058  1.00  0.00    -0.504 OA
ATOM     18  H   UNL     1     -15.811 -34.221 -12.554  1.00  0.00     0.293 HD
ENDBRANCH  13  17
BRANCH  15  19
ATOM     19  O   UNL     1     -16.772 -32.355 -13.977  1.00  0.00    -0.502 OA
ATOM     20  H   UNL     1     -17.768 -32.491 -13.843  1.00  0.00     0.293 HD
ENDBRANCH  15  19
BRANCH  16  21
ATOM     21  O   UNL     1     -16.800 -29.543 -14.117  1.00  0.00    -0.504 OA
ATOM     22  H   UNL     1     -17.795 -29.403 -13.983  1.00  0.00     0.293 HD
ENDBRANCH  16  21
ENDBRANCH   1  11
BRANCH  10  23
ATOM     23  O   UNL     1     -14.848 -27.241 -10.750  1.00  0.00    -0.500 OA
ATOM     24  H   UNL     1     -15.717 -27.701 -10.996  1.00  0.00     0.294 HD
ENDBRANCH  10  23
BRANCH   5  25
ATOM     25  O   UNL     1      -8.974 -30.243  -6.667  1.00  0.00    -0.507 OA
ATOM     26  H   UNL     1      -8.020 -29.911  -6.585  1.00  0.00     0.293 HD
ENDBRANCH   5  25
BRANCH   7  27
ATOM     27  O   UNL     1     -11.178 -25.986  -7.405  1.00  0.00    -0.507 OA
ATOM     28  H   UNL     1     -10.406 -25.456  -7.018  1.00  0.00     0.293 HD
ENDBRANCH   7  27
TORSDOF 7
ENDMDL
