MODEL 1
REMARK VINA RESULT:    -5.948      0.000      0.000
REMARK INTER + INTRA:          -7.285
REMARK INTER:                  -6.991
REMARK INTRA:                  -0.295
REMARK UNBOUND:                -0.295
REMARK SMILES O=c1cc(-c2ccc(O)c(O)c2)oc2cc(O)cc(O)c12
REMARK SMILES IDX 4 1 3 2 2 3 1 4 21 5 19 6 18 7 16 8 15 9 14 10 13 11 5 12
REMARK SMILES IDX 6 13 7 14 8 15 12 16 10 17 9 18 11 20 20 22 17 24
REMARK H PARENT 9 19 11 21 20 23 17 25
REMARK Flexibility Score: inf
ROOT
ATOM      1  C   UNL     1     -17.738  24.830  42.942  1.00  0.00     0.138 A 
ATOM      2  C   UNL     1     -17.943  23.461  43.165  1.00  0.00     0.100 A 
ATOM      3  C   UNL     1     -16.850  22.595  43.190  1.00  0.00     0.197 A 
ATOM      4  O   UNL     1     -17.071  21.364  43.331  1.00  0.00    -0.289 OA
ATOM      5  C   UNL     1     -15.542  23.108  43.023  1.00  0.00     0.107 A 
ATOM      6  C   UNL     1     -14.350  22.325  43.072  1.00  0.00     0.134 A 
ATOM      7  C   UNL     1     -13.119  22.924  42.776  1.00  0.00     0.093 A 
ATOM      8  C   UNL     1     -13.031  24.289  42.493  1.00  0.00     0.123 A 
ATOM      9  C   UNL     1     -14.182  25.073  42.496  1.00  0.00     0.094 A 
ATOM     10  C   UNL     1     -15.430  24.498  42.753  1.00  0.00     0.146 A 
ATOM     11  O   UNL     1     -16.505  25.278  42.732  1.00  0.00    -0.456 OA
ENDROOT
BRANCH   1  12
ATOM     12  C   UNL     1     -18.866  25.796  42.904  1.00  0.00     0.021 A 
ATOM     13  C   UNL     1     -18.679  27.135  42.514  1.00  0.00     0.016 A 
ATOM     14  C   UNL     1     -19.760  28.020  42.478  1.00  0.00     0.051 A 
ATOM     15  C   UNL     1     -21.046  27.582  42.821  1.00  0.00     0.157 A 
ATOM     16  C   UNL     1     -20.162  25.360  43.235  1.00  0.00     0.062 A 
ATOM     17  C   UNL     1     -21.247  26.244  43.200  1.00  0.00     0.158 A 
BRANCH  15  18
ATOM     18  O   UNL     1     -22.122  28.468  42.785  1.00  0.00    -0.504 OA
ATOM     19  H   UNL     1     -22.636  28.643  41.929  1.00  0.00     0.293 HD
ENDBRANCH  15  18
BRANCH  17  20
ATOM     20  O   UNL     1     -22.513  25.775  43.544  1.00  0.00    -0.504 OA
ATOM     21  H   UNL     1     -22.726  25.430  44.473  1.00  0.00     0.293 HD
ENDBRANCH  17  20
ENDBRANCH   1  12
BRANCH   6  22
ATOM     22  O   UNL     1     -14.317  20.973  43.426  1.00  0.00    -0.507 OA
ATOM     23  H   UNL     1     -14.657  20.598  44.298  1.00  0.00     0.293 HD
ENDBRANCH   6  22
BRANCH   8  24
ATOM     24  O   UNL     1     -11.799  24.879  42.215  1.00  0.00    -0.508 OA
ATOM     25  H   UNL     1     -11.514  25.744  42.658  1.00  0.00     0.293 HD
ENDBRANCH   8  24
TORSDOF 5
ENDMDL
MODEL 2
REMARK VINA RESULT:    -5.900      1.563      2.321
REMARK INTER + INTRA:          -7.230
REMARK INTER:                  -6.924
REMARK INTRA:                  -0.306
REMARK UNBOUND:                -0.295
REMARK SMILES O=c1cc(-c2ccc(O)c(O)c2)oc2cc(O)cc(O)c12
REMARK SMILES IDX 4 1 3 2 2 3 1 4 21 5 19 6 18 7 16 8 15 9 14 10 13 11 5 12
REMARK SMILES IDX 6 13 7 14 8 15 12 16 10 17 9 18 11 20 20 22 17 24
REMARK H PARENT 9 19 11 21 20 23 17 25
REMARK Flexibility Score: inf
ROOT
ATOM      1  C   UNL     1     -18.561  23.464  44.077  1.00  0.00     0.138 A 
ATOM      2  C   UNL     1     -18.270  22.127  44.382  1.00  0.00     0.100 A 
ATOM      3  C   UNL     1     -17.007  21.612  44.088  1.00  0.00     0.197 A 
ATOM      4  O   UNL     1     -16.796  20.392  44.317  1.00  0.00    -0.289 OA
ATOM      5  C   UNL     1     -16.021  22.449  43.514  1.00  0.00     0.107 A 
ATOM      6  C   UNL     1     -14.688  22.043  43.210  1.00  0.00     0.134 A 
ATOM      7  C   UNL     1     -13.835  22.927  42.536  1.00  0.00     0.093 A 
ATOM      8  C   UNL     1     -14.249  24.220  42.210  1.00  0.00     0.123 A 
ATOM      9  C   UNL     1     -15.531  24.644  42.551  1.00  0.00     0.094 A 
ATOM     10  C   UNL     1     -16.417  23.775  43.193  1.00  0.00     0.146 A 
ATOM     11  O   UNL     1     -17.636  24.214  43.487  1.00  0.00    -0.456 OA
ENDROOT
BRANCH   1  12
ATOM     12  C   UNL     1     -19.888  24.063  44.369  1.00  0.00     0.021 A 
ATOM     13  C   UNL     1     -20.657  23.655  45.475  1.00  0.00     0.016 A 
ATOM     14  C   UNL     1     -21.898  24.244  45.731  1.00  0.00     0.051 A 
ATOM     15  C   UNL     1     -22.389  25.255  44.895  1.00  0.00     0.157 A 
ATOM     16  C   UNL     1     -20.381  25.088  43.541  1.00  0.00     0.062 A 
ATOM     17  C   UNL     1     -21.624  25.680  43.795  1.00  0.00     0.158 A 
BRANCH  15  18
ATOM     18  O   UNL     1     -23.628  25.839  45.154  1.00  0.00    -0.504 OA
ATOM     19  H   UNL     1     -24.237  25.490  45.885  1.00  0.00     0.293 HD
ENDBRANCH  15  18
BRANCH  17  20
ATOM     20  O   UNL     1     -22.082  26.686  42.946  1.00  0.00    -0.504 OA
ATOM     21  H   UNL     1     -21.448  27.280  42.424  1.00  0.00     0.293 HD
ENDBRANCH  17  20
ENDBRANCH   1  12
BRANCH   6  22
ATOM     22  O   UNL     1     -14.147  20.804  43.567  1.00  0.00    -0.507 OA
ATOM     23  H   UNL     1     -14.366  19.929  43.116  1.00  0.00     0.293 HD
ENDBRANCH   6  22
BRANCH   8  24
ATOM     24  O   UNL     1     -13.388  25.097  41.553  1.00  0.00    -0.508 OA
ATOM     25  H   UNL     1     -12.471  25.317  41.923  1.00  0.00     0.293 HD
ENDBRANCH   8  24
TORSDOF 5
ENDMDL
MODEL 3
REMARK VINA RESULT:    -5.639      2.801      4.743
REMARK INTER + INTRA:          -6.923
REMARK INTER:                  -6.644
REMARK INTRA:                  -0.279
REMARK UNBOUND:                -0.295
REMARK SMILES O=c1cc(-c2ccc(O)c(O)c2)oc2cc(O)cc(O)c12
REMARK SMILES IDX 4 1 3 2 2 3 1 4 21 5 19 6 18 7 16 8 15 9 14 10 13 11 5 12
REMARK SMILES IDX 6 13 7 14 8 15 12 16 10 17 9 18 11 20 20 22 17 24
REMARK H PARENT 9 19 11 21 20 23 17 25
REMARK Flexibility Score: inf
ROOT
ATOM      1  C   UNL     1     -21.062  24.694  44.402  1.00  0.00     0.138 A 
ATOM      2  C   UNL     1     -20.467  25.520  43.438  1.00  0.00     0.100 A 
ATOM      3  C   UNL     1     -19.243  25.155  42.877  1.00  0.00     0.197 A 
ATOM      4  O   UNL     1     -18.705  25.947  42.061  1.00  0.00    -0.289 OA
ATOM      5  C   UNL     1     -18.627  23.940  43.261  1.00  0.00     0.107 A 
ATOM      6  C   UNL     1     -17.400  23.447  42.726  1.00  0.00     0.134 A 
ATOM      7  C   UNL     1     -16.828  22.289  43.267  1.00  0.00     0.093 A 
ATOM      8  C   UNL     1     -17.469  21.574  44.282  1.00  0.00     0.123 A 
ATOM      9  C   UNL     1     -18.694  22.018  44.774  1.00  0.00     0.094 A 
ATOM     10  C   UNL     1     -19.274  23.189  44.279  1.00  0.00     0.146 A 
ATOM     11  O   UNL     1     -20.436  23.586  44.786  1.00  0.00    -0.456 OA
ENDROOT
BRANCH   1  12
ATOM     12  C   UNL     1     -22.364  25.034  45.031  1.00  0.00     0.021 A 
ATOM     13  C   UNL     1     -22.555  26.243  45.726  1.00  0.00     0.016 A 
ATOM     14  C   UNL     1     -23.794  26.542  46.298  1.00  0.00     0.051 A 
ATOM     15  C   UNL     1     -24.864  25.646  46.181  1.00  0.00     0.157 A 
ATOM     16  C   UNL     1     -23.446  24.145  44.905  1.00  0.00     0.062 A 
ATOM     17  C   UNL     1     -24.688  24.442  45.478  1.00  0.00     0.158 A 
BRANCH  15  18
ATOM     18  O   UNL     1     -26.098  25.947  46.755  1.00  0.00    -0.504 OA
ATOM     19  H   UNL     1     -26.224  26.761  47.346  1.00  0.00     0.293 HD
ENDBRANCH  15  18
BRANCH  17  20
ATOM     20  O   UNL     1     -25.734  23.530  45.339  1.00  0.00    -0.504 OA
ATOM     21  H   UNL     1     -25.864  22.985  44.495  1.00  0.00     0.293 HD
ENDBRANCH  17  20
ENDBRANCH   1  12
BRANCH   6  22
ATOM     22  O   UNL     1     -16.721  24.037  41.656  1.00  0.00    -0.507 OA
ATOM     23  H   UNL     1     -15.796  24.435  41.709  1.00  0.00     0.293 HD
ENDBRANCH   6  22
BRANCH   8  24
ATOM     24  O   UNL     1     -16.899  20.414  44.804  1.00  0.00    -0.508 OA
ATOM     25  H   UNL     1     -17.461  19.712  45.271  1.00  0.00     0.293 HD
ENDBRANCH   8  24
TORSDOF 5
ENDMDL
MODEL 4
REMARK VINA RESULT:    -5.627      2.790      6.901
REMARK INTER + INTRA:          -6.909
REMARK INTER:                  -6.592
REMARK INTRA:                  -0.317
REMARK UNBOUND:                -0.295
REMARK SMILES O=c1cc(-c2ccc(O)c(O)c2)oc2cc(O)cc(O)c12
REMARK SMILES IDX 4 1 3 2 2 3 1 4 21 5 19 6 18 7 16 8 15 9 14 10 13 11 5 12
REMARK SMILES IDX 6 13 7 14 8 15 12 16 10 17 9 18 11 20 20 22 17 24
REMARK H PARENT 9 19 11 21 20 23 17 25
REMARK Flexibility Score: inf
ROOT
ATOM      1  C   UNL     1     -19.354  23.653  44.411  1.00  0.00     0.138 A 
ATOM      2  C   UNL     1     -20.587  24.084  44.920  1.00  0.00     0.100 A 
ATOM      3  C   UNL     1     -21.098  25.322  44.531  1.00  0.00     0.197 A 
ATOM      4  O   UNL     1     -22.177  25.708  45.053  1.00  0.00    -0.289 OA
ATOM      5  C   UNL     1     -20.386  26.119  43.604  1.00  0.00     0.107 A 
ATOM      6  C   UNL     1     -20.830  27.379  43.105  1.00  0.00     0.134 A 
ATOM      7  C   UNL     1     -19.985  28.131  42.280  1.00  0.00     0.093 A 
ATOM      8  C   UNL     1     -18.738  27.641  41.887  1.00  0.00     0.123 A 
ATOM      9  C   UNL     1     -18.317  26.387  42.326  1.00  0.00     0.094 A 
ATOM     10  C   UNL     1     -19.123  25.628  43.178  1.00  0.00     0.146 A 
ATOM     11  O   UNL     1     -18.678  24.444  43.585  1.00  0.00    -0.456 OA
ENDROOT
BRANCH   1  12
ATOM     12  C   UNL     1     -18.764  22.344  44.791  1.00  0.00     0.021 A 
ATOM     13  C   UNL     1     -19.501  21.379  45.502  1.00  0.00     0.016 A 
ATOM     14  C   UNL     1     -18.924  20.151  45.837  1.00  0.00     0.051 A 
ATOM     15  C   UNL     1     -17.606  19.862  45.461  1.00  0.00     0.157 A 
ATOM     16  C   UNL     1     -17.446  22.041  44.405  1.00  0.00     0.062 A 
ATOM     17  C   UNL     1     -16.864  20.812  44.740  1.00  0.00     0.158 A 
BRANCH  15  18
ATOM     18  O   UNL     1     -17.033  18.637  45.798  1.00  0.00    -0.504 OA
ATOM     19  H   UNL     1     -16.569  18.060  45.105  1.00  0.00     0.293 HD
ENDBRANCH  15  18
BRANCH  17  20
ATOM     20  O   UNL     1     -15.552  20.555  44.347  1.00  0.00    -0.504 OA
ATOM     21  H   UNL     1     -14.774  21.125  44.661  1.00  0.00     0.293 HD
ENDBRANCH  17  20
ENDBRANCH   1  12
BRANCH   6  22
ATOM     22  O   UNL     1     -22.092  27.922  43.367  1.00  0.00    -0.507 OA
ATOM     23  H   UNL     1     -22.762  28.189  42.663  1.00  0.00     0.293 HD
ENDBRANCH   6  22
BRANCH   8  24
ATOM     24  O   UNL     1     -17.910  28.389  41.053  1.00  0.00    -0.508 OA
ATOM     25  H   UNL     1     -17.356  29.159  41.408  1.00  0.00     0.293 HD
ENDBRANCH   8  24
TORSDOF 5
ENDMDL
MODEL 5
REMARK VINA RESULT:    -5.625      4.380      7.097
REMARK INTER + INTRA:          -6.906
REMARK INTER:                  -6.595
REMARK INTRA:                  -0.311
REMARK UNBOUND:                -0.295
REMARK SMILES O=c1cc(-c2ccc(O)c(O)c2)oc2cc(O)cc(O)c12
REMARK SMILES IDX 4 1 3 2 2 3 1 4 21 5 19 6 18 7 16 8 15 9 14 10 13 11 5 12
REMARK SMILES IDX 6 13 7 14 8 15 12 16 10 17 9 18 11 20 20 22 17 24
REMARK H PARENT 9 19 11 21 20 23 17 25
REMARK Flexibility Score: inf
ROOT
ATOM      1  C   UNL     1     -21.206  26.122  43.692  1.00  0.00     0.138 A 
ATOM      2  C   UNL     1     -19.822  26.090  43.474  1.00  0.00     0.100 A 
ATOM      3  C   UNL     1     -19.202  27.155  42.822  1.00  0.00     0.197 A 
ATOM      4  O   UNL     1     -17.968  27.069  42.586  1.00  0.00    -0.289 OA
ATOM      5  C   UNL     1     -19.967  28.272  42.412  1.00  0.00     0.107 A 
ATOM      6  C   UNL     1     -19.435  29.433  41.775  1.00  0.00     0.134 A 
ATOM      7  C   UNL     1     -20.308  30.425  41.311  1.00  0.00     0.093 A 
ATOM      8  C   UNL     1     -21.686  30.327  41.515  1.00  0.00     0.123 A 
ATOM      9  C   UNL     1     -22.210  29.223  42.183  1.00  0.00     0.094 A 
ATOM     10  C   UNL     1     -21.370  28.200  42.629  1.00  0.00     0.146 A 
ATOM     11  O   UNL     1     -21.911  27.157  43.249  1.00  0.00    -0.456 OA
ENDROOT
BRANCH   1  12
ATOM     12  C   UNL     1     -21.917  25.015  44.382  1.00  0.00     0.021 A 
ATOM     13  C   UNL     1     -21.254  24.154  45.276  1.00  0.00     0.016 A 
ATOM     14  C   UNL     1     -21.950  23.128  45.920  1.00  0.00     0.051 A 
ATOM     15  C   UNL     1     -23.320  22.948  45.689  1.00  0.00     0.157 A 
ATOM     16  C   UNL     1     -23.295  24.837  44.166  1.00  0.00     0.062 A 
ATOM     17  C   UNL     1     -23.996  23.810  44.809  1.00  0.00     0.158 A 
BRANCH  15  18
ATOM     18  O   UNL     1     -24.011  21.922  46.332  1.00  0.00    -0.504 OA
ATOM     19  H   UNL     1     -23.896  21.745  47.324  1.00  0.00     0.293 HD
ENDBRANCH  15  18
BRANCH  17  20
ATOM     20  O   UNL     1     -25.359  23.661  44.560  1.00  0.00    -0.504 OA
ATOM     21  H   UNL     1     -25.891  22.878  44.924  1.00  0.00     0.293 HD
ENDBRANCH  17  20
ENDBRANCH   1  12
BRANCH   6  22
ATOM     22  O   UNL     1     -18.069  29.670  41.598  1.00  0.00    -0.507 OA
ATOM     23  H   UNL     1     -17.332  29.070  41.935  1.00  0.00     0.293 HD
ENDBRANCH   6  22
BRANCH   8  24
ATOM     24  O   UNL     1     -22.545  31.327  41.063  1.00  0.00    -0.508 OA
ATOM     25  H   UNL     1     -23.508  31.379  41.373  1.00  0.00     0.293 HD
ENDBRANCH   8  24
TORSDOF 5
ENDMDL
MODEL 6
REMARK VINA RESULT:    -5.566      1.296      3.041
REMARK INTER + INTRA:          -6.837
REMARK INTER:                  -6.555
REMARK INTRA:                  -0.282
REMARK UNBOUND:                -0.295
REMARK SMILES O=c1cc(-c2ccc(O)c(O)c2)oc2cc(O)cc(O)c12
REMARK SMILES IDX 4 1 3 2 2 3 1 4 21 5 19 6 18 7 16 8 15 9 14 10 13 11 5 12
REMARK SMILES IDX 6 13 7 14 8 15 12 16 10 17 9 18 11 20 20 22 17 24
REMARK H PARENT 9 19 11 21 20 23 17 25
REMARK Flexibility Score: inf
ROOT
ATOM      1  C   UNL     1     -17.835  24.850  43.543  1.00  0.00     0.138 A 
ATOM      2  C   UNL     1     -17.041  25.959  43.221  1.00  0.00     0.100 A 
ATOM      3  C   UNL     1     -15.680  25.784  42.973  1.00  0.00     0.197 A 
ATOM      4  O   UNL     1     -14.981  26.806  42.747  1.00  0.00    -0.289 OA
ATOM      5  C   UNL     1     -15.117  24.486  43.019  1.00  0.00     0.107 A 
ATOM      6  C   UNL     1     -13.750  24.183  42.744  1.00  0.00     0.134 A 
ATOM      7  C   UNL     1     -13.282  22.877  42.934  1.00  0.00     0.093 A 
ATOM      8  C   UNL     1     -14.144  21.852  43.330  1.00  0.00     0.123 A 
ATOM      9  C   UNL     1     -15.492  22.127  43.549  1.00  0.00     0.094 A 
ATOM     10  C   UNL     1     -15.983  23.427  43.401  1.00  0.00     0.146 A 
ATOM     11  O   UNL     1     -17.272  23.650  43.634  1.00  0.00    -0.456 OA
ENDROOT
BRANCH   1  12
ATOM     12  C   UNL     1     -19.290  24.980  43.815  1.00  0.00     0.021 A 
ATOM     13  C   UNL     1     -19.926  24.216  44.812  1.00  0.00     0.016 A 
ATOM     14  C   UNL     1     -21.294  24.367  45.054  1.00  0.00     0.051 A 
ATOM     15  C   UNL     1     -22.048  25.285  44.313  1.00  0.00     0.157 A 
ATOM     16  C   UNL     1     -20.050  25.910  43.085  1.00  0.00     0.062 A 
ATOM     17  C   UNL     1     -21.421  26.062  43.324  1.00  0.00     0.158 A 
BRANCH  15  18
ATOM     18  O   UNL     1     -23.413  25.431  44.557  1.00  0.00    -0.504 OA
ATOM     19  H   UNL     1     -23.858  25.001  45.359  1.00  0.00     0.293 HD
ENDBRANCH  15  18
BRANCH  17  20
ATOM     20  O   UNL     1     -22.142  26.988  42.572  1.00  0.00    -0.504 OA
ATOM     21  H   UNL     1     -21.985  27.113  41.578  1.00  0.00     0.293 HD
ENDBRANCH  17  20
ENDBRANCH   1  12
BRANCH   6  22
ATOM     22  O   UNL     1     -12.825  25.114  42.263  1.00  0.00    -0.507 OA
ATOM     23  H   UNL     1     -12.005  24.885  41.722  1.00  0.00     0.293 HD
ENDBRANCH   6  22
BRANCH   8  24
ATOM     24  O   UNL     1     -13.672  20.552  43.502  1.00  0.00    -0.508 OA
ATOM     25  H   UNL     1     -13.897  20.012  44.328  1.00  0.00     0.293 HD
ENDBRANCH   8  24
TORSDOF 5
ENDMDL
MODEL 7
REMARK VINA RESULT:    -5.547      2.054      7.635
REMARK INTER + INTRA:          -6.815
REMARK INTER:                  -6.520
REMARK INTRA:                  -0.295
REMARK UNBOUND:                -0.295
REMARK SMILES O=c1cc(-c2ccc(O)c(O)c2)oc2cc(O)cc(O)c12
REMARK SMILES IDX 4 1 3 2 2 3 1 4 21 5 19 6 18 7 16 8 15 9 14 10 13 11 5 12
REMARK SMILES IDX 6 13 7 14 8 15 12 16 10 17 9 18 11 20 20 22 17 24
REMARK H PARENT 9 19 11 21 20 23 17 25
REMARK Flexibility Score: inf
ROOT
ATOM      1  C   UNL     1     -18.214  23.684  43.759  1.00  0.00     0.138 A 
ATOM      2  C   UNL     1     -18.388  24.750  42.866  1.00  0.00     0.100 A 
ATOM      3  C   UNL     1     -19.563  25.501  42.909  1.00  0.00     0.197 A 
ATOM      4  O   UNL     1     -19.717  26.411  42.054  1.00  0.00    -0.289 OA
ATOM      5  C   UNL     1     -20.555  25.202  43.873  1.00  0.00     0.107 A 
ATOM      6  C   UNL     1     -21.773  25.927  44.037  1.00  0.00     0.134 A 
ATOM      7  C   UNL     1     -22.731  25.467  44.949  1.00  0.00     0.093 A 
ATOM      8  C   UNL     1     -22.489  24.345  45.745  1.00  0.00     0.123 A 
ATOM      9  C   UNL     1     -21.280  23.663  45.631  1.00  0.00     0.094 A 
ATOM     10  C   UNL     1     -20.318  24.076  44.706  1.00  0.00     0.146 A 
ATOM     11  O   UNL     1     -19.184  23.389  44.618  1.00  0.00    -0.456 OA
ENDROOT
BRANCH   1  12
ATOM     12  C   UNL     1     -16.984  22.852  43.757  1.00  0.00     0.021 A 
ATOM     13  C   UNL     1     -16.830  21.757  44.628  1.00  0.00     0.016 A 
ATOM     14  C   UNL     1     -15.667  20.984  44.597  1.00  0.00     0.051 A 
ATOM     15  C   UNL     1     -14.640  21.286  43.693  1.00  0.00     0.157 A 
ATOM     16  C   UNL     1     -15.955  23.140  42.843  1.00  0.00     0.062 A 
ATOM     17  C   UNL     1     -14.788  22.369  42.809  1.00  0.00     0.158 A 
BRANCH  15  18
ATOM     18  O   UNL     1     -13.480  20.514  43.665  1.00  0.00    -0.504 OA
ATOM     19  H   UNL     1     -13.275  19.891  42.892  1.00  0.00     0.293 HD
ENDBRANCH  15  18
BRANCH  17  20
ATOM     20  O   UNL     1     -13.787  22.693  41.894  1.00  0.00    -0.504 OA
ATOM     21  H   UNL     1     -12.980  22.098  41.746  1.00  0.00     0.293 HD
ENDBRANCH  17  20
ENDBRANCH   1  12
BRANCH   6  22
ATOM     22  O   UNL     1     -22.078  27.107  43.352  1.00  0.00    -0.507 OA
ATOM     23  H   UNL     1     -23.011  27.449  43.182  1.00  0.00     0.293 HD
ENDBRANCH   6  22
BRANCH   8  24
ATOM     24  O   UNL     1     -23.443  23.904  46.661  1.00  0.00    -0.508 OA
ATOM     25  H   UNL     1     -24.206  23.299  46.382  1.00  0.00     0.293 HD
ENDBRANCH   8  24
TORSDOF 5
ENDMDL
MODEL 8
REMARK VINA RESULT:    -5.524      1.560      6.972
REMARK INTER + INTRA:          -6.787
REMARK INTER:                  -6.475
REMARK INTRA:                  -0.312
REMARK UNBOUND:                -0.295
REMARK SMILES O=c1cc(-c2ccc(O)c(O)c2)oc2cc(O)cc(O)c12
REMARK SMILES IDX 4 1 3 2 2 3 1 4 21 5 19 6 18 7 16 8 15 9 14 10 13 11 5 12
REMARK SMILES IDX 6 13 7 14 8 15 12 16 10 17 9 18 11 20 20 22 17 24
REMARK H PARENT 9 19 11 21 20 23 17 25
REMARK Flexibility Score: inf
ROOT
ATOM      1  C   UNL     1     -18.508  25.249  42.950  1.00  0.00     0.138 A 
ATOM      2  C   UNL     1     -19.837  25.135  43.383  1.00  0.00     0.100 A 
ATOM      3  C   UNL     1     -20.706  26.216  43.235  1.00  0.00     0.197 A 
ATOM      4  O   UNL     1     -21.875  26.104  43.689  1.00  0.00    -0.289 OA
ATOM      5  C   UNL     1     -20.250  27.407  42.623  1.00  0.00     0.107 A 
ATOM      6  C   UNL     1     -21.058  28.558  42.382  1.00  0.00     0.134 A 
ATOM      7  C   UNL     1     -20.467  29.721  41.874  1.00  0.00     0.093 A 
ATOM      8  C   UNL     1     -19.111  29.756  41.541  1.00  0.00     0.123 A 
ATOM      9  C   UNL     1     -18.325  28.620  41.722  1.00  0.00     0.094 A 
ATOM     10  C   UNL     1     -18.878  27.454  42.259  1.00  0.00     0.146 A 
ATOM     11  O   UNL     1     -18.090  26.397  42.429  1.00  0.00    -0.456 OA
ENDROOT
BRANCH   1  12
ATOM     12  C   UNL     1     -17.541  24.130  43.083  1.00  0.00     0.021 A 
ATOM     13  C   UNL     1     -17.968  22.792  43.180  1.00  0.00     0.016 A 
ATOM     14  C   UNL     1     -17.036  21.758  43.293  1.00  0.00     0.051 A 
ATOM     15  C   UNL     1     -15.663  22.038  43.303  1.00  0.00     0.157 A 
ATOM     16  C   UNL     1     -16.162  24.403  43.080  1.00  0.00     0.062 A 
ATOM     17  C   UNL     1     -15.225  23.369  43.194  1.00  0.00     0.158 A 
BRANCH  15  18
ATOM     18  O   UNL     1     -14.736  21.004  43.418  1.00  0.00    -0.504 OA
ATOM     19  H   UNL     1     -13.758  21.140  43.187  1.00  0.00     0.293 HD
ENDBRANCH  15  18
BRANCH  17  20
ATOM     20  O   UNL     1     -13.867  23.683  43.197  1.00  0.00    -0.504 OA
ATOM     21  H   UNL     1     -13.373  23.928  44.048  1.00  0.00     0.293 HD
ENDBRANCH  17  20
ENDBRANCH   1  12
BRANCH   6  22
ATOM     22  O   UNL     1     -22.438  28.603  42.600  1.00  0.00    -0.507 OA
ATOM     23  H   UNL     1     -23.086  29.172  42.077  1.00  0.00     0.293 HD
ENDBRANCH   6  22
BRANCH   8  24
ATOM     24  O   UNL     1     -18.535  30.913  41.021  1.00  0.00    -0.508 OA
ATOM     25  H   UNL     1     -17.531  31.012  40.934  1.00  0.00     0.293 HD
ENDBRANCH   8  24
TORSDOF 5
ENDMDL
MODEL 9
REMARK VINA RESULT:    -5.470      1.689      7.044
REMARK INTER + INTRA:          -6.724
REMARK INTER:                  -6.408
REMARK INTRA:                  -0.316
REMARK UNBOUND:                -0.295
REMARK SMILES O=c1cc(-c2ccc(O)c(O)c2)oc2cc(O)cc(O)c12
REMARK SMILES IDX 4 1 3 2 2 3 1 4 21 5 19 6 18 7 16 8 15 9 14 10 13 11 5 12
REMARK SMILES IDX 6 13 7 14 8 15 12 16 10 17 9 18 11 20 20 22 17 24
REMARK H PARENT 9 19 11 21 20 23 17 25
REMARK Flexibility Score: inf
ROOT
ATOM      1  C   UNL     1     -18.190  23.768  43.985  1.00  0.00     0.138 A 
ATOM      2  C   UNL     1     -19.329  23.400  44.715  1.00  0.00     0.100 A 
ATOM      3  C   UNL     1     -20.438  24.247  44.736  1.00  0.00     0.197 A 
ATOM      4  O   UNL     1     -21.421  23.918  45.450  1.00  0.00    -0.289 OA
ATOM      5  C   UNL     1     -20.417  25.453  43.997  1.00  0.00     0.107 A 
ATOM      6  C   UNL     1     -21.504  26.373  43.912  1.00  0.00     0.134 A 
ATOM      7  C   UNL     1     -21.327  27.591  43.244  1.00  0.00     0.093 A 
ATOM      8  C   UNL     1     -20.121  27.895  42.608  1.00  0.00     0.123 A 
ATOM      9  C   UNL     1     -19.071  26.980  42.639  1.00  0.00     0.094 A 
ATOM     10  C   UNL     1     -19.206  25.771  43.326  1.00  0.00     0.146 A 
ATOM     11  O   UNL     1     -18.175  24.932  43.344  1.00  0.00    -0.456 OA
ENDROOT
BRANCH   1  12
ATOM     12  C   UNL     1     -16.983  22.905  43.927  1.00  0.00     0.021 A 
ATOM     13  C   UNL     1     -16.818  21.806  44.791  1.00  0.00     0.016 A 
ATOM     14  C   UNL     1     -15.677  21.005  44.708  1.00  0.00     0.051 A 
ATOM     15  C   UNL     1     -14.686  21.279  43.757  1.00  0.00     0.157 A 
ATOM     16  C   UNL     1     -15.990  23.167  42.966  1.00  0.00     0.062 A 
ATOM     17  C   UNL     1     -14.846  22.366  42.881  1.00  0.00     0.158 A 
BRANCH  15  18
ATOM     18  O   UNL     1     -13.548  20.478  43.678  1.00  0.00    -0.504 OA
ATOM     19  H   UNL     1     -12.962  20.307  44.487  1.00  0.00     0.293 HD
ENDBRANCH  15  18
BRANCH  17  20
ATOM     20  O   UNL     1     -13.880  22.664  41.920  1.00  0.00    -0.504 OA
ATOM     21  H   UNL     1     -13.771  22.113  41.077  1.00  0.00     0.293 HD
ENDBRANCH  17  20
ENDBRANCH   1  12
BRANCH   6  22
ATOM     22  O   UNL     1     -22.776  26.130  44.440  1.00  0.00    -0.507 OA
ATOM     23  H   UNL     1     -23.113  25.228  44.740  1.00  0.00     0.293 HD
ENDBRANCH   6  22
BRANCH   8  24
ATOM     24  O   UNL     1     -19.959  29.103  41.932  1.00  0.00    -0.508 OA
ATOM     25  H   UNL     1     -20.424  29.949  42.240  1.00  0.00     0.293 HD
ENDBRANCH   8  24
TORSDOF 5
ENDMDL
