MODEL 1
REMARK VINA RESULT:    -0.607      0.000      0.000
REMARK INTER + INTRA:          -3.559
REMARK INTER:                  -1.529
REMARK INTRA:                  -2.030
REMARK UNBOUND:                -2.030
REMARK SMILES CCCCCCCCCCCCCCCCCCCCCCCCCCCC(=O)[O-]
REMARK SMILES IDX 15 1 16 2 17 3 18 4 19 5 20 6 21 7 22 8 23 9 24 10 25 11
REMARK SMILES IDX 26 12 27 13 28 14 29 15 30 16 14 17 13 18 12 19 11 20 10 21
REMARK SMILES IDX 9 22 8 23 7 24 6 25 5 26 4 27 3 28 2 29 1 30
REMARK H PARENT
REMARK Flexibility Score: inf
ROOT
ATOM      1  C   UNL     1       9.095 -31.332  18.558  1.00  0.00     0.000 C 
ENDROOT
BRANCH   1   2
ATOM      2  C   UNL     1       8.741 -32.533  17.663  1.00  0.00     0.000 C 
BRANCH   2   3
ATOM      3  C   UNL     1       7.299 -32.455  17.119  1.00  0.00     0.000 C 
BRANCH   3   4
ATOM      4  C   UNL     1       7.154 -32.978  15.677  1.00  0.00     0.000 C 
BRANCH   4   5
ATOM      5  C   UNL     1       8.219 -32.461  14.694  1.00  0.00     0.000 C 
BRANCH   5   6
ATOM      6  C   UNL     1       8.309 -33.315  13.418  1.00  0.00     0.000 C 
BRANCH   6   7
ATOM      7  C   UNL     1       9.364 -34.428  13.519  1.00  0.00     0.000 C 
BRANCH   7   8
ATOM      8  C   UNL     1       8.913 -35.763  12.887  1.00  0.00     0.000 C 
BRANCH   8   9
ATOM      9  C   UNL     1       8.168 -36.652  13.894  1.00  0.00     0.000 C 
BRANCH   9  10
ATOM     10  C   UNL     1       6.657 -36.394  13.848  1.00  0.00     0.000 C 
BRANCH  10  11
ATOM     11  C   UNL     1       5.878 -37.568  14.459  1.00  0.00     0.000 C 
BRANCH  11  12
ATOM     12  C   UNL     1       6.070 -37.686  15.979  1.00  0.00     0.006 C 
BRANCH  12  13
ATOM     13  C   UNL     1       6.196 -36.320  16.668  1.00  0.00     0.053 C 
BRANCH  13  14
ATOM     14  C   UNL     1       7.378 -36.304  17.584  1.00  0.00     0.041 C 
ATOM     15  O   UNL     1       7.375 -36.998  18.635  1.00  0.00    -0.550 OA
ATOM     16  O   UNL     1       8.502 -35.557  17.258  1.00  0.00    -0.550 OA
ENDBRANCH  13  14
ENDBRANCH  12  13
ENDBRANCH  11  12
ENDBRANCH  10  11
ENDBRANCH   9  10
ENDBRANCH   8   9
ENDBRANCH   7   8
ENDBRANCH   6   7
ENDBRANCH   5   6
ENDBRANCH   4   5
ENDBRANCH   3   4
ENDBRANCH   2   3
ENDBRANCH   1   2
BRANCH   1  17
ATOM     17  C   UNL     1      10.472 -30.725  18.213  1.00  0.00     0.000 C 
BRANCH  17  18
ATOM     18  C   UNL     1      10.624 -30.323  16.733  1.00  0.00     0.000 C 
BRANCH  18  19
ATOM     19  C   UNL     1      11.876 -30.878  16.032  1.00  0.00     0.000 C 
BRANCH  19  20
ATOM     20  C   UNL     1      11.656 -31.343  14.579  1.00  0.00     0.000 C 
BRANCH  20  21
ATOM     21  C   UNL     1      12.964 -31.580  13.793  1.00  0.00     0.000 C 
BRANCH  21  22
ATOM     22  C   UNL     1      14.127 -30.715  14.310  1.00  0.00    -0.000 C 
BRANCH  22  23
ATOM     23  C   UNL     1      15.502 -31.219  13.839  1.00  0.00    -0.000 C 
BRANCH  23  24
ATOM     24  C   UNL     1      16.574 -31.230  14.950  1.00  0.00    -0.000 C 
BRANCH  24  25
ATOM     25  C   UNL     1      17.630 -32.327  14.725  1.00  0.00    -0.000 C 
BRANCH  25  26
ATOM     26  C   UNL     1      18.607 -31.983  13.590  1.00  0.00    -0.000 C 
BRANCH  26  27
ATOM     27  C   UNL     1      18.726 -30.469  13.352  1.00  0.00    -0.000 C 
BRANCH  27  28
ATOM     28  C   UNL     1      20.192 -30.053  13.179  1.00  0.00    -0.000 C 
BRANCH  28  29
ATOM     29  C   UNL     1      20.345 -28.530  13.264  1.00  0.00    -0.003 C 
ATOM     30  C   UNL     1      21.809 -28.132  13.432  1.00  0.00     0.004 C 
ENDBRANCH  28  29
ENDBRANCH  27  28
ENDBRANCH  26  27
ENDBRANCH  25  26
ENDBRANCH  24  25
ENDBRANCH  23  24
ENDBRANCH  22  23
ENDBRANCH  21  22
ENDBRANCH  20  21
ENDBRANCH  19  20
ENDBRANCH  18  19
ENDBRANCH  17  18
ENDBRANCH   1  17
TORSDOF 26
ENDMDL
MODEL 2
REMARK VINA RESULT:    -0.256      2.110      4.436
REMARK INTER + INTRA:          -2.676
REMARK INTER:                  -0.322
REMARK INTRA:                  -2.353
REMARK UNBOUND:                -2.030
REMARK SMILES CCCCCCCCCCCCCCCCCCCCCCCCCCCC(=O)[O-]
REMARK SMILES IDX 15 1 16 2 17 3 18 4 19 5 20 6 21 7 22 8 23 9 24 10 25 11
REMARK SMILES IDX 26 12 27 13 28 14 29 15 30 16 14 17 13 18 12 19 11 20 10 21
REMARK SMILES IDX 9 22 8 23 7 24 6 25 5 26 4 27 3 28 2 29 1 30
REMARK H PARENT
REMARK Flexibility Score: inf
ROOT
ATOM      1  C   UNL     1       7.799 -34.384  17.363  1.00  0.00     0.000 C 
ENDROOT
BRANCH   1   2
ATOM      2  C   UNL     1       7.566 -35.863  17.722  1.00  0.00     0.000 C 
BRANCH   2   3
ATOM      3  C   UNL     1       6.629 -36.569  16.719  1.00  0.00     0.000 C 
BRANCH   3   4
ATOM      4  C   UNL     1       7.203 -36.651  15.292  1.00  0.00     0.000 C 
BRANCH   4   5
ATOM      5  C   UNL     1       6.526 -37.694  14.384  1.00  0.00     0.000 C 
BRANCH   5   6
ATOM      6  C   UNL     1       7.285 -37.911  13.065  1.00  0.00     0.000 C 
BRANCH   6   7
ATOM      7  C   UNL     1       8.810 -37.964  13.257  1.00  0.00     0.000 C 
BRANCH   7   8
ATOM      8  C   UNL     1       9.525 -36.649  12.876  1.00  0.00     0.000 C 
BRANCH   8   9
ATOM      9  C   UNL     1      11.030 -36.708  13.170  1.00  0.00     0.000 C 
BRANCH   9  10
ATOM     10  C   UNL     1      11.525 -35.396  13.793  1.00  0.00     0.000 C 
BRANCH  10  11
ATOM     11  C   UNL     1      10.784 -34.189  13.198  1.00  0.00     0.000 C 
BRANCH  11  12
ATOM     12  C   UNL     1       9.572 -33.758  14.039  1.00  0.00     0.006 C 
BRANCH  12  13
ATOM     13  C   UNL     1       8.510 -33.021  13.214  1.00  0.00     0.053 C 
BRANCH  13  14
ATOM     14  C   UNL     1       7.138 -33.459  13.617  1.00  0.00     0.041 C 
ATOM     15  O   UNL     1       6.597 -34.448  13.055  1.00  0.00    -0.550 OA
ATOM     16  O   UNL     1       6.471 -32.803  14.645  1.00  0.00    -0.550 OA
ENDBRANCH  13  14
ENDBRANCH  12  13
ENDBRANCH  11  12
ENDBRANCH  10  11
ENDBRANCH   9  10
ENDBRANCH   8   9
ENDBRANCH   7   8
ENDBRANCH   6   7
ENDBRANCH   5   6
ENDBRANCH   4   5
ENDBRANCH   3   4
ENDBRANCH   2   3
ENDBRANCH   1   2
BRANCH   1  17
ATOM     17  C   UNL     1       7.329 -33.426  18.479  1.00  0.00     0.000 C 
BRANCH  17  18
ATOM     18  C   UNL     1       7.785 -31.967  18.282  1.00  0.00     0.000 C 
BRANCH  18  19
ATOM     19  C   UNL     1       8.814 -31.461  19.308  1.00  0.00     0.000 C 
BRANCH  19  20
ATOM     20  C   UNL     1      10.177 -31.053  18.716  1.00  0.00     0.000 C 
BRANCH  20  21
ATOM     21  C   UNL     1      10.397 -31.530  17.265  1.00  0.00     0.000 C 
BRANCH  21  22
ATOM     22  C   UNL     1      11.014 -30.439  16.373  1.00  0.00    -0.000 C 
BRANCH  22  23
ATOM     23  C   UNL     1      12.330 -30.881  15.711  1.00  0.00    -0.000 C 
BRANCH  23  24
ATOM     24  C   UNL     1      12.202 -31.156  14.197  1.00  0.00    -0.000 C 
BRANCH  24  25
ATOM     25  C   UNL     1      13.477 -30.765  13.428  1.00  0.00    -0.000 C 
BRANCH  25  26
ATOM     26  C   UNL     1      14.639 -30.389  14.361  1.00  0.00    -0.000 C 
BRANCH  26  27
ATOM     27  C   UNL     1      15.959 -31.066  13.962  1.00  0.00    -0.000 C 
BRANCH  27  28
ATOM     28  C   UNL     1      16.527 -31.890  15.124  1.00  0.00    -0.000 C 
BRANCH  28  29
ATOM     29  C   UNL     1      17.942 -32.387  14.806  1.00  0.00    -0.003 C 
ATOM     30  C   UNL     1      18.304 -32.120  13.347  1.00  0.00     0.004 C 
ENDBRANCH  28  29
ENDBRANCH  27  28
ENDBRANCH  26  27
ENDBRANCH  25  26
ENDBRANCH  24  25
ENDBRANCH  23  24
ENDBRANCH  22  23
ENDBRANCH  21  22
ENDBRANCH  20  21
ENDBRANCH  19  20
ENDBRANCH  18  19
ENDBRANCH  17  18
ENDBRANCH   1  17
TORSDOF 26
ENDMDL
MODEL 3
REMARK VINA RESULT:    -0.063      4.133     10.630
REMARK INTER + INTRA:          -2.189
REMARK INTER:                   0.102
REMARK INTRA:                  -2.290
REMARK UNBOUND:                -2.030
REMARK SMILES CCCCCCCCCCCCCCCCCCCCCCCCCCCC(=O)[O-]
REMARK SMILES IDX 15 1 16 2 17 3 18 4 19 5 20 6 21 7 22 8 23 9 24 10 25 11
REMARK SMILES IDX 26 12 27 13 28 14 29 15 30 16 14 17 13 18 12 19 11 20 10 21
REMARK SMILES IDX 9 22 8 23 7 24 6 25 5 26 4 27 3 28 2 29 1 30
REMARK H PARENT
REMARK Flexibility Score: inf
ROOT
ATOM      1  C   UNL     1      10.558 -31.508  18.128  1.00  0.00     0.000 C 
ENDROOT
BRANCH   1   2
ATOM      2  C   UNL     1      10.666 -30.929  16.706  1.00  0.00     0.000 C 
BRANCH   2   3
ATOM      3  C   UNL     1      10.386 -31.988  15.618  1.00  0.00     0.000 C 
BRANCH   3   4
ATOM      4  C   UNL     1      11.492 -32.083  14.550  1.00  0.00     0.000 C 
BRANCH   4   5
ATOM      5  C   UNL     1      12.562 -30.980  14.631  1.00  0.00     0.000 C 
BRANCH   5   6
ATOM      6  C   UNL     1      13.699 -31.184  13.616  1.00  0.00     0.000 C 
BRANCH   6   7
ATOM      7  C   UNL     1      15.019 -30.532  14.061  1.00  0.00     0.000 C 
BRANCH   7   8
ATOM      8  C   UNL     1      15.832 -31.399  15.046  1.00  0.00     0.000 C 
BRANCH   8   9
ATOM      9  C   UNL     1      16.761 -32.380  14.316  1.00  0.00     0.000 C 
BRANCH   9  10
ATOM     10  C   UNL     1      17.722 -31.639  13.379  1.00  0.00     0.000 C 
BRANCH  10  11
ATOM     11  C   UNL     1      19.064 -31.358  14.072  1.00  0.00     0.000 C 
BRANCH  11  12
ATOM     12  C   UNL     1      20.148 -30.869  13.100  1.00  0.00     0.006 C 
BRANCH  12  13
ATOM     13  C   UNL     1      20.105 -29.351  12.879  1.00  0.00     0.053 C 
BRANCH  13  14
ATOM     14  C   UNL     1      21.121 -28.669  13.740  1.00  0.00     0.041 C 
ATOM     15  O   UNL     1      21.122 -28.853  14.986  1.00  0.00    -0.550 OA
ATOM     16  O   UNL     1      22.094 -27.863  13.163  1.00  0.00    -0.550 OA
ENDBRANCH  13  14
ENDBRANCH  12  13
ENDBRANCH  11  12
ENDBRANCH  10  11
ENDBRANCH   9  10
ENDBRANCH   8   9
ENDBRANCH   7   8
ENDBRANCH   6   7
ENDBRANCH   5   6
ENDBRANCH   4   5
ENDBRANCH   3   4
ENDBRANCH   2   3
ENDBRANCH   1   2
BRANCH   1  17
ATOM     17  C   UNL     1       9.129 -31.396  18.702  1.00  0.00     0.000 C 
BRANCH  17  18
ATOM     18  C   UNL     1       8.314 -32.700  18.608  1.00  0.00     0.000 C 
BRANCH  18  19
ATOM     19  C   UNL     1       6.883 -32.537  18.067  1.00  0.00     0.000 C 
BRANCH  19  20
ATOM     20  C   UNL     1       6.765 -32.524  16.531  1.00  0.00     0.000 C 
BRANCH  20  21
ATOM     21  C   UNL     1       6.512 -33.915  15.910  1.00  0.00     0.000 C 
BRANCH  21  22
ATOM     22  C   UNL     1       6.398 -35.021  16.973  1.00  0.00    -0.000 C 
BRANCH  22  23
ATOM     23  C   UNL     1       6.845 -36.398  16.452  1.00  0.00    -0.000 C 
BRANCH  23  24
ATOM     24  C   UNL     1       5.875 -37.019  15.424  1.00  0.00    -0.000 C 
BRANCH  24  25
ATOM     25  C   UNL     1       6.309 -36.737  13.974  1.00  0.00    -0.000 C 
BRANCH  25  26
ATOM     26  C   UNL     1       7.164 -37.867  13.381  1.00  0.00    -0.000 C 
BRANCH  26  27
ATOM     27  C   UNL     1       8.651 -37.495  13.286  1.00  0.00    -0.000 C 
BRANCH  27  28
ATOM     28  C   UNL     1       8.826 -36.002  12.982  1.00  0.00    -0.000 C 
BRANCH  28  29
ATOM     29  C   UNL     1       9.925 -35.388  13.857  1.00  0.00    -0.003 C 
ATOM     30  C   UNL     1      11.303 -35.590  13.233  1.00  0.00     0.004 C 
ENDBRANCH  28  29
ENDBRANCH  27  28
ENDBRANCH  26  27
ENDBRANCH  25  26
ENDBRANCH  24  25
ENDBRANCH  23  24
ENDBRANCH  22  23
ENDBRANCH  21  22
ENDBRANCH  20  21
ENDBRANCH  19  20
ENDBRANCH  18  19
ENDBRANCH  17  18
ENDBRANCH   1  17
TORSDOF 26
ENDMDL
MODEL 4
REMARK VINA RESULT:     0.396      1.562      3.134
REMARK INTER + INTRA:          -1.033
REMARK INTER:                   0.952
REMARK INTRA:                  -1.985
REMARK UNBOUND:                -2.030
REMARK SMILES CCCCCCCCCCCCCCCCCCCCCCCCCCCC(=O)[O-]
REMARK SMILES IDX 15 1 16 2 17 3 18 4 19 5 20 6 21 7 22 8 23 9 24 10 25 11
REMARK SMILES IDX 26 12 27 13 28 14 29 15 30 16 14 17 13 18 12 19 11 20 10 21
REMARK SMILES IDX 9 22 8 23 7 24 6 25 5 26 4 27 3 28 2 29 1 30
REMARK H PARENT
REMARK Flexibility Score: inf
ROOT
ATOM      1  C   UNL     1      10.572 -31.156  17.872  1.00  0.00     0.000 C 
ENDROOT
BRANCH   1   2
ATOM      2  C   UNL     1       9.224 -31.666  18.413  1.00  0.00     0.000 C 
BRANCH   2   3
ATOM      3  C   UNL     1       8.241 -32.038  17.282  1.00  0.00     0.000 C 
BRANCH   3   4
ATOM      4  C   UNL     1       7.172 -33.062  17.706  1.00  0.00     0.000 C 
BRANCH   4   5
ATOM      5  C   UNL     1       7.202 -34.386  16.923  1.00  0.00     0.000 C 
BRANCH   5   6
ATOM      6  C   UNL     1       6.898 -35.605  17.810  1.00  0.00     0.000 C 
BRANCH   6   7
ATOM      7  C   UNL     1       6.143 -36.715  17.060  1.00  0.00     0.000 C 
BRANCH   7   8
ATOM      8  C   UNL     1       6.888 -37.229  15.809  1.00  0.00     0.000 C 
BRANCH   8   9
ATOM      9  C   UNL     1       5.994 -37.214  14.561  1.00  0.00     0.000 C 
BRANCH   9  10
ATOM     10  C   UNL     1       6.805 -37.514  13.294  1.00  0.00     0.000 C 
BRANCH  10  11
ATOM     11  C   UNL     1       8.314 -37.489  13.585  1.00  0.00     0.000 C 
BRANCH  11  12
ATOM     12  C   UNL     1       9.038 -36.331  12.883  1.00  0.00     0.006 C 
BRANCH  12  13
ATOM     13  C   UNL     1       8.338 -34.981  13.089  1.00  0.00     0.053 C 
BRANCH  13  14
ATOM     14  C   UNL     1       9.326 -33.939  13.506  1.00  0.00     0.041 C 
ATOM     15  O   UNL     1       9.148 -32.733  13.187  1.00  0.00    -0.550 OA
ATOM     16  O   UNL     1      10.423 -34.290  14.282  1.00  0.00    -0.550 OA
ENDBRANCH  13  14
ENDBRANCH  12  13
ENDBRANCH  11  12
ENDBRANCH  10  11
ENDBRANCH   9  10
ENDBRANCH   8   9
ENDBRANCH   7   8
ENDBRANCH   6   7
ENDBRANCH   5   6
ENDBRANCH   4   5
ENDBRANCH   3   4
ENDBRANCH   2   3
ENDBRANCH   1   2
BRANCH   1  17
ATOM     17  C   UNL     1      10.582 -31.038  16.333  1.00  0.00     0.000 C 
BRANCH  17  18
ATOM     18  C   UNL     1      11.941 -30.601  15.749  1.00  0.00     0.000 C 
BRANCH  18  19
ATOM     19  C   UNL     1      12.254 -31.149  14.346  1.00  0.00     0.000 C 
BRANCH  19  20
ATOM     20  C   UNL     1      13.573 -31.937  14.234  1.00  0.00     0.000 C 
BRANCH  20  21
ATOM     21  C   UNL     1      14.800 -31.060  13.905  1.00  0.00     0.000 C 
BRANCH  21  22
ATOM     22  C   UNL     1      15.905 -31.172  14.970  1.00  0.00    -0.000 C 
BRANCH  22  23
ATOM     23  C   UNL     1      17.036 -32.131  14.558  1.00  0.00    -0.000 C 
BRANCH  23  24
ATOM     24  C   UNL     1      17.956 -31.570  13.453  1.00  0.00    -0.000 C 
BRANCH  24  25
ATOM     25  C   UNL     1      18.704 -30.304  13.909  1.00  0.00    -0.000 C 
BRANCH  25  26
ATOM     26  C   UNL     1      20.225 -30.419  13.730  1.00  0.00    -0.000 C 
BRANCH  26  27
ATOM     27  C   UNL     1      20.834 -29.186  13.045  1.00  0.00    -0.000 C 
BRANCH  27  28
ATOM     28  C   UNL     1      21.550 -28.289  14.063  1.00  0.00    -0.000 C 
BRANCH  28  29
ATOM     29  C   UNL     1      21.272 -26.808  13.780  1.00  0.00    -0.003 C 
ATOM     30  C   UNL     1      20.047 -26.639  12.885  1.00  0.00     0.004 C 
ENDBRANCH  28  29
ENDBRANCH  27  28
ENDBRANCH  26  27
ENDBRANCH  25  26
ENDBRANCH  24  25
ENDBRANCH  23  24
ENDBRANCH  22  23
ENDBRANCH  21  22
ENDBRANCH  20  21
ENDBRANCH  19  20
ENDBRANCH  18  19
ENDBRANCH  17  18
ENDBRANCH   1  17
TORSDOF 26
ENDMDL
MODEL 5
REMARK VINA RESULT:     0.721      4.603     11.566
REMARK INTER + INTRA:          -0.213
REMARK INTER:                   1.875
REMARK INTRA:                  -2.088
REMARK UNBOUND:                -2.030
REMARK SMILES CCCCCCCCCCCCCCCCCCCCCCCCCCCC(=O)[O-]
REMARK SMILES IDX 15 1 16 2 17 3 18 4 19 5 20 6 21 7 22 8 23 9 24 10 25 11
REMARK SMILES IDX 26 12 27 13 28 14 29 15 30 16 14 17 13 18 12 19 11 20 10 21
REMARK SMILES IDX 9 22 8 23 7 24 6 25 5 26 4 27 3 28 2 29 1 30
REMARK H PARENT
REMARK Flexibility Score: inf
ROOT
ATOM      1  C   UNL     1      10.435 -32.309  13.914  1.00  0.00     0.000 C 
ENDROOT
BRANCH   1   2
ATOM      2  C   UNL     1      11.856 -32.315  14.507  1.00  0.00     0.000 C 
BRANCH   2   3
ATOM      3  C   UNL     1      12.550 -30.942  14.381  1.00  0.00     0.000 C 
BRANCH   3   4
ATOM      4  C   UNL     1      13.693 -30.921  13.349  1.00  0.00     0.000 C 
BRANCH   4   5
ATOM      5  C   UNL     1      14.990 -30.251  13.838  1.00  0.00     0.000 C 
BRANCH   5   6
ATOM      6  C   UNL     1      15.363 -30.662  15.272  1.00  0.00     0.000 C 
BRANCH   6   7
ATOM      7  C   UNL     1      16.736 -31.348  15.357  1.00  0.00     0.000 C 
BRANCH   7   8
ATOM      8  C   UNL     1      17.107 -32.142  14.085  1.00  0.00     0.000 C 
BRANCH   8   9
ATOM      9  C   UNL     1      18.092 -31.373  13.194  1.00  0.00     0.000 C 
BRANCH   9  10
ATOM     10  C   UNL     1      19.544 -31.686  13.573  1.00  0.00     0.000 C 
BRANCH  10  11
ATOM     11  C   UNL     1      20.518 -30.723  12.876  1.00  0.00     0.000 C 
BRANCH  11  12
ATOM     12  C   UNL     1      20.200 -29.247  13.157  1.00  0.00     0.006 C 
BRANCH  12  13
ATOM     13  C   UNL     1      20.985 -28.687  14.350  1.00  0.00     0.053 C 
BRANCH  13  14
ATOM     14  C   UNL     1      21.864 -27.558  13.915  1.00  0.00     0.041 C 
ATOM     15  O   UNL     1      21.394 -26.395  13.806  1.00  0.00    -0.550 OA
ATOM     16  O   UNL     1      23.213 -27.781  13.669  1.00  0.00    -0.550 OA
ENDBRANCH  13  14
ENDBRANCH  12  13
ENDBRANCH  11  12
ENDBRANCH  10  11
ENDBRANCH   9  10
ENDBRANCH   8   9
ENDBRANCH   7   8
ENDBRANCH   6   7
ENDBRANCH   5   6
ENDBRANCH   4   5
ENDBRANCH   3   4
ENDBRANCH   2   3
ENDBRANCH   1   2
BRANCH   1  17
ATOM     17  C   UNL     1      10.225 -33.432  12.876  1.00  0.00     0.000 C 
BRANCH  17  18
ATOM     18  C   UNL     1       9.398 -34.622  13.403  1.00  0.00     0.000 C 
BRANCH  18  19
ATOM     19  C   UNL     1      10.153 -35.961  13.470  1.00  0.00     0.000 C 
BRANCH  19  20
ATOM     20  C   UNL     1       9.314 -37.199  13.101  1.00  0.00     0.000 C 
BRANCH  20  21
ATOM     21  C   UNL     1       7.790 -36.951  13.118  1.00  0.00     0.000 C 
BRANCH  21  22
ATOM     22  C   UNL     1       7.020 -38.062  13.853  1.00  0.00    -0.000 C 
BRANCH  22  23
ATOM     23  C   UNL     1       5.912 -37.515  14.770  1.00  0.00    -0.000 C 
BRANCH  23  24
ATOM     24  C   UNL     1       6.122 -36.043  15.189  1.00  0.00    -0.000 C 
BRANCH  24  25
ATOM     25  C   UNL     1       6.238 -35.887  16.716  1.00  0.00    -0.000 C 
BRANCH  25  26
ATOM     26  C   UNL     1       7.533 -35.179  17.141  1.00  0.00    -0.000 C 
BRANCH  26  27
ATOM     27  C   UNL     1       7.270 -33.911  17.967  1.00  0.00    -0.000 C 
BRANCH  27  28
ATOM     28  C   UNL     1       7.738 -32.658  17.217  1.00  0.00    -0.000 C 
BRANCH  28  29
ATOM     29  C   UNL     1       9.214 -32.364  17.506  1.00  0.00    -0.003 C 
ATOM     30  C   UNL     1       9.377 -31.602  18.818  1.00  0.00     0.004 C 
ENDBRANCH  28  29
ENDBRANCH  27  28
ENDBRANCH  26  27
ENDBRANCH  25  26
ENDBRANCH  24  25
ENDBRANCH  23  24
ENDBRANCH  22  23
ENDBRANCH  21  22
ENDBRANCH  20  21
ENDBRANCH  19  20
ENDBRANCH  18  19
ENDBRANCH  17  18
ENDBRANCH   1  17
TORSDOF 26
ENDMDL
MODEL 6
REMARK VINA RESULT:     0.782      2.356      5.995
REMARK INTER + INTRA:          -0.059
REMARK INTER:                   0.852
REMARK INTRA:                  -0.911
REMARK UNBOUND:                -2.030
REMARK SMILES CCCCCCCCCCCCCCCCCCCCCCCCCCCC(=O)[O-]
REMARK SMILES IDX 15 1 16 2 17 3 18 4 19 5 20 6 21 7 22 8 23 9 24 10 25 11
REMARK SMILES IDX 26 12 27 13 28 14 29 15 30 16 14 17 13 18 12 19 11 20 10 21
REMARK SMILES IDX 9 22 8 23 7 24 6 25 5 26 4 27 3 28 2 29 1 30
REMARK H PARENT
REMARK Flexibility Score: inf
ROOT
ATOM      1  C   UNL     1       7.681 -36.478  14.763  1.00  0.00     0.000 C 
ENDROOT
BRANCH   1   2
ATOM      2  C   UNL     1       7.076 -37.889  14.647  1.00  0.00     0.000 C 
BRANCH   2   3
ATOM      3  C   UNL     1       5.902 -38.105  15.626  1.00  0.00     0.000 C 
BRANCH   3   4
ATOM      4  C   UNL     1       6.246 -37.759  17.087  1.00  0.00     0.000 C 
BRANCH   4   5
ATOM      5  C   UNL     1       6.220 -36.256  17.417  1.00  0.00     0.000 C 
BRANCH   5   6
ATOM      6  C   UNL     1       7.476 -35.795  18.175  1.00  0.00     0.000 C 
BRANCH   6   7
ATOM      7  C   UNL     1       7.985 -34.422  17.705  1.00  0.00     0.000 C 
BRANCH   7   8
ATOM      8  C   UNL     1       7.059 -33.743  16.673  1.00  0.00     0.000 C 
BRANCH   8   9
ATOM      9  C   UNL     1       6.450 -32.443  17.217  1.00  0.00     0.000 C 
BRANCH   9  10
ATOM     10  C   UNL     1       6.789 -32.250  18.700  1.00  0.00     0.000 C 
BRANCH  10  11
ATOM     11  C   UNL     1       7.817 -31.123  18.890  1.00  0.00     0.000 C 
BRANCH  11  12
ATOM     12  C   UNL     1       9.143 -31.618  19.486  1.00  0.00     0.006 C 
BRANCH  12  13
ATOM     13  C   UNL     1      10.132 -32.099  18.416  1.00  0.00     0.053 C 
BRANCH  13  14
ATOM     14  C   UNL     1      10.142 -31.159  17.254  1.00  0.00     0.041 C 
ATOM     15  O   UNL     1      10.672 -30.022  17.363  1.00  0.00    -0.550 OA
ATOM     16  O   UNL     1       9.605 -31.553  16.035  1.00  0.00    -0.550 OA
ENDBRANCH  13  14
ENDBRANCH  12  13
ENDBRANCH  11  12
ENDBRANCH  10  11
ENDBRANCH   9  10
ENDBRANCH   8   9
ENDBRANCH   7   8
ENDBRANCH   6   7
ENDBRANCH   5   6
ENDBRANCH   4   5
ENDBRANCH   3   4
ENDBRANCH   2   3
ENDBRANCH   1   2
BRANCH   1  17
ATOM     17  C   UNL     1       7.731 -35.745  13.405  1.00  0.00     0.000 C 
BRANCH  17  18
ATOM     18  C   UNL     1       6.349 -35.315  12.877  1.00  0.00     0.000 C 
BRANCH  18  19
ATOM     19  C   UNL     1       5.929 -33.880  13.242  1.00  0.00     0.000 C 
BRANCH  19  20
ATOM     20  C   UNL     1       7.035 -33.024  13.888  1.00  0.00     0.000 C 
BRANCH  20  21
ATOM     21  C   UNL     1       8.030 -32.418  12.875  1.00  0.00     0.000 C 
BRANCH  21  22
ATOM     22  C   UNL     1       9.431 -32.212  13.477  1.00  0.00    -0.000 C 
BRANCH  22  23
ATOM     23  C   UNL     1      10.169 -33.536  13.738  1.00  0.00    -0.000 C 
BRANCH  23  24
ATOM     24  C   UNL     1      11.649 -33.520  13.297  1.00  0.00    -0.000 C 
BRANCH  24  25
ATOM     25  C   UNL     1      12.185 -32.089  13.119  1.00  0.00    -0.000 C 
BRANCH  25  26
ATOM     26  C   UNL     1      12.916 -31.572  14.367  1.00  0.00    -0.000 C 
BRANCH  26  27
ATOM     27  C   UNL     1      13.867 -30.406  14.054  1.00  0.00    -0.000 C 
BRANCH  27  28
ATOM     28  C   UNL     1      15.253 -30.922  13.646  1.00  0.00    -0.000 C 
BRANCH  28  29
ATOM     29  C   UNL     1      15.848 -31.821  14.735  1.00  0.00    -0.003 C 
ATOM     30  C   UNL     1      17.372 -31.739  14.745  1.00  0.00     0.004 C 
ENDBRANCH  28  29
ENDBRANCH  27  28
ENDBRANCH  26  27
ENDBRANCH  25  26
ENDBRANCH  24  25
ENDBRANCH  23  24
ENDBRANCH  22  23
ENDBRANCH  21  22
ENDBRANCH  20  21
ENDBRANCH  19  20
ENDBRANCH  18  19
ENDBRANCH  17  18
ENDBRANCH   1  17
TORSDOF 26
ENDMDL
MODEL 7
REMARK VINA RESULT:     1.122      2.198      3.761
REMARK INTER + INTRA:           0.796
REMARK INTER:                   2.666
REMARK INTRA:                  -1.870
REMARK UNBOUND:                -2.030
REMARK SMILES CCCCCCCCCCCCCCCCCCCCCCCCCCCC(=O)[O-]
REMARK SMILES IDX 15 1 16 2 17 3 18 4 19 5 20 6 21 7 22 8 23 9 24 10 25 11
REMARK SMILES IDX 26 12 27 13 28 14 29 15 30 16 14 17 13 18 12 19 11 20 10 21
REMARK SMILES IDX 9 22 8 23 7 24 6 25 5 26 4 27 3 28 2 29 1 30
REMARK H PARENT
REMARK Flexibility Score: inf
ROOT
ATOM      1  C   UNL     1       8.988 -33.305  17.454  1.00  0.00     0.000 C 
ENDROOT
BRANCH   1   2
ATOM      2  C   UNL     1       8.205 -34.529  16.945  1.00  0.00     0.000 C 
BRANCH   2   3
ATOM      3  C   UNL     1       6.678 -34.311  16.997  1.00  0.00     0.000 C 
BRANCH   3   4
ATOM      4  C   UNL     1       5.967 -34.604  15.663  1.00  0.00     0.000 C 
BRANCH   4   5
ATOM      5  C   UNL     1       6.792 -34.273  14.406  1.00  0.00     0.000 C 
BRANCH   5   6
ATOM      6  C   UNL     1       6.967 -35.487  13.478  1.00  0.00     0.000 C 
BRANCH   6   7
ATOM      7  C   UNL     1       5.876 -36.551  13.677  1.00  0.00     0.000 C 
BRANCH   7   8
ATOM      8  C   UNL     1       6.427 -37.922  14.128  1.00  0.00     0.000 C 
BRANCH   8   9
ATOM      9  C   UNL     1       7.935 -37.868  14.413  1.00  0.00     0.000 C 
BRANCH   9  10
ATOM     10  C   UNL     1       8.748 -38.082  13.131  1.00  0.00     0.000 C 
BRANCH  10  11
ATOM     11  C   UNL     1      10.255 -37.972  13.408  1.00  0.00     0.000 C 
BRANCH  11  12
ATOM     12  C   UNL     1      10.853 -36.637  12.940  1.00  0.00     0.006 C 
BRANCH  12  13
ATOM     13  C   UNL     1      10.510 -35.472  13.878  1.00  0.00     0.053 C 
BRANCH  13  14
ATOM     14  C   UNL     1      10.966 -34.175  13.290  1.00  0.00     0.041 C 
ATOM     15  O   UNL     1      12.148 -34.048  12.875  1.00  0.00    -0.550 OA
ATOM     16  O   UNL     1      10.074 -33.119  13.158  1.00  0.00    -0.550 OA
ENDBRANCH  13  14
ENDBRANCH  12  13
ENDBRANCH  11  12
ENDBRANCH  10  11
ENDBRANCH   9  10
ENDBRANCH   8   9
ENDBRANCH   7   8
ENDBRANCH   6   7
ENDBRANCH   5   6
ENDBRANCH   4   5
ENDBRANCH   3   4
ENDBRANCH   2   3
ENDBRANCH   1   2
BRANCH   1  17
ATOM     17  C   UNL     1       8.136 -32.401  18.371  1.00  0.00     0.000 C 
BRANCH  17  18
ATOM     18  C   UNL     1       8.843 -31.097  18.793  1.00  0.00     0.000 C 
BRANCH  18  19
ATOM     19  C   UNL     1      10.342 -31.029  18.452  1.00  0.00     0.000 C 
BRANCH  19  20
ATOM     20  C   UNL     1      10.716 -29.998  17.370  1.00  0.00     0.000 C 
BRANCH  20  21
ATOM     21  C   UNL     1      11.917 -30.416  16.495  1.00  0.00     0.000 C 
BRANCH  21  22
ATOM     22  C   UNL     1      11.528 -31.436  15.410  1.00  0.00    -0.000 C 
BRANCH  22  23
ATOM     23  C   UNL     1      12.298 -31.231  14.094  1.00  0.00    -0.000 C 
BRANCH  23  24
ATOM     24  C   UNL     1      13.269 -30.030  14.122  1.00  0.00    -0.000 C 
BRANCH  24  25
ATOM     25  C   UNL     1      14.735 -30.467  13.958  1.00  0.00    -0.000 C 
BRANCH  25  26
ATOM     26  C   UNL     1      15.162 -31.510  15.003  1.00  0.00    -0.000 C 
BRANCH  26  27
ATOM     27  C   UNL     1      16.631 -31.934  14.848  1.00  0.00    -0.000 C 
BRANCH  27  28
ATOM     28  C   UNL     1      17.297 -31.193  13.681  1.00  0.00    -0.000 C 
BRANCH  28  29
ATOM     29  C   UNL     1      18.591 -31.895  13.252  1.00  0.00    -0.003 C 
ATOM     30  C   UNL     1      19.818 -31.158  13.782  1.00  0.00     0.004 C 
ENDBRANCH  28  29
ENDBRANCH  27  28
ENDBRANCH  26  27
ENDBRANCH  25  26
ENDBRANCH  24  25
ENDBRANCH  23  24
ENDBRANCH  22  23
ENDBRANCH  21  22
ENDBRANCH  20  21
ENDBRANCH  19  20
ENDBRANCH  18  19
ENDBRANCH  17  18
ENDBRANCH   1  17
TORSDOF 26
ENDMDL
MODEL 8
REMARK VINA RESULT:     1.286      2.054      4.320
REMARK INTER + INTRA:           1.211
REMARK INTER:                   1.599
REMARK INTRA:                  -0.388
REMARK UNBOUND:                -2.030
REMARK SMILES CCCCCCCCCCCCCCCCCCCCCCCCCCCC(=O)[O-]
REMARK SMILES IDX 15 1 16 2 17 3 18 4 19 5 20 6 21 7 22 8 23 9 24 10 25 11
REMARK SMILES IDX 26 12 27 13 28 14 29 15 30 16 14 17 13 18 12 19 11 20 10 21
REMARK SMILES IDX 9 22 8 23 7 24 6 25 5 26 4 27 3 28 2 29 1 30
REMARK H PARENT
REMARK Flexibility Score: inf
ROOT
ATOM      1  C   UNL     1       6.705 -32.762  16.025  1.00  0.00     0.000 C 
ENDROOT
BRANCH   1   2
ATOM      2  C   UNL     1       7.857 -33.025  15.039  1.00  0.00     0.000 C 
BRANCH   2   3
ATOM      3  C   UNL     1       9.138 -33.510  15.751  1.00  0.00     0.000 C 
BRANCH   3   4
ATOM      4  C   UNL     1       9.225 -35.042  15.887  1.00  0.00     0.000 C 
BRANCH   4   5
ATOM      5  C   UNL     1       8.870 -35.587  17.282  1.00  0.00     0.000 C 
BRANCH   5   6
ATOM      6  C   UNL     1       7.379 -35.422  17.619  1.00  0.00     0.000 C 
BRANCH   6   7
ATOM      7  C   UNL     1       6.455 -35.946  16.507  1.00  0.00     0.000 C 
BRANCH   7   8
ATOM      8  C   UNL     1       6.837 -37.355  16.003  1.00  0.00     0.000 C 
BRANCH   8   9
ATOM      9  C   UNL     1       5.994 -37.779  14.792  1.00  0.00     0.000 C 
BRANCH   9  10
ATOM     10  C   UNL     1       6.864 -37.934  13.538  1.00  0.00     0.000 C 
BRANCH  10  11
ATOM     11  C   UNL     1       8.348 -38.079  13.909  1.00  0.00     0.000 C 
BRANCH  11  12
ATOM     12  C   UNL     1       9.288 -37.439  12.876  1.00  0.00     0.006 C 
BRANCH  12  13
ATOM     13  C   UNL     1       9.468 -35.931  13.093  1.00  0.00     0.053 C 
BRANCH  13  14
ATOM     14  C   UNL     1      10.911 -35.602  13.302  1.00  0.00     0.041 C 
ATOM     15  O   UNL     1      11.363 -34.479  12.954  1.00  0.00    -0.550 OA
ATOM     16  O   UNL     1      11.751 -36.518  13.922  1.00  0.00    -0.550 OA
ENDBRANCH  13  14
ENDBRANCH  12  13
ENDBRANCH  11  12
ENDBRANCH  10  11
ENDBRANCH   9  10
ENDBRANCH   8   9
ENDBRANCH   7   8
ENDBRANCH   6   7
ENDBRANCH   5   6
ENDBRANCH   4   5
ENDBRANCH   3   4
ENDBRANCH   2   3
ENDBRANCH   1   2
BRANCH   1  17
ATOM     17  C   UNL     1       7.094 -31.758  17.133  1.00  0.00     0.000 C 
BRANCH  17  18
ATOM     18  C   UNL     1       7.187 -32.385  18.538  1.00  0.00     0.000 C 
BRANCH  18  19
ATOM     19  C   UNL     1       8.611 -32.489  19.112  1.00  0.00     0.000 C 
BRANCH  19  20
ATOM     20  C   UNL     1       9.734 -32.065  18.147  1.00  0.00     0.000 C 
BRANCH  20  21
ATOM     21  C   UNL     1       9.657 -30.588  17.707  1.00  0.00     0.000 C 
BRANCH  21  22
ATOM     22  C   UNL     1      10.884 -30.153  16.886  1.00  0.00    -0.000 C 
BRANCH  22  23
ATOM     23  C   UNL     1      11.329 -31.216  15.868  1.00  0.00    -0.000 C 
BRANCH  23  24
ATOM     24  C   UNL     1      12.028 -30.630  14.622  1.00  0.00    -0.000 C 
BRANCH  24  25
ATOM     25  C   UNL     1      13.354 -31.349  14.311  1.00  0.00    -0.000 C 
BRANCH  25  26
ATOM     26  C   UNL     1      14.546 -30.382  14.232  1.00  0.00    -0.000 C 
BRANCH  26  27
ATOM     27  C   UNL     1      15.757 -30.873  15.040  1.00  0.00    -0.000 C 
BRANCH  27  28
ATOM     28  C   UNL     1      16.209 -32.260  14.566  1.00  0.00    -0.000 C 
BRANCH  28  29
ATOM     29  C   UNL     1      17.738 -32.360  14.539  1.00  0.00    -0.003 C 
ATOM     30  C   UNL     1      18.342 -31.317  13.601  1.00  0.00     0.004 C 
ENDBRANCH  28  29
ENDBRANCH  27  28
ENDBRANCH  26  27
ENDBRANCH  25  26
ENDBRANCH  24  25
ENDBRANCH  23  24
ENDBRANCH  22  23
ENDBRANCH  21  22
ENDBRANCH  20  21
ENDBRANCH  19  20
ENDBRANCH  18  19
ENDBRANCH  17  18
ENDBRANCH   1  17
TORSDOF 26
ENDMDL
