MODEL 1
REMARK VINA RESULT:    -6.140      0.000      0.000
REMARK INTER + INTRA:          -6.943
REMARK INTER:                  -6.858
REMARK INTRA:                  -0.085
REMARK UNBOUND:                -0.085
REMARK SMILES CCc1ccc(O)cc1O
REMARK SMILES IDX 3 1 9 2 8 3 6 4 5 5 4 6 2 7 1 8 10 9 7 11
REMARK H PARENT 10 10 7 12
REMARK Flexibility Score: inf
ROOT
ATOM      1  C   UNL     1     -13.225   1.625  -9.365  1.00  0.00    -0.006 A 
ATOM      2  C   UNL     1     -12.993   2.966  -8.997  1.00  0.00     0.122 A 
ATOM      3  C   UNL     1     -11.683   3.468  -8.971  1.00  0.00     0.092 A 
ATOM      4  C   UNL     1     -10.604   2.645  -9.320  1.00  0.00     0.119 A 
ATOM      5  C   UNL     1     -10.835   1.321  -9.700  1.00  0.00     0.047 A 
ATOM      6  C   UNL     1     -12.137   0.813  -9.727  1.00  0.00     0.011 A 
ENDROOT
BRANCH   1   7
ATOM      7  C   UNL     1     -14.625   1.069  -9.430  1.00  0.00     0.036 C 
ATOM      8  C   UNL     1     -14.601  -0.428  -9.722  1.00  0.00     0.009 C 
ENDBRANCH   1   7
BRANCH   2   9
ATOM      9  O   UNL     1     -14.063   3.796  -8.660  1.00  0.00    -0.508 OA
ATOM     10  H   UNL     1     -14.755   3.517  -7.975  1.00  0.00     0.293 HD
ENDBRANCH   2   9
BRANCH   4  11
ATOM     11  O   UNL     1      -9.301   3.136  -9.297  1.00  0.00    -0.508 OA
ATOM     12  H   UNL     1      -8.980   3.820  -9.973  1.00  0.00     0.293 HD
ENDBRANCH   4  11
TORSDOF 3
ENDMDL
MODEL 2
REMARK VINA RESULT:    -5.960      0.959      3.200
REMARK INTER + INTRA:          -6.742
REMARK INTER:                  -6.656
REMARK INTRA:                  -0.086
REMARK UNBOUND:                -0.085
REMARK SMILES CCc1ccc(O)cc1O
REMARK SMILES IDX 3 1 9 2 8 3 6 4 5 5 4 6 2 7 1 8 10 9 7 11
REMARK H PARENT 10 10 7 12
REMARK Flexibility Score: inf
ROOT
ATOM      1  C   UNL     1     -11.361   1.143  -9.633  1.00  0.00    -0.006 A 
ATOM      2  C   UNL     1     -10.864   2.425  -9.318  1.00  0.00     0.122 A 
ATOM      3  C   UNL     1     -11.755   3.469  -9.030  1.00  0.00     0.092 A 
ATOM      4  C   UNL     1     -13.138   3.242  -9.041  1.00  0.00     0.119 A 
ATOM      5  C   UNL     1     -13.630   1.969  -9.337  1.00  0.00     0.047 A 
ATOM      6  C   UNL     1     -12.748   0.924  -9.627  1.00  0.00     0.011 A 
ENDROOT
BRANCH   1   7
ATOM      7  C   UNL     1     -10.425  -0.003  -9.917  1.00  0.00     0.036 C 
ATOM      8  C   UNL     1     -11.198  -1.309 -10.073  1.00  0.00     0.009 C 
ENDBRANCH   1   7
BRANCH   2   9
ATOM      9  O   UNL     1      -9.489   2.657  -9.292  1.00  0.00    -0.508 OA
ATOM     10  H   UNL     1      -8.921   2.577 -10.128  1.00  0.00     0.293 HD
ENDBRANCH   2   9
BRANCH   4  11
ATOM     11  O   UNL     1     -14.029   4.274  -8.755  1.00  0.00    -0.508 OA
ATOM     12  H   UNL     1     -14.277   4.510  -7.801  1.00  0.00     0.293 HD
ENDBRANCH   4  11
TORSDOF 3
ENDMDL
MODEL 3
REMARK VINA RESULT:    -5.586      1.650      2.315
REMARK INTER + INTRA:          -6.324
REMARK INTER:                  -6.218
REMARK INTRA:                  -0.106
REMARK UNBOUND:                -0.085
REMARK SMILES CCc1ccc(O)cc1O
REMARK SMILES IDX 3 1 9 2 8 3 6 4 5 5 4 6 2 7 1 8 10 9 7 11
REMARK H PARENT 10 10 7 12
REMARK Flexibility Score: inf
ROOT
ATOM      1  C   UNL     1     -13.343   1.339  -9.707  1.00  0.00    -0.006 A 
ATOM      2  C   UNL     1     -12.142   0.600  -9.730  1.00  0.00     0.122 A 
ATOM      3  C   UNL     1     -10.920   1.245  -9.488  1.00  0.00     0.092 A 
ATOM      4  C   UNL     1     -10.888   2.619  -9.211  1.00  0.00     0.119 A 
ATOM      5  C   UNL     1     -12.079   3.347  -9.172  1.00  0.00     0.047 A 
ATOM      6  C   UNL     1     -13.300   2.712  -9.414  1.00  0.00     0.011 A 
ENDROOT
BRANCH   1   7
ATOM      7  C   UNL     1     -14.673   0.665  -9.934  1.00  0.00     0.036 C 
ATOM      8  C   UNL     1     -15.429   0.503  -8.620  1.00  0.00     0.009 C 
ENDBRANCH   1   7
BRANCH   2   9
ATOM      9  O   UNL     1     -12.167  -0.769  -9.992  1.00  0.00    -0.508 OA
ATOM     10  H   UNL     1     -11.611  -1.423  -9.453  1.00  0.00     0.293 HD
ENDBRANCH   2   9
BRANCH   4  11
ATOM     11  O   UNL     1      -9.678   3.265  -8.968  1.00  0.00    -0.508 OA
ATOM     12  H   UNL     1      -9.647   4.204  -8.587  1.00  0.00     0.293 HD
ENDBRANCH   4  11
TORSDOF 3
ENDMDL
MODEL 4
REMARK VINA RESULT:    -5.110     16.015     16.665
REMARK INTER + INTRA:          -5.793
REMARK INTER:                  -5.708
REMARK INTRA:                  -0.085
REMARK UNBOUND:                -0.085
REMARK SMILES CCc1ccc(O)cc1O
REMARK SMILES IDX 3 1 9 2 8 3 6 4 5 5 4 6 2 7 1 8 10 9 7 11
REMARK H PARENT 10 10 7 12
REMARK Flexibility Score: inf
ROOT
ATOM      1  C   UNL     1     -11.355   4.367   7.770  1.00  0.00    -0.006 A 
ATOM      2  C   UNL     1     -10.579   4.984   6.767  1.00  0.00     0.122 A 
ATOM      3  C   UNL     1     -10.722   4.587   5.429  1.00  0.00     0.092 A 
ATOM      4  C   UNL     1     -11.642   3.587   5.082  1.00  0.00     0.119 A 
ATOM      5  C   UNL     1     -12.421   2.988   6.074  1.00  0.00     0.047 A 
ATOM      6  C   UNL     1     -12.284   3.377   7.409  1.00  0.00     0.011 A 
ENDROOT
BRANCH   1   7
ATOM      7  C   UNL     1     -11.243   4.796   9.211  1.00  0.00     0.036 C 
ATOM      8  C   UNL     1     -11.990   3.829  10.124  1.00  0.00     0.009 C 
ENDBRANCH   1   7
BRANCH   2   9
ATOM      9  O   UNL     1      -9.671   5.988   7.102  1.00  0.00    -0.508 OA
ATOM     10  H   UNL     1      -9.843   6.959   6.868  1.00  0.00     0.293 HD
ENDBRANCH   2   9
BRANCH   4  11
ATOM     11  O   UNL     1     -11.790   3.188   3.756  1.00  0.00    -0.508 OA
ATOM     12  H   UNL     1     -11.046   3.315   3.079  1.00  0.00     0.293 HD
ENDBRANCH   4  11
TORSDOF 3
ENDMDL
MODEL 5
REMARK VINA RESULT:    -5.087     15.284     16.187
REMARK INTER + INTRA:          -5.767
REMARK INTER:                  -5.682
REMARK INTRA:                  -0.085
REMARK UNBOUND:                -0.085
REMARK SMILES CCc1ccc(O)cc1O
REMARK SMILES IDX 3 1 9 2 8 3 6 4 5 5 4 6 2 7 1 8 10 9 7 11
REMARK H PARENT 10 10 7 12
REMARK Flexibility Score: inf
ROOT
ATOM      1  C   UNL     1     -10.181   5.476   6.096  1.00  0.00    -0.006 A 
ATOM      2  C   UNL     1     -10.646   4.767   7.223  1.00  0.00     0.122 A 
ATOM      3  C   UNL     1     -11.388   3.589   7.050  1.00  0.00     0.092 A 
ATOM      4  C   UNL     1     -11.660   3.106   5.763  1.00  0.00     0.119 A 
ATOM      5  C   UNL     1     -11.186   3.801   4.647  1.00  0.00     0.047 A 
ATOM      6  C   UNL     1     -10.447   4.976   4.811  1.00  0.00     0.011 A 
ENDROOT
BRANCH   1   7
ATOM      7  C   UNL     1      -9.356   6.728   6.254  1.00  0.00     0.036 C 
ATOM      8  C   UNL     1      -9.397   7.568   4.981  1.00  0.00     0.009 C 
ENDBRANCH   1   7
BRANCH   2   9
ATOM      9  O   UNL     1     -10.369   5.233   8.508  1.00  0.00    -0.508 OA
ATOM     10  H   UNL     1      -9.825   6.074   8.662  1.00  0.00     0.293 HD
ENDBRANCH   2   9
BRANCH   4  11
ATOM     11  O   UNL     1     -12.395   1.937   5.583  1.00  0.00    -0.508 OA
ATOM     12  H   UNL     1     -13.227   1.918   5.005  1.00  0.00     0.293 HD
ENDBRANCH   4  11
TORSDOF 3
ENDMDL
MODEL 6
REMARK VINA RESULT:    -5.053     15.594     16.174
REMARK INTER + INTRA:          -5.730
REMARK INTER:                  -5.634
REMARK INTRA:                  -0.095
REMARK UNBOUND:                -0.085
REMARK SMILES CCc1ccc(O)cc1O
REMARK SMILES IDX 3 1 9 2 8 3 6 4 5 5 4 6 2 7 1 8 10 9 7 11
REMARK H PARENT 10 10 7 12
REMARK Flexibility Score: inf
ROOT
ATOM      1  C   UNL     1     -11.774   3.923   5.581  1.00  0.00    -0.006 A 
ATOM      2  C   UNL     1     -12.326   3.444   6.787  1.00  0.00     0.122 A 
ATOM      3  C   UNL     1     -11.844   3.924   8.014  1.00  0.00     0.092 A 
ATOM      4  C   UNL     1     -10.825   4.886   8.048  1.00  0.00     0.119 A 
ATOM      5  C   UNL     1     -10.290   5.371   6.852  1.00  0.00     0.047 A 
ATOM      6  C   UNL     1     -10.763   4.897   5.625  1.00  0.00     0.011 A 
ENDROOT
BRANCH   1   7
ATOM      7  C   UNL     1     -12.294   3.446   4.248  1.00  0.00     0.036 C 
ATOM      8  C   UNL     1     -13.466   4.306   3.785  1.00  0.00     0.009 C 
ENDBRANCH   1   7
BRANCH   2   9
ATOM      9  O   UNL     1     -13.349   2.497   6.764  1.00  0.00    -0.508 OA
ATOM     10  H   UNL     1     -13.296   1.673   6.174  1.00  0.00     0.293 HD
ENDBRANCH   2   9
BRANCH   4  11
ATOM     11  O   UNL     1     -10.342   5.367   9.262  1.00  0.00    -0.508 OA
ATOM     12  H   UNL     1     -10.217   6.359   9.426  1.00  0.00     0.293 HD
ENDBRANCH   4  11
TORSDOF 3
ENDMDL
MODEL 7
REMARK VINA RESULT:    -4.971     15.341     15.935
REMARK INTER + INTRA:          -5.638
REMARK INTER:                  -5.543
REMARK INTRA:                  -0.095
REMARK UNBOUND:                -0.085
REMARK SMILES CCc1ccc(O)cc1O
REMARK SMILES IDX 3 1 9 2 8 3 6 4 5 5 4 6 2 7 1 8 10 9 7 11
REMARK H PARENT 10 10 7 12
REMARK Flexibility Score: inf
ROOT
ATOM      1  C   UNL     1     -11.926   4.143   5.449  1.00  0.00    -0.006 A 
ATOM      2  C   UNL     1     -10.631   4.695   5.535  1.00  0.00     0.122 A 
ATOM      3  C   UNL     1     -10.119   5.085   6.782  1.00  0.00     0.092 A 
ATOM      4  C   UNL     1     -10.883   4.917   7.945  1.00  0.00     0.119 A 
ATOM      5  C   UNL     1     -12.159   4.355   7.861  1.00  0.00     0.047 A 
ATOM      6  C   UNL     1     -12.677   3.966   6.623  1.00  0.00     0.011 A 
ENDROOT
BRANCH   1   7
ATOM      7  C   UNL     1     -12.488   3.688   4.126  1.00  0.00     0.036 C 
ATOM      8  C   UNL     1     -13.736   4.487   3.765  1.00  0.00     0.009 C 
ENDBRANCH   1   7
BRANCH   2   9
ATOM      9  O   UNL     1      -9.858   4.854   4.385  1.00  0.00    -0.508 OA
ATOM     10  H   UNL     1     -10.217   4.616   3.467  1.00  0.00     0.293 HD
ENDBRANCH   2   9
BRANCH   4  11
ATOM     11  O   UNL     1     -10.381   5.301   9.186  1.00  0.00    -0.508 OA
ATOM     12  H   UNL     1      -9.384   5.374   9.354  1.00  0.00     0.293 HD
ENDBRANCH   4  11
TORSDOF 3
ENDMDL
MODEL 8
REMARK VINA RESULT:    -4.730     15.868     16.431
REMARK INTER + INTRA:          -5.368
REMARK INTER:                  -5.283
REMARK INTRA:                  -0.085
REMARK UNBOUND:                -0.085
REMARK SMILES CCc1ccc(O)cc1O
REMARK SMILES IDX 3 1 9 2 8 3 6 4 5 5 4 6 2 7 1 8 10 9 7 11
REMARK H PARENT 10 10 7 12
REMARK Flexibility Score: inf
ROOT
ATOM      1  C   UNL     1     -11.578   3.473   7.427  1.00  0.00    -0.006 A 
ATOM      2  C   UNL     1     -11.660   3.144   6.058  1.00  0.00     0.122 A 
ATOM      3  C   UNL     1     -11.039   3.965   5.104  1.00  0.00     0.092 A 
ATOM      4  C   UNL     1     -10.328   5.104   5.505  1.00  0.00     0.119 A 
ATOM      5  C   UNL     1     -10.233   5.420   6.863  1.00  0.00     0.047 A 
ATOM      6  C   UNL     1     -10.850   4.608   7.819  1.00  0.00     0.011 A 
ENDROOT
BRANCH   1   7
ATOM      7  C   UNL     1     -12.210   2.592   8.474  1.00  0.00     0.036 C 
ATOM      8  C   UNL     1     -12.015   3.182   9.867  1.00  0.00     0.009 C 
ENDBRANCH   1   7
BRANCH   2   9
ATOM      9  O   UNL     1     -12.355   2.006   5.650  1.00  0.00    -0.508 OA
ATOM     10  H   UNL     1     -12.261   1.634   4.712  1.00  0.00     0.293 HD
ENDBRANCH   2   9
BRANCH   4  11
ATOM     11  O   UNL     1      -9.709   5.922   4.564  1.00  0.00    -0.508 OA
ATOM     12  H   UNL     1     -10.195   6.235   3.732  1.00  0.00     0.293 HD
ENDBRANCH   4  11
TORSDOF 3
ENDMDL
