MODEL 1
REMARK VINA RESULT:    -3.393      0.000      0.000
REMARK INTER + INTRA:          -7.708
REMARK INTER:                  -6.170
REMARK INTRA:                  -1.538
REMARK UNBOUND:                -1.538
REMARK SMILES CCCCCCCCCCCCCCCC(=O)[O-]
REMARK SMILES IDX 9 1 10 2 11 3 12 4 13 5 14 6 15 7 16 8 17 9 18 10 8 11 7 12
REMARK SMILES IDX 6 13 5 14 4 15 3 16 2 17 1 18
REMARK H PARENT
REMARK Flexibility Score: inf
ROOT
ATOM      1  C   UNL     1      26.606  20.108  57.641  1.00  0.00     0.000 C 
ENDROOT
BRANCH   1   2
ATOM      2  C   UNL     1      27.278  20.919  56.519  1.00  0.00     0.000 C 
BRANCH   2   3
ATOM      3  C   UNL     1      26.603  20.717  55.151  1.00  0.00     0.000 C 
BRANCH   3   4
ATOM      4  C   UNL     1      25.641  21.862  54.793  1.00  0.00     0.000 C 
BRANCH   4   5
ATOM      5  C   UNL     1      24.163  21.454  54.909  1.00  0.00     0.000 C 
BRANCH   5   6
ATOM      6  C   UNL     1      23.975  19.971  54.563  1.00  0.00     0.006 C 
BRANCH   6   7
ATOM      7  C   UNL     1      22.875  19.341  55.423  1.00  0.00     0.053 C 
BRANCH   7   8
ATOM      8  C   UNL     1      23.473  18.581  56.564  1.00  0.00     0.041 C 
ATOM      9  O   UNL     1      23.075  18.789  57.741  1.00  0.00    -0.550 OA
ATOM     10  O   UNL     1      24.435  17.609  56.324  1.00  0.00    -0.550 OA
ENDBRANCH   7   8
ENDBRANCH   6   7
ENDBRANCH   5   6
ENDBRANCH   4   5
ENDBRANCH   3   4
ENDBRANCH   2   3
ENDBRANCH   1   2
BRANCH   1  11
ATOM     11  C   UNL     1      26.111  20.939  58.843  1.00  0.00     0.000 C 
BRANCH  11  12
ATOM     12  C   UNL     1      24.759  21.650  58.637  1.00  0.00    -0.000 C 
BRANCH  12  13
ATOM     13  C   UNL     1      23.829  21.653  59.864  1.00  0.00    -0.000 C 
BRANCH  13  14
ATOM     14  C   UNL     1      24.591  21.841  61.187  1.00  0.00    -0.000 C 
BRANCH  14  15
ATOM     15  C   UNL     1      23.806  21.313  62.400  1.00  0.00    -0.000 C 
BRANCH  15  16
ATOM     16  C   UNL     1      24.692  21.136  63.647  1.00  0.00    -0.000 C 
BRANCH  16  17
ATOM     17  C   UNL     1      26.018  20.428  63.328  1.00  0.00    -0.003 C 
ATOM     18  C   UNL     1      26.198  19.126  64.108  1.00  0.00     0.004 C 
ENDBRANCH  16  17
ENDBRANCH  15  16
ENDBRANCH  14  15
ENDBRANCH  13  14
ENDBRANCH  12  13
ENDBRANCH  11  12
ENDBRANCH   1  11
TORSDOF 14
ENDMDL
MODEL 2
REMARK VINA RESULT:    -3.111      2.741      6.371
REMARK INTER + INTRA:          -7.196
REMARK INTER:                  -5.611
REMARK INTRA:                  -1.584
REMARK UNBOUND:                -1.538
REMARK SMILES CCCCCCCCCCCCCCCC(=O)[O-]
REMARK SMILES IDX 9 1 10 2 11 3 12 4 13 5 14 6 15 7 16 8 17 9 18 10 8 11 7 12
REMARK SMILES IDX 6 13 5 14 4 15 3 16 2 17 1 18
REMARK H PARENT
REMARK Flexibility Score: inf
ROOT
ATOM      1  C   UNL     1      27.133  20.347  56.228  1.00  0.00     0.000 C 
ENDROOT
BRANCH   1   2
ATOM      2  C   UNL     1      26.590  19.764  57.546  1.00  0.00     0.000 C 
BRANCH   2   3
ATOM      3  C   UNL     1      26.414  20.830  58.641  1.00  0.00     0.000 C 
BRANCH   3   4
ATOM      4  C   UNL     1      27.448  20.691  59.771  1.00  0.00     0.000 C 
BRANCH   4   5
ATOM      5  C   UNL     1      27.541  21.950  60.648  1.00  0.00     0.000 C 
BRANCH   5   6
ATOM      6  C   UNL     1      26.288  22.105  61.519  1.00  0.00     0.006 C 
BRANCH   6   7
ATOM      7  C   UNL     1      26.614  21.873  62.998  1.00  0.00     0.053 C 
BRANCH   7   8
ATOM      8  C   UNL     1      25.936  20.636  63.497  1.00  0.00     0.041 C 
ATOM      9  O   UNL     1      26.498  19.515  63.382  1.00  0.00    -0.550 OA
ATOM     10  O   UNL     1      24.705  20.727  64.133  1.00  0.00    -0.550 OA
ENDBRANCH   7   8
ENDBRANCH   6   7
ENDBRANCH   5   6
ENDBRANCH   4   5
ENDBRANCH   3   4
ENDBRANCH   2   3
ENDBRANCH   1   2
BRANCH   1  11
ATOM     11  C   UNL     1      26.665  21.780  55.904  1.00  0.00     0.000 C 
BRANCH  11  12
ATOM     12  C   UNL     1      25.919  21.940  54.564  1.00  0.00    -0.000 C 
BRANCH  12  13
ATOM     13  C   UNL     1      24.395  22.125  54.683  1.00  0.00    -0.000 C 
BRANCH  13  14
ATOM     14  C   UNL     1      23.894  22.013  56.133  1.00  0.00    -0.000 C 
BRANCH  14  15
ATOM     15  C   UNL     1      22.878  20.874  56.320  1.00  0.00    -0.000 C 
BRANCH  15  16
ATOM     16  C   UNL     1      23.532  19.574  56.822  1.00  0.00    -0.000 C 
BRANCH  16  17
ATOM     17  C   UNL     1      23.309  18.396  55.859  1.00  0.00    -0.003 C 
ATOM     18  C   UNL     1      24.276  18.407  54.675  1.00  0.00     0.004 C 
ENDBRANCH  16  17
ENDBRANCH  15  16
ENDBRANCH  14  15
ENDBRANCH  13  14
ENDBRANCH  12  13
ENDBRANCH  11  12
ENDBRANCH   1  11
TORSDOF 14
ENDMDL
MODEL 3
REMARK VINA RESULT:    -3.100      2.350      6.565
REMARK INTER + INTRA:          -7.174
REMARK INTER:                  -5.628
REMARK INTRA:                  -1.546
REMARK UNBOUND:                -1.538
REMARK SMILES CCCCCCCCCCCCCCCC(=O)[O-]
REMARK SMILES IDX 9 1 10 2 11 3 12 4 13 5 14 6 15 7 16 8 17 9 18 10 8 11 7 12
REMARK SMILES IDX 6 13 5 14 4 15 3 16 2 17 1 18
REMARK H PARENT
REMARK Flexibility Score: inf
ROOT
ATOM      1  C   UNL     1      26.640  20.407  58.495  1.00  0.00     0.000 C 
ENDROOT
BRANCH   1   2
ATOM      2  C   UNL     1      25.602  21.442  58.963  1.00  0.00     0.000 C 
BRANCH   2   3
ATOM      3  C   UNL     1      24.159  20.913  58.892  1.00  0.00     0.000 C 
BRANCH   3   4
ATOM      4  C   UNL     1      23.293  21.398  60.067  1.00  0.00     0.000 C 
BRANCH   4   5
ATOM      5  C   UNL     1      24.130  21.944  61.235  1.00  0.00     0.000 C 
BRANCH   5   6
ATOM      6  C   UNL     1      23.687  21.321  62.565  1.00  0.00     0.006 C 
BRANCH   6   7
ATOM      7  C   UNL     1      24.821  21.355  63.593  1.00  0.00     0.053 C 
BRANCH   7   8
ATOM      8  C   UNL     1      25.721  20.172  63.420  1.00  0.00     0.041 C 
ATOM      9  O   UNL     1      26.655  20.206  62.576  1.00  0.00    -0.550 OA
ATOM     10  O   UNL     1      25.560  19.052  64.225  1.00  0.00    -0.550 OA
ENDBRANCH   7   8
ENDBRANCH   6   7
ENDBRANCH   5   6
ENDBRANCH   4   5
ENDBRANCH   3   4
ENDBRANCH   2   3
ENDBRANCH   1   2
BRANCH   1  11
ATOM     11  C   UNL     1      26.424  19.861  57.069  1.00  0.00     0.000 C 
BRANCH  11  12
ATOM     12  C   UNL     1      27.029  20.719  55.940  1.00  0.00    -0.000 C 
BRANCH  12  13
ATOM     13  C   UNL     1      26.103  21.816  55.384  1.00  0.00    -0.000 C 
BRANCH  13  14
ATOM     14  C   UNL     1      25.011  21.258  54.455  1.00  0.00    -0.000 C 
BRANCH  14  15
ATOM     15  C   UNL     1      23.593  21.500  54.999  1.00  0.00    -0.000 C 
BRANCH  15  16
ATOM     16  C   UNL     1      22.991  20.247  55.661  1.00  0.00    -0.000 C 
BRANCH  16  17
ATOM     17  C   UNL     1      23.200  18.980  54.817  1.00  0.00    -0.003 C 
ATOM     18  C   UNL     1      23.771  17.816  55.627  1.00  0.00     0.004 C 
ENDBRANCH  16  17
ENDBRANCH  15  16
ENDBRANCH  14  15
ENDBRANCH  13  14
ENDBRANCH  12  13
ENDBRANCH  11  12
ENDBRANCH   1  11
TORSDOF 14
ENDMDL
MODEL 4
REMARK VINA RESULT:    -3.057      1.264      1.782
REMARK INTER + INTRA:          -7.097
REMARK INTER:                  -5.529
REMARK INTRA:                  -1.569
REMARK UNBOUND:                -1.538
REMARK SMILES CCCCCCCCCCCCCCCC(=O)[O-]
REMARK SMILES IDX 9 1 10 2 11 3 12 4 13 5 14 6 15 7 16 8 17 9 18 10 8 11 7 12
REMARK SMILES IDX 6 13 5 14 4 15 3 16 2 17 1 18
REMARK H PARENT
REMARK Flexibility Score: inf
ROOT
ATOM      1  C   UNL     1      27.456  20.705  59.854  1.00  0.00     0.000 C 
ENDROOT
BRANCH   1   2
ATOM      2  C   UNL     1      26.733  20.289  58.560  1.00  0.00     0.000 C 
BRANCH   2   3
ATOM      3  C   UNL     1      27.017  21.241  57.386  1.00  0.00     0.000 C 
BRANCH   3   4
ATOM      4  C   UNL     1      25.900  21.225  56.329  1.00  0.00     0.000 C 
BRANCH   4   5
ATOM      5  C   UNL     1      24.649  21.999  56.776  1.00  0.00     0.000 C 
BRANCH   5   6
ATOM      6  C   UNL     1      23.478  21.045  57.036  1.00  0.00     0.006 C 
BRANCH   6   7
ATOM      7  C   UNL     1      23.404  19.959  55.957  1.00  0.00     0.053 C 
BRANCH   7   8
ATOM      8  C   UNL     1      23.568  18.603  56.566  1.00  0.00     0.041 C 
ATOM      9  O   UNL     1      22.875  18.268  57.563  1.00  0.00    -0.550 OA
ATOM     10  O   UNL     1      24.450  17.690  56.003  1.00  0.00    -0.550 OA
ENDBRANCH   7   8
ENDBRANCH   6   7
ENDBRANCH   5   6
ENDBRANCH   4   5
ENDBRANCH   3   4
ENDBRANCH   2   3
ENDBRANCH   1   2
BRANCH   1  11
ATOM     11  C   UNL     1      26.873  21.946  60.560  1.00  0.00     0.000 C 
BRANCH  11  12
ATOM     12  C   UNL     1      25.348  22.125  60.418  1.00  0.00    -0.000 C 
BRANCH  12  13
ATOM     13  C   UNL     1      24.497  21.033  61.093  1.00  0.00    -0.000 C 
BRANCH  13  14
ATOM     14  C   UNL     1      23.610  21.583  62.223  1.00  0.00    -0.000 C 
BRANCH  14  15
ATOM     15  C   UNL     1      24.275  21.464  63.605  1.00  0.00    -0.000 C 
BRANCH  15  16
ATOM     16  C   UNL     1      25.158  20.210  63.731  1.00  0.00    -0.000 C 
BRANCH  16  17
ATOM     17  C   UNL     1      26.655  20.552  63.801  1.00  0.00    -0.003 C 
ATOM     18  C   UNL     1      26.913  22.028  64.110  1.00  0.00     0.004 C 
ENDBRANCH  16  17
ENDBRANCH  15  16
ENDBRANCH  14  15
ENDBRANCH  13  14
ENDBRANCH  12  13
ENDBRANCH  11  12
ENDBRANCH   1  11
TORSDOF 14
ENDMDL
MODEL 5
REMARK VINA RESULT:    -2.912      1.106      1.880
REMARK INTER + INTRA:          -6.834
REMARK INTER:                  -5.957
REMARK INTRA:                  -0.878
REMARK UNBOUND:                -1.538
REMARK SMILES CCCCCCCCCCCCCCCC(=O)[O-]
REMARK SMILES IDX 9 1 10 2 11 3 12 4 13 5 14 6 15 7 16 8 17 9 18 10 8 11 7 12
REMARK SMILES IDX 6 13 5 14 4 15 3 16 2 17 1 18
REMARK H PARENT
REMARK Flexibility Score: inf
ROOT
ATOM      1  C   UNL     1      26.944  21.046  56.432  1.00  0.00     0.000 C 
ENDROOT
BRANCH   1   2
ATOM      2  C   UNL     1      26.272  21.410  55.095  1.00  0.00     0.000 C 
BRANCH   2   3
ATOM      3  C   UNL     1      24.748  21.571  55.219  1.00  0.00     0.000 C 
BRANCH   3   4
ATOM      4  C   UNL     1      24.041  21.570  53.852  1.00  0.00     0.000 C 
BRANCH   4   5
ATOM      5  C   UNL     1      23.179  20.317  53.631  1.00  0.00     0.000 C 
BRANCH   5   6
ATOM      6  C   UNL     1      23.879  19.066  54.176  1.00  0.00     0.006 C 
BRANCH   6   7
ATOM      7  C   UNL     1      22.979  18.319  55.165  1.00  0.00     0.053 C 
BRANCH   7   8
ATOM      8  C   UNL     1      23.614  18.268  56.518  1.00  0.00     0.041 C 
ATOM      9  O   UNL     1      24.795  17.849  56.649  1.00  0.00    -0.550 OA
ATOM     10  O   UNL     1      22.921  18.731  57.629  1.00  0.00    -0.550 OA
ENDBRANCH   7   8
ENDBRANCH   6   7
ENDBRANCH   5   6
ENDBRANCH   4   5
ENDBRANCH   3   4
ENDBRANCH   2   3
ENDBRANCH   1   2
BRANCH   1  11
ATOM     11  C   UNL     1      26.478  21.875  57.646  1.00  0.00     0.000 C 
BRANCH  11  12
ATOM     12  C   UNL     1      27.484  21.956  58.811  1.00  0.00    -0.000 C 
BRANCH  12  13
ATOM     13  C   UNL     1      27.178  21.031  60.004  1.00  0.00    -0.000 C 
BRANCH  13  14
ATOM     14  C   UNL     1      26.891  21.809  61.300  1.00  0.00    -0.000 C 
BRANCH  14  15
ATOM     15  C   UNL     1      25.396  22.124  61.481  1.00  0.00    -0.000 C 
BRANCH  15  16
ATOM     16  C   UNL     1      24.670  21.074  62.341  1.00  0.00    -0.000 C 
BRANCH  16  17
ATOM     17  C   UNL     1      25.328  20.887  63.718  1.00  0.00    -0.003 C 
ATOM     18  C   UNL     1      25.986  19.517  63.880  1.00  0.00     0.004 C 
ENDBRANCH  16  17
ENDBRANCH  15  16
ENDBRANCH  14  15
ENDBRANCH  13  14
ENDBRANCH  12  13
ENDBRANCH  11  12
ENDBRANCH   1  11
TORSDOF 14
ENDMDL
MODEL 6
REMARK VINA RESULT:    -2.910      1.360      2.262
REMARK INTER + INTRA:          -6.830
REMARK INTER:                  -5.381
REMARK INTRA:                  -1.449
REMARK UNBOUND:                -1.538
REMARK SMILES CCCCCCCCCCCCCCCC(=O)[O-]
REMARK SMILES IDX 9 1 10 2 11 3 12 4 13 5 14 6 15 7 16 8 17 9 18 10 8 11 7 12
REMARK SMILES IDX 6 13 5 14 4 15 3 16 2 17 1 18
REMARK H PARENT
REMARK Flexibility Score: inf
ROOT
ATOM      1  C   UNL     1      26.526  20.103  58.149  1.00  0.00     0.000 C 
ENDROOT
BRANCH   1   2
ATOM      2  C   UNL     1      26.725  19.839  56.645  1.00  0.00     0.000 C 
BRANCH   2   3
ATOM      3  C   UNL     1      26.914  21.132  55.834  1.00  0.00     0.000 C 
BRANCH   3   4
ATOM      4  C   UNL     1      25.715  21.436  54.920  1.00  0.00     0.000 C 
BRANCH   4   5
ATOM      5  C   UNL     1      24.560  22.125  55.664  1.00  0.00     0.000 C 
BRANCH   5   6
ATOM      6  C   UNL     1      23.231  21.409  55.397  1.00  0.00     0.006 C 
BRANCH   6   7
ATOM      7  C   UNL     1      22.954  20.346  56.465  1.00  0.00     0.053 C 
BRANCH   7   8
ATOM      8  C   UNL     1      23.214  18.977  55.922  1.00  0.00     0.041 C 
ATOM      9  O   UNL     1      23.006  18.728  54.704  1.00  0.00    -0.550 OA
ATOM     10  O   UNL     1      23.732  17.988  56.747  1.00  0.00    -0.550 OA
ENDBRANCH   7   8
ENDBRANCH   6   7
ENDBRANCH   5   6
ENDBRANCH   4   5
ENDBRANCH   3   4
ENDBRANCH   2   3
ENDBRANCH   1   2
BRANCH   1  11
ATOM     11  C   UNL     1      27.103  21.438  58.661  1.00  0.00     0.000 C 
BRANCH  11  12
ATOM     12  C   UNL     1      27.571  21.431  60.130  1.00  0.00    -0.000 C 
BRANCH  12  13
ATOM     13  C   UNL     1      26.613  22.111  61.125  1.00  0.00    -0.000 C 
BRANCH  13  14
ATOM     14  C   UNL     1      26.715  21.526  62.544  1.00  0.00    -0.000 C 
BRANCH  14  15
ATOM     15  C   UNL     1      25.437  21.754  63.370  1.00  0.00    -0.000 C 
BRANCH  15  16
ATOM     16  C   UNL     1      24.231  20.970  62.822  1.00  0.00    -0.000 C 
BRANCH  16  17
ATOM     17  C   UNL     1      23.162  21.891  62.212  1.00  0.00    -0.003 C 
ATOM     18  C   UNL     1      22.909  21.607  60.731  1.00  0.00     0.004 C 
ENDBRANCH  16  17
ENDBRANCH  15  16
ENDBRANCH  14  15
ENDBRANCH  13  14
ENDBRANCH  12  13
ENDBRANCH  11  12
ENDBRANCH   1  11
TORSDOF 14
ENDMDL
MODEL 7
REMARK VINA RESULT:    -2.809      1.339      1.966
REMARK INTER + INTRA:          -6.646
REMARK INTER:                  -5.367
REMARK INTRA:                  -1.279
REMARK UNBOUND:                -1.538
REMARK SMILES CCCCCCCCCCCCCCCC(=O)[O-]
REMARK SMILES IDX 9 1 10 2 11 3 12 4 13 5 14 6 15 7 16 8 17 9 18 10 8 11 7 12
REMARK SMILES IDX 6 13 5 14 4 15 3 16 2 17 1 18
REMARK H PARENT
REMARK Flexibility Score: inf
ROOT
ATOM      1  C   UNL     1      25.611  20.293  58.033  1.00  0.00     0.000 C 
ENDROOT
BRANCH   1   2
ATOM      2  C   UNL     1      26.492  21.535  58.258  1.00  0.00     0.000 C 
BRANCH   2   3
ATOM      3  C   UNL     1      27.190  22.011  56.972  1.00  0.00     0.000 C 
BRANCH   3   4
ATOM      4  C   UNL     1      26.892  21.103  55.768  1.00  0.00     0.000 C 
BRANCH   4   5
ATOM      5  C   UNL     1      26.144  21.835  54.642  1.00  0.00     0.000 C 
BRANCH   5   6
ATOM      6  C   UNL     1      24.655  21.979  54.978  1.00  0.00     0.006 C 
BRANCH   6   7
ATOM      7  C   UNL     1      23.780  21.449  53.837  1.00  0.00     0.053 C 
BRANCH   7   8
ATOM      8  C   UNL     1      23.552  19.979  53.990  1.00  0.00     0.041 C 
ATOM      9  O   UNL     1      23.562  19.453  55.135  1.00  0.00    -0.550 OA
ATOM     10  O   UNL     1      23.280  19.197  52.875  1.00  0.00    -0.550 OA
ENDBRANCH   7   8
ENDBRANCH   6   7
ENDBRANCH   5   6
ENDBRANCH   4   5
ENDBRANCH   3   4
ENDBRANCH   2   3
ENDBRANCH   1   2
BRANCH   1  11
ATOM     11  C   UNL     1      24.109  20.496  58.321  1.00  0.00     0.000 C 
BRANCH  11  12
ATOM     12  C   UNL     1      23.755  21.790  59.080  1.00  0.00    -0.000 C 
BRANCH  12  13
ATOM     13  C   UNL     1      23.169  21.581  60.489  1.00  0.00    -0.000 C 
BRANCH  13  14
ATOM     14  C   UNL     1      24.227  21.710  61.598  1.00  0.00    -0.000 C 
BRANCH  14  15
ATOM     15  C   UNL     1      23.669  21.364  62.989  1.00  0.00    -0.000 C 
BRANCH  15  16
ATOM     16  C   UNL     1      24.764  21.308  64.069  1.00  0.00    -0.000 C 
BRANCH  16  17
ATOM     17  C   UNL     1      26.015  20.550  63.597  1.00  0.00    -0.003 C 
ATOM     18  C   UNL     1      26.065  19.110  64.108  1.00  0.00     0.004 C 
ENDBRANCH  16  17
ENDBRANCH  15  16
ENDBRANCH  14  15
ENDBRANCH  13  14
ENDBRANCH  12  13
ENDBRANCH  11  12
ENDBRANCH   1  11
TORSDOF 14
ENDMDL
MODEL 8
REMARK VINA RESULT:    -2.674      2.504      6.689
REMARK INTER + INTRA:          -6.400
REMARK INTER:                  -4.631
REMARK INTRA:                  -1.769
REMARK UNBOUND:                -1.538
REMARK SMILES CCCCCCCCCCCCCCCC(=O)[O-]
REMARK SMILES IDX 9 1 10 2 11 3 12 4 13 5 14 6 15 7 16 8 17 9 18 10 8 11 7 12
REMARK SMILES IDX 6 13 5 14 4 15 3 16 2 17 1 18
REMARK H PARENT
REMARK Flexibility Score: inf
ROOT
ATOM      1  C   UNL     1      24.401  18.717  56.529  1.00  0.00     0.000 C 
ENDROOT
BRANCH   1   2
ATOM      2  C   UNL     1      23.227  19.217  57.391  1.00  0.00     0.000 C 
BRANCH   2   3
ATOM      3  C   UNL     1      23.279  20.732  57.648  1.00  0.00     0.000 C 
BRANCH   3   4
ATOM      4  C   UNL     1      23.720  21.073  59.082  1.00  0.00     0.000 C 
BRANCH   4   5
ATOM      5  C   UNL     1      25.234  21.317  59.195  1.00  0.00     0.000 C 
BRANCH   5   6
ATOM      6  C   UNL     1      25.565  22.125  60.456  1.00  0.00     0.006 C 
BRANCH   6   7
ATOM      7  C   UNL     1      26.685  21.455  61.259  1.00  0.00     0.053 C 
BRANCH   7   8
ATOM      8  C   UNL     1      26.169  20.977  62.579  1.00  0.00     0.041 C 
ATOM      9  O   UNL     1      26.884  21.074  63.611  1.00  0.00    -0.550 OA
ATOM     10  O   UNL     1      24.880  20.469  62.679  1.00  0.00    -0.550 OA
ENDBRANCH   7   8
ENDBRANCH   6   7
ENDBRANCH   5   6
ENDBRANCH   4   5
ENDBRANCH   3   4
ENDBRANCH   2   3
ENDBRANCH   1   2
BRANCH   1  11
ATOM     11  C   UNL     1      24.041  18.373  55.069  1.00  0.00     0.000 C 
BRANCH  11  12
ATOM     12  C   UNL     1      22.919  19.230  54.450  1.00  0.00    -0.000 C 
BRANCH  12  13
ATOM     13  C   UNL     1      23.227  19.800  53.054  1.00  0.00    -0.000 C 
BRANCH  13  14
ATOM     14  C   UNL     1      23.168  21.337  53.012  1.00  0.00    -0.000 C 
BRANCH  14  15
ATOM     15  C   UNL     1      23.819  21.986  54.245  1.00  0.00    -0.000 C 
BRANCH  15  16
ATOM     16  C   UNL     1      25.357  21.984  54.173  1.00  0.00    -0.000 C 
BRANCH  16  17
ATOM     17  C   UNL     1      26.009  21.792  55.551  1.00  0.00    -0.003 C 
ATOM     18  C   UNL     1      27.329  21.023  55.481  1.00  0.00     0.004 C 
ENDBRANCH  16  17
ENDBRANCH  15  16
ENDBRANCH  14  15
ENDBRANCH  13  14
ENDBRANCH  12  13
ENDBRANCH  11  12
ENDBRANCH   1  11
TORSDOF 14
ENDMDL
MODEL 9
REMARK VINA RESULT:    -2.182      2.794      6.365
REMARK INTER + INTRA:          -5.507
REMARK INTER:                  -4.155
REMARK INTRA:                  -1.351
REMARK UNBOUND:                -1.538
REMARK SMILES CCCCCCCCCCCCCCCC(=O)[O-]
REMARK SMILES IDX 9 1 10 2 11 3 12 4 13 5 14 6 15 7 16 8 17 9 18 10 8 11 7 12
REMARK SMILES IDX 6 13 5 14 4 15 3 16 2 17 1 18
REMARK H PARENT
REMARK Flexibility Score: inf
ROOT
ATOM      1  C   UNL     1      27.349  21.407  57.544  1.00  0.00     0.000 C 
ENDROOT
BRANCH   1   2
ATOM      2  C   UNL     1      26.474  21.620  58.793  1.00  0.00     0.000 C 
BRANCH   2   3
ATOM      3  C   UNL     1      27.087  21.005  60.062  1.00  0.00     0.000 C 
BRANCH   3   4
ATOM      4  C   UNL     1      26.981  21.937  61.281  1.00  0.00     0.000 C 
BRANCH   4   5
ATOM      5  C   UNL     1      25.532  22.124  61.760  1.00  0.00     0.000 C 
BRANCH   5   6
ATOM      6  C   UNL     1      24.846  20.770  61.975  1.00  0.00     0.006 C 
BRANCH   6   7
ATOM      7  C   UNL     1      24.624  20.497  63.466  1.00  0.00     0.053 C 
BRANCH   7   8
ATOM      8  C   UNL     1      25.712  19.624  64.007  1.00  0.00     0.041 C 
ATOM      9  O   UNL     1      26.883  20.072  64.125  1.00  0.00    -0.550 OA
ATOM     10  O   UNL     1      25.423  18.333  64.428  1.00  0.00    -0.550 OA
ENDBRANCH   7   8
ENDBRANCH   6   7
ENDBRANCH   5   6
ENDBRANCH   4   5
ENDBRANCH   3   4
ENDBRANCH   2   3
ENDBRANCH   1   2
BRANCH   1  11
ATOM     11  C   UNL     1      26.807  20.375  56.534  1.00  0.00     0.000 C 
BRANCH  11  12
ATOM     12  C   UNL     1      26.662  20.887  55.087  1.00  0.00    -0.000 C 
BRANCH  12  13
ATOM     13  C   UNL     1      25.425  21.766  54.825  1.00  0.00    -0.000 C 
BRANCH  13  14
ATOM     14  C   UNL     1      24.164  20.939  54.517  1.00  0.00    -0.000 C 
BRANCH  14  15
ATOM     15  C   UNL     1      22.931  21.433  55.294  1.00  0.00    -0.000 C 
BRANCH  15  16
ATOM     16  C   UNL     1      23.275  21.890  56.722  1.00  0.00    -0.000 C 
BRANCH  16  17
ATOM     17  C   UNL     1      22.986  20.805  57.772  1.00  0.00    -0.003 C 
ATOM     18  C   UNL     1      23.436  19.413  57.325  1.00  0.00     0.004 C 
ENDBRANCH  16  17
ENDBRANCH  15  16
ENDBRANCH  14  15
ENDBRANCH  13  14
ENDBRANCH  12  13
ENDBRANCH  11  12
ENDBRANCH   1  11
TORSDOF 14
ENDMDL
