MODEL 1
REMARK VINA RESULT:    -4.787      0.000      0.000
REMARK INTER + INTRA:          -9.662
REMARK INTER:                  -7.446
REMARK INTRA:                  -2.216
REMARK UNBOUND:                -2.216
REMARK SMILES COc1cc(CNC(=O)CCCCC=CC(C)C)ccc1O
REMARK SMILES IDX 11 1 12 2 13 3 14 4 15 5 16 6 17 7 18 8 10 9 8 10 9 11 7 12
REMARK SMILES IDX 6 14 5 15 4 16 19 17 3 18 20 19 21 20 2 21 1 22 22 23
REMARK H PARENT 7 13 22 24
REMARK Flexibility Score: inf
ROOT
ATOM      1  C   UNL     1    -104.566 -13.209  48.014  1.00  0.00     0.010 C 
ENDROOT
BRANCH   1   2
ATOM      2  C   UNL     1    -105.484 -14.112  48.855  1.00  0.00     0.005 C 
BRANCH   2   3
ATOM      3  C   UNL     1    -104.726 -14.794  50.005  1.00  0.00     0.027 C 
BRANCH   3   4
ATOM      4  C   UNL     1    -105.460 -14.685  51.314  1.00  0.00    -0.031 C 
ATOM      5  C   UNL     1    -105.035 -15.325  52.414  1.00  0.00    -0.028 C 
BRANCH   5   6
ATOM      6  C   UNL     1    -105.778 -15.212  53.724  1.00  0.00     0.005 C 
ATOM      7  C   UNL     1    -104.942 -15.798  54.867  1.00  0.00     0.012 C 
ATOM      8  C   UNL     1    -106.129 -13.747  54.017  1.00  0.00     0.012 C 
ENDBRANCH   5   6
ENDBRANCH   3   4
ENDBRANCH   2   3
ENDBRANCH   1   2
BRANCH   1   9
ATOM      9  C   UNL     1    -104.932 -11.725  48.145  1.00  0.00     0.100 C 
BRANCH   9  10
ATOM     10  C   UNL     1    -104.669 -11.209  49.530  1.00  0.00     0.220 C 
ATOM     11  O   UNL     1    -105.568 -10.557  50.129  1.00  0.00    -0.275 OA
ATOM     12  N   UNL     1    -103.393 -11.423  50.150  1.00  0.00    -0.352 N 
ATOM     13  H   UNL     1    -102.646 -11.922  49.617  1.00  0.00     0.163 HD
BRANCH  12  14
ATOM     14  C   UNL     1    -103.073 -10.913  51.482  1.00  0.00     0.151 C 
BRANCH  14  15
ATOM     15  C   UNL     1    -102.619 -12.035  52.378  1.00  0.00    -0.025 A 
ATOM     16  C   UNL     1    -102.856 -11.968  53.760  1.00  0.00     0.056 A 
ATOM     17  C   UNL     1    -101.946 -13.143  51.846  1.00  0.00     0.009 A 
ATOM     18  C   UNL     1    -102.428 -13.006  54.612  1.00  0.00     0.160 A 
ATOM     19  C   UNL     1    -101.522 -14.176  52.683  1.00  0.00     0.050 A 
ATOM     20  C   UNL     1    -101.758 -14.115  54.061  1.00  0.00     0.157 A 
BRANCH  18  21
ATOM     21  O   UNL     1    -102.650 -12.970  55.998  1.00  0.00    -0.493 OA
ATOM     22  C   UNL     1    -103.898 -12.658  56.609  1.00  0.00     0.278 C 
ENDBRANCH  18  21
BRANCH  20  23
ATOM     23  O   UNL     1    -101.322 -15.166  54.866  1.00  0.00    -0.504 OA
ATOM     24  H   UNL     1    -100.351 -15.455  54.898  1.00  0.00     0.293 HD
ENDBRANCH  20  23
ENDBRANCH  14  15
ENDBRANCH  12  14
ENDBRANCH   9  10
ENDBRANCH   1   9
TORSDOF 10
ENDMDL
MODEL 2
REMARK VINA RESULT:    -4.760      1.021      1.700
REMARK INTER + INTRA:          -9.619
REMARK INTER:                  -7.943
REMARK INTRA:                  -1.676
REMARK UNBOUND:                -2.216
REMARK SMILES COc1cc(CNC(=O)CCCCC=CC(C)C)ccc1O
REMARK SMILES IDX 11 1 12 2 13 3 14 4 15 5 16 6 17 7 18 8 10 9 8 10 9 11 7 12
REMARK SMILES IDX 6 14 5 15 4 16 19 17 3 18 20 19 21 20 2 21 1 22 22 23
REMARK H PARENT 7 13 22 24
REMARK Flexibility Score: inf
ROOT
ATOM      1  C   UNL     1    -105.705 -11.341  48.038  1.00  0.00     0.010 C 
ENDROOT
BRANCH   1   2
ATOM      2  C   UNL     1    -105.790 -12.745  47.415  1.00  0.00     0.005 C 
BRANCH   2   3
ATOM      3  C   UNL     1    -104.682 -13.674  47.934  1.00  0.00     0.027 C 
BRANCH   3   4
ATOM      4  C   UNL     1    -105.150 -14.538  49.073  1.00  0.00    -0.031 C 
ATOM      5  C   UNL     1    -104.404 -14.715  50.174  1.00  0.00    -0.028 C 
BRANCH   5   6
ATOM      6  C   UNL     1    -104.881 -15.585  51.314  1.00  0.00     0.005 C 
ATOM      7  C   UNL     1    -105.134 -14.736  52.565  1.00  0.00     0.012 C 
ATOM      8  C   UNL     1    -106.155 -16.341  50.915  1.00  0.00     0.012 C 
ENDBRANCH   5   6
ENDBRANCH   3   4
ENDBRANCH   2   3
ENDBRANCH   1   2
BRANCH   1   9
ATOM      9  C   UNL     1    -104.274 -10.789  48.033  1.00  0.00     0.100 C 
BRANCH   9  10
ATOM     10  C   UNL     1    -103.871 -10.277  49.386  1.00  0.00     0.220 C 
ATOM     11  O   UNL     1    -103.922  -9.039  49.620  1.00  0.00    -0.275 OA
ATOM     12  N   UNL     1    -103.396 -11.187  50.389  1.00  0.00    -0.352 N 
ATOM     13  H   UNL     1    -103.316 -12.202  50.157  1.00  0.00     0.163 HD
BRANCH  12  14
ATOM     14  C   UNL     1    -102.960 -10.739  51.710  1.00  0.00     0.151 C 
BRANCH  14  15
ATOM     15  C   UNL     1    -102.543 -11.915  52.551  1.00  0.00    -0.025 A 
ATOM     16  C   UNL     1    -102.912 -11.975  53.905  1.00  0.00     0.056 A 
ATOM     17  C   UNL     1    -101.774 -12.949  51.999  1.00  0.00     0.009 A 
ATOM     18  C   UNL     1    -102.521 -13.067  54.707  1.00  0.00     0.160 A 
ATOM     19  C   UNL     1    -101.385 -14.033  52.787  1.00  0.00     0.050 A 
ATOM     20  C   UNL     1    -101.753 -14.099  54.136  1.00  0.00     0.157 A 
BRANCH  18  21
ATOM     21  O   UNL     1    -102.874 -13.158  56.063  1.00  0.00    -0.493 OA
ATOM     22  C   UNL     1    -104.124 -12.739  56.602  1.00  0.00     0.278 C 
ENDBRANCH  18  21
BRANCH  20  23
ATOM     23  O   UNL     1    -101.347 -15.198  54.891  1.00  0.00    -0.504 OA
ATOM     24  H   UNL     1    -101.206 -16.114  54.481  1.00  0.00     0.293 HD
ENDBRANCH  20  23
ENDBRANCH  14  15
ENDBRANCH  12  14
ENDBRANCH   9  10
ENDBRANCH   1   9
TORSDOF 10
ENDMDL
MODEL 3
REMARK VINA RESULT:    -4.657      2.518      5.167
REMARK INTER + INTRA:          -9.459
REMARK INTER:                  -7.572
REMARK INTRA:                  -1.887
REMARK UNBOUND:                -2.216
REMARK SMILES COc1cc(CNC(=O)CCCCC=CC(C)C)ccc1O
REMARK SMILES IDX 11 1 12 2 13 3 14 4 15 5 16 6 17 7 18 8 10 9 8 10 9 11 7 12
REMARK SMILES IDX 6 14 5 15 4 16 19 17 3 18 20 19 21 20 2 21 1 22 22 23
REMARK H PARENT 7 13 22 24
REMARK Flexibility Score: inf
ROOT
ATOM      1  C   UNL     1    -104.302  -8.730  56.319  1.00  0.00     0.010 C 
ENDROOT
BRANCH   1   2
ATOM      2  C   UNL     1    -105.076 -10.034  56.062  1.00  0.00     0.005 C 
BRANCH   2   3
ATOM      3  C   UNL     1    -104.649 -11.157  57.019  1.00  0.00     0.027 C 
BRANCH   3   4
ATOM      4  C   UNL     1    -104.379 -12.449  56.297  1.00  0.00    -0.031 C 
ATOM      5  C   UNL     1    -103.192 -12.701  55.726  1.00  0.00    -0.028 C 
BRANCH   5   6
ATOM      6  C   UNL     1    -102.929 -14.001  55.002  1.00  0.00     0.005 C 
ATOM      7  C   UNL     1    -101.506 -14.494  55.288  1.00  0.00     0.012 C 
ATOM      8  C   UNL     1    -103.956 -15.063  55.417  1.00  0.00     0.012 C 
ENDBRANCH   5   6
ENDBRANCH   3   4
ENDBRANCH   2   3
ENDBRANCH   1   2
BRANCH   1   9
ATOM      9  C   UNL     1    -103.745  -8.120  55.026  1.00  0.00     0.100 C 
BRANCH   9  10
ATOM     10  C   UNL     1    -102.577  -8.902  54.501  1.00  0.00     0.220 C 
ATOM     11  O   UNL     1    -101.475  -8.854  55.112  1.00  0.00    -0.275 OA
ATOM     12  N   UNL     1    -102.704  -9.666  53.293  1.00  0.00    -0.352 N 
ATOM     13  H   UNL     1    -103.612  -9.651  52.775  1.00  0.00     0.163 HD
BRANCH  12  14
ATOM     14  C   UNL     1    -101.590 -10.417  52.719  1.00  0.00     0.151 C 
BRANCH  14  15
ATOM     15  C   UNL     1    -102.062 -11.757  52.221  1.00  0.00    -0.025 A 
ATOM     16  C   UNL     1    -103.430 -11.979  51.996  1.00  0.00     0.056 A 
ATOM     17  C   UNL     1    -101.148 -12.793  51.991  1.00  0.00     0.009 A 
ATOM     18  C   UNL     1    -103.887 -13.232  51.538  1.00  0.00     0.160 A 
ATOM     19  C   UNL     1    -101.593 -14.035  51.535  1.00  0.00     0.050 A 
ATOM     20  C   UNL     1    -102.955 -14.261  51.308  1.00  0.00     0.157 A 
BRANCH  18  21
ATOM     21  O   UNL     1    -105.248 -13.487  51.303  1.00  0.00    -0.493 OA
ATOM     22  C   UNL     1    -105.906 -13.278  50.058  1.00  0.00     0.278 C 
ENDBRANCH  18  21
BRANCH  20  23
ATOM     23  O   UNL     1    -103.363 -15.513  50.851  1.00  0.00    -0.504 OA
ATOM     24  H   UNL     1    -104.092 -15.624  50.156  1.00  0.00     0.293 HD
ENDBRANCH  20  23
ENDBRANCH  14  15
ENDBRANCH  12  14
ENDBRANCH   9  10
ENDBRANCH   1   9
TORSDOF 10
ENDMDL
MODEL 4
REMARK VINA RESULT:    -4.544      1.884      3.049
REMARK INTER + INTRA:          -9.284
REMARK INTER:                  -6.902
REMARK INTRA:                  -2.382
REMARK UNBOUND:                -2.216
REMARK SMILES COc1cc(CNC(=O)CCCCC=CC(C)C)ccc1O
REMARK SMILES IDX 11 1 12 2 13 3 14 4 15 5 16 6 17 7 18 8 10 9 8 10 9 11 7 12
REMARK SMILES IDX 6 14 5 15 4 16 19 17 3 18 20 19 21 20 2 21 1 22 22 23
REMARK H PARENT 7 13 22 24
REMARK Flexibility Score: inf
ROOT
ATOM      1  C   UNL     1    -105.312 -14.320  49.678  1.00  0.00     0.010 C 
ENDROOT
BRANCH   1   2
ATOM      2  C   UNL     1    -106.156 -13.527  50.690  1.00  0.00     0.005 C 
BRANCH   2   3
ATOM      3  C   UNL     1    -105.886 -13.966  52.137  1.00  0.00     0.027 C 
BRANCH   3   4
ATOM      4  C   UNL     1    -106.000 -12.824  53.109  1.00  0.00    -0.031 C 
ATOM      5  C   UNL     1    -105.757 -11.558  52.739  1.00  0.00    -0.028 C 
BRANCH   5   6
ATOM      6  C   UNL     1    -105.874 -10.416  53.722  1.00  0.00     0.005 C 
ATOM      7  C   UNL     1    -105.963 -10.951  55.155  1.00  0.00     0.012 C 
ATOM      8  C   UNL     1    -104.679  -9.463  53.581  1.00  0.00     0.012 C 
ENDBRANCH   5   6
ENDBRANCH   3   4
ENDBRANCH   2   3
ENDBRANCH   1   2
BRANCH   1   9
ATOM      9  C   UNL     1    -104.255 -13.446  48.992  1.00  0.00     0.100 C 
BRANCH   9  10
ATOM     10  C   UNL     1    -103.294 -12.855  49.983  1.00  0.00     0.220 C 
ATOM     11  O   UNL     1    -103.216 -11.602  50.099  1.00  0.00    -0.275 OA
ATOM     12  N   UNL     1    -102.445 -13.711  50.763  1.00  0.00    -0.352 N 
ATOM     13  H   UNL     1    -102.491 -14.744  50.615  1.00  0.00     0.163 HD
BRANCH  12  14
ATOM     14  C   UNL     1    -101.470 -13.188  51.716  1.00  0.00     0.151 C 
BRANCH  14  15
ATOM     15  C   UNL     1    -102.034 -13.213  53.112  1.00  0.00    -0.025 A 
ATOM     16  C   UNL     1    -102.561 -14.405  53.634  1.00  0.00     0.056 A 
ATOM     17  C   UNL     1    -102.053 -12.049  53.892  1.00  0.00     0.009 A 
ATOM     18  C   UNL     1    -103.101 -14.440  54.936  1.00  0.00     0.160 A 
ATOM     19  C   UNL     1    -102.584 -12.078  55.183  1.00  0.00     0.050 A 
ATOM     20  C   UNL     1    -103.108 -13.264  55.709  1.00  0.00     0.157 A 
BRANCH  18  21
ATOM     21  O   UNL     1    -103.634 -15.615  55.488  1.00  0.00    -0.493 OA
ATOM     22  C   UNL     1    -104.992 -16.026  55.359  1.00  0.00     0.278 C 
ENDBRANCH  18  21
BRANCH  20  23
ATOM     23  O   UNL     1    -103.629 -13.255  57.002  1.00  0.00    -0.504 OA
ATOM     24  H   UNL     1    -103.500 -12.471  57.631  1.00  0.00     0.293 HD
ENDBRANCH  20  23
ENDBRANCH  14  15
ENDBRANCH  12  14
ENDBRANCH   9  10
ENDBRANCH   1   9
TORSDOF 10
ENDMDL
MODEL 5
REMARK VINA RESULT:    -4.534      1.585      2.155
REMARK INTER + INTRA:          -9.268
REMARK INTER:                  -7.458
REMARK INTRA:                  -1.810
REMARK UNBOUND:                -2.216
REMARK SMILES COc1cc(CNC(=O)CCCCC=CC(C)C)ccc1O
REMARK SMILES IDX 11 1 12 2 13 3 14 4 15 5 16 6 17 7 18 8 10 9 8 10 9 11 7 12
REMARK SMILES IDX 6 14 5 15 4 16 19 17 3 18 20 19 21 20 2 21 1 22 22 23
REMARK H PARENT 7 13 22 24
REMARK Flexibility Score: inf
ROOT
ATOM      1  C   UNL     1    -105.532 -13.736  49.591  1.00  0.00     0.010 C 
ENDROOT
BRANCH   1   2
ATOM      2  C   UNL     1    -105.799 -15.251  49.575  1.00  0.00     0.005 C 
BRANCH   2   3
ATOM      3  C   UNL     1    -105.078 -15.976  50.722  1.00  0.00     0.027 C 
BRANCH   3   4
ATOM      4  C   UNL     1    -105.158 -15.214  52.017  1.00  0.00    -0.031 C 
ATOM      5  C   UNL     1    -105.900 -15.652  53.046  1.00  0.00    -0.028 C 
BRANCH   5   6
ATOM      6  C   UNL     1    -105.975 -14.881  54.343  1.00  0.00     0.005 C 
ATOM      7  C   UNL     1    -107.295 -14.107  54.430  1.00  0.00     0.012 C 
ATOM      8  C   UNL     1    -105.834 -15.830  55.540  1.00  0.00     0.012 C 
ENDBRANCH   5   6
ENDBRANCH   3   4
ENDBRANCH   2   3
ENDBRANCH   1   2
BRANCH   1   9
ATOM      9  C   UNL     1    -104.191 -13.376  48.940  1.00  0.00     0.100 C 
BRANCH   9  10
ATOM     10  C   UNL     1    -103.227 -12.800  49.937  1.00  0.00     0.220 C 
ATOM     11  O   UNL     1    -103.223 -11.556  50.146  1.00  0.00    -0.275 OA
ATOM     12  N   UNL     1    -102.294 -13.654  50.614  1.00  0.00    -0.352 N 
ATOM     13  H   UNL     1    -102.281 -14.674  50.389  1.00  0.00     0.163 HD
BRANCH  12  14
ATOM     14  C   UNL     1    -101.312 -13.141  51.567  1.00  0.00     0.151 C 
BRANCH  14  15
ATOM     15  C   UNL     1    -101.860 -13.201  52.968  1.00  0.00    -0.025 A 
ATOM     16  C   UNL     1    -102.352 -12.036  53.579  1.00  0.00     0.056 A 
ATOM     17  C   UNL     1    -101.871 -14.409  53.678  1.00  0.00     0.009 A 
ATOM     18  C   UNL     1    -102.860 -12.075  54.894  1.00  0.00     0.160 A 
ATOM     19  C   UNL     1    -102.375 -14.456  54.979  1.00  0.00     0.050 A 
ATOM     20  C   UNL     1    -102.869 -13.298  55.590  1.00  0.00     0.157 A 
BRANCH  18  21
ATOM     21  O   UNL     1    -103.360 -10.929  55.532  1.00  0.00    -0.493 OA
ATOM     22  C   UNL     1    -102.726  -9.654  55.516  1.00  0.00     0.278 C 
ENDBRANCH  18  21
BRANCH  20  23
ATOM     23  O   UNL     1    -103.365 -13.383  56.890  1.00  0.00    -0.504 OA
ATOM     24  H   UNL     1    -103.621 -14.267  57.315  1.00  0.00     0.293 HD
ENDBRANCH  20  23
ENDBRANCH  14  15
ENDBRANCH  12  14
ENDBRANCH   9  10
ENDBRANCH   1   9
TORSDOF 10
ENDMDL
MODEL 6
REMARK VINA RESULT:    -4.464      2.420      3.815
REMARK INTER + INTRA:          -9.159
REMARK INTER:                  -7.105
REMARK INTRA:                  -2.054
REMARK UNBOUND:                -2.216
REMARK SMILES COc1cc(CNC(=O)CCCCC=CC(C)C)ccc1O
REMARK SMILES IDX 11 1 12 2 13 3 14 4 15 5 16 6 17 7 18 8 10 9 8 10 9 11 7 12
REMARK SMILES IDX 6 14 5 15 4 16 19 17 3 18 20 19 21 20 2 21 1 22 22 23
REMARK H PARENT 7 13 22 24
REMARK Flexibility Score: inf
ROOT
ATOM      1  C   UNL     1    -103.306 -14.795  51.377  1.00  0.00     0.010 C 
ENDROOT
BRANCH   1   2
ATOM      2  C   UNL     1    -102.066 -13.908  51.177  1.00  0.00     0.005 C 
BRANCH   2   3
ATOM      3  C   UNL     1    -101.280 -13.711  52.482  1.00  0.00     0.027 C 
BRANCH   3   4
ATOM      4  C   UNL     1    -102.062 -14.150  53.689  1.00  0.00    -0.031 C 
ATOM      5  C   UNL     1    -102.401 -13.288  54.660  1.00  0.00    -0.028 C 
BRANCH   5   6
ATOM      6  C   UNL     1    -103.186 -13.738  55.870  1.00  0.00     0.005 C 
ATOM      7  C   UNL     1    -104.005 -12.574  56.439  1.00  0.00     0.012 C 
ATOM      8  C   UNL     1    -104.107 -14.911  55.507  1.00  0.00     0.012 C 
ENDBRANCH   5   6
ENDBRANCH   3   4
ENDBRANCH   2   3
ENDBRANCH   1   2
BRANCH   1   9
ATOM      9  C   UNL     1    -104.489 -14.345  50.510  1.00  0.00     0.100 C 
BRANCH   9  10
ATOM     10  C   UNL     1    -104.704 -12.861  50.591  1.00  0.00     0.220 C 
ATOM     11  O   UNL     1    -104.554 -12.156  49.557  1.00  0.00    -0.275 OA
ATOM     12  N   UNL     1    -105.039 -12.248  51.845  1.00  0.00    -0.352 N 
ATOM     13  H   UNL     1    -105.109 -12.844  52.700  1.00  0.00     0.163 HD
BRANCH  12  14
ATOM     14  C   UNL     1    -105.226 -10.806  51.987  1.00  0.00     0.151 C 
BRANCH  14  15
ATOM     15  C   UNL     1    -104.176 -10.228  52.897  1.00  0.00    -0.025 A 
ATOM     16  C   UNL     1    -104.557  -9.538  54.060  1.00  0.00     0.056 A 
ATOM     17  C   UNL     1    -102.816 -10.358  52.588  1.00  0.00     0.009 A 
ATOM     18  C   UNL     1    -103.584  -8.984  54.917  1.00  0.00     0.160 A 
ATOM     19  C   UNL     1    -101.847  -9.814  53.433  1.00  0.00     0.050 A 
ATOM     20  C   UNL     1    -102.222  -9.129  54.593  1.00  0.00     0.157 A 
BRANCH  18  21
ATOM     21  O   UNL     1    -103.933  -8.290  56.086  1.00  0.00    -0.493 OA
ATOM     22  C   UNL     1    -104.408  -8.905  57.280  1.00  0.00     0.278 C 
ENDBRANCH  18  21
BRANCH  20  23
ATOM     23  O   UNL     1    -101.228  -8.599  55.414  1.00  0.00    -0.504 OA
ATOM     24  H   UNL     1    -100.242  -8.760  55.242  1.00  0.00     0.293 HD
ENDBRANCH  20  23
ENDBRANCH  14  15
ENDBRANCH  12  14
ENDBRANCH   9  10
ENDBRANCH   1   9
TORSDOF 10
ENDMDL
MODEL 7
REMARK VINA RESULT:    -4.458      1.955      3.776
REMARK INTER + INTRA:          -9.150
REMARK INTER:                  -6.901
REMARK INTRA:                  -2.249
REMARK UNBOUND:                -2.216
REMARK SMILES COc1cc(CNC(=O)CCCCC=CC(C)C)ccc1O
REMARK SMILES IDX 11 1 12 2 13 3 14 4 15 5 16 6 17 7 18 8 10 9 8 10 9 11 7 12
REMARK SMILES IDX 6 14 5 15 4 16 19 17 3 18 20 19 21 20 2 21 1 22 22 23
REMARK H PARENT 7 13 22 24
REMARK Flexibility Score: inf
ROOT
ATOM      1  C   UNL     1    -104.347 -10.744  49.783  1.00  0.00     0.010 C 
ENDROOT
BRANCH   1   2
ATOM      2  C   UNL     1    -105.710 -10.796  50.493  1.00  0.00     0.005 C 
BRANCH   2   3
ATOM      3  C   UNL     1    -105.570 -10.691  52.020  1.00  0.00     0.027 C 
BRANCH   3   4
ATOM      4  C   UNL     1    -104.131 -10.689  52.460  1.00  0.00    -0.031 C 
ATOM      5  C   UNL     1    -103.773 -10.291  53.691  1.00  0.00    -0.028 C 
BRANCH   5   6
ATOM      6  C   UNL     1    -102.326 -10.291  54.125  1.00  0.00     0.005 C 
ATOM      7  C   UNL     1    -101.400 -10.321  52.904  1.00  0.00     0.012 C 
ATOM      8  C   UNL     1    -102.026  -9.061  54.992  1.00  0.00     0.012 C 
ENDBRANCH   5   6
ENDBRANCH   3   4
ENDBRANCH   2   3
ENDBRANCH   1   2
BRANCH   1   9
ATOM      9  C   UNL     1    -104.156 -11.912  48.806  1.00  0.00     0.100 C 
BRANCH   9  10
ATOM     10  C   UNL     1    -103.815 -13.186  49.524  1.00  0.00     0.220 C 
ATOM     11  O   UNL     1    -104.525 -14.211  49.337  1.00  0.00    -0.275 OA
ATOM     12  N   UNL     1    -102.714 -13.223  50.444  1.00  0.00    -0.352 N 
ATOM     13  H   UNL     1    -102.170 -12.349  50.621  1.00  0.00     0.163 HD
BRANCH  12  14
ATOM     14  C   UNL     1    -102.359 -14.426  51.193  1.00  0.00     0.151 C 
BRANCH  14  15
ATOM     15  C   UNL     1    -102.629 -14.228  52.661  1.00  0.00    -0.025 A 
ATOM     16  C   UNL     1    -103.951 -14.142  53.126  1.00  0.00     0.056 A 
ATOM     17  C   UNL     1    -101.569 -14.114  53.570  1.00  0.00     0.009 A 
ATOM     18  C   UNL     1    -104.218 -13.948  54.497  1.00  0.00     0.160 A 
ATOM     19  C   UNL     1    -101.826 -13.924  54.929  1.00  0.00     0.050 A 
ATOM     20  C   UNL     1    -103.141 -13.840  55.397  1.00  0.00     0.157 A 
BRANCH  18  21
ATOM     21  O   UNL     1    -105.527 -13.858  54.994  1.00  0.00    -0.493 OA
ATOM     22  C   UNL     1    -106.356 -14.977  55.296  1.00  0.00     0.278 C 
ENDBRANCH  18  21
BRANCH  20  23
ATOM     23  O   UNL     1    -103.360 -13.651  56.761  1.00  0.00    -0.504 OA
ATOM     24  H   UNL     1    -104.172 -14.028  57.236  1.00  0.00     0.293 HD
ENDBRANCH  20  23
ENDBRANCH  14  15
ENDBRANCH  12  14
ENDBRANCH   9  10
ENDBRANCH   1   9
TORSDOF 10
ENDMDL
MODEL 8
REMARK VINA RESULT:    -4.447      2.263      3.644
REMARK INTER + INTRA:          -9.132
REMARK INTER:                  -6.922
REMARK INTRA:                  -2.210
REMARK UNBOUND:                -2.216
REMARK SMILES COc1cc(CNC(=O)CCCCC=CC(C)C)ccc1O
REMARK SMILES IDX 11 1 12 2 13 3 14 4 15 5 16 6 17 7 18 8 10 9 8 10 9 11 7 12
REMARK SMILES IDX 6 14 5 15 4 16 19 17 3 18 20 19 21 20 2 21 1 22 22 23
REMARK H PARENT 7 13 22 24
REMARK Flexibility Score: inf
ROOT
ATOM      1  C   UNL     1    -105.166  -9.831  51.303  1.00  0.00     0.010 C 
ENDROOT
BRANCH   1   2
ATOM      2  C   UNL     1    -103.769 -10.021  50.690  1.00  0.00     0.005 C 
BRANCH   2   3
ATOM      3  C   UNL     1    -103.008 -11.188  51.337  1.00  0.00     0.027 C 
BRANCH   3   4
ATOM      4  C   UNL     1    -103.876 -12.403  51.520  1.00  0.00    -0.031 C 
ATOM      5  C   UNL     1    -103.352 -13.608  51.790  1.00  0.00    -0.028 C 
BRANCH   5   6
ATOM      6  C   UNL     1    -104.231 -14.823  51.972  1.00  0.00     0.005 C 
ATOM      7  C   UNL     1    -105.634 -14.406  52.426  1.00  0.00     0.012 C 
ATOM      8  C   UNL     1    -104.310 -15.628  50.667  1.00  0.00     0.012 C 
ENDBRANCH   5   6
ENDBRANCH   3   4
ENDBRANCH   2   3
ENDBRANCH   1   2
BRANCH   1   9
ATOM      9  C   UNL     1    -105.209  -8.669  52.303  1.00  0.00     0.100 C 
BRANCH   9  10
ATOM     10  C   UNL     1    -104.912  -9.128  53.702  1.00  0.00     0.220 C 
ATOM     11  O   UNL     1    -104.353  -8.336  54.508  1.00  0.00    -0.275 OA
ATOM     12  N   UNL     1    -105.228 -10.470  54.103  1.00  0.00    -0.352 N 
ATOM     13  H   UNL     1    -105.645 -11.124  53.404  1.00  0.00     0.163 HD
BRANCH  12  14
ATOM     14  C   UNL     1    -104.931 -10.978  55.440  1.00  0.00     0.151 C 
BRANCH  14  15
ATOM     15  C   UNL     1    -103.948 -12.116  55.361  1.00  0.00    -0.025 A 
ATOM     16  C   UNL     1    -104.378 -13.432  55.600  1.00  0.00     0.056 A 
ATOM     17  C   UNL     1    -102.600 -11.874  55.065  1.00  0.00     0.009 A 
ATOM     18  C   UNL     1    -103.466 -14.506  55.539  1.00  0.00     0.160 A 
ATOM     19  C   UNL     1    -101.693 -12.933  55.001  1.00  0.00     0.050 A 
ATOM     20  C   UNL     1    -102.117 -14.245  55.236  1.00  0.00     0.157 A 
BRANCH  18  21
ATOM     21  O   UNL     1    -103.864 -15.832  55.772  1.00  0.00    -0.493 OA
ATOM     22  C   UNL     1    -105.178 -16.334  55.547  1.00  0.00     0.278 C 
ENDBRANCH  18  21
BRANCH  20  23
ATOM     23  O   UNL     1    -101.183 -15.278  55.162  1.00  0.00    -0.504 OA
ATOM     24  H   UNL     1    -100.631 -15.566  55.961  1.00  0.00     0.293 HD
ENDBRANCH  20  23
ENDBRANCH  14  15
ENDBRANCH  12  14
ENDBRANCH   9  10
ENDBRANCH   1   9
TORSDOF 10
ENDMDL
MODEL 9
REMARK VINA RESULT:    -4.421      2.614      5.484
REMARK INTER + INTRA:          -9.093
REMARK INTER:                  -6.686
REMARK INTRA:                  -2.407
REMARK UNBOUND:                -2.216
REMARK SMILES COc1cc(CNC(=O)CCCCC=CC(C)C)ccc1O
REMARK SMILES IDX 11 1 12 2 13 3 14 4 15 5 16 6 17 7 18 8 10 9 8 10 9 11 7 12
REMARK SMILES IDX 6 14 5 15 4 16 19 17 3 18 20 19 21 20 2 21 1 22 22 23
REMARK H PARENT 7 13 22 24
REMARK Flexibility Score: inf
ROOT
ATOM      1  C   UNL     1    -102.838  -8.445  55.046  1.00  0.00     0.010 C 
ENDROOT
BRANCH   1   2
ATOM      2  C   UNL     1    -101.654  -9.371  54.718  1.00  0.00     0.005 C 
BRANCH   2   3
ATOM      3  C   UNL     1    -101.612  -9.750  53.229  1.00  0.00     0.027 C 
BRANCH   3   4
ATOM      4  C   UNL     1    -101.764 -11.231  53.014  1.00  0.00    -0.031 C 
ATOM      5  C   UNL     1    -102.116 -12.055  54.013  1.00  0.00    -0.028 C 
BRANCH   5   6
ATOM      6  C   UNL     1    -102.265 -13.542  53.788  1.00  0.00     0.005 C 
ATOM      7  C   UNL     1    -101.503 -13.972  52.530  1.00  0.00     0.012 C 
ATOM      8  C   UNL     1    -101.761 -14.322  55.010  1.00  0.00     0.012 C 
ENDBRANCH   5   6
ENDBRANCH   3   4
ENDBRANCH   2   3
ENDBRANCH   1   2
BRANCH   1   9
ATOM      9  C   UNL     1    -103.933  -9.163  55.844  1.00  0.00     0.100 C 
BRANCH   9  10
ATOM     10  C   UNL     1    -104.861  -9.931  54.948  1.00  0.00     0.220 C 
ATOM     11  O   UNL     1    -105.273 -11.066  55.310  1.00  0.00    -0.275 OA
ATOM     12  N   UNL     1    -105.244  -9.392  53.674  1.00  0.00    -0.352 N 
ATOM     13  H   UNL     1    -104.852  -8.472  53.373  1.00  0.00     0.163 HD
BRANCH  12  14
ATOM     14  C   UNL     1    -106.117 -10.111  52.750  1.00  0.00     0.151 C 
BRANCH  14  15
ATOM     15  C   UNL     1    -105.299 -10.890  51.754  1.00  0.00    -0.025 A 
ATOM     16  C   UNL     1    -105.360 -12.293  51.742  1.00  0.00     0.056 A 
ATOM     17  C   UNL     1    -104.464 -10.228  50.846  1.00  0.00     0.009 A 
ATOM     18  C   UNL     1    -104.593 -13.036  50.821  1.00  0.00     0.160 A 
ATOM     19  C   UNL     1    -103.703 -10.956  49.930  1.00  0.00     0.050 A 
ATOM     20  C   UNL     1    -103.762 -12.354  49.912  1.00  0.00     0.157 A 
BRANCH  18  21
ATOM     21  O   UNL     1    -104.631 -14.438  50.782  1.00  0.00    -0.493 OA
ATOM     22  C   UNL     1    -104.931 -15.270  51.899  1.00  0.00     0.278 C 
ENDBRANCH  18  21
BRANCH  20  23
ATOM     23  O   UNL     1    -102.989 -13.049  48.983  1.00  0.00    -0.504 OA
ATOM     24  H   UNL     1    -102.250 -12.603  48.453  1.00  0.00     0.293 HD
ENDBRANCH  20  23
ENDBRANCH  14  15
ENDBRANCH  12  14
ENDBRANCH   9  10
ENDBRANCH   1   9
TORSDOF 10
ENDMDL
