MODEL 1
REMARK VINA RESULT:    -2.708      0.000      0.000
REMARK INTER + INTRA:          -2.946
REMARK INTER:                  -2.946
REMARK INTRA:                   0.000
REMARK UNBOUND:                 0.000
REMARK SMILES [NH3+]CC(=O)[O-]
REMARK SMILES IDX 2 1 1 2 3 6 4 7 5 8
REMARK H PARENT 1 3 1 4 1 5
REMARK Flexibility Score: inf
ROOT
ATOM      1  C   UNL     1      45.715  16.423  76.565  1.00  0.00     0.312 C 
ENDROOT
BRANCH   1   2
ATOM      2  N   UNL     1      46.492  15.929  77.701  1.00  0.00    -0.353 N 
ATOM      3  H   UNL     1      47.361  16.501  77.795  1.00  0.00     0.344 HD
ATOM      4  H   UNL     1      45.932  16.014  78.582  1.00  0.00     0.344 HD
ATOM      5  H   UNL     1      46.758  14.930  77.546  1.00  0.00     0.344 HD
ENDBRANCH   1   2
BRANCH   1   6
ATOM      6  C   UNL     1      45.638  17.919  76.589  1.00  0.00     0.096 C 
ATOM      7  O   UNL     1      45.962  18.586  75.571  1.00  0.00    -0.544 OA
ATOM      8  O   UNL     1      45.162  18.572  77.718  1.00  0.00    -0.544 OA
ENDBRANCH   1   6
TORSDOF 2
ENDMDL
MODEL 2
REMARK VINA RESULT:    -2.691      0.133      1.448
REMARK INTER + INTRA:          -2.927
REMARK INTER:                  -2.927
REMARK INTRA:                   0.000
REMARK UNBOUND:                 0.000
REMARK SMILES [NH3+]CC(=O)[O-]
REMARK SMILES IDX 2 1 1 2 3 6 4 7 5 8
REMARK H PARENT 1 3 1 4 1 5
REMARK Flexibility Score: inf
ROOT
ATOM      1  C   UNL     1      45.705  16.464  76.597  1.00  0.00     0.312 C 
ENDROOT
BRANCH   1   2
ATOM      2  N   UNL     1      46.509  15.933  77.697  1.00  0.00    -0.353 N 
ATOM      3  H   UNL     1      47.322  16.569  77.863  1.00  0.00     0.344 HD
ATOM      4  H   UNL     1      45.933  15.883  78.570  1.00  0.00     0.344 HD
ATOM      5  H   UNL     1      46.866  14.982  77.454  1.00  0.00     0.344 HD
ENDBRANCH   1   2
BRANCH   1   6
ATOM      6  C   UNL     1      45.654  17.960  76.654  1.00  0.00     0.096 C 
ATOM      7  O   UNL     1      45.405  18.544  77.742  1.00  0.00    -0.544 OA
ATOM      8  O   UNL     1      45.930  18.709  75.518  1.00  0.00    -0.544 OA
ENDBRANCH   1   6
TORSDOF 2
ENDMDL
MODEL 3
REMARK VINA RESULT:    -2.546     20.561     20.964
REMARK INTER + INTRA:          -2.770
REMARK INTER:                  -2.770
REMARK INTRA:                   0.000
REMARK UNBOUND:                 0.000
REMARK SMILES [NH3+]CC(=O)[O-]
REMARK SMILES IDX 2 1 1 2 3 6 4 7 5 8
REMARK H PARENT 1 3 1 4 1 5
REMARK Flexibility Score: inf
ROOT
ATOM      1  C   UNL     1      43.792  31.925  93.017  1.00  0.00     0.312 C 
ENDROOT
BRANCH   1   2
ATOM      2  N   UNL     1      44.288  33.300  92.965  1.00  0.00    -0.353 N 
ATOM      3  H   UNL     1      44.101  33.765  93.882  1.00  0.00     0.344 HD
ATOM      4  H   UNL     1      45.320  33.302  92.786  1.00  0.00     0.344 HD
ATOM      5  H   UNL     1      43.797  33.829  92.209  1.00  0.00     0.344 HD
ENDBRANCH   1   2
BRANCH   1   6
ATOM      6  C   UNL     1      44.302  31.135  91.851  1.00  0.00     0.096 C 
ATOM      7  O   UNL     1      45.125  31.650  91.049  1.00  0.00    -0.544 OA
ATOM      8  O   UNL     1      43.907  29.815  91.680  1.00  0.00    -0.544 OA
ENDBRANCH   1   6
TORSDOF 2
ENDMDL
MODEL 4
REMARK VINA RESULT:    -2.514      8.086      8.419
REMARK INTER + INTRA:          -2.734
REMARK INTER:                  -2.734
REMARK INTRA:                   0.000
REMARK UNBOUND:                 0.000
REMARK SMILES [NH3+]CC(=O)[O-]
REMARK SMILES IDX 2 1 1 2 3 6 4 7 5 8
REMARK H PARENT 1 3 1 4 1 5
REMARK Flexibility Score: inf
ROOT
ATOM      1  C   UNL     1      37.476  18.047  80.018  1.00  0.00     0.312 C 
ENDROOT
BRANCH   1   2
ATOM      2  N   UNL     1      38.269  17.081  79.258  1.00  0.00    -0.353 N 
ATOM      3  H   UNL     1      38.594  17.528  78.371  1.00  0.00     0.344 HD
ATOM      4  H   UNL     1      39.104  16.786  79.816  1.00  0.00     0.344 HD
ATOM      5  H   UNL     1      37.687  16.245  79.024  1.00  0.00     0.344 HD
ENDBRANCH   1   2
BRANCH   1   6
ATOM      6  C   UNL     1      38.289  19.263  80.336  1.00  0.00     0.096 C 
ATOM      7  O   UNL     1      39.433  19.410  79.830  1.00  0.00    -0.544 OA
ATOM      8  O   UNL     1      37.764  20.258  81.150  1.00  0.00    -0.544 OA
ENDBRANCH   1   6
TORSDOF 2
ENDMDL
MODEL 5
REMARK VINA RESULT:    -2.469      8.895      9.205
REMARK INTER + INTRA:          -2.685
REMARK INTER:                  -2.685
REMARK INTRA:                   0.000
REMARK UNBOUND:                 0.000
REMARK SMILES [NH3+]CC(=O)[O-]
REMARK SMILES IDX 2 1 1 2 3 6 4 7 5 8
REMARK H PARENT 1 3 1 4 1 5
REMARK Flexibility Score: inf
ROOT
ATOM      1  C   UNL     1      54.978  17.680  73.137  1.00  0.00     0.312 C 
ENDROOT
BRANCH   1   2
ATOM      2  N   UNL     1      55.066  16.615  74.135  1.00  0.00    -0.353 N 
ATOM      3  H   UNL     1      54.917  17.024  75.085  1.00  0.00     0.344 HD
ATOM      4  H   UNL     1      54.328  15.894  73.956  1.00  0.00     0.344 HD
ATOM      5  H   UNL     1      56.011  16.170  74.102  1.00  0.00     0.344 HD
ENDBRANCH   1   2
BRANCH   1   6
ATOM      6  C   UNL     1      54.085  18.782  73.618  1.00  0.00     0.096 C 
ATOM      7  O   UNL     1      54.367  19.410  74.672  1.00  0.00    -0.544 OA
ATOM      8  O   UNL     1      52.970  19.148  72.875  1.00  0.00    -0.544 OA
ENDBRANCH   1   6
TORSDOF 2
ENDMDL
MODEL 6
REMARK VINA RESULT:    -2.407      1.725      1.985
REMARK INTER + INTRA:          -2.618
REMARK INTER:                  -2.618
REMARK INTRA:                   0.000
REMARK UNBOUND:                 0.000
REMARK SMILES [NH3+]CC(=O)[O-]
REMARK SMILES IDX 2 1 1 2 3 6 4 7 5 8
REMARK H PARENT 1 3 1 4 1 5
REMARK Flexibility Score: inf
ROOT
ATOM      1  C   UNL     1      45.736  18.773  77.771  1.00  0.00     0.312 C 
ENDROOT
BRANCH   1   2
ATOM      2  N   UNL     1      46.893  18.438  78.601  1.00  0.00    -0.353 N 
ATOM      3  H   UNL     1      47.369  17.598  78.201  1.00  0.00     0.344 HD
ATOM      4  H   UNL     1      47.569  19.237  78.614  1.00  0.00     0.344 HD
ATOM      5  H   UNL     1      46.584  18.220  79.576  1.00  0.00     0.344 HD
ENDBRANCH   1   2
BRANCH   1   6
ATOM      6  C   UNL     1      45.680  17.888  76.564  1.00  0.00     0.096 C 
ATOM      7  O   UNL     1      45.810  18.381  75.412  1.00  0.00    -0.544 OA
ATOM      8  O   UNL     1      45.533  16.516  76.713  1.00  0.00    -0.544 OA
ENDBRANCH   1   6
TORSDOF 2
ENDMDL
MODEL 7
REMARK VINA RESULT:    -2.254     19.860     20.326
REMARK INTER + INTRA:          -2.452
REMARK INTER:                  -2.452
REMARK INTRA:                   0.000
REMARK UNBOUND:                 0.000
REMARK SMILES [NH3+]CC(=O)[O-]
REMARK SMILES IDX 2 1 1 2 3 6 4 7 5 8
REMARK H PARENT 1 3 1 4 1 5
REMARK Flexibility Score: inf
ROOT
ATOM      1  C   UNL     1      48.752  34.831  85.379  1.00  0.00     0.312 C 
ENDROOT
BRANCH   1   2
ATOM      2  N   UNL     1      47.901  35.748  84.621  1.00  0.00    -0.353 N 
ATOM      3  H   UNL     1      48.506  36.416  84.092  1.00  0.00     0.344 HD
ATOM      4  H   UNL     1      47.313  35.212  83.942  1.00  0.00     0.344 HD
ATOM      5  H   UNL     1      47.287  36.289  85.273  1.00  0.00     0.344 HD
ENDBRANCH   1   2
BRANCH   1   6
ATOM      6  C   UNL     1      48.496  34.966  86.849  1.00  0.00     0.096 C 
ATOM      7  O   UNL     1      48.660  36.076  87.421  1.00  0.00    -0.544 OA
ATOM      8  O   UNL     1      48.027  33.879  87.575  1.00  0.00    -0.544 OA
ENDBRANCH   1   6
TORSDOF 2
ENDMDL
MODEL 8
REMARK VINA RESULT:    -2.222      2.123      2.311
REMARK INTER + INTRA:          -2.417
REMARK INTER:                  -2.417
REMARK INTRA:                   0.000
REMARK UNBOUND:                 0.000
REMARK SMILES [NH3+]CC(=O)[O-]
REMARK SMILES IDX 2 1 1 2 3 6 4 7 5 8
REMARK H PARENT 1 3 1 4 1 5
REMARK Flexibility Score: inf
ROOT
ATOM      1  C   UNL     1      45.905  18.745  75.459  1.00  0.00     0.312 C 
ENDROOT
BRANCH   1   2
ATOM      2  N   UNL     1      46.100  17.832  74.333  1.00  0.00    -0.353 N 
ATOM      3  H   UNL     1      46.389  18.382  73.493  1.00  0.00     0.344 HD
ATOM      4  H   UNL     1      46.851  17.139  74.560  1.00  0.00     0.344 HD
ATOM      5  H   UNL     1      45.208  17.330  74.120  1.00  0.00     0.344 HD
ENDBRANCH   1   2
BRANCH   1   6
ATOM      6  C   UNL     1      45.560  17.985  76.702  1.00  0.00     0.096 C 
ATOM      7  O   UNL     1      45.604  16.726  76.707  1.00  0.00    -0.544 OA
ATOM      8  O   UNL     1      45.240  18.667  77.868  1.00  0.00    -0.544 OA
ENDBRANCH   1   6
TORSDOF 2
ENDMDL
MODEL 9
REMARK VINA RESULT:    -2.142      7.137      7.520
REMARK INTER + INTRA:          -2.329
REMARK INTER:                  -2.329
REMARK INTRA:                   0.000
REMARK UNBOUND:                 0.000
REMARK SMILES [NH3+]CC(=O)[O-]
REMARK SMILES IDX 2 1 1 2 3 6 4 7 5 8
REMARK H PARENT 1 3 1 4 1 5
REMARK Flexibility Score: inf
ROOT
ATOM      1  C   UNL     1      38.585  18.892  80.247  1.00  0.00     0.312 C 
ENDROOT
BRANCH   1   2
ATOM      2  N   UNL     1      38.458  17.752  79.340  1.00  0.00    -0.353 N 
ATOM      3  H   UNL     1      39.276  17.116  79.474  1.00  0.00     0.344 HD
ATOM      4  H   UNL     1      37.579  17.224  79.550  1.00  0.00     0.344 HD
ATOM      5  H   UNL     1      38.444  18.083  78.348  1.00  0.00     0.344 HD
ENDBRANCH   1   2
BRANCH   1   6
ATOM      6  C   UNL     1      39.509  19.922  79.674  1.00  0.00     0.096 C 
ATOM      7  O   UNL     1      39.058  21.032  79.287  1.00  0.00    -0.544 OA
ATOM      8  O   UNL     1      40.874  19.675  79.613  1.00  0.00    -0.544 OA
ENDBRANCH   1   6
TORSDOF 2
ENDMDL
