MODEL 1
REMARK VINA RESULT:    -4.572      0.000      0.000
REMARK INTER + INTRA:          -8.775
REMARK INTER:                  -8.047
REMARK INTRA:                  -0.728
REMARK UNBOUND:                -0.728
REMARK SMILES CCCCCCCCCCCCCCC(=O)[O-]
REMARK SMILES IDX 9 1 10 2 11 3 12 4 13 5 14 6 15 7 16 8 17 9 8 10 7 11 6 12
REMARK SMILES IDX 5 13 4 14 3 15 2 16 1 17
REMARK H PARENT
REMARK Flexibility Score: inf
ROOT
ATOM      1  C   UNL     1      51.192  32.575   4.373  1.00  0.00     0.000 C 
ENDROOT
BRANCH   1   2
ATOM      2  C   UNL     1      50.459  33.783   3.760  1.00  0.00     0.000 C 
BRANCH   2   3
ATOM      3  C   UNL     1      50.425  33.812   2.221  1.00  0.00     0.000 C 
BRANCH   3   4
ATOM      4  C   UNL     1      51.713  33.263   1.584  1.00  0.00     0.000 C 
BRANCH   4   5
ATOM      5  C   UNL     1      51.432  32.340   0.388  1.00  0.00     0.006 C 
BRANCH   5   6
ATOM      6  C   UNL     1      50.075  32.624  -0.269  1.00  0.00     0.053 C 
BRANCH   6   7
ATOM      7  C   UNL     1      50.252  33.487  -1.480  1.00  0.00     0.041 C 
ATOM      8  O   UNL     1      51.404  33.841  -1.842  1.00  0.00    -0.550 OA
ATOM      9  O   UNL     1      49.148  33.860  -2.234  1.00  0.00    -0.550 OA
ENDBRANCH   6   7
ENDBRANCH   5   6
ENDBRANCH   4   5
ENDBRANCH   3   4
ENDBRANCH   2   3
ENDBRANCH   1   2
BRANCH   1  10
ATOM     10  C   UNL     1      50.750  32.274   5.816  1.00  0.00     0.000 C 
BRANCH  10  11
ATOM     11  C   UNL     1      49.579  33.161   6.268  1.00  0.00    -0.000 C 
BRANCH  11  12
ATOM     12  C   UNL     1      48.913  32.652   7.559  1.00  0.00    -0.000 C 
BRANCH  12  13
ATOM     13  C   UNL     1      48.582  33.787   8.546  1.00  0.00    -0.000 C 
BRANCH  13  14
ATOM     14  C   UNL     1      49.719  34.800   8.774  1.00  0.00    -0.000 C 
BRANCH  14  15
ATOM     15  C   UNL     1      49.772  35.327  10.215  1.00  0.00    -0.000 C 
BRANCH  15  16
ATOM     16  C   UNL     1      48.360  35.525  10.780  1.00  0.00    -0.003 C 
ATOM     17  C   UNL     1      48.262  36.826  11.573  1.00  0.00     0.004 C 
ENDBRANCH  15  16
ENDBRANCH  14  15
ENDBRANCH  13  14
ENDBRANCH  12  13
ENDBRANCH  11  12
ENDBRANCH  10  11
ENDBRANCH   1  10
TORSDOF 13
ENDMDL
MODEL 2
REMARK VINA RESULT:    -4.547      4.364      9.345
REMARK INTER + INTRA:          -8.731
REMARK INTER:                  -7.987
REMARK INTRA:                  -0.744
REMARK UNBOUND:                -0.728
REMARK SMILES CCCCCCCCCCCCCCC(=O)[O-]
REMARK SMILES IDX 9 1 10 2 11 3 12 4 13 5 14 6 15 7 16 8 17 9 8 10 7 11 6 12
REMARK SMILES IDX 5 13 4 14 3 15 2 16 1 17
REMARK H PARENT
REMARK Flexibility Score: inf
ROOT
ATOM      1  C   UNL     1      50.629  33.773   4.195  1.00  0.00     0.000 C 
ENDROOT
BRANCH   1   2
ATOM      2  C   UNL     1      50.880  32.397   4.840  1.00  0.00     0.000 C 
BRANCH   2   3
ATOM      3  C   UNL     1      49.820  31.954   5.865  1.00  0.00     0.000 C 
BRANCH   3   4
ATOM      4  C   UNL     1      50.040  32.570   7.257  1.00  0.00     0.000 C 
BRANCH   4   5
ATOM      5  C   UNL     1      49.178  33.820   7.493  1.00  0.00     0.006 C 
BRANCH   5   6
ATOM      6  C   UNL     1      49.959  34.955   8.168  1.00  0.00     0.053 C 
BRANCH   6   7
ATOM      7  C   UNL     1      49.577  35.065   9.611  1.00  0.00     0.041 C 
ATOM      8  O   UNL     1      50.463  35.053  10.505  1.00  0.00    -0.550 OA
ATOM      9  O   UNL     1      48.244  35.230   9.966  1.00  0.00    -0.550 OA
ENDBRANCH   6   7
ENDBRANCH   5   6
ENDBRANCH   4   5
ENDBRANCH   3   4
ENDBRANCH   2   3
ENDBRANCH   1   2
BRANCH   1  10
ATOM     10  C   UNL     1      50.544  33.709   2.660  1.00  0.00     0.000 C 
BRANCH  10  11
ATOM     11  C   UNL     1      51.724  32.946   2.038  1.00  0.00    -0.000 C 
BRANCH  11  12
ATOM     12  C   UNL     1      51.440  32.486   0.597  1.00  0.00    -0.000 C 
BRANCH  12  13
ATOM     13  C   UNL     1      50.098  33.012   0.057  1.00  0.00    -0.000 C 
BRANCH  13  14
ATOM     14  C   UNL     1      49.769  32.590  -1.387  1.00  0.00    -0.000 C 
BRANCH  14  15
ATOM     15  C   UNL     1      49.433  33.779  -2.298  1.00  0.00    -0.000 C 
BRANCH  15  16
ATOM     16  C   UNL     1      50.527  33.991  -3.351  1.00  0.00    -0.003 C 
ATOM     17  C   UNL     1      51.759  34.652  -2.740  1.00  0.00     0.004 C 
ENDBRANCH  15  16
ENDBRANCH  14  15
ENDBRANCH  13  14
ENDBRANCH  12  13
ENDBRANCH  11  12
ENDBRANCH  10  11
ENDBRANCH   1  10
TORSDOF 13
ENDMDL
MODEL 3
REMARK VINA RESULT:    -4.473      3.855      8.798
REMARK INTER + INTRA:          -8.601
REMARK INTER:                  -7.225
REMARK INTRA:                  -1.375
REMARK UNBOUND:                -0.728
REMARK SMILES CCCCCCCCCCCCCCC(=O)[O-]
REMARK SMILES IDX 9 1 10 2 11 3 12 4 13 5 14 6 15 7 16 8 17 9 8 10 7 11 6 12
REMARK SMILES IDX 5 13 4 14 3 15 2 16 1 17
REMARK H PARENT
REMARK Flexibility Score: inf
ROOT
ATOM      1  C   UNL     1      51.787  33.149   1.646  1.00  0.00     0.000 C 
ENDROOT
BRANCH   1   2
ATOM      2  C   UNL     1      50.534  33.851   2.202  1.00  0.00     0.000 C 
BRANCH   2   3
ATOM      3  C   UNL     1      50.331  33.715   3.722  1.00  0.00     0.000 C 
BRANCH   3   4
ATOM      4  C   UNL     1      51.238  32.645   4.354  1.00  0.00     0.000 C 
BRANCH   4   5
ATOM      5  C   UNL     1      50.758  32.211   5.747  1.00  0.00     0.006 C 
BRANCH   5   6
ATOM      6  C   UNL     1      49.475  32.934   6.179  1.00  0.00     0.053 C 
BRANCH   6   7
ATOM      7  C   UNL     1      49.709  33.701   7.443  1.00  0.00     0.041 C 
ATOM      8  O   UNL     1      49.902  34.944   7.404  1.00  0.00    -0.550 OA
ATOM      9  O   UNL     1      49.665  33.049   8.669  1.00  0.00    -0.550 OA
ENDBRANCH   6   7
ENDBRANCH   5   6
ENDBRANCH   4   5
ENDBRANCH   3   4
ENDBRANCH   2   3
ENDBRANCH   1   2
BRANCH   1  10
ATOM     10  C   UNL     1      51.456  32.083   0.586  1.00  0.00     0.000 C 
BRANCH  10  11
ATOM     11  C   UNL     1      50.237  32.464  -0.269  1.00  0.00    -0.000 C 
BRANCH  11  12
ATOM     12  C   UNL     1      50.586  33.454  -1.395  1.00  0.00    -0.000 C 
BRANCH  12  13
ATOM     13  C   UNL     1      51.397  32.803  -2.529  1.00  0.00    -0.000 C 
BRANCH  13  14
ATOM     14  C   UNL     1      52.742  33.486  -2.840  1.00  0.00    -0.000 C 
BRANCH  14  15
ATOM     15  C   UNL     1      53.054  34.653  -1.893  1.00  0.00    -0.000 C 
BRANCH  15  16
ATOM     16  C   UNL     1      54.233  34.313  -0.973  1.00  0.00    -0.003 C 
ATOM     17  C   UNL     1      54.380  35.348   0.138  1.00  0.00     0.004 C 
ENDBRANCH  15  16
ENDBRANCH  14  15
ENDBRANCH  13  14
ENDBRANCH  12  13
ENDBRANCH  11  12
ENDBRANCH  10  11
ENDBRANCH   1  10
TORSDOF 13
ENDMDL
MODEL 4
REMARK VINA RESULT:    -4.452     13.615     15.862
REMARK INTER + INTRA:          -8.563
REMARK INTER:                  -6.778
REMARK INTRA:                  -1.785
REMARK UNBOUND:                -0.728
REMARK SMILES CCCCCCCCCCCCCCC(=O)[O-]
REMARK SMILES IDX 9 1 10 2 11 3 12 4 13 5 14 6 15 7 16 8 17 9 8 10 7 11 6 12
REMARK SMILES IDX 5 13 4 14 3 15 2 16 1 17
REMARK H PARENT
REMARK Flexibility Score: inf
ROOT
ATOM      1  C   UNL     1      50.726  48.200  10.419  1.00  0.00     0.000 C 
ENDROOT
BRANCH   1   2
ATOM      2  C   UNL     1      51.372  46.911  10.961  1.00  0.00     0.000 C 
BRANCH   2   3
ATOM      3  C   UNL     1      51.386  46.786  12.496  1.00  0.00     0.000 C 
BRANCH   3   4
ATOM      4  C   UNL     1      52.478  45.831  13.008  1.00  0.00     0.000 C 
BRANCH   4   5
ATOM      5  C   UNL     1      53.842  46.086  12.350  1.00  0.00     0.006 C 
BRANCH   5   6
ATOM      6  C   UNL     1      54.634  44.792  12.114  1.00  0.00     0.053 C 
BRANCH   6   7
ATOM      7  C   UNL     1      54.293  44.208  10.779  1.00  0.00     0.041 C 
ATOM      8  O   UNL     1      54.213  44.949   9.765  1.00  0.00    -0.550 OA
ATOM      9  O   UNL     1      54.112  42.837  10.646  1.00  0.00    -0.550 OA
ENDBRANCH   6   7
ENDBRANCH   5   6
ENDBRANCH   4   5
ENDBRANCH   3   4
ENDBRANCH   2   3
ENDBRANCH   1   2
BRANCH   1  10
ATOM     10  C   UNL     1      50.879  49.395  11.376  1.00  0.00     0.000 C 
BRANCH  10  11
ATOM     11  C   UNL     1      49.524  49.925  11.874  1.00  0.00    -0.000 C 
BRANCH  11  12
ATOM     12  C   UNL     1      49.287  49.641  13.368  1.00  0.00    -0.000 C 
BRANCH  12  13
ATOM     13  C   UNL     1      48.132  48.653  13.610  1.00  0.00    -0.000 C 
BRANCH  13  14
ATOM     14  C   UNL     1      47.466  48.108  12.334  1.00  0.00    -0.000 C 
BRANCH  14  15
ATOM     15  C   UNL     1      47.600  46.585  12.191  1.00  0.00    -0.000 C 
BRANCH  15  16
ATOM     16  C   UNL     1      48.062  45.948  13.507  1.00  0.00    -0.003 C 
ATOM     17  C   UNL     1      46.956  45.097  14.125  1.00  0.00     0.004 C 
ENDBRANCH  15  16
ENDBRANCH  14  15
ENDBRANCH  13  14
ENDBRANCH  12  13
ENDBRANCH  11  12
ENDBRANCH  10  11
ENDBRANCH   1  10
TORSDOF 13
ENDMDL
MODEL 5
REMARK VINA RESULT:    -4.417      4.971      9.422
REMARK INTER + INTRA:          -8.502
REMARK INTER:                  -7.638
REMARK INTRA:                  -0.864
REMARK UNBOUND:                -0.728
REMARK SMILES CCCCCCCCCCCCCCC(=O)[O-]
REMARK SMILES IDX 9 1 10 2 11 3 12 4 13 5 14 6 15 7 16 8 17 9 8 10 7 11 6 12
REMARK SMILES IDX 5 13 4 14 3 15 2 16 1 17
REMARK H PARENT
REMARK Flexibility Score: inf
ROOT
ATOM      1  C   UNL     1      50.749  32.273   6.540  1.00  0.00     0.000 C 
ENDROOT
BRANCH   1   2
ATOM      2  C   UNL     1      49.287  32.211   7.019  1.00  0.00     0.000 C 
BRANCH   2   3
ATOM      3  C   UNL     1      48.854  33.366   7.940  1.00  0.00     0.000 C 
BRANCH   3   4
ATOM      4  C   UNL     1      49.768  34.598   7.826  1.00  0.00     0.000 C 
BRANCH   4   5
ATOM      5  C   UNL     1      50.049  35.252   9.188  1.00  0.00     0.006 C 
BRANCH   5   6
ATOM      6  C   UNL     1      49.717  34.326  10.366  1.00  0.00     0.053 C 
BRANCH   6   7
ATOM      7  C   UNL     1      49.215  35.122  11.530  1.00  0.00     0.041 C 
ATOM      8  O   UNL     1      48.601  36.204  11.340  1.00  0.00    -0.550 OA
ATOM      9  O   UNL     1      49.383  34.644  12.823  1.00  0.00    -0.550 OA
ENDBRANCH   6   7
ENDBRANCH   5   6
ENDBRANCH   4   5
ENDBRANCH   3   4
ENDBRANCH   2   3
ENDBRANCH   1   2
BRANCH   1  10
ATOM     10  C   UNL     1      50.877  32.292   5.006  1.00  0.00     0.000 C 
BRANCH  10  11
ATOM     11  C   UNL     1      50.292  33.570   4.384  1.00  0.00    -0.000 C 
BRANCH  11  12
ATOM     12  C   UNL     1      50.634  33.714   2.890  1.00  0.00    -0.000 C 
BRANCH  12  13
ATOM     13  C   UNL     1      51.742  32.746   2.437  1.00  0.00    -0.000 C 
BRANCH  13  14
ATOM     14  C   UNL     1      51.692  32.353   0.949  1.00  0.00    -0.000 C 
BRANCH  14  15
ATOM     15  C   UNL     1      50.947  33.379   0.082  1.00  0.00    -0.000 C 
BRANCH  15  16
ATOM     16  C   UNL     1      50.864  32.910  -1.375  1.00  0.00    -0.003 C 
ATOM     17  C   UNL     1      49.747  31.887  -1.561  1.00  0.00     0.004 C 
ENDBRANCH  15  16
ENDBRANCH  14  15
ENDBRANCH  13  14
ENDBRANCH  12  13
ENDBRANCH  11  12
ENDBRANCH  10  11
ENDBRANCH   1  10
TORSDOF 13
ENDMDL
MODEL 6
REMARK VINA RESULT:    -4.394     13.416     15.732
REMARK INTER + INTRA:          -8.462
REMARK INTER:                  -7.631
REMARK INTRA:                  -0.831
REMARK UNBOUND:                -0.728
REMARK SMILES CCCCCCCCCCCCCCC(=O)[O-]
REMARK SMILES IDX 9 1 10 2 11 3 12 4 13 5 14 6 15 7 16 8 17 9 8 10 7 11 6 12
REMARK SMILES IDX 5 13 4 14 3 15 2 16 1 17
REMARK H PARENT
REMARK Flexibility Score: inf
ROOT
ATOM      1  C   UNL     1      50.875  47.849  10.349  1.00  0.00     0.000 C 
ENDROOT
BRANCH   1   2
ATOM      2  C   UNL     1      51.713  46.752  11.030  1.00  0.00     0.000 C 
BRANCH   2   3
ATOM      3  C   UNL     1      51.674  46.762  12.569  1.00  0.00     0.000 C 
BRANCH   3   4
ATOM      4  C   UNL     1      52.676  45.781  13.201  1.00  0.00     0.000 C 
BRANCH   4   5
ATOM      5  C   UNL     1      54.009  45.727  12.440  1.00  0.00     0.006 C 
BRANCH   5   6
ATOM      6  C   UNL     1      54.513  44.292  12.235  1.00  0.00     0.053 C 
BRANCH   6   7
ATOM      7  C   UNL     1      54.296  43.861  10.818  1.00  0.00     0.041 C 
ATOM      8  O   UNL     1      54.055  42.654  10.553  1.00  0.00    -0.550 OA
ATOM      9  O   UNL     1      54.312  44.801   9.796  1.00  0.00    -0.550 OA
ENDBRANCH   6   7
ENDBRANCH   5   6
ENDBRANCH   4   5
ENDBRANCH   3   4
ENDBRANCH   2   3
ENDBRANCH   1   2
BRANCH   1  10
ATOM     10  C   UNL     1      50.798  49.144  11.176  1.00  0.00     0.000 C 
BRANCH  10  11
ATOM     11  C   UNL     1      49.350  49.562  11.479  1.00  0.00    -0.000 C 
BRANCH  11  12
ATOM     12  C   UNL     1      48.342  48.422  11.249  1.00  0.00    -0.000 C 
BRANCH  12  13
ATOM     13  C   UNL     1      47.234  48.799  10.249  1.00  0.00    -0.000 C 
BRANCH  13  14
ATOM     14  C   UNL     1      45.824  48.310  10.628  1.00  0.00    -0.000 C 
BRANCH  14  15
ATOM     15  C   UNL     1      45.556  46.860  10.198  1.00  0.00    -0.000 C 
BRANCH  15  16
ATOM     16  C   UNL     1      44.308  46.773   9.312  1.00  0.00    -0.003 C 
ATOM     17  C   UNL     1      44.270  45.456   8.542  1.00  0.00     0.004 C 
ENDBRANCH  15  16
ENDBRANCH  14  15
ENDBRANCH  13  14
ENDBRANCH  12  13
ENDBRANCH  11  12
ENDBRANCH  10  11
ENDBRANCH   1  10
TORSDOF 13
ENDMDL
MODEL 7
REMARK VINA RESULT:    -4.354      3.989      8.567
REMARK INTER + INTRA:          -8.391
REMARK INTER:                  -7.151
REMARK INTRA:                  -1.239
REMARK UNBOUND:                -0.728
REMARK SMILES CCCCCCCCCCCCCCC(=O)[O-]
REMARK SMILES IDX 9 1 10 2 11 3 12 4 13 5 14 6 15 7 16 8 17 9 8 10 7 11 6 12
REMARK SMILES IDX 5 13 4 14 3 15 2 16 1 17
REMARK H PARENT
REMARK Flexibility Score: inf
ROOT
ATOM      1  C   UNL     1      50.932  33.800   2.164  1.00  0.00     0.000 C 
ENDROOT
BRANCH   1   2
ATOM      2  C   UNL     1      50.497  33.696   3.638  1.00  0.00     0.000 C 
BRANCH   2   3
ATOM      3  C   UNL     1      51.239  32.629   4.463  1.00  0.00     0.000 C 
BRANCH   3   4
ATOM      4  C   UNL     1      50.471  32.207   5.727  1.00  0.00     0.000 C 
BRANCH   4   5
ATOM      5  C   UNL     1      49.376  33.212   6.116  1.00  0.00     0.006 C 
BRANCH   5   6
ATOM      6  C   UNL     1      48.999  33.127   7.601  1.00  0.00     0.053 C 
BRANCH   6   7
ATOM      7  C   UNL     1      49.558  34.297   8.349  1.00  0.00     0.041 C 
ATOM      8  O   UNL     1      50.125  35.234   7.729  1.00  0.00    -0.550 OA
ATOM      9  O   UNL     1      49.409  34.375   9.728  1.00  0.00    -0.550 OA
ENDBRANCH   6   7
ENDBRANCH   5   6
ENDBRANCH   4   5
ENDBRANCH   3   4
ENDBRANCH   2   3
ENDBRANCH   1   2
BRANCH   1  10
ATOM     10  C   UNL     1      49.748  33.733   1.184  1.00  0.00     0.000 C 
BRANCH  10  11
ATOM     11  C   UNL     1      50.111  33.013  -0.126  1.00  0.00    -0.000 C 
BRANCH  11  12
ATOM     12  C   UNL     1      51.205  31.948   0.065  1.00  0.00    -0.000 C 
BRANCH  12  13
ATOM     13  C   UNL     1      52.179  31.875  -1.124  1.00  0.00    -0.000 C 
BRANCH  13  14
ATOM     14  C   UNL     1      53.649  32.174  -0.778  1.00  0.00    -0.000 C 
BRANCH  14  15
ATOM     15  C   UNL     1      53.875  32.417   0.722  1.00  0.00    -0.000 C 
BRANCH  15  16
ATOM     16  C   UNL     1      54.441  33.820   0.971  1.00  0.00    -0.003 C 
ATOM     17  C   UNL     1      54.002  34.793  -0.120  1.00  0.00     0.004 C 
ENDBRANCH  15  16
ENDBRANCH  14  15
ENDBRANCH  13  14
ENDBRANCH  12  13
ENDBRANCH  11  12
ENDBRANCH  10  11
ENDBRANCH   1  10
TORSDOF 13
ENDMDL
MODEL 8
REMARK VINA RESULT:    -4.337      3.855      9.322
REMARK INTER + INTRA:          -8.362
REMARK INTER:                  -7.256
REMARK INTRA:                  -1.106
REMARK UNBOUND:                -0.728
REMARK SMILES CCCCCCCCCCCCCCC(=O)[O-]
REMARK SMILES IDX 9 1 10 2 11 3 12 4 13 5 14 6 15 7 16 8 17 9 8 10 7 11 6 12
REMARK SMILES IDX 5 13 4 14 3 15 2 16 1 17
REMARK H PARENT
REMARK Flexibility Score: inf
ROOT
ATOM      1  C   UNL     1      49.782  33.747   1.172  1.00  0.00     0.000 C 
ENDROOT
BRANCH   1   2
ATOM      2  C   UNL     1      50.862  33.708   2.268  1.00  0.00     0.000 C 
BRANCH   2   3
ATOM      3  C   UNL     1      50.328  33.736   3.712  1.00  0.00     0.000 C 
BRANCH   3   4
ATOM      4  C   UNL     1      50.934  32.634   4.597  1.00  0.00     0.000 C 
BRANCH   4   5
ATOM      5  C   UNL     1      49.969  32.161   5.695  1.00  0.00     0.006 C 
BRANCH   5   6
ATOM      6  C   UNL     1      50.431  32.569   7.100  1.00  0.00     0.053 C 
BRANCH   6   7
ATOM      7  C   UNL     1      49.554  33.653   7.644  1.00  0.00     0.041 C 
ATOM      8  O   UNL     1      49.886  34.860   7.519  1.00  0.00    -0.550 OA
ATOM      9  O   UNL     1      48.344  33.330   8.247  1.00  0.00    -0.550 OA
ENDBRANCH   6   7
ENDBRANCH   5   6
ENDBRANCH   4   5
ENDBRANCH   3   4
ENDBRANCH   2   3
ENDBRANCH   1   2
BRANCH   1  10
ATOM     10  C   UNL     1      49.932  32.614   0.142  1.00  0.00     0.000 C 
BRANCH  10  11
ATOM     11  C   UNL     1      51.352  32.027   0.118  1.00  0.00    -0.000 C 
BRANCH  11  12
ATOM     12  C   UNL     1      51.986  32.061  -1.284  1.00  0.00    -0.000 C 
BRANCH  12  13
ATOM     13  C   UNL     1      52.663  33.407  -1.600  1.00  0.00    -0.000 C 
BRANCH  13  14
ATOM     14  C   UNL     1      51.806  34.385  -2.425  1.00  0.00    -0.000 C 
BRANCH  14  15
ATOM     15  C   UNL     1      51.541  33.891  -3.855  1.00  0.00    -0.000 C 
BRANCH  15  16
ATOM     16  C   UNL     1      50.109  34.220  -4.293  1.00  0.00    -0.003 C 
ATOM     17  C   UNL     1      49.093  33.729  -3.266  1.00  0.00     0.004 C 
ENDBRANCH  15  16
ENDBRANCH  14  15
ENDBRANCH  13  14
ENDBRANCH  12  13
ENDBRANCH  11  12
ENDBRANCH  10  11
ENDBRANCH   1  10
TORSDOF 13
ENDMDL
MODEL 9
REMARK VINA RESULT:    -4.329      2.080      3.480
REMARK INTER + INTRA:          -8.347
REMARK INTER:                  -7.209
REMARK INTRA:                  -1.138
REMARK UNBOUND:                -0.728
REMARK SMILES CCCCCCCCCCCCCCC(=O)[O-]
REMARK SMILES IDX 9 1 10 2 11 3 12 4 13 5 14 6 15 7 16 8 17 9 8 10 7 11 6 12
REMARK SMILES IDX 5 13 4 14 3 15 2 16 1 17
REMARK H PARENT
REMARK Flexibility Score: inf
ROOT
ATOM      1  C   UNL     1      50.163  33.735   1.815  1.00  0.00     0.000 C 
ENDROOT
BRANCH   1   2
ATOM      2  C   UNL     1      50.044  33.398   0.317  1.00  0.00     0.000 C 
BRANCH   2   3
ATOM      3  C   UNL     1      50.599  32.020  -0.087  1.00  0.00     0.000 C 
BRANCH   3   4
ATOM      4  C   UNL     1      51.429  32.064  -1.381  1.00  0.00     0.000 C 
BRANCH   4   5
ATOM      5  C   UNL     1      51.916  33.480  -1.722  1.00  0.00     0.006 C 
BRANCH   5   6
ATOM      6  C   UNL     1      53.447  33.594  -1.714  1.00  0.00     0.053 C 
BRANCH   6   7
ATOM      7  C   UNL     1      53.950  33.751  -0.313  1.00  0.00     0.041 C 
ATOM      8  O   UNL     1      53.736  34.816   0.322  1.00  0.00    -0.550 OA
ATOM      9  O   UNL     1      54.616  32.701   0.307  1.00  0.00    -0.550 OA
ENDBRANCH   6   7
ENDBRANCH   5   6
ENDBRANCH   4   5
ENDBRANCH   3   4
ENDBRANCH   2   3
ENDBRANCH   1   2
BRANCH   1  10
ATOM     10  C   UNL     1      51.448  33.181   2.454  1.00  0.00     0.000 C 
BRANCH  10  11
ATOM     11  C   UNL     1      51.296  32.937   3.963  1.00  0.00    -0.000 C 
BRANCH  11  12
ATOM     12  C   UNL     1      49.929  33.394   4.504  1.00  0.00    -0.000 C 
BRANCH  12  13
ATOM     13  C   UNL     1      49.380  32.463   5.600  1.00  0.00    -0.000 C 
BRANCH  13  14
ATOM     14  C   UNL     1      49.499  33.009   7.034  1.00  0.00    -0.000 C 
BRANCH  14  15
ATOM     15  C   UNL     1      49.810  34.512   7.080  1.00  0.00    -0.000 C 
BRANCH  15  16
ATOM     16  C   UNL     1      49.948  35.000   8.527  1.00  0.00    -0.003 C 
ATOM     17  C   UNL     1      49.466  33.940   9.514  1.00  0.00     0.004 C 
ENDBRANCH  15  16
ENDBRANCH  14  15
ENDBRANCH  13  14
ENDBRANCH  12  13
ENDBRANCH  11  12
ENDBRANCH  10  11
ENDBRANCH   1  10
TORSDOF 13
ENDMDL
