MODEL 1
REMARK VINA RESULT:    -5.957      0.000      0.000
REMARK INTER + INTRA:          -7.976
REMARK INTER:                  -7.698
REMARK INTRA:                  -0.278
REMARK UNBOUND:                -0.278
REMARK SMILES C=CC(=O)CCCCC
REMARK SMILES IDX 6 1 7 2 8 3 9 4 5 5 3 6 4 7 2 8 1 9
REMARK H PARENT
REMARK Flexibility Score: inf
ROOT
ATOM      1  C   UNL     1       9.963  24.822  23.122  1.00  0.00     0.008 C 
ENDROOT
BRANCH   1   2
ATOM      2  C   UNL     1       9.069  24.200  24.200  1.00  0.00     0.000 C 
BRANCH   2   3
ATOM      3  C   UNL     1       8.031  23.258  23.577  1.00  0.00    -0.003 C 
ATOM      4  C   UNL     1       7.944  21.945  24.350  1.00  0.00     0.004 C 
ENDBRANCH   2   3
ENDBRANCH   1   2
BRANCH   1   5
ATOM      5  C   UNL     1      11.109  23.878  22.744  1.00  0.00     0.080 C 
BRANCH   5   6
ATOM      6  C   UNL     1      12.282  24.080  23.657  1.00  0.00     0.155 C 
ATOM      7  O   UNL     1      12.500  23.244  24.576  1.00  0.00    -0.295 OA
BRANCH   6   8
ATOM      8  C   UNL     1      13.193  25.222  23.448  1.00  0.00     0.039 C 
ATOM      9  C   UNL     1      13.184  26.297  24.234  1.00  0.00     0.012 C 
ENDBRANCH   6   8
ENDBRANCH   5   6
ENDBRANCH   1   5
TORSDOF 5
ENDMDL
MODEL 2
REMARK VINA RESULT:    -5.941      1.597      4.719
REMARK INTER + INTRA:          -7.955
REMARK INTER:                  -7.677
REMARK INTRA:                  -0.278
REMARK UNBOUND:                -0.278
REMARK SMILES C=CC(=O)CCCCC
REMARK SMILES IDX 6 1 7 2 8 3 9 4 5 5 3 6 4 7 2 8 1 9
REMARK H PARENT
REMARK Flexibility Score: inf
ROOT
ATOM      1  C   UNL     1      11.079  23.218  23.237  1.00  0.00     0.008 C 
ENDROOT
BRANCH   1   2
ATOM      2  C   UNL     1      11.933  23.966  24.268  1.00  0.00     0.000 C 
BRANCH   2   3
ATOM      3  C   UNL     1      13.095  24.701  23.590  1.00  0.00    -0.003 C 
ATOM      4  C   UNL     1      13.109  26.179  23.967  1.00  0.00     0.004 C 
ENDBRANCH   2   3
ENDBRANCH   1   2
BRANCH   1   5
ATOM      5  C   UNL     1       9.920  24.092  22.746  1.00  0.00     0.080 C 
BRANCH   5   6
ATOM      6  C   UNL     1       8.722  23.926  23.633  1.00  0.00     0.155 C 
ATOM      7  O   UNL     1       8.372  24.879  24.383  1.00  0.00    -0.295 OA
BRANCH   6   8
ATOM      8  C   UNL     1       7.937  22.677  23.589  1.00  0.00     0.039 C 
ATOM      9  C   UNL     1       7.952  21.788  24.580  1.00  0.00     0.012 C 
ENDBRANCH   6   8
ENDBRANCH   5   6
ENDBRANCH   1   5
TORSDOF 5
ENDMDL
MODEL 3
REMARK VINA RESULT:    -3.313     12.065     13.031
REMARK INTER + INTRA:          -4.560
REMARK INTER:                  -4.311
REMARK INTRA:                  -0.249
REMARK UNBOUND:                -0.278
REMARK SMILES C=CC(=O)CCCCC
REMARK SMILES IDX 6 1 7 2 8 3 9 4 5 5 3 6 4 7 2 8 1 9
REMARK H PARENT
REMARK Flexibility Score: inf
ROOT
ATOM      1  C   UNL     1       4.695  32.091  15.225  1.00  0.00     0.008 C 
ENDROOT
BRANCH   1   2
ATOM      2  C   UNL     1       4.732  33.393  14.417  1.00  0.00     0.000 C 
BRANCH   2   3
ATOM      3  C   UNL     1       3.317  33.935  14.182  1.00  0.00    -0.003 C 
ATOM      4  C   UNL     1       2.274  32.827  14.304  1.00  0.00     0.004 C 
ENDBRANCH   2   3
ENDBRANCH   1   2
BRANCH   1   5
ATOM      5  C   UNL     1       5.847  32.036  16.233  1.00  0.00     0.080 C 
BRANCH   5   6
ATOM      6  C   UNL     1       7.057  31.397  15.617  1.00  0.00     0.155 C 
ATOM      7  O   UNL     1       8.133  32.051  15.549  1.00  0.00    -0.295 OA
BRANCH   6   8
ATOM      8  C   UNL     1       6.995  30.001  15.143  1.00  0.00     0.039 C 
ATOM      9  C   UNL     1       6.594  28.998  15.922  1.00  0.00     0.012 C 
ENDBRANCH   6   8
ENDBRANCH   5   6
ENDBRANCH   1   5
TORSDOF 5
ENDMDL
MODEL 4
REMARK VINA RESULT:    -3.251     11.803     12.638
REMARK INTER + INTRA:          -4.479
REMARK INTER:                  -4.177
REMARK INTRA:                  -0.302
REMARK UNBOUND:                -0.278
REMARK SMILES C=CC(=O)CCCCC
REMARK SMILES IDX 6 1 7 2 8 3 9 4 5 5 3 6 4 7 2 8 1 9
REMARK H PARENT
REMARK Flexibility Score: inf
ROOT
ATOM      1  C   UNL     1       5.882  31.420  16.148  1.00  0.00     0.008 C 
ENDROOT
BRANCH   1   2
ATOM      2  C   UNL     1       4.674  31.839  15.304  1.00  0.00     0.000 C 
BRANCH   2   3
ATOM      3  C   UNL     1       4.806  33.293  14.837  1.00  0.00    -0.003 C 
ATOM      4  C   UNL     1       3.534  33.768  14.141  1.00  0.00     0.004 C 
ENDBRANCH   2   3
ENDBRANCH   1   2
BRANCH   1   5
ATOM      5  C   UNL     1       6.566  30.184  15.555  1.00  0.00     0.080 C 
BRANCH   5   6
ATOM      6  C   UNL     1       7.738  30.584  14.709  1.00  0.00     0.155 C 
ATOM      7  O   UNL     1       8.090  29.842  13.751  1.00  0.00    -0.295 OA
BRANCH   6   8
ATOM      8  C   UNL     1       8.439  31.856  14.971  1.00  0.00     0.039 C 
ATOM      9  C   UNL     1       9.527  32.224  14.298  1.00  0.00     0.012 C 
ENDBRANCH   6   8
ENDBRANCH   5   6
ENDBRANCH   1   5
TORSDOF 5
ENDMDL
MODEL 5
REMARK VINA RESULT:    -3.244     10.191     11.781
REMARK INTER + INTRA:          -4.470
REMARK INTER:                  -4.026
REMARK INTRA:                  -0.444
REMARK UNBOUND:                -0.278
REMARK SMILES C=CC(=O)CCCCC
REMARK SMILES IDX 6 1 7 2 8 3 9 4 5 5 3 6 4 7 2 8 1 9
REMARK H PARENT
REMARK Flexibility Score: inf
ROOT
ATOM      1  C   UNL     1       7.565  17.691  15.107  1.00  0.00     0.008 C 
ENDROOT
BRANCH   1   2
ATOM      2  C   UNL     1       7.831  18.723  16.208  1.00  0.00     0.000 C 
BRANCH   2   3
ATOM      3  C   UNL     1       7.979  20.131  15.620  1.00  0.00    -0.003 C 
ATOM      4  C   UNL     1       9.209  20.837  16.182  1.00  0.00     0.004 C 
ENDBRANCH   2   3
ENDBRANCH   1   2
BRANCH   1   5
ATOM      5  C   UNL     1       6.386  18.117  14.226  1.00  0.00     0.080 C 
BRANCH   5   6
ATOM      6  C   UNL     1       5.096  17.585  14.778  1.00  0.00     0.155 C 
ATOM      7  O   UNL     1       4.966  16.343  14.954  1.00  0.00    -0.295 OA
BRANCH   6   8
ATOM      8  C   UNL     1       4.013  18.515  15.152  1.00  0.00     0.039 C 
ATOM      9  C   UNL     1       4.211  19.555  15.959  1.00  0.00     0.012 C 
ENDBRANCH   6   8
ENDBRANCH   5   6
ENDBRANCH   1   5
TORSDOF 5
ENDMDL
MODEL 6
REMARK VINA RESULT:    -3.178     11.161     12.438
REMARK INTER + INTRA:          -4.385
REMARK INTER:                  -3.863
REMARK INTRA:                  -0.522
REMARK UNBOUND:                -0.278
REMARK SMILES C=CC(=O)CCCCC
REMARK SMILES IDX 6 1 7 2 8 3 9 4 5 5 3 6 4 7 2 8 1 9
REMARK H PARENT
REMARK Flexibility Score: inf
ROOT
ATOM      1  C   UNL     1      14.567  14.606  16.346  1.00  0.00     0.008 C 
ENDROOT
BRANCH   1   2
ATOM      2  C   UNL     1      15.429  15.501  17.244  1.00  0.00     0.000 C 
BRANCH   2   3
ATOM      3  C   UNL     1      15.822  16.793  16.519  1.00  0.00    -0.003 C 
ATOM      4  C   UNL     1      14.813  17.905  16.787  1.00  0.00     0.004 C 
ENDBRANCH   2   3
ENDBRANCH   1   2
BRANCH   1   5
ATOM      5  C   UNL     1      13.108  14.601  16.812  1.00  0.00     0.080 C 
BRANCH   5   6
ATOM      6  C   UNL     1      12.186  14.891  15.664  1.00  0.00     0.155 C 
ATOM      7  O   UNL     1      11.066  14.314  15.610  1.00  0.00    -0.295 OA
BRANCH   6   8
ATOM      8  C   UNL     1      12.574  15.878  14.637  1.00  0.00     0.039 C 
ATOM      9  C   UNL     1      11.942  17.041  14.490  1.00  0.00     0.012 C 
ENDBRANCH   6   8
ENDBRANCH   5   6
ENDBRANCH   1   5
TORSDOF 5
ENDMDL
MODEL 7
REMARK VINA RESULT:    -3.177     11.122     11.905
REMARK INTER + INTRA:          -4.384
REMARK INTER:                  -3.936
REMARK INTRA:                  -0.448
REMARK UNBOUND:                -0.278
REMARK SMILES C=CC(=O)CCCCC
REMARK SMILES IDX 6 1 7 2 8 3 9 4 5 5 3 6 4 7 2 8 1 9
REMARK H PARENT
REMARK Flexibility Score: inf
ROOT
ATOM      1  C   UNL     1      14.660  14.217  16.872  1.00  0.00     0.008 C 
ENDROOT
BRANCH   1   2
ATOM      2  C   UNL     1      13.166  14.560  16.856  1.00  0.00     0.000 C 
BRANCH   2   3
ATOM      3  C   UNL     1      12.716  14.994  15.456  1.00  0.00    -0.003 C 
ATOM      4  C   UNL     1      11.202  14.884  15.303  1.00  0.00     0.004 C 
ENDBRANCH   2   3
ENDBRANCH   1   2
BRANCH   1   5
ATOM      5  C   UNL     1      15.470  15.324  17.555  1.00  0.00     0.080 C 
BRANCH   5   6
ATOM      6  C   UNL     1      16.121  16.209  16.534  1.00  0.00     0.155 C 
ATOM      7  O   UNL     1      17.167  15.814  15.951  1.00  0.00    -0.295 OA
BRANCH   6   8
ATOM      8  C   UNL     1      15.511  17.507  16.186  1.00  0.00     0.039 C 
ATOM      9  C   UNL     1      14.502  18.031  16.878  1.00  0.00     0.012 C 
ENDBRANCH   6   8
ENDBRANCH   5   6
ENDBRANCH   1   5
TORSDOF 5
ENDMDL
MODEL 8
REMARK VINA RESULT:    -3.174     10.349     11.495
REMARK INTER + INTRA:          -4.379
REMARK INTER:                  -3.921
REMARK INTRA:                  -0.458
REMARK UNBOUND:                -0.278
REMARK SMILES C=CC(=O)CCCCC
REMARK SMILES IDX 6 1 7 2 8 3 9 4 5 5 3 6 4 7 2 8 1 9
REMARK H PARENT
REMARK Flexibility Score: inf
ROOT
ATOM      1  C   UNL     1       5.717  17.342  14.176  1.00  0.00     0.008 C 
ENDROOT
BRANCH   1   2
ATOM      2  C   UNL     1       4.407  17.370  14.971  1.00  0.00     0.000 C 
BRANCH   2   3
ATOM      3  C   UNL     1       3.712  18.730  14.839  1.00  0.00    -0.003 C 
ATOM      4  C   UNL     1       4.073  19.649  16.003  1.00  0.00     0.004 C 
ENDBRANCH   2   3
ENDBRANCH   1   2
BRANCH   1   5
ATOM      5  C   UNL     1       6.785  16.522  14.905  1.00  0.00     0.080 C 
BRANCH   5   6
ATOM      6  C   UNL     1       7.916  17.403  15.349  1.00  0.00     0.155 C 
ATOM      7  O   UNL     1       9.093  17.124  14.992  1.00  0.00    -0.295 OA
BRANCH   6   8
ATOM      8  C   UNL     1       7.641  18.607  16.157  1.00  0.00     0.039 C 
ATOM      9  C   UNL     1       7.994  19.828  15.762  1.00  0.00     0.012 C 
ENDBRANCH   6   8
ENDBRANCH   5   6
ENDBRANCH   1   5
TORSDOF 5
ENDMDL
MODEL 9
REMARK VINA RESULT:    -3.145     11.410     12.395
REMARK INTER + INTRA:          -4.342
REMARK INTER:                  -3.787
REMARK INTRA:                  -0.555
REMARK UNBOUND:                -0.278
REMARK SMILES C=CC(=O)CCCCC
REMARK SMILES IDX 6 1 7 2 8 3 9 4 5 5 3 6 4 7 2 8 1 9
REMARK H PARENT
REMARK Flexibility Score: inf
ROOT
ATOM      1  C   UNL     1       5.692  32.264  16.047  1.00  0.00     0.008 C 
ENDROOT
BRANCH   1   2
ATOM      2  C   UNL     1       4.972  32.998  14.911  1.00  0.00     0.000 C 
BRANCH   2   3
ATOM      3  C   UNL     1       3.990  32.067  14.189  1.00  0.00    -0.003 C 
ATOM      4  C   UNL     1       3.294  31.130  15.172  1.00  0.00     0.004 C 
ENDBRANCH   2   3
ENDBRANCH   1   2
BRANCH   1   5
ATOM      5  C   UNL     1       7.138  31.937  15.662  1.00  0.00     0.080 C 
BRANCH   5   6
ATOM      6  C   UNL     1       7.246  30.527  15.163  1.00  0.00     0.155 C 
ATOM      7  O   UNL     1       7.926  30.288  14.128  1.00  0.00    -0.295 OA
BRANCH   6   8
ATOM      8  C   UNL     1       6.600  29.428  15.907  1.00  0.00     0.039 C 
ATOM      9  C   UNL     1       5.830  28.519  15.313  1.00  0.00     0.012 C 
ENDBRANCH   6   8
ENDBRANCH   5   6
ENDBRANCH   1   5
TORSDOF 5
ENDMDL
