MODEL 1
REMARK VINA RESULT:    -3.674      0.000      0.000
REMARK INTER + INTRA:          -4.307
REMARK INTER:                  -4.211
REMARK INTRA:                  -0.096
REMARK UNBOUND:                -0.096
REMARK SMILES C=Cc1ccc(O)c(OC)c1
REMARK SMILES IDX 8 1 6 2 5 3 4 4 3 5 11 6 9 7 10 8 7 9 2 11 1 12
REMARK H PARENT 7 10
REMARK Flexibility Score: inf
ROOT
ATOM      1  C   UNL     1      27.813  41.446  20.669  1.00  0.00     0.161 A 
ATOM      2  C   UNL     1      26.476  41.100  20.901  1.00  0.00     0.157 A 
ATOM      3  C   UNL     1      25.911  40.000  20.245  1.00  0.00     0.051 A 
ATOM      4  C   UNL     1      26.676  39.236  19.360  1.00  0.00     0.012 A 
ATOM      5  C   UNL     1      28.025  39.560  19.123  1.00  0.00    -0.022 A 
ATOM      6  C   UNL     1      28.582  40.674  19.776  1.00  0.00     0.058 A 
ENDROOT
BRANCH   1   7
ATOM      7  O   UNL     1      28.341  42.559  21.343  1.00  0.00    -0.493 OA
ATOM      8  C   UNL     1      28.795  43.748  20.703  1.00  0.00     0.278 C 
ENDBRANCH   1   7
BRANCH   2   9
ATOM      9  O   UNL     1      25.710  41.859  21.785  1.00  0.00    -0.504 OA
ATOM     10  H   UNL     1      25.789  42.868  21.825  1.00  0.00     0.293 HD
ENDBRANCH   2   9
BRANCH   5  11
ATOM     11  C   UNL     1      28.880  38.788  18.187  1.00  0.00     0.000 C 
ATOM     12  C   UNL     1      28.771  38.837  16.858  1.00  0.00     0.009 C 
ENDBRANCH   5  11
TORSDOF 3
ENDMDL
MODEL 2
REMARK VINA RESULT:    -3.499      1.845      3.968
REMARK INTER + INTRA:          -4.106
REMARK INTER:                  -4.008
REMARK INTRA:                  -0.098
REMARK UNBOUND:                -0.096
REMARK SMILES C=Cc1ccc(O)c(OC)c1
REMARK SMILES IDX 8 1 6 2 5 3 4 4 3 5 11 6 9 7 10 8 7 9 2 11 1 12
REMARK H PARENT 7 10
REMARK Flexibility Score: inf
ROOT
ATOM      1  C   UNL     1      27.632  39.983  19.674  1.00  0.00     0.161 A 
ATOM      2  C   UNL     1      26.314  40.064  20.142  1.00  0.00     0.157 A 
ATOM      3  C   UNL     1      25.899  41.178  20.882  1.00  0.00     0.051 A 
ATOM      4  C   UNL     1      26.792  42.217  21.155  1.00  0.00     0.012 A 
ATOM      5  C   UNL     1      28.116  42.160  20.682  1.00  0.00    -0.022 A 
ATOM      6  C   UNL     1      28.529  41.033  19.951  1.00  0.00     0.058 A 
ENDROOT
BRANCH   1   7
ATOM      7  O   UNL     1      28.010  38.848  18.938  1.00  0.00    -0.493 OA
ATOM      8  C   UNL     1      28.701  38.887  17.694  1.00  0.00     0.278 C 
ENDBRANCH   1   7
BRANCH   2   9
ATOM      9  O   UNL     1      25.420  39.030  19.870  1.00  0.00    -0.504 OA
ATOM     10  H   UNL     1      25.720  38.173  19.419  1.00  0.00     0.293 HD
ENDBRANCH   2   9
BRANCH   5  11
ATOM     11  C   UNL     1      29.108  43.231  20.951  1.00  0.00     0.000 C 
ATOM     12  C   UNL     1      29.125  43.978  22.057  1.00  0.00     0.009 C 
ENDBRANCH   5  11
TORSDOF 3
ENDMDL
MODEL 3
REMARK VINA RESULT:    -3.453      1.794      2.160
REMARK INTER + INTRA:          -4.054
REMARK INTER:                  -3.950
REMARK INTRA:                  -0.104
REMARK UNBOUND:                -0.096
REMARK SMILES C=Cc1ccc(O)c(OC)c1
REMARK SMILES IDX 8 1 6 2 5 3 4 4 3 5 11 6 9 7 10 8 7 9 2 11 1 12
REMARK H PARENT 7 10
REMARK Flexibility Score: inf
ROOT
ATOM      1  C   UNL     1      27.140  41.935  21.666  1.00  0.00     0.161 A 
ATOM      2  C   UNL     1      26.846  42.814  20.616  1.00  0.00     0.157 A 
ATOM      3  C   UNL     1      26.936  42.379  19.289  1.00  0.00     0.051 A 
ATOM      4  C   UNL     1      27.316  41.066  19.001  1.00  0.00     0.012 A 
ATOM      5  C   UNL     1      27.604  40.163  20.042  1.00  0.00    -0.022 A 
ATOM      6  C   UNL     1      27.523  40.612  21.372  1.00  0.00     0.058 A 
ENDROOT
BRANCH   1   7
ATOM      7  O   UNL     1      27.041  42.412  22.983  1.00  0.00    -0.493 OA
ATOM      8  C   UNL     1      28.152  42.792  23.788  1.00  0.00     0.278 C 
ENDBRANCH   1   7
BRANCH   2   9
ATOM      9  O   UNL     1      26.465  44.125  20.899  1.00  0.00    -0.504 OA
ATOM     10  H   UNL     1      27.058  44.747  21.437  1.00  0.00     0.293 HD
ENDBRANCH   2   9
BRANCH   5  11
ATOM     11  C   UNL     1      28.020  38.761  19.792  1.00  0.00     0.000 C 
ATOM     12  C   UNL     1      29.041  38.409  19.009  1.00  0.00     0.009 C 
ENDBRANCH   5  11
TORSDOF 3
ENDMDL
MODEL 4
REMARK VINA RESULT:    -3.426      2.480      4.892
REMARK INTER + INTRA:          -4.023
REMARK INTER:                  -3.924
REMARK INTRA:                  -0.098
REMARK UNBOUND:                -0.096
REMARK SMILES C=Cc1ccc(O)c(OC)c1
REMARK SMILES IDX 8 1 6 2 5 3 4 4 3 5 11 6 9 7 10 8 7 9 2 11 1 12
REMARK H PARENT 7 10
REMARK Flexibility Score: inf
ROOT
ATOM      1  C   UNL     1      26.880  41.740  20.522  1.00  0.00     0.161 A 
ATOM      2  C   UNL     1      26.893  43.028  19.971  1.00  0.00     0.157 A 
ATOM      3  C   UNL     1      27.263  44.125  20.758  1.00  0.00     0.051 A 
ATOM      4  C   UNL     1      27.624  43.944  22.096  1.00  0.00     0.012 A 
ATOM      5  C   UNL     1      27.630  42.657  22.664  1.00  0.00    -0.022 A 
ATOM      6  C   UNL     1      27.245  41.562  21.871  1.00  0.00     0.058 A 
ENDROOT
BRANCH   1   7
ATOM      7  O   UNL     1      26.500  40.667  19.701  1.00  0.00    -0.493 OA
ATOM      8  C   UNL     1      27.408  39.856  18.962  1.00  0.00     0.278 C 
ENDBRANCH   1   7
BRANCH   2   9
ATOM      9  O   UNL     1      26.535  43.212  18.637  1.00  0.00    -0.504 OA
ATOM     10  H   UNL     1      26.311  42.428  18.034  1.00  0.00     0.293 HD
ENDBRANCH   2   9
BRANCH   5  11
ATOM     11  C   UNL     1      27.996  42.410  24.081  1.00  0.00     0.000 C 
ATOM     12  C   UNL     1      27.997  43.347  25.031  1.00  0.00     0.009 C 
ENDBRANCH   5  11
TORSDOF 3
ENDMDL
MODEL 5
REMARK VINA RESULT:    -3.340     15.254     15.942
REMARK INTER + INTRA:          -3.924
REMARK INTER:                  -3.837
REMARK INTRA:                  -0.088
REMARK UNBOUND:                -0.096
REMARK SMILES C=Cc1ccc(O)c(OC)c1
REMARK SMILES IDX 8 1 6 2 5 3 4 4 3 5 11 6 9 7 10 8 7 9 2 11 1 12
REMARK H PARENT 7 10
REMARK Flexibility Score: inf
ROOT
ATOM      1  C   UNL     1      27.137  27.767  28.288  1.00  0.00     0.161 A 
ATOM      2  C   UNL     1      26.011  27.353  29.010  1.00  0.00     0.157 A 
ATOM      3  C   UNL     1      25.362  26.158  28.676  1.00  0.00     0.051 A 
ATOM      4  C   UNL     1      25.834  25.369  27.624  1.00  0.00     0.012 A 
ATOM      5  C   UNL     1      26.972  25.761  26.894  1.00  0.00    -0.022 A 
ATOM      6  C   UNL     1      27.611  26.968  27.228  1.00  0.00     0.058 A 
ENDROOT
BRANCH   1   7
ATOM      7  O   UNL     1      27.757  28.973  28.651  1.00  0.00    -0.493 OA
ATOM      8  C   UNL     1      28.747  29.638  27.873  1.00  0.00     0.278 C 
ENDBRANCH   1   7
BRANCH   2   9
ATOM      9  O   UNL     1      25.538  28.137  30.061  1.00  0.00    -0.504 OA
ATOM     10  H   UNL     1      25.188  27.723  30.917  1.00  0.00     0.293 HD
ENDBRANCH   2   9
BRANCH   5  11
ATOM     11  C   UNL     1      27.510  24.965  25.763  1.00  0.00     0.000 C 
ATOM     12  C   UNL     1      26.754  24.333  24.864  1.00  0.00     0.009 C 
ENDBRANCH   5  11
TORSDOF 3
ENDMDL
MODEL 6
REMARK VINA RESULT:    -3.288     14.817     15.657
REMARK INTER + INTRA:          -3.864
REMARK INTER:                  -3.791
REMARK INTRA:                  -0.074
REMARK UNBOUND:                -0.096
REMARK SMILES C=Cc1ccc(O)c(OC)c1
REMARK SMILES IDX 8 1 6 2 5 3 4 4 3 5 11 6 9 7 10 8 7 9 2 11 1 12
REMARK H PARENT 7 10
REMARK Flexibility Score: inf
ROOT
ATOM      1  C   UNL     1      26.506  27.061  28.263  1.00  0.00     0.161 A 
ATOM      2  C   UNL     1      26.466  25.716  27.875  1.00  0.00     0.157 A 
ATOM      3  C   UNL     1      27.023  25.320  26.653  1.00  0.00     0.051 A 
ATOM      4  C   UNL     1      27.626  26.261  25.815  1.00  0.00     0.012 A 
ATOM      5  C   UNL     1      27.689  27.615  26.193  1.00  0.00    -0.022 A 
ATOM      6  C   UNL     1      27.116  28.007  27.416  1.00  0.00     0.058 A 
ENDROOT
BRANCH   1   7
ATOM      7  O   UNL     1      25.933  27.418  29.494  1.00  0.00    -0.493 OA
ATOM      8  C   UNL     1      25.637  28.754  29.888  1.00  0.00     0.278 C 
ENDBRANCH   1   7
BRANCH   2   9
ATOM      9  O   UNL     1      25.866  24.774  28.710  1.00  0.00    -0.504 OA
ATOM     10  H   UNL     1      26.230  24.575  29.634  1.00  0.00     0.293 HD
ENDBRANCH   2   9
BRANCH   5  11
ATOM     11  C   UNL     1      28.310  28.656  25.337  1.00  0.00     0.000 C 
ATOM     12  C   UNL     1      27.623  29.559  24.634  1.00  0.00     0.009 C 
ENDBRANCH   5  11
TORSDOF 3
ENDMDL
MODEL 7
REMARK VINA RESULT:    -3.152     13.967     14.803
REMARK INTER + INTRA:          -3.708
REMARK INTER:                  -3.609
REMARK INTRA:                  -0.099
REMARK UNBOUND:                -0.096
REMARK SMILES C=Cc1ccc(O)c(OC)c1
REMARK SMILES IDX 8 1 6 2 5 3 4 4 3 5 11 6 9 7 10 8 7 9 2 11 1 12
REMARK H PARENT 7 10
REMARK Flexibility Score: inf
ROOT
ATOM      1  C   UNL     1      28.292  28.605  25.939  1.00  0.00     0.161 A 
ATOM      2  C   UNL     1      28.681  29.303  27.089  1.00  0.00     0.157 A 
ATOM      3  C   UNL     1      28.622  28.682  28.342  1.00  0.00     0.051 A 
ATOM      4  C   UNL     1      28.180  27.361  28.455  1.00  0.00     0.012 A 
ATOM      5  C   UNL     1      27.797  26.638  27.310  1.00  0.00    -0.022 A 
ATOM      6  C   UNL     1      27.847  27.274  26.056  1.00  0.00     0.058 A 
ENDROOT
BRANCH   1   7
ATOM      7  O   UNL     1      28.362  29.265  24.702  1.00  0.00    -0.493 OA
ATOM      8  C   UNL     1      27.255  29.880  24.052  1.00  0.00     0.278 C 
ENDBRANCH   1   7
BRANCH   2   9
ATOM      9  O   UNL     1      29.125  30.620  26.980  1.00  0.00    -0.504 OA
ATOM     10  H   UNL     1      28.511  31.405  27.165  1.00  0.00     0.293 HD
ENDBRANCH   2   9
BRANCH   5  11
ATOM     11  C   UNL     1      27.311  25.238  27.374  1.00  0.00     0.000 C 
ATOM     12  C   UNL     1      26.169  24.865  27.955  1.00  0.00     0.009 C 
ENDBRANCH   5  11
TORSDOF 3
ENDMDL
MODEL 8
REMARK VINA RESULT:    -3.130     14.555     15.499
REMARK INTER + INTRA:          -3.684
REMARK INTER:                  -3.609
REMARK INTRA:                  -0.075
REMARK UNBOUND:                -0.096
REMARK SMILES C=Cc1ccc(O)c(OC)c1
REMARK SMILES IDX 8 1 6 2 5 3 4 4 3 5 11 6 9 7 10 8 7 9 2 11 1 12
REMARK H PARENT 7 10
REMARK Flexibility Score: inf
ROOT
ATOM      1  C   UNL     1      27.792  26.430  27.013  1.00  0.00     0.161 A 
ATOM      2  C   UNL     1      28.509  26.663  28.194  1.00  0.00     0.157 A 
ATOM      3  C   UNL     1      29.125  27.902  28.408  1.00  0.00     0.051 A 
ATOM      4  C   UNL     1      29.027  28.914  27.450  1.00  0.00     0.012 A 
ATOM      5  C   UNL     1      28.301  28.703  26.263  1.00  0.00    -0.022 A 
ATOM      6  C   UNL     1      27.695  27.452  26.050  1.00  0.00     0.058 A 
ENDROOT
BRANCH   1   7
ATOM      7  O   UNL     1      27.192  25.173  26.835  1.00  0.00    -0.493 OA
ATOM      8  C   UNL     1      26.990  24.549  25.571  1.00  0.00     0.278 C 
ENDBRANCH   1   7
BRANCH   2   9
ATOM      9  O   UNL     1      28.607  25.656  29.153  1.00  0.00    -0.504 OA
ATOM     10  H   UNL     1      29.479  25.461  29.631  1.00  0.00     0.293 HD
ENDBRANCH   2   9
BRANCH   5  11
ATOM     11  C   UNL     1      28.173  29.741  25.210  1.00  0.00     0.000 C 
ATOM     12  C   UNL     1      27.282  29.698  24.218  1.00  0.00     0.009 C 
ENDBRANCH   5  11
TORSDOF 3
ENDMDL
