MODEL 1
REMARK VINA RESULT:    -3.219      0.000      0.000
REMARK INTER + INTRA:          -4.377
REMARK INTER:                  -4.536
REMARK INTRA:                   0.158
REMARK UNBOUND:                 0.158
REMARK SMILES CC1=CCC(=C(C)C)C(=O)CC(C)=CCC1
REMARK SMILES IDX 12 1 14 2 13 3 15 4 16 5 2 6 1 7 3 8 11 10 9 11 10 12 5 13
REMARK SMILES IDX 6 14 7 15 8 16 4 17
REMARK H PARENT
REMARK Flexibility Score: 60.00
ROOT
ATOM      1  C   UNL     1       1.349  -1.170  15.179  1.00  0.00    -0.070 C 
ATOM      2  C   UNL     1       2.601  -0.903  14.746  1.00  0.00    -0.027 C 
ATOM      3  C   UNL     1       0.251  -0.207  14.803  1.00  0.00     0.039 C 
ENDROOT
BRANCH   2   4
ATOM      4  C   UNL     1       3.810  -1.793  14.936  1.00  0.00     0.032 C 
BRANCH   4   5
ATOM      5  C   UNL     1       4.465  -1.707  16.330  1.00  0.00     0.034 C 
BRANCH   5   6
ATOM      6  C   UNL     1       4.653  -3.063  16.987  1.00  0.00    -0.077 C 
ATOM      7  C   UNL     1       5.679  -3.994  16.391  1.00  0.00     0.039 C 
ATOM      8  C   UNL     1       4.012  -3.464  18.112  1.00  0.00    -0.023 CG0
ATOM      9  G   UNL     1       2.936  -2.709  18.868  1.00  0.00     0.000 G0
ENDBRANCH   5   6
ENDBRANCH   4   5
ENDBRANCH   2   4
BRANCH   1  10
ATOM     10  C   UNL     1       0.983  -2.430  15.938  1.00  0.00     0.111 C 
BRANCH  10  11
ATOM     11  C   UNL     1       0.896  -2.178  17.421  1.00  0.00     0.163 C 
ATOM     12  O   UNL     1       0.222  -1.189  17.817  1.00  0.00    -0.294 OA
BRANCH  11  13
ATOM     13  C   UNL     1       1.524  -3.086  18.427  1.00  0.00    -0.002 C 
ATOM     14  C   UNL     1       0.883  -4.220  18.840  1.00  0.00    -0.069 C 
ATOM     15  C   UNL     1       1.556  -5.239  19.735  1.00  0.00     0.039 C 
ATOM     16  C   UNL     1      -0.539  -4.517  18.419  1.00  0.00     0.039 C 
BRANCH  13  17
ATOM     17  C   UNL     1       2.930  -2.743  18.891  1.00  0.00     0.066 CG0
ATOM     18  G   UNL     1       3.994  -3.471  18.095  1.00  0.00     0.000 G0
ENDBRANCH  13  17
ENDBRANCH  11  13
ENDBRANCH  10  11
ENDBRANCH   1  10
TORSDOF 0
ENDMDL
MODEL 2
REMARK VINA RESULT:    -3.161      2.366      4.326
REMARK INTER + INTRA:          -4.296
REMARK INTER:                  -4.468
REMARK INTRA:                   0.172
REMARK UNBOUND:                 0.158
REMARK SMILES CC1=CCC(=C(C)C)C(=O)CC(C)=CCC1
REMARK SMILES IDX 12 1 14 2 13 3 15 4 16 5 2 6 1 7 3 8 11 10 9 11 10 12 5 13
REMARK SMILES IDX 6 14 7 15 8 16 4 17
REMARK H PARENT
REMARK Flexibility Score: 60.00
ROOT
ATOM      1  C   UNL     1       1.902  -2.363  15.627  1.00  0.00    -0.070 C 
ATOM      2  C   UNL     1       1.692  -1.075  15.275  1.00  0.00    -0.027 C 
ATOM      3  C   UNL     1       3.316  -2.886  15.580  1.00  0.00     0.039 C 
ENDROOT
BRANCH   2   4
ATOM      4  C   UNL     1       0.370  -0.344  15.349  1.00  0.00     0.032 C 
BRANCH   4   5
ATOM      5  C   UNL     1       0.188   0.543  16.599  1.00  0.00     0.034 C 
BRANCH   5   6
ATOM      6  C   UNL     1      -1.160   0.355  17.273  1.00  0.00    -0.077 C 
ATOM      7  C   UNL     1      -2.322   1.162  16.751  1.00  0.00     0.039 C 
ATOM      8  C   UNL     1      -1.403  -0.538  18.264  1.00  0.00    -0.023 CG0
ATOM      9  G   UNL     1      -0.393  -1.435  18.952  1.00  0.00     0.000 G0
ENDBRANCH   5   6
ENDBRANCH   4   5
ENDBRANCH   2   4
BRANCH   1  10
ATOM     10  C   UNL     1       0.808  -3.271  16.150  1.00  0.00     0.111 C 
BRANCH  10  11
ATOM     11  C   UNL     1       0.783  -3.299  17.657  1.00  0.00     0.163 C 
ATOM     12  O   UNL     1       1.830  -3.658  18.260  1.00  0.00    -0.294 OA
BRANCH  11  13
ATOM     13  C   UNL     1      -0.405  -2.863  18.448  1.00  0.00    -0.002 C 
ATOM     14  C   UNL     1      -1.407  -3.744  18.746  1.00  0.00    -0.069 C 
ATOM     15  C   UNL     1      -2.544  -3.378  19.676  1.00  0.00     0.039 C 
ATOM     16  C   UNL     1      -1.429  -5.138  18.158  1.00  0.00     0.039 C 
BRANCH  13  17
ATOM     17  C   UNL     1      -0.402  -1.440  18.980  1.00  0.00     0.066 CG0
ATOM     18  G   UNL     1      -1.391  -0.550  18.254  1.00  0.00     0.000 G0
ENDBRANCH  13  17
ENDBRANCH  11  13
ENDBRANCH  10  11
ENDBRANCH   1  10
TORSDOF 0
ENDMDL
MODEL 3
REMARK VINA RESULT:    -3.154      6.641      8.302
REMARK INTER + INTRA:          -4.286
REMARK INTER:                  -4.513
REMARK INTRA:                   0.227
REMARK UNBOUND:                 0.158
REMARK SMILES CC1=CCC(=C(C)C)C(=O)CC(C)=CCC1
REMARK SMILES IDX 12 1 14 2 13 3 15 4 16 5 2 6 1 7 3 8 11 10 9 11 10 12 5 13
REMARK SMILES IDX 6 14 7 15 8 16 4 17
REMARK H PARENT
REMARK Flexibility Score: 60.00
ROOT
ATOM      1  C   UNL     1       3.248   0.277  24.945  1.00  0.00    -0.070 C 
ATOM      2  C   UNL     1       3.781   1.449  24.536  1.00  0.00    -0.027 C 
ATOM      3  C   UNL     1       4.189  -0.788  25.452  1.00  0.00     0.039 C 
ENDROOT
BRANCH   2   4
ATOM      4  C   UNL     1       3.000   2.666  24.089  1.00  0.00     0.032 C 
BRANCH   4   5
ATOM      5  C   UNL     1       2.597   2.665  22.599  1.00  0.00     0.034 C 
BRANCH   5   6
ATOM      6  C   UNL     1       1.154   3.083  22.371  1.00  0.00    -0.077 C 
ATOM      7  C   UNL     1       0.813   4.542  22.535  1.00  0.00     0.039 C 
ATOM      8  C   UNL     1       0.171   2.244  21.962  1.00  0.00    -0.023 CG0
ATOM      9  G   UNL     1       0.277   0.746  21.750  1.00  0.00     0.000 G0
ENDBRANCH   5   6
ENDBRANCH   4   5
ENDBRANCH   2   4
BRANCH   1  10
ATOM     10  C   UNL     1       1.756   0.017  25.005  1.00  0.00     0.111 C 
BRANCH  10  11
ATOM     11  C   UNL     1       1.247  -0.592  23.725  1.00  0.00     0.163 C 
ATOM     12  O   UNL     1       1.841  -1.609  23.274  1.00  0.00    -0.294 OA
BRANCH  11  13
ATOM     13  C   UNL     1       0.039  -0.075  23.016  1.00  0.00    -0.002 C 
ATOM     14  C   UNL     1      -1.209  -0.247  23.545  1.00  0.00    -0.069 C 
ATOM     15  C   UNL     1      -2.434   0.399  22.935  1.00  0.00     0.039 C 
ATOM     16  C   UNL     1      -1.430  -1.096  24.778  1.00  0.00     0.039 C 
BRANCH  13  17
ATOM     17  C   UNL     1       0.269   0.723  21.743  1.00  0.00     0.066 CG0
ATOM     18  G   UNL     1       0.181   2.218  21.976  1.00  0.00     0.000 G0
ENDBRANCH  13  17
ENDBRANCH  11  13
ENDBRANCH  10  11
ENDBRANCH   1  10
TORSDOF 0
ENDMDL
MODEL 4
REMARK VINA RESULT:    -3.105      2.401      5.165
REMARK INTER + INTRA:          -4.218
REMARK INTER:                  -4.382
REMARK INTRA:                   0.164
REMARK UNBOUND:                 0.158
REMARK SMILES CC1=CCC(=C(C)C)C(=O)CC(C)=CCC1
REMARK SMILES IDX 12 1 14 2 13 3 15 4 16 5 2 6 1 7 3 8 11 10 9 11 10 12 5 13
REMARK SMILES IDX 6 14 7 15 8 16 4 17
REMARK H PARENT
REMARK Flexibility Score: 60.00
ROOT
ATOM      1  C   UNL     1       0.211  -2.952  18.016  1.00  0.00    -0.070 C 
ATOM      2  C   UNL     1      -0.621  -1.955  18.391  1.00  0.00    -0.027 C 
ATOM      3  C   UNL     1      -0.303  -4.368  18.096  1.00  0.00     0.039 C 
ENDROOT
BRANCH   2   4
ATOM      4  C   UNL     1      -0.326  -0.475  18.292  1.00  0.00     0.032 C 
BRANCH   4   5
ATOM      5  C   UNL     1      -0.435   0.114  16.869  1.00  0.00     0.034 C 
BRANCH   5   6
ATOM      6  C   UNL     1       0.771   0.948  16.474  1.00  0.00    -0.077 C 
ATOM      7  C   UNL     1       1.051   2.197  17.271  1.00  0.00     0.039 C 
ATOM      8  C   UNL     1       1.650   0.608  15.499  1.00  0.00    -0.023 CG0
ATOM      9  G   UNL     1       1.562  -0.582  14.564  1.00  0.00     0.000 G0
ENDBRANCH   5   6
ENDBRANCH   4   5
ENDBRANCH   2   4
BRANCH   1  10
ATOM     10  C   UNL     1       1.589  -2.711  17.435  1.00  0.00     0.111 C 
BRANCH  10  11
ATOM     11  C   UNL     1       1.577  -2.773  15.930  1.00  0.00     0.163 C 
ATOM     12  O   UNL     1       0.857  -3.649  15.379  1.00  0.00    -0.294 OA
BRANCH  11  13
ATOM     13  C   UNL     1       2.331  -1.804  15.081  1.00  0.00    -0.002 C 
ATOM     14  C   UNL     1       3.623  -2.054  14.715  1.00  0.00    -0.069 C 
ATOM     15  C   UNL     1       4.361  -1.174  13.729  1.00  0.00     0.039 C 
ATOM     16  C   UNL     1       4.386  -3.233  15.279  1.00  0.00     0.039 C 
BRANCH  13  17
ATOM     17  C   UNL     1       1.572  -0.589  14.571  1.00  0.00     0.066 CG0
ATOM     18  G   UNL     1       1.664   0.589  15.520  1.00  0.00     0.000 G0
ENDBRANCH  13  17
ENDBRANCH  11  13
ENDBRANCH  10  11
ENDBRANCH   1  10
TORSDOF 0
ENDMDL
MODEL 5
REMARK VINA RESULT:    -2.958      7.090      8.265
REMARK INTER + INTRA:          -4.010
REMARK INTER:                  -4.411
REMARK INTRA:                   0.401
REMARK UNBOUND:                 0.158
REMARK SMILES CC1=CCC(=C(C)C)C(=O)CC(C)=CCC1
REMARK SMILES IDX 12 1 14 2 13 3 15 4 16 5 2 6 1 7 3 8 11 10 9 11 10 12 5 13
REMARK SMILES IDX 6 14 7 15 8 16 4 17
REMARK H PARENT
REMARK Flexibility Score: 60.00
ROOT
ATOM      1  C   UNL     1       3.824   1.912  23.763  1.00  0.00    -0.070 C 
ATOM      2  C   UNL     1       5.160   1.718  23.814  1.00  0.00    -0.027 C 
ATOM      3  C   UNL     1       3.235   2.438  22.477  1.00  0.00     0.039 C 
ENDROOT
BRANCH   2   4
ATOM      4  C   UNL     1       5.921   1.110  24.971  1.00  0.00     0.032 C 
BRANCH   4   5
ATOM      5  C   UNL     1       6.667  -0.200  24.640  1.00  0.00     0.034 C 
BRANCH   5   6
ATOM      6  C   UNL     1       5.770  -1.259  24.023  1.00  0.00    -0.077 C 
ATOM      7  C   UNL     1       6.147  -1.789  22.662  1.00  0.00     0.039 C 
ATOM      8  C   UNL     1       4.696  -1.807  24.641  1.00  0.00    -0.023 CG0
ATOM      9  G   UNL     1       4.124  -1.422  25.991  1.00  0.00     0.000 G0
ENDBRANCH   5   6
ENDBRANCH   4   5
ENDBRANCH   2   4
BRANCH   1  10
ATOM     10  C   UNL     1       2.886   1.540  24.893  1.00  0.00     0.111 C 
BRANCH  10  11
ATOM     11  C   UNL     1       2.432   0.107  24.789  1.00  0.00     0.163 C 
ATOM     12  O   UNL     1       1.864  -0.260  23.725  1.00  0.00    -0.294 OA
BRANCH  11  13
ATOM     13  C   UNL     1       2.684  -0.895  25.868  1.00  0.00    -0.002 C 
ATOM     14  C   UNL     1       1.661  -1.355  26.648  1.00  0.00    -0.069 C 
ATOM     15  C   UNL     1       1.853  -2.482  27.639  1.00  0.00     0.039 C 
ATOM     16  C   UNL     1       0.274  -0.757  26.557  1.00  0.00     0.039 C 
BRANCH  13  17
ATOM     17  C   UNL     1       4.097  -1.442  25.991  1.00  0.00     0.066 CG0
ATOM     18  G   UNL     1       4.695  -1.804  24.646  1.00  0.00     0.000 G0
ENDBRANCH  13  17
ENDBRANCH  11  13
ENDBRANCH  10  11
ENDBRANCH   1  10
TORSDOF 0
ENDMDL
MODEL 6
REMARK VINA RESULT:    -2.931      2.410      3.948
REMARK INTER + INTRA:          -3.972
REMARK INTER:                  -4.398
REMARK INTRA:                   0.426
REMARK UNBOUND:                 0.158
REMARK SMILES CC1=CCC(=C(C)C)C(=O)CC(C)=CCC1
REMARK SMILES IDX 12 1 14 2 13 3 15 4 16 5 2 6 1 7 3 8 11 10 9 11 10 12 5 13
REMARK SMILES IDX 6 14 7 15 8 16 4 17
REMARK H PARENT
REMARK Flexibility Score: 60.00
ROOT
ATOM      1  C   UNL     1       0.260  -4.059  17.657  1.00  0.00    -0.070 C 
ATOM      2  C   UNL     1       0.435  -3.837  16.335  1.00  0.00    -0.027 C 
ATOM      3  C   UNL     1      -0.956  -4.841  18.088  1.00  0.00     0.039 C 
ENDROOT
BRANCH   2   4
ATOM      4  C   UNL     1       1.632  -3.163  15.704  1.00  0.00     0.032 C 
BRANCH   4   5
ATOM      5  C   UNL     1       1.375  -1.730  15.193  1.00  0.00     0.034 C 
BRANCH   5   6
ATOM      6  C   UNL     1       1.824  -0.658  16.171  1.00  0.00    -0.077 C 
ATOM      7  C   UNL     1       3.169  -0.018  15.940  1.00  0.00     0.039 C 
ATOM      8  C   UNL     1       1.066  -0.189  17.193  1.00  0.00    -0.023 CG0
ATOM      9  G   UNL     1      -0.299  -0.689  17.622  1.00  0.00     0.000 G0
ENDBRANCH   5   6
ENDBRANCH   4   5
ENDBRANCH   2   4
BRANCH   1  10
ATOM     10  C   UNL     1       1.269  -3.645  18.710  1.00  0.00     0.111 C 
BRANCH  10  11
ATOM     11  C   UNL     1       1.012  -2.245  19.204  1.00  0.00     0.163 C 
ATOM     12  O   UNL     1       1.931  -1.664  19.841  1.00  0.00    -0.294 OA
BRANCH  11  13
ATOM     13  C   UNL     1      -0.256  -1.512  18.915  1.00  0.00    -0.002 C 
ATOM     14  C   UNL     1      -1.290  -1.523  19.808  1.00  0.00    -0.069 C 
ATOM     15  C   UNL     1      -2.522  -0.665  19.619  1.00  0.00     0.039 C 
ATOM     16  C   UNL     1      -1.252  -2.399  21.042  1.00  0.00     0.039 C 
BRANCH  13  17
ATOM     17  C   UNL     1      -0.305  -0.685  17.640  1.00  0.00     0.066 CG0
ATOM     18  G   UNL     1       1.067  -0.202  17.213  1.00  0.00     0.000 G0
ENDBRANCH  13  17
ENDBRANCH  11  13
ENDBRANCH  10  11
ENDBRANCH   1  10
TORSDOF 0
ENDMDL
MODEL 7
REMARK VINA RESULT:    -2.898      6.697      8.464
REMARK INTER + INTRA:          -3.925
REMARK INTER:                  -4.284
REMARK INTRA:                   0.359
REMARK UNBOUND:                 0.158
REMARK SMILES CC1=CCC(=C(C)C)C(=O)CC(C)=CCC1
REMARK SMILES IDX 12 1 14 2 13 3 15 4 16 5 2 6 1 7 3 8 11 10 9 11 10 12 5 13
REMARK SMILES IDX 6 14 7 15 8 16 4 17
REMARK H PARENT
REMARK Flexibility Score: 60.00
ROOT
ATOM      1  C   UNL     1       1.936  -0.433  25.672  1.00  0.00    -0.070 C 
ATOM      2  C   UNL     1       2.836  -1.342  26.107  1.00  0.00    -0.027 C 
ATOM      3  C   UNL     1       0.477  -0.695  25.949  1.00  0.00     0.039 C 
ENDROOT
BRANCH   2   4
ATOM      4  C   UNL     1       4.340  -1.211  26.012  1.00  0.00     0.032 C 
BRANCH   4   5
ATOM      5  C   UNL     1       4.912  -1.321  24.583  1.00  0.00     0.034 C 
BRANCH   5   6
ATOM      6  C   UNL     1       5.722  -0.105  24.168  1.00  0.00    -0.077 C 
ATOM      7  C   UNL     1       6.949   0.229  24.979  1.00  0.00     0.039 C 
ATOM      8  C   UNL     1       5.455   0.657  23.079  1.00  0.00    -0.023 CG0
ATOM      9  G   UNL     1       4.277   0.521  22.135  1.00  0.00     0.000 G0
ENDBRANCH   5   6
ENDBRANCH   4   5
ENDBRANCH   2   4
BRANCH   1  10
ATOM     10  C   UNL     1       2.327   0.872  25.008  1.00  0.00     0.111 C 
BRANCH  10  11
ATOM     11  C   UNL     1       2.116   0.822  23.517  1.00  0.00     0.163 C 
ATOM     12  O   UNL     1       1.043   0.319  23.087  1.00  0.00    -0.294 OA
BRANCH  11  13
ATOM     13  C   UNL     1       3.095   1.397  22.548  1.00  0.00    -0.002 C 
ATOM     14  C   UNL     1       2.974   2.687  22.114  1.00  0.00    -0.069 C 
ATOM     15  C   UNL     1       4.033   3.347  21.259  1.00  0.00     0.039 C 
ATOM     16  C   UNL     1       1.766   3.525  22.471  1.00  0.00     0.039 C 
BRANCH  13  17
ATOM     17  C   UNL     1       4.271   0.522  22.147  1.00  0.00     0.066 CG0
ATOM     18  G   UNL     1       5.454   0.681  23.082  1.00  0.00     0.000 G0
ENDBRANCH  13  17
ENDBRANCH  11  13
ENDBRANCH  10  11
ENDBRANCH   1  10
TORSDOF 0
ENDMDL
MODEL 8
REMARK VINA RESULT:    -2.861      2.528      3.986
REMARK INTER + INTRA:          -3.873
REMARK INTER:                  -4.091
REMARK INTRA:                   0.218
REMARK UNBOUND:                 0.158
REMARK SMILES CC1=CCC(=C(C)C)C(=O)CC(C)=CCC1
REMARK SMILES IDX 12 1 14 2 13 3 15 4 16 5 2 6 1 7 3 8 11 10 9 11 10 12 5 13
REMARK SMILES IDX 6 14 7 15 8 16 4 17
REMARK H PARENT
REMARK Flexibility Score: 60.00
ROOT
ATOM      1  C   UNL     1       0.959  -0.754  15.234  1.00  0.00    -0.070 C 
ATOM      2  C   UNL     1       1.387  -2.029  15.100  1.00  0.00    -0.027 C 
ATOM      3  C   UNL     1       1.562   0.293  14.330  1.00  0.00     0.039 C 
ENDROOT
BRANCH   2   4
ATOM      4  C   UNL     1       0.838  -3.227  15.842  1.00  0.00     0.032 C 
BRANCH   4   5
ATOM      5  C   UNL     1       1.328  -3.368  17.298  1.00  0.00     0.034 C 
BRANCH   5   6
ATOM      6  C   UNL     1       0.194  -3.520  18.297  1.00  0.00    -0.077 C 
ATOM      7  C   UNL     1      -0.621  -4.788  18.245  1.00  0.00     0.039 C 
ATOM      8  C   UNL     1      -0.089  -2.626  19.276  1.00  0.00    -0.023 CG0
ATOM      9  G   UNL     1       0.579  -1.285  19.508  1.00  0.00     0.000 G0
ENDBRANCH   5   6
ENDBRANCH   4   5
ENDBRANCH   2   4
BRANCH   1  10
ATOM     10  C   UNL     1      -0.156  -0.346  16.175  1.00  0.00     0.111 C 
BRANCH  10  11
ATOM     11  C   UNL     1       0.383   0.245  17.452  1.00  0.00     0.163 C 
ATOM     12  O   UNL     1       1.270   1.137  17.364  1.00  0.00    -0.294 OA
BRANCH  11  13
ATOM     13  C   UNL     1      -0.135  -0.143  18.797  1.00  0.00    -0.002 C 
ATOM     14  C   UNL     1      -1.254   0.450  19.312  1.00  0.00    -0.069 C 
ATOM     15  C   UNL     1      -1.894  -0.029  20.597  1.00  0.00     0.039 C 
ATOM     16  C   UNL     1      -1.913   1.621  18.617  1.00  0.00     0.039 C 
BRANCH  13  17
ATOM     17  C   UNL     1       0.575  -1.279  19.515  1.00  0.00     0.066 CG0
ATOM     18  G   UNL     1      -0.091  -2.619  19.273  1.00  0.00     0.000 G0
ENDBRANCH  13  17
ENDBRANCH  11  13
ENDBRANCH  10  11
ENDBRANCH   1  10
TORSDOF 0
ENDMDL
MODEL 9
REMARK VINA RESULT:    -2.686      5.918      7.472
REMARK INTER + INTRA:          -3.627
REMARK INTER:                  -4.036
REMARK INTRA:                   0.409
REMARK UNBOUND:                 0.158
REMARK SMILES CC1=CCC(=C(C)C)C(=O)CC(C)=CCC1
REMARK SMILES IDX 12 1 14 2 13 3 15 4 16 5 2 6 1 7 3 8 11 10 9 11 10 12 5 13
REMARK SMILES IDX 6 14 7 15 8 16 4 17
REMARK H PARENT
REMARK Flexibility Score: 60.00
ROOT
ATOM      1  C   UNL     1       3.369   2.800  22.424  1.00  0.00    -0.070 C 
ATOM      2  C   UNL     1       2.715   3.487  21.462  1.00  0.00    -0.027 C 
ATOM      3  C   UNL     1       4.743   2.267  22.101  1.00  0.00     0.039 C 
ENDROOT
BRANCH   2   4
ATOM      4  C   UNL     1       1.379   4.179  21.623  1.00  0.00     0.032 C 
BRANCH   4   5
ATOM      5  C   UNL     1       0.165   3.230  21.719  1.00  0.00     0.034 C 
BRANCH   5   6
ATOM      6  C   UNL     1       0.273   2.027  20.799  1.00  0.00    -0.077 C 
ATOM      7  C   UNL     1       0.160   2.268  19.315  1.00  0.00     0.039 C 
ATOM      8  C   UNL     1       0.534   0.764  21.218  1.00  0.00    -0.023 CG0
ATOM      9  G   UNL     1       0.668   0.287  22.651  1.00  0.00     0.000 G0
ENDBRANCH   5   6
ENDBRANCH   4   5
ENDBRANCH   2   4
BRANCH   1  10
ATOM     10  C   UNL     1       2.833   2.623  23.830  1.00  0.00     0.111 C 
BRANCH  10  11
ATOM     11  C   UNL     1       2.560   1.175  24.142  1.00  0.00     0.163 C 
ATOM     12  O   UNL     1       2.671   0.795  25.339  1.00  0.00    -0.294 OA
BRANCH  11  13
ATOM     13  C   UNL     1       2.109   0.201  23.103  1.00  0.00    -0.002 C 
ATOM     14  C   UNL     1       2.951  -0.775  22.649  1.00  0.00    -0.069 C 
ATOM     15  C   UNL     1       2.478  -1.870  21.718  1.00  0.00     0.039 C 
ATOM     16  C   UNL     1       4.407  -0.811  23.059  1.00  0.00     0.039 C 
BRANCH  13  17
ATOM     17  C   UNL     1       0.660   0.287  22.653  1.00  0.00     0.066 CG0
ATOM     18  G   UNL     1       0.530   0.759  21.218  1.00  0.00     0.000 G0
ENDBRANCH  13  17
ENDBRANCH  11  13
ENDBRANCH  10  11
ENDBRANCH   1  10
TORSDOF 0
ENDMDL
