MODEL 1
REMARK VINA RESULT:    -0.379      0.000      0.000
REMARK INTER + INTRA:          -0.498
REMARK INTER:                  -0.412
REMARK INTRA:                  -0.085
REMARK UNBOUND:                -0.085
REMARK SMILES C[C@@H]1[C@@H](C)CC[C@@]2(C(=O)[O-])CC[C@@]3(C)C(=CC[C@@H]4[C@@]5(C)CC[C@@H](O)C(C)(C)[C@H]5CC[C@@]43C)[C@@H]12
REMARK SMILES IDX 7 1 6 2 11 3 33 4 5 5 12 6 15 7 2 8 3 9 13 10 16 11 1 12
REMARK SMILES IDX 4 13 14 14 31 15 17 16 18 17 30 18 32 19 19 20 29 21 28 22
REMARK SMILES IDX 21 23 20 24 25 25 22 26 23 27 26 28 27 29 8 30 9 31 10 32
REMARK SMILES IDX 24 33
REMARK H PARENT 24 34
REMARK Flexibility Score: inf
ROOT
ATOM      1  C   UNL     1     -13.032  43.480   3.777  1.00  0.00     0.017 C 
ATOM      2  C   UNL     1     -13.747  42.186   3.309  1.00  0.00     0.014 C 
ATOM      3  C   UNL     1     -13.827  44.133   4.969  1.00  0.00     0.014 C 
ATOM      4  C   UNL     1     -11.504  43.261   4.168  1.00  0.00     0.030 C 
ATOM      5  C   UNL     1     -12.905  41.391   2.310  1.00  0.00     0.004 C 
ATOM      6  C   UNL     1     -13.588  43.592   6.417  1.00  0.00     0.013 C 
ATOM      7  C   UNL     1     -11.244  43.601   5.651  1.00  0.00    -0.063 C 
ATOM      8  C   UNL     1     -10.769  41.939   3.702  1.00  0.00    -0.003 C 
ATOM      9  C   UNL     1     -11.608  40.858   2.926  1.00  0.00    -0.011 C 
ATOM     10  C   UNL     1     -12.154  43.025   6.737  1.00  0.00    -0.006 C 
ATOM     11  C   UNL     1     -10.639  44.777   5.904  1.00  0.00    -0.027 C 
ATOM     12  C   UNL     1      -9.505  42.290   2.890  1.00  0.00     0.008 C 
ATOM     13  C   UNL     1     -11.852  39.558   3.731  1.00  0.00     0.008 C 
ATOM     14  C   UNL     1     -12.242  41.478   6.593  1.00  0.00     0.017 C 
ATOM     15  C   UNL     1     -11.602  43.396   8.237  1.00  0.00    -0.020 C 
ATOM     16  C   UNL     1     -11.129  45.650   7.014  1.00  0.00     0.032 C 
ATOM     17  C   UNL     1     -11.162  44.932   8.395  1.00  0.00     0.006 C 
ATOM     18  C   UNL     1     -10.380  42.495   8.639  1.00  0.00     0.008 C 
ATOM     19  C   UNL     1     -12.725  43.074   9.281  1.00  0.00     0.012 C 
ATOM     20  C   UNL     1      -9.838  45.230   9.264  1.00  0.00    -0.025 C 
ATOM     21  C   UNL     1      -9.035  43.000   8.128  1.00  0.00     0.005 C 
ATOM     22  C   UNL     1      -8.608  44.416   8.665  1.00  0.00     0.003 C 
ATOM     23  C   UNL     1     -10.060  44.901  10.785  1.00  0.00     0.010 C 
ATOM     24  C   UNL     1      -9.580  46.778   9.222  1.00  0.00     0.012 C 
ATOM     25  C   UNL     1      -7.308  44.382   9.590  1.00  0.00    -0.006 C 
ATOM     26  C   UNL     1      -8.777  44.891  11.635  1.00  0.00     0.033 C 
ATOM     27  C   UNL     1      -7.686  43.983  11.046  1.00  0.00     0.120 C 
ATOM     28  C   UNL     1      -6.585  45.761   9.582  1.00  0.00     0.014 C 
ATOM     29  C   UNL     1      -6.223  43.393   9.055  1.00  0.00     0.014 C 
ENDROOT
BRANCH   1  30
ATOM     30  C   UNL     1     -13.145  44.451   2.583  1.00  0.00     0.048 C 
ATOM     31  O   UNL     1     -14.125  45.245   2.496  1.00  0.00    -0.550 OA
ATOM     32  O   UNL     1     -12.249  44.389   1.516  1.00  0.00    -0.550 OA
ENDBRANCH   1  30
BRANCH  27  33
ATOM     33  O   UNL     1      -8.128  42.651  11.085  1.00  0.00    -0.393 OA
ATOM     34  H   UNL     1      -8.083  42.294  10.159  1.00  0.00     0.210 HD
ENDBRANCH  27  33
TORSDOF 2
ENDMDL
MODEL 2
REMARK VINA RESULT:     0.803      1.297      7.629
REMARK INTER + INTRA:           0.789
REMARK INTER:                   0.707
REMARK INTRA:                   0.081
REMARK UNBOUND:                -0.085
REMARK SMILES C[C@@H]1[C@@H](C)CC[C@@]2(C(=O)[O-])CC[C@@]3(C)C(=CC[C@@H]4[C@@]5(C)CC[C@@H](O)C(C)(C)[C@H]5CC[C@@]43C)[C@@H]12
REMARK SMILES IDX 7 1 6 2 11 3 33 4 5 5 12 6 15 7 2 8 3 9 13 10 16 11 1 12
REMARK SMILES IDX 4 13 14 14 31 15 17 16 18 17 30 18 32 19 19 20 29 21 28 22
REMARK SMILES IDX 21 23 20 24 25 25 22 26 23 27 26 28 27 29 8 30 9 31 10 32
REMARK SMILES IDX 24 33
REMARK H PARENT 24 34
REMARK Flexibility Score: inf
ROOT
ATOM      1  C   UNL     1      -7.352  44.353  11.021  1.00  0.00     0.017 C 
ATOM      2  C   UNL     1      -6.429  45.596  11.124  1.00  0.00     0.014 C 
ATOM      3  C   UNL     1      -8.819  44.737  11.450  1.00  0.00     0.014 C 
ATOM      4  C   UNL     1      -7.344  43.666   9.585  1.00  0.00     0.030 C 
ATOM      5  C   UNL     1      -5.051  45.341  10.509  1.00  0.00     0.004 C 
ATOM      6  C   UNL     1      -9.759  45.404  10.393  1.00  0.00     0.013 C 
ATOM      7  C   UNL     1      -8.742  43.698   8.933  1.00  0.00    -0.063 C 
ATOM      8  C   UNL     1      -6.183  44.016   8.568  1.00  0.00    -0.003 C 
ATOM      9  C   UNL     1      -5.118  45.091   8.999  1.00  0.00    -0.011 C 
ATOM     10  C   UNL     1      -9.533  45.005   8.886  1.00  0.00    -0.006 C 
ATOM     11  C   UNL     1      -9.441  42.546   8.946  1.00  0.00    -0.027 C 
ATOM     12  C   UNL     1      -5.461  42.728   8.119  1.00  0.00     0.008 C 
ATOM     13  C   UNL     1      -5.210  46.417   8.206  1.00  0.00     0.008 C 
ATOM     14  C   UNL     1      -8.666  46.130   8.250  1.00  0.00     0.017 C 
ATOM     15  C   UNL     1     -10.916  44.836   8.019  1.00  0.00    -0.020 C 
ATOM     16  C   UNL     1     -10.897  42.556   9.285  1.00  0.00     0.032 C 
ATOM     17  C   UNL     1     -11.736  43.502   8.376  1.00  0.00     0.006 C 
ATOM     18  C   UNL     1     -10.631  44.834   6.475  1.00  0.00     0.008 C 
ATOM     19  C   UNL     1     -11.829  46.083   8.278  1.00  0.00     0.012 C 
ATOM     20  C   UNL     1     -12.421  42.712   7.150  1.00  0.00    -0.025 C 
ATOM     21  C   UNL     1     -10.231  43.474   5.914  1.00  0.00     0.005 C 
ATOM     22  C   UNL     1     -11.318  42.347   6.062  1.00  0.00     0.003 C 
ATOM     23  C   UNL     1     -13.600  43.539   6.520  1.00  0.00     0.010 C 
ATOM     24  C   UNL     1     -13.103  41.425   7.736  1.00  0.00     0.012 C 
ATOM     25  C   UNL     1     -11.893  41.827   4.668  1.00  0.00    -0.006 C 
ATOM     26  C   UNL     1     -14.125  42.991   5.180  1.00  0.00     0.033 C 
ATOM     27  C   UNL     1     -13.005  42.783   4.148  1.00  0.00     0.120 C 
ATOM     28  C   UNL     1     -12.449  40.379   4.801  1.00  0.00     0.014 C 
ATOM     29  C   UNL     1     -10.781  41.698   3.577  1.00  0.00     0.014 C 
ENDROOT
BRANCH   1  30
ATOM     30  C   UNL     1      -6.821  43.373  12.087  1.00  0.00     0.048 C 
ATOM     31  O   UNL     1      -7.379  42.251  12.259  1.00  0.00    -0.550 OA
ATOM     32  O   UNL     1      -5.806  43.746  12.968  1.00  0.00    -0.550 OA
ENDBRANCH   1  30
BRANCH  27  33
ATOM     33  O   UNL     1     -12.456  44.030   3.811  1.00  0.00    -0.393 OA
ATOM     34  H   UNL     1     -12.056  44.413   4.636  1.00  0.00     0.210 HD
ENDBRANCH  27  33
TORSDOF 2
ENDMDL
MODEL 3
REMARK VINA RESULT:     1.285      3.710      5.367
REMARK INTER + INTRA:           1.313
REMARK INTER:                   1.154
REMARK INTRA:                   0.159
REMARK UNBOUND:                -0.085
REMARK SMILES C[C@@H]1[C@@H](C)CC[C@@]2(C(=O)[O-])CC[C@@]3(C)C(=CC[C@@H]4[C@@]5(C)CC[C@@H](O)C(C)(C)[C@H]5CC[C@@]43C)[C@@H]12
REMARK SMILES IDX 7 1 6 2 11 3 33 4 5 5 12 6 15 7 2 8 3 9 13 10 16 11 1 12
REMARK SMILES IDX 4 13 14 14 31 15 17 16 18 17 30 18 32 19 19 20 29 21 28 22
REMARK SMILES IDX 21 23 20 24 25 25 22 26 23 27 26 28 27 29 8 30 9 31 10 32
REMARK SMILES IDX 24 33
REMARK H PARENT 24 34
REMARK Flexibility Score: inf
ROOT
ATOM      1  C   UNL     1     -10.838  40.622   2.048  1.00  0.00     0.017 C 
ATOM      2  C   UNL     1     -10.166  39.413   2.749  1.00  0.00     0.014 C 
ATOM      3  C   UNL     1     -12.355  40.708   2.462  1.00  0.00     0.014 C 
ATOM      4  C   UNL     1     -10.100  42.008   2.314  1.00  0.00     0.030 C 
ATOM      5  C   UNL     1      -8.647  39.411   2.564  1.00  0.00     0.004 C 
ATOM      6  C   UNL     1     -12.727  41.406   3.812  1.00  0.00     0.013 C 
ATOM      7  C   UNL     1     -11.019  43.010   3.044  1.00  0.00    -0.063 C 
ATOM      8  C   UNL     1      -8.624  42.000   2.886  1.00  0.00    -0.003 C 
ATOM      9  C   UNL     1      -7.971  40.611   3.235  1.00  0.00    -0.011 C 
ATOM     10  C   UNL     1     -11.785  42.573   4.293  1.00  0.00    -0.006 C 
ATOM     11  C   UNL     1     -11.556  43.993   2.295  1.00  0.00    -0.027 C 
ATOM     12  C   UNL     1      -7.685  42.787   1.949  1.00  0.00     0.008 C 
ATOM     13  C   UNL     1      -7.771  40.377   4.752  1.00  0.00     0.008 C 
ATOM     14  C   UNL     1     -10.804  41.957   5.331  1.00  0.00     0.017 C 
ATOM     15  C   UNL     1     -12.575  43.836   4.981  1.00  0.00    -0.020 C 
ATOM     16  C   UNL     1     -12.994  44.362   2.461  1.00  0.00     0.032 C 
ATOM     17  C   UNL     1     -13.368  44.748   3.923  1.00  0.00     0.006 C 
ATOM     18  C   UNL     1     -11.592  44.762   5.783  1.00  0.00     0.008 C 
ATOM     19  C   UNL     1     -13.589  43.280   6.039  1.00  0.00     0.012 C 
ATOM     20  C   UNL     1     -13.331  46.342   4.156  1.00  0.00    -0.025 C 
ATOM     21  C   UNL     1     -10.877  45.803   4.929  1.00  0.00     0.005 C 
ATOM     22  C   UNL     1     -11.820  46.841   4.217  1.00  0.00     0.003 C 
ATOM     23  C   UNL     1     -14.125  46.754   5.449  1.00  0.00     0.010 C 
ATOM     24  C   UNL     1     -14.114  47.014   2.974  1.00  0.00     0.012 C 
ATOM     25  C   UNL     1     -11.625  48.339   4.732  1.00  0.00    -0.006 C 
ATOM     26  C   UNL     1     -13.911  48.210   5.899  1.00  0.00     0.033 C 
ATOM     27  C   UNL     1     -12.424  48.570   6.048  1.00  0.00     0.120 C 
ATOM     28  C   UNL     1     -12.072  49.362   3.647  1.00  0.00     0.014 C 
ATOM     29  C   UNL     1     -10.124  48.692   4.978  1.00  0.00     0.014 C 
ENDROOT
BRANCH   1  30
ATOM     30  C   UNL     1     -10.807  40.279   0.545  1.00  0.00     0.048 C 
ATOM     31  O   UNL     1     -11.882  40.056  -0.082  1.00  0.00    -0.550 OA
ATOM     32  O   UNL     1      -9.600  40.079  -0.125  1.00  0.00    -0.550 OA
ENDBRANCH   1  30
BRANCH  27  33
ATOM     33  O   UNL     1     -11.871  47.809   7.091  1.00  0.00    -0.393 OA
ATOM     34  H   UNL     1     -12.599  47.622   7.741  1.00  0.00     0.210 HD
ENDBRANCH  27  33
TORSDOF 2
ENDMDL
MODEL 4
REMARK VINA RESULT:     1.741      1.867      7.353
REMARK INTER + INTRA:           1.808
REMARK INTER:                   1.786
REMARK INTRA:                   0.023
REMARK UNBOUND:                -0.085
REMARK SMILES C[C@@H]1[C@@H](C)CC[C@@]2(C(=O)[O-])CC[C@@]3(C)C(=CC[C@@H]4[C@@]5(C)CC[C@@H](O)C(C)(C)[C@H]5CC[C@@]43C)[C@@H]12
REMARK SMILES IDX 7 1 6 2 11 3 33 4 5 5 12 6 15 7 2 8 3 9 13 10 16 11 1 12
REMARK SMILES IDX 4 13 14 14 31 15 17 16 18 17 30 18 32 19 19 20 29 21 28 22
REMARK SMILES IDX 21 23 20 24 25 25 22 26 23 27 26 28 27 29 8 30 9 31 10 32
REMARK SMILES IDX 24 33
REMARK H PARENT 24 34
REMARK Flexibility Score: inf
ROOT
ATOM      1  C   UNL     1     -12.302  42.462   8.843  1.00  0.00     0.017 C 
ATOM      2  C   UNL     1     -12.642  43.741   9.652  1.00  0.00     0.014 C 
ATOM      3  C   UNL     1     -13.547  42.021   7.985  1.00  0.00     0.014 C 
ATOM      4  C   UNL     1     -11.007  42.607   7.928  1.00  0.00     0.030 C 
ATOM      5  C   UNL     1     -11.407  44.341  10.326  1.00  0.00     0.004 C 
ATOM      6  C   UNL     1     -13.789  42.713   6.604  1.00  0.00     0.013 C 
ATOM      7  C   UNL     1     -11.346  42.431   6.433  1.00  0.00    -0.063 C 
ATOM      8  C   UNL     1     -10.004  43.803   8.194  1.00  0.00    -0.003 C 
ATOM      9  C   UNL     1     -10.370  44.844   9.316  1.00  0.00    -0.011 C 
ATOM     10  C   UNL     1     -12.514  43.203   5.819  1.00  0.00    -0.006 C 
ATOM     11  C   UNL     1     -11.016  41.251   5.874  1.00  0.00    -0.027 C 
ATOM     12  C   UNL     1      -8.581  43.260   8.443  1.00  0.00     0.008 C 
ATOM     13  C   UNL     1     -10.737  46.246   8.773  1.00  0.00     0.008 C 
ATOM     14  C   UNL     1     -12.363  44.723   6.115  1.00  0.00     0.017 C 
ATOM     15  C   UNL     1     -12.593  42.975   4.196  1.00  0.00    -0.020 C 
ATOM     16  C   UNL     1     -11.974  40.560   4.960  1.00  0.00     0.032 C 
ATOM     17  C   UNL     1     -12.424  41.440   3.756  1.00  0.00     0.006 C 
ATOM     18  C   UNL     1     -11.505  43.821   3.443  1.00  0.00     0.008 C 
ATOM     19  C   UNL     1     -13.974  43.507   3.679  1.00  0.00     0.012 C 
ATOM     20  C   UNL     1     -11.551  41.148   2.433  1.00  0.00    -0.025 C 
ATOM     21  C   UNL     1     -10.136  43.156   3.369  1.00  0.00     0.005 C 
ATOM     22  C   UNL     1     -10.101  41.787   2.595  1.00  0.00     0.003 C 
ATOM     23  C   UNL     1     -12.272  41.675   1.140  1.00  0.00     0.010 C 
ATOM     24  C   UNL     1     -11.478  39.592   2.246  1.00  0.00     0.012 C 
ATOM     25  C   UNL     1      -9.233  41.832   1.257  1.00  0.00    -0.006 C 
ATOM     26  C   UNL     1     -11.394  41.690  -0.125  1.00  0.00     0.033 C 
ATOM     27  C   UNL     1     -10.065  42.432   0.087  1.00  0.00     0.120 C 
ATOM     28  C   UNL     1      -8.723  40.411   0.878  1.00  0.00     0.014 C 
ATOM     29  C   UNL     1      -7.921  42.662   1.428  1.00  0.00     0.014 C 
ENDROOT
BRANCH   1  30
ATOM     30  C   UNL     1     -12.085  41.365   9.906  1.00  0.00     0.048 C 
ATOM     31  O   UNL     1     -11.013  41.327  10.576  1.00  0.00    -0.550 OA
ATOM     32  O   UNL     1     -12.998  40.322  10.063  1.00  0.00    -0.550 OA
ENDBRANCH   1  30
BRANCH  27  33
ATOM     33  O   UNL     1     -10.333  43.790   0.329  1.00  0.00    -0.393 OA
ATOM     34  H   UNL     1      -9.719  44.321  -0.244  1.00  0.00     0.210 HD
ENDBRANCH  27  33
TORSDOF 2
ENDMDL
MODEL 5
REMARK VINA RESULT:     2.097      1.480      7.565
REMARK INTER + INTRA:           2.195
REMARK INTER:                   2.114
REMARK INTRA:                   0.081
REMARK UNBOUND:                -0.085
REMARK SMILES C[C@@H]1[C@@H](C)CC[C@@]2(C(=O)[O-])CC[C@@]3(C)C(=CC[C@@H]4[C@@]5(C)CC[C@@H](O)C(C)(C)[C@H]5CC[C@@]43C)[C@@H]12
REMARK SMILES IDX 7 1 6 2 11 3 33 4 5 5 12 6 15 7 2 8 3 9 13 10 16 11 1 12
REMARK SMILES IDX 4 13 14 14 31 15 17 16 18 17 30 18 32 19 19 20 29 21 28 22
REMARK SMILES IDX 21 23 20 24 25 25 22 26 23 27 26 28 27 29 8 30 9 31 10 32
REMARK SMILES IDX 24 33
REMARK H PARENT 24 34
REMARK Flexibility Score: inf
ROOT
ATOM      1  C   UNL     1      -8.272  43.230  10.254  1.00  0.00     0.017 C 
ATOM      2  C   UNL     1      -8.805  43.799  11.595  1.00  0.00     0.014 C 
ATOM      3  C   UNL     1      -8.755  41.742  10.071  1.00  0.00     0.014 C 
ATOM      4  C   UNL     1      -8.660  44.110   8.985  1.00  0.00     0.030 C 
ATOM      5  C   UNL     1      -8.559  45.304  11.720  1.00  0.00     0.004 C 
ATOM      6  C   UNL     1     -10.188  41.482   9.502  1.00  0.00     0.013 C 
ATOM      7  C   UNL     1      -9.535  43.318   7.990  1.00  0.00    -0.063 C 
ATOM      8  C   UNL     1      -9.166  45.595   9.200  1.00  0.00    -0.003 C 
ATOM      9  C   UNL     1      -9.332  46.116  10.676  1.00  0.00    -0.011 C 
ATOM     10  C   UNL     1     -10.758  42.550   8.493  1.00  0.00    -0.006 C 
ATOM     11  C   UNL     1      -8.923  42.860   6.881  1.00  0.00    -0.027 C 
ATOM     12  C   UNL     1      -8.286  46.580   8.403  1.00  0.00     0.008 C 
ATOM     13  C   UNL     1     -10.803  46.336  11.102  1.00  0.00     0.008 C 
ATOM     14  C   UNL     1     -11.679  43.495   9.315  1.00  0.00     0.017 C 
ATOM     15  C   UNL     1     -11.614  41.911   7.248  1.00  0.00    -0.020 C 
ATOM     16  C   UNL     1      -9.188  41.471   6.397  1.00  0.00     0.032 C 
ATOM     17  C   UNL     1     -10.698  41.182   6.148  1.00  0.00     0.006 C 
ATOM     18  C   UNL     1     -12.473  43.005   6.519  1.00  0.00     0.008 C 
ATOM     19  C   UNL     1     -12.644  40.879   7.823  1.00  0.00     0.012 C 
ATOM     20  C   UNL     1     -11.107  41.385   4.603  1.00  0.00    -0.025 C 
ATOM     21  C   UNL     1     -11.713  43.794   5.460  1.00  0.00     0.005 C 
ATOM     22  C   UNL     1     -11.160  42.939   4.261  1.00  0.00     0.003 C 
ATOM     23  C   UNL     1     -12.468  40.674   4.269  1.00  0.00     0.010 C 
ATOM     24  C   UNL     1     -10.040  40.638   3.727  1.00  0.00     0.012 C 
ATOM     25  C   UNL     1     -11.832  43.297   2.859  1.00  0.00    -0.006 C 
ATOM     26  C   UNL     1     -13.070  41.046   2.901  1.00  0.00     0.033 C 
ATOM     27  C   UNL     1     -13.197  42.565   2.705  1.00  0.00     0.120 C 
ATOM     28  C   UNL     1     -10.887  42.922   1.679  1.00  0.00     0.014 C 
ATOM     29  C   UNL     1     -12.054  44.833   2.681  1.00  0.00     0.014 C 
ENDROOT
BRANCH   1  30
ATOM     30  C   UNL     1      -6.739  43.182  10.423  1.00  0.00     0.048 C 
ATOM     31  O   UNL     1      -6.213  43.401  11.552  1.00  0.00    -0.550 OA
ATOM     32  O   UNL     1      -5.897  43.027   9.322  1.00  0.00    -0.550 OA
ENDBRANCH   1  30
BRANCH  27  33
ATOM     33  O   UNL     1     -14.125  43.070   3.631  1.00  0.00    -0.393 OA
ATOM     34  H   UNL     1     -13.649  43.188   4.495  1.00  0.00     0.210 HD
ENDBRANCH  27  33
TORSDOF 2
ENDMDL
MODEL 6
REMARK VINA RESULT:     2.317      9.825     13.586
REMARK INTER + INTRA:           2.435
REMARK INTER:                   2.342
REMARK INTRA:                   0.093
REMARK UNBOUND:                -0.085
REMARK SMILES C[C@@H]1[C@@H](C)CC[C@@]2(C(=O)[O-])CC[C@@]3(C)C(=CC[C@@H]4[C@@]5(C)CC[C@@H](O)C(C)(C)[C@H]5CC[C@@]43C)[C@@H]12
REMARK SMILES IDX 7 1 6 2 11 3 33 4 5 5 12 6 15 7 2 8 3 9 13 10 16 11 1 12
REMARK SMILES IDX 4 13 14 14 31 15 17 16 18 17 30 18 32 19 19 20 29 21 28 22
REMARK SMILES IDX 21 23 20 24 25 25 22 26 23 27 26 28 27 29 8 30 9 31 10 32
REMARK SMILES IDX 24 33
REMARK H PARENT 24 34
REMARK Flexibility Score: inf
ROOT
ATOM      1  C   UNL     1      -2.791  43.944  16.092  1.00  0.00     0.017 C 
ATOM      2  C   UNL     1      -4.322  43.971  16.344  1.00  0.00     0.014 C 
ATOM      3  C   UNL     1      -2.117  42.845  16.996  1.00  0.00     0.014 C 
ATOM      4  C   UNL     1      -2.397  43.738  14.563  1.00  0.00     0.030 C 
ATOM      5  C   UNL     1      -5.056  44.857  15.336  1.00  0.00     0.004 C 
ATOM      6  C   UNL     1      -2.127  41.360  16.506  1.00  0.00     0.013 C 
ATOM      7  C   UNL     1      -1.592  42.438  14.354  1.00  0.00    -0.063 C 
ATOM      8  C   UNL     1      -3.494  43.969  13.445  1.00  0.00    -0.003 C 
ATOM      9  C   UNL     1      -4.956  44.326  13.903  1.00  0.00    -0.011 C 
ATOM     10  C   UNL     1      -2.099  41.123  14.949  1.00  0.00    -0.006 C 
ATOM     11  C   UNL     1      -0.264  42.572  14.178  1.00  0.00    -0.027 C 
ATOM     12  C   UNL     1      -3.004  45.019  12.426  1.00  0.00     0.008 C 
ATOM     13  C   UNL     1      -5.987  43.201  13.640  1.00  0.00     0.008 C 
ATOM     14  C   UNL     1      -3.569  40.871  14.508  1.00  0.00     0.017 C 
ATOM     15  C   UNL     1      -1.168  39.858  14.476  1.00  0.00    -0.020 C 
ATOM     16  C   UNL     1       0.683  41.651  14.876  1.00  0.00     0.032 C 
ATOM     17  C   UNL     1       0.408  40.146  14.584  1.00  0.00     0.006 C 
ATOM     18  C   UNL     1      -1.486  39.430  12.999  1.00  0.00     0.008 C 
ATOM     19  C   UNL     1      -1.523  38.613  15.361  1.00  0.00     0.012 C 
ATOM     20  C   UNL     1       1.340  39.580  13.397  1.00  0.00    -0.025 C 
ATOM     21  C   UNL     1      -0.746  40.240  11.941  1.00  0.00     0.005 C 
ATOM     22  C   UNL     1       0.822  40.135  11.997  1.00  0.00     0.003 C 
ATOM     23  C   UNL     1       1.396  38.009  13.408  1.00  0.00     0.010 C 
ATOM     24  C   UNL     1       2.812  40.037  13.690  1.00  0.00     0.012 C 
ATOM     25  C   UNL     1       1.461  39.430  10.716  1.00  0.00    -0.006 C 
ATOM     26  C   UNL     1       2.030  37.379  12.155  1.00  0.00     0.033 C 
ATOM     27  C   UNL     1       1.388  37.882  10.852  1.00  0.00     0.120 C 
ATOM     28  C   UNL     1       2.938  39.881  10.513  1.00  0.00     0.014 C 
ATOM     29  C   UNL     1       0.758  39.859   9.389  1.00  0.00     0.014 C 
ENDROOT
BRANCH   1  30
ATOM     30  C   UNL     1      -2.280  45.309  16.598  1.00  0.00     0.048 C 
ATOM     31  O   UNL     1      -2.564  46.370  15.971  1.00  0.00    -0.550 OA
ATOM     32  O   UNL     1      -1.395  45.395  17.672  1.00  0.00    -0.550 OA
ENDBRANCH   1  30
BRANCH  27  33
ATOM     33  O   UNL     1       0.051  37.453  10.807  1.00  0.00    -0.393 OA
ATOM     34  H   UNL     1      -0.096  37.028   9.921  1.00  0.00     0.210 HD
ENDBRANCH  27  33
TORSDOF 2
ENDMDL
MODEL 7
REMARK VINA RESULT:     2.348      1.553      2.015
REMARK INTER + INTRA:           2.468
REMARK INTER:                   2.121
REMARK INTRA:                   0.348
REMARK UNBOUND:                -0.085
REMARK SMILES C[C@@H]1[C@@H](C)CC[C@@]2(C(=O)[O-])CC[C@@]3(C)C(=CC[C@@H]4[C@@]5(C)CC[C@@H](O)C(C)(C)[C@H]5CC[C@@]43C)[C@@H]12
REMARK SMILES IDX 7 1 6 2 11 3 33 4 5 5 12 6 15 7 2 8 3 9 13 10 16 11 1 12
REMARK SMILES IDX 4 13 14 14 31 15 17 16 18 17 30 18 32 19 19 20 29 21 28 22
REMARK SMILES IDX 21 23 20 24 25 25 22 26 23 27 26 28 27 29 8 30 9 31 10 32
REMARK SMILES IDX 24 33
REMARK H PARENT 24 34
REMARK Flexibility Score: inf
ROOT
ATOM      1  C   UNL     1     -12.964  46.134   4.211  1.00  0.00     0.017 C 
ATOM      2  C   UNL     1     -14.122  45.313   3.585  1.00  0.00     0.014 C 
ATOM      3  C   UNL     1     -13.419  46.741   5.592  1.00  0.00     0.014 C 
ATOM      4  C   UNL     1     -11.611  45.310   4.375  1.00  0.00     0.030 C 
ATOM      5  C   UNL     1     -13.667  44.518   2.360  1.00  0.00     0.004 C 
ATOM      6  C   UNL     1     -13.344  45.841   6.868  1.00  0.00     0.013 C 
ATOM      7  C   UNL     1     -11.191  45.196   5.856  1.00  0.00    -0.063 C 
ATOM      8  C   UNL     1     -11.431  43.954   3.578  1.00  0.00    -0.003 C 
ATOM      9  C   UNL     1     -12.636  43.440   2.707  1.00  0.00    -0.011 C 
ATOM     10  C   UNL     1     -12.210  44.749   6.905  1.00  0.00    -0.006 C 
ATOM     11  C   UNL     1     -10.187  45.996   6.262  1.00  0.00    -0.027 C 
ATOM     12  C   UNL     1     -10.157  44.011   2.710  1.00  0.00     0.008 C 
ATOM     13  C   UNL     1     -13.313  42.164   3.265  1.00  0.00     0.008 C 
ATOM     14  C   UNL     1     -12.866  43.406   6.472  1.00  0.00     0.017 C 
ATOM     15  C   UNL     1     -11.507  44.556   8.375  1.00  0.00    -0.020 C 
ATOM     16  C   UNL     1     -10.281  46.713   7.570  1.00  0.00     0.032 C 
ATOM     17  C   UNL     1     -10.527  45.763   8.779  1.00  0.00     0.006 C 
ATOM     18  C   UNL     1     -10.688  43.218   8.451  1.00  0.00     0.008 C 
ATOM     19  C   UNL     1     -12.632  44.425   9.458  1.00  0.00     0.012 C 
ATOM     20  C   UNL     1      -9.156  45.374   9.531  1.00  0.00    -0.025 C 
ATOM     21  C   UNL     1      -9.272  43.319   7.897  1.00  0.00     0.005 C 
ATOM     22  C   UNL     1      -8.334  44.335   8.647  1.00  0.00     0.003 C 
ATOM     23  C   UNL     1      -9.430  44.813  10.974  1.00  0.00     0.010 C 
ATOM     24  C   UNL     1      -8.349  46.700   9.763  1.00  0.00     0.012 C 
ATOM     25  C   UNL     1      -7.106  43.641   9.392  1.00  0.00    -0.006 C 
ATOM     26  C   UNL     1      -8.211  44.162  11.652  1.00  0.00     0.033 C 
ATOM     27  C   UNL     1      -7.552  43.085  10.776  1.00  0.00     0.120 C 
ATOM     28  C   UNL     1      -5.927  44.642   9.571  1.00  0.00     0.014 C 
ATOM     29  C   UNL     1      -6.482  42.480   8.554  1.00  0.00     0.014 C 
ENDROOT
BRANCH   1  30
ATOM     30  C   UNL     1     -12.754  47.323   3.252  1.00  0.00     0.048 C 
ATOM     31  O   UNL     1     -12.850  47.161   2.001  1.00  0.00    -0.550 OA
ATOM     32  O   UNL     1     -12.328  48.565   3.724  1.00  0.00    -0.550 OA
ENDBRANCH   1  30
BRANCH  27  33
ATOM     33  O   UNL     1      -8.452  42.021  10.604  1.00  0.00    -0.393 OA
ATOM     34  H   UNL     1      -9.342  42.413  10.401  1.00  0.00     0.210 HD
ENDBRANCH  27  33
TORSDOF 2
ENDMDL
MODEL 8
REMARK VINA RESULT:     2.350      3.814      7.032
REMARK INTER + INTRA:           2.471
REMARK INTER:                   2.561
REMARK INTRA:                  -0.090
REMARK UNBOUND:                -0.085
REMARK SMILES C[C@@H]1[C@@H](C)CC[C@@]2(C(=O)[O-])CC[C@@]3(C)C(=CC[C@@H]4[C@@]5(C)CC[C@@H](O)C(C)(C)[C@H]5CC[C@@]43C)[C@@H]12
REMARK SMILES IDX 7 1 6 2 11 3 33 4 5 5 12 6 15 7 2 8 3 9 13 10 16 11 1 12
REMARK SMILES IDX 4 13 14 14 31 15 17 16 18 17 30 18 32 19 19 20 29 21 28 22
REMARK SMILES IDX 21 23 20 24 25 25 22 26 23 27 26 28 27 29 8 30 9 31 10 32
REMARK SMILES IDX 24 33
REMARK H PARENT 24 34
REMARK Flexibility Score: inf
ROOT
ATOM      1  C   UNL     1     -12.062  48.534   4.988  1.00  0.00     0.017 C 
ATOM      2  C   UNL     1     -12.880  49.619   4.239  1.00  0.00     0.014 C 
ATOM      3  C   UNL     1     -13.035  47.470   5.623  1.00  0.00     0.014 C 
ATOM      4  C   UNL     1     -10.961  47.824   4.083  1.00  0.00     0.030 C 
ATOM      5  C   UNL     1     -11.986  50.548   3.416  1.00  0.00     0.004 C 
ATOM      6  C   UNL     1     -13.569  46.309   4.721  1.00  0.00     0.013 C 
ATOM      7  C   UNL     1     -11.229  46.311   3.945  1.00  0.00    -0.063 C 
ATOM      8  C   UNL     1     -10.531  48.500   2.718  1.00  0.00    -0.003 C 
ATOM      9  C   UNL     1     -11.268  49.818   2.277  1.00  0.00    -0.011 C 
ATOM     10  C   UNL     1     -12.624  45.815   3.562  1.00  0.00    -0.006 C 
ATOM     11  C   UNL     1     -10.456  45.491   4.682  1.00  0.00    -0.027 C 
ATOM     12  C   UNL     1      -9.005  48.732   2.695  1.00  0.00     0.008 C 
ATOM     13  C   UNL     1     -12.189  49.639   1.046  1.00  0.00     0.008 C 
ATOM     14  C   UNL     1     -13.103  46.522   2.262  1.00  0.00     0.017 C 
ATOM     15  C   UNL     1     -12.637  44.191   3.329  1.00  0.00    -0.020 C 
ATOM     16  C   UNL     1     -11.066  44.334   5.405  1.00  0.00     0.032 C 
ATOM     17  C   UNL     1     -11.862  43.373   4.474  1.00  0.00     0.006 C 
ATOM     18  C   UNL     1     -12.007  43.804   1.943  1.00  0.00     0.008 C 
ATOM     19  C   UNL     1     -14.125  43.703   3.268  1.00  0.00     0.012 C 
ATOM     20  C   UNL     1     -10.974  42.114   4.002  1.00  0.00    -0.025 C 
ATOM     21  C   UNL     1     -10.488  43.690   1.956  1.00  0.00     0.005 C 
ATOM     22  C   UNL     1      -9.911  42.583   2.914  1.00  0.00     0.003 C 
ATOM     23  C   UNL     1     -11.875  40.945   3.461  1.00  0.00     0.010 C 
ATOM     24  C   UNL     1     -10.274  41.523   5.276  1.00  0.00     0.012 C 
ATOM     25  C   UNL     1      -9.166  41.400   2.147  1.00  0.00    -0.006 C 
ATOM     26  C   UNL     1     -11.107  39.824   2.737  1.00  0.00     0.033 C 
ATOM     27  C   UNL     1     -10.195  40.358   1.621  1.00  0.00     0.120 C 
ATOM     28  C   UNL     1      -8.126  40.704   3.074  1.00  0.00     0.014 C 
ATOM     29  C   UNL     1      -8.306  41.916   0.949  1.00  0.00     0.014 C 
ENDROOT
BRANCH   1  30
ATOM     30  C   UNL     1     -11.393  49.279   6.161  1.00  0.00     0.048 C 
ATOM     31  O   UNL     1     -10.438  48.745   6.796  1.00  0.00    -0.550 OA
ATOM     32  O   UNL     1     -11.901  50.490   6.631  1.00  0.00    -0.550 OA
ENDBRANCH   1  30
BRANCH  27  33
ATOM     33  O   UNL     1     -10.991  40.928   0.613  1.00  0.00    -0.393 OA
ATOM     34  H   UNL     1     -10.708  41.874   0.510  1.00  0.00     0.210 HD
ENDBRANCH  27  33
TORSDOF 2
ENDMDL
