MODEL 1
REMARK VINA RESULT:    -5.310      0.000      0.000
REMARK INTER + INTRA:          -6.691
REMARK INTER:                  -6.396
REMARK INTRA:                  -0.295
REMARK UNBOUND:                -0.295
REMARK SMILES Oc1cc(O)c2c(c1)O[C@H](c1ccc(O)c(O)c1)[C@H](O)C2
REMARK SMILES IDX 21 1 19 2 10 3 9 4 7 5 8 6 2 7 3 8 4 9 6 10 20 11 11 13
REMARK SMILES IDX 18 14 12 15 16 16 13 17 14 18 17 19 15 21 5 23 1 25
REMARK H PARENT 20 12 17 20 15 22 5 24 1 26
REMARK Flexibility Score: inf
ROOT
ATOM      1  C   UNL     1      13.710  28.773  12.808  1.00  0.00     0.079 C 
ATOM      2  C   UNL     1      13.305  29.655  11.607  1.00  0.00     0.164 C 
ATOM      3  C   UNL     1      14.482  29.784  10.620  1.00  0.00     0.232 C 
ATOM      4  O   UNL     1      15.638  30.279  11.292  1.00  0.00    -0.482 OA
ATOM      5  C   UNL     1      15.984  29.863  12.582  1.00  0.00     0.131 A 
ATOM      6  C   UNL     1      17.240  30.205  13.089  1.00  0.00     0.093 A 
ATOM      7  C   UNL     1      17.621  29.793  14.369  1.00  0.00     0.122 A 
ATOM      8  C   UNL     1      16.741  29.032  15.143  1.00  0.00     0.092 A 
ATOM      9  C   UNL     1      15.480  28.677  14.651  1.00  0.00     0.126 A 
ATOM     10  C   UNL     1      15.074  29.124  13.371  1.00  0.00     0.039 A 
ENDROOT
BRANCH   2  11
ATOM     11  O   UNL     1      12.846  30.914  12.038  1.00  0.00    -0.389 OA
ATOM     12  H   UNL     1      12.108  30.769  12.686  1.00  0.00     0.211 HD
ENDBRANCH   2  11
BRANCH   3  13
ATOM     13  C   UNL     1      14.131  30.669   9.444  1.00  0.00    -0.001 A 
ATOM     14  C   UNL     1      12.913  30.514   8.762  1.00  0.00     0.057 A 
ATOM     15  C   UNL     1      15.052  31.622   8.987  1.00  0.00     0.012 A 
ATOM     16  C   UNL     1      12.602  31.312   7.654  1.00  0.00     0.157 A 
ATOM     17  C   UNL     1      14.748  32.426   7.888  1.00  0.00     0.050 A 
ATOM     18  C   UNL     1      13.530  32.284   7.212  1.00  0.00     0.157 A 
BRANCH  16  19
ATOM     19  O   UNL     1      11.370  31.107   7.029  1.00  0.00    -0.504 OA
ATOM     20  H   UNL     1      10.640  30.516   7.402  1.00  0.00     0.293 HD
ENDBRANCH  16  19
BRANCH  18  21
ATOM     21  O   UNL     1      13.286  33.122   6.123  1.00  0.00    -0.504 OA
ATOM     22  H   UNL     1      12.459  33.693   6.025  1.00  0.00     0.293 HD
ENDBRANCH  18  21
ENDBRANCH   3  13
BRANCH   9  23
ATOM     23  O   UNL     1      14.665  27.875  15.453  1.00  0.00    -0.507 OA
ATOM     24  H   UNL     1      13.899  28.238  16.006  1.00  0.00     0.293 HD
ENDBRANCH   9  23
BRANCH   7  25
ATOM     25  O   UNL     1      18.875  30.125  14.879  1.00  0.00    -0.508 OA
ATOM     26  H   UNL     1      19.071  30.073  15.871  1.00  0.00     0.293 HD
ENDBRANCH   7  25
TORSDOF 6
ENDMDL
MODEL 2
REMARK VINA RESULT:    -5.302      1.912      7.332
REMARK INTER + INTRA:          -6.682
REMARK INTER:                  -6.482
REMARK INTRA:                  -0.201
REMARK UNBOUND:                -0.295
REMARK SMILES Oc1cc(O)c2c(c1)O[C@H](c1ccc(O)c(O)c1)[C@H](O)C2
REMARK SMILES IDX 21 1 19 2 10 3 9 4 7 5 8 6 2 7 3 8 4 9 6 10 20 11 11 13
REMARK SMILES IDX 18 14 12 15 16 16 13 17 14 18 17 19 15 21 5 23 1 25
REMARK H PARENT 20 12 17 20 15 22 5 24 1 26
REMARK Flexibility Score: inf
ROOT
ATOM      1  C   UNL     1      16.671  31.305   7.643  1.00  0.00     0.079 C 
ATOM      2  C   UNL     1      17.317  31.113   9.032  1.00  0.00     0.164 C 
ATOM      3  C   UNL     1      16.321  30.432   9.992  1.00  0.00     0.232 C 
ATOM      4  O   UNL     1      15.108  31.179  10.056  1.00  0.00    -0.482 OA
ATOM      5  C   UNL     1      14.537  31.768   8.923  1.00  0.00     0.131 A 
ATOM      6  C   UNL     1      13.241  32.284   9.010  1.00  0.00     0.093 A 
ATOM      7  C   UNL     1      12.637  32.868   7.893  1.00  0.00     0.122 A 
ATOM      8  C   UNL     1      13.333  32.931   6.683  1.00  0.00     0.092 A 
ATOM      9  C   UNL     1      14.631  32.417   6.576  1.00  0.00     0.126 A 
ATOM     10  C   UNL     1      15.261  31.861   7.714  1.00  0.00     0.039 A 
ENDROOT
BRANCH   2  11
ATOM     11  O   UNL     1      17.782  32.338   9.546  1.00  0.00    -0.389 OA
ATOM     12  H   UNL     1      18.764  32.379   9.405  1.00  0.00     0.211 HD
ENDBRANCH   2  11
BRANCH   3  13
ATOM     13  C   UNL     1      16.910  30.255  11.374  1.00  0.00    -0.001 A 
ATOM     14  C   UNL     1      16.127  30.458  12.523  1.00  0.00     0.057 A 
ATOM     15  C   UNL     1      18.268  29.939  11.521  1.00  0.00     0.012 A 
ATOM     16  C   UNL     1      16.681  30.325  13.803  1.00  0.00     0.157 A 
ATOM     17  C   UNL     1      18.826  29.799  12.792  1.00  0.00     0.050 A 
ATOM     18  C   UNL     1      18.047  29.988  13.941  1.00  0.00     0.157 A 
BRANCH  16  19
ATOM     19  O   UNL     1      15.842  30.536  14.899  1.00  0.00    -0.504 OA
ATOM     20  H   UNL     1      16.156  30.896  15.790  1.00  0.00     0.293 HD
ENDBRANCH  16  19
BRANCH  18  21
ATOM     21  O   UNL     1      18.665  29.829  15.182  1.00  0.00    -0.504 OA
ATOM     22  H   UNL     1      19.447  30.384  15.499  1.00  0.00     0.293 HD
ENDBRANCH  18  21
ENDBRANCH   3  13
BRANCH   9  23
ATOM     23  O   UNL     1      15.255  32.467   5.328  1.00  0.00    -0.507 OA
ATOM     24  H   UNL     1      15.710  33.295   4.966  1.00  0.00     0.293 HD
ENDBRANCH   9  23
BRANCH   7  25
ATOM     25  O   UNL     1      11.343  33.378   7.969  1.00  0.00    -0.508 OA
ATOM     26  H   UNL     1      10.740  33.408   7.156  1.00  0.00     0.293 HD
ENDBRANCH   7  25
TORSDOF 6
ENDMDL
MODEL 3
REMARK VINA RESULT:    -5.232      2.831      7.729
REMARK INTER + INTRA:          -6.598
REMARK INTER:                  -6.663
REMARK INTRA:                   0.065
REMARK UNBOUND:                -0.295
REMARK SMILES Oc1cc(O)c2c(c1)O[C@H](c1ccc(O)c(O)c1)[C@H](O)C2
REMARK SMILES IDX 21 1 19 2 10 3 9 4 7 5 8 6 2 7 3 8 4 9 6 10 20 11 11 13
REMARK SMILES IDX 18 14 12 15 16 16 13 17 14 18 17 19 15 21 5 23 1 25
REMARK H PARENT 20 12 17 20 15 22 5 24 1 26
REMARK Flexibility Score: inf
ROOT
ATOM      1  C   UNL     1      18.943  31.110   7.875  1.00  0.00     0.079 C 
ATOM      2  C   UNL     1      18.616  31.072   9.383  1.00  0.00     0.164 C 
ATOM      3  C   UNL     1      17.227  30.444   9.612  1.00  0.00     0.232 C 
ATOM      4  O   UNL     1      16.238  31.146   8.860  1.00  0.00    -0.482 OA
ATOM      5  C   UNL     1      16.480  31.605   7.560  1.00  0.00     0.131 A 
ATOM      6  C   UNL     1      15.407  32.076   6.800  1.00  0.00     0.093 A 
ATOM      7  C   UNL     1      15.613  32.529   5.493  1.00  0.00     0.122 A 
ATOM      8  C   UNL     1      16.899  32.508   4.947  1.00  0.00     0.092 A 
ATOM      9  C   UNL     1      17.986  32.037   5.693  1.00  0.00     0.126 A 
ATOM     10  C   UNL     1      17.789  31.614   7.029  1.00  0.00     0.039 A 
ENDROOT
BRANCH   2  11
ATOM     11  O   UNL     1      18.708  32.356   9.952  1.00  0.00    -0.389 OA
ATOM     12  H   UNL     1      17.786  32.694  10.102  1.00  0.00     0.211 HD
ENDBRANCH   2  11
BRANCH   3  13
ATOM     13  C   UNL     1      16.859  30.419  11.079  1.00  0.00    -0.001 A 
ATOM     14  C   UNL     1      17.842  30.562  12.072  1.00  0.00     0.057 A 
ATOM     15  C   UNL     1      15.528  30.196  11.462  1.00  0.00     0.012 A 
ATOM     16  C   UNL     1      17.505  30.507  13.431  1.00  0.00     0.157 A 
ATOM     17  C   UNL     1      15.183  30.146  12.813  1.00  0.00     0.050 A 
ATOM     18  C   UNL     1      16.157  30.299  13.808  1.00  0.00     0.157 A 
BRANCH  16  19
ATOM     19  O   UNL     1      18.533  30.662  14.363  1.00  0.00    -0.504 OA
ATOM     20  H   UNL     1      18.419  31.113  15.259  1.00  0.00     0.293 HD
ENDBRANCH  16  19
BRANCH  18  21
ATOM     21  O   UNL     1      15.745  30.243  15.140  1.00  0.00    -0.504 OA
ATOM     22  H   UNL     1      16.363  30.378  15.928  1.00  0.00     0.293 HD
ENDBRANCH  18  21
ENDBRANCH   3  13
BRANCH   9  23
ATOM     23  O   UNL     1      19.237  31.996   5.075  1.00  0.00    -0.507 OA
ATOM     24  H   UNL     1      20.031  31.498   5.459  1.00  0.00     0.293 HD
ENDBRANCH   9  23
BRANCH   7  25
ATOM     25  O   UNL     1      14.547  32.993   4.725  1.00  0.00    -0.508 OA
ATOM     26  H   UNL     1      14.268  33.966   4.745  1.00  0.00     0.293 HD
ENDBRANCH   7  25
TORSDOF 6
ENDMDL
MODEL 4
REMARK VINA RESULT:    -5.187      2.817      7.198
REMARK INTER + INTRA:          -6.544
REMARK INTER:                  -6.217
REMARK INTRA:                  -0.327
REMARK UNBOUND:                -0.295
REMARK SMILES Oc1cc(O)c2c(c1)O[C@H](c1ccc(O)c(O)c1)[C@H](O)C2
REMARK SMILES IDX 21 1 19 2 10 3 9 4 7 5 8 6 2 7 3 8 4 9 6 10 20 11 11 13
REMARK SMILES IDX 18 14 12 15 16 16 13 17 14 18 17 19 15 21 5 23 1 25
REMARK H PARENT 20 12 17 20 15 22 5 24 1 26
REMARK Flexibility Score: inf
ROOT
ATOM      1  C   UNL     1      14.381  32.885   6.565  1.00  0.00     0.079 C 
ATOM      2  C   UNL     1      13.913  31.975   7.721  1.00  0.00     0.164 C 
ATOM      3  C   UNL     1      15.022  31.850   8.784  1.00  0.00     0.232 C 
ATOM      4  O   UNL     1      16.231  31.387   8.184  1.00  0.00    -0.482 OA
ATOM      5  C   UNL     1      16.655  31.832   6.927  1.00  0.00     0.131 A 
ATOM      6  C   UNL     1      17.949  31.521   6.501  1.00  0.00     0.093 A 
ATOM      7  C   UNL     1      18.407  31.962   5.256  1.00  0.00     0.122 A 
ATOM      8  C   UNL     1      17.567  32.720   4.437  1.00  0.00     0.092 A 
ATOM      9  C   UNL     1      16.269  33.044   4.848  1.00  0.00     0.126 A 
ATOM     10  C   UNL     1      15.786  32.567   6.090  1.00  0.00     0.039 A 
ENDROOT
BRANCH   2  11
ATOM     11  O   UNL     1      13.508  30.715   7.240  1.00  0.00    -0.389 OA
ATOM     12  H   UNL     1      12.676  30.838   6.713  1.00  0.00     0.211 HD
ENDBRANCH   2  11
BRANCH   3  13
ATOM     13  C   UNL     1      14.610  30.939   9.918  1.00  0.00    -0.001 A 
ATOM     14  C   UNL     1      15.437  29.880  10.331  1.00  0.00     0.057 A 
ATOM     15  C   UNL     1      13.363  31.111  10.536  1.00  0.00     0.012 A 
ATOM     16  C   UNL     1      15.040  29.017  11.360  1.00  0.00     0.157 A 
ATOM     17  C   UNL     1      12.963  30.259  11.566  1.00  0.00     0.050 A 
ATOM     18  C   UNL     1      13.788  29.210  11.990  1.00  0.00     0.157 A 
BRANCH  16  19
ATOM     19  O   UNL     1      15.915  27.990  11.721  1.00  0.00    -0.504 OA
ATOM     20  H   UNL     1      16.280  27.306  11.074  1.00  0.00     0.293 HD
ENDBRANCH  16  19
BRANCH  18  21
ATOM     21  O   UNL     1      13.331  28.397  13.028  1.00  0.00    -0.504 OA
ATOM     22  H   UNL     1      13.217  28.710  13.982  1.00  0.00     0.293 HD
ENDBRANCH  18  21
ENDBRANCH   3  13
BRANCH   9  23
ATOM     23  O   UNL     1      15.494  33.844   4.006  1.00  0.00    -0.507 OA
ATOM     24  H   UNL     1      15.576  34.852   3.968  1.00  0.00     0.293 HD
ENDBRANCH   9  23
BRANCH   7  25
ATOM     25  O   UNL     1      19.699  31.662   4.828  1.00  0.00    -0.508 OA
ATOM     26  H   UNL     1      19.898  30.819   4.304  1.00  0.00     0.293 HD
ENDBRANCH   7  25
TORSDOF 6
ENDMDL
MODEL 5
REMARK VINA RESULT:    -5.140      4.054      7.491
REMARK INTER + INTRA:          -6.487
REMARK INTER:                  -6.537
REMARK INTRA:                   0.050
REMARK UNBOUND:                -0.295
REMARK SMILES Oc1cc(O)c2c(c1)O[C@H](c1ccc(O)c(O)c1)[C@H](O)C2
REMARK SMILES IDX 21 1 19 2 10 3 9 4 7 5 8 6 2 7 3 8 4 9 6 10 20 11 11 13
REMARK SMILES IDX 18 14 12 15 16 16 13 17 14 18 17 19 15 21 5 23 1 25
REMARK H PARENT 20 12 17 20 15 22 5 24 1 26
REMARK Flexibility Score: inf
ROOT
ATOM      1  C   UNL     1      12.522  32.365   5.034  1.00  0.00     0.079 C 
ATOM      2  C   UNL     1      11.080  31.844   4.858  1.00  0.00     0.164 C 
ATOM      3  C   UNL     1      10.266  32.085   6.145  1.00  0.00     0.232 C 
ATOM      4  O   UNL     1      10.924  31.493   7.263  1.00  0.00    -0.482 OA
ATOM      5  C   UNL     1      12.314  31.540   7.418  1.00  0.00     0.131 A 
ATOM      6  C   UNL     1      12.871  31.149   8.638  1.00  0.00     0.093 A 
ATOM      7  C   UNL     1      14.255  31.197   8.829  1.00  0.00     0.122 A 
ATOM      8  C   UNL     1      15.083  31.641   7.795  1.00  0.00     0.092 A 
ATOM      9  C   UNL     1      14.542  32.039   6.567  1.00  0.00     0.126 A 
ATOM     10  C   UNL     1      13.146  31.956   6.355  1.00  0.00     0.039 A 
ENDROOT
BRANCH   2  11
ATOM     11  O   UNL     1      11.075  30.486   4.485  1.00  0.00    -0.389 OA
ATOM     12  H   UNL     1      11.282  29.944   5.290  1.00  0.00     0.211 HD
ENDBRANCH   2  11
BRANCH   3  13
ATOM     13  C   UNL     1       8.854  31.557   6.020  1.00  0.00    -0.001 A 
ATOM     14  C   UNL     1       7.760  32.434   5.932  1.00  0.00     0.057 A 
ATOM     15  C   UNL     1       8.619  30.175   6.047  1.00  0.00     0.012 A 
ATOM     16  C   UNL     1       6.450  31.945   5.849  1.00  0.00     0.157 A 
ATOM     17  C   UNL     1       7.317  29.679   5.959  1.00  0.00     0.050 A 
ATOM     18  C   UNL     1       6.225  30.549   5.859  1.00  0.00     0.157 A 
BRANCH  16  19
ATOM     19  O   UNL     1       5.413  32.876   5.759  1.00  0.00    -0.504 OA
ATOM     20  H   UNL     1       4.535  32.699   5.292  1.00  0.00     0.293 HD
ENDBRANCH  16  19
BRANCH  18  21
ATOM     21  O   UNL     1       4.949  29.989   5.769  1.00  0.00    -0.504 OA
ATOM     22  H   UNL     1       4.166  30.273   6.340  1.00  0.00     0.293 HD
ENDBRANCH  18  21
ENDBRANCH   3  13
BRANCH   9  23
ATOM     23  O   UNL     1      15.417  32.519   5.590  1.00  0.00    -0.507 OA
ATOM     24  H   UNL     1      16.417  32.591   5.726  1.00  0.00     0.293 HD
ENDBRANCH   9  23
BRANCH   7  25
ATOM     25  O   UNL     1      14.818  30.816  10.045  1.00  0.00    -0.508 OA
ATOM     26  H   UNL     1      15.697  30.313  10.085  1.00  0.00     0.293 HD
ENDBRANCH   7  25
TORSDOF 6
ENDMDL
MODEL 6
REMARK VINA RESULT:    -5.074      5.221      6.353
REMARK INTER + INTRA:          -6.407
REMARK INTER:                  -6.355
REMARK INTRA:                  -0.052
REMARK UNBOUND:                -0.295
REMARK SMILES Oc1cc(O)c2c(c1)O[C@H](c1ccc(O)c(O)c1)[C@H](O)C2
REMARK SMILES IDX 21 1 19 2 10 3 9 4 7 5 8 6 2 7 3 8 4 9 6 10 20 11 11 13
REMARK SMILES IDX 18 14 12 15 16 16 13 17 14 18 17 19 15 21 5 23 1 25
REMARK H PARENT 20 12 17 20 15 22 5 24 1 26
REMARK Flexibility Score: inf
ROOT
ATOM      1  C   UNL     1      17.229  30.860   4.754  1.00  0.00     0.079 C 
ATOM      2  C   UNL     1      15.710  30.962   5.010  1.00  0.00     0.164 C 
ATOM      3  C   UNL     1      15.392  32.227   5.832  1.00  0.00     0.232 C 
ATOM      4  O   UNL     1      16.148  32.233   7.041  1.00  0.00    -0.482 OA
ATOM      5  C   UNL     1      17.481  31.810   7.087  1.00  0.00     0.131 A 
ATOM      6  C   UNL     1      18.229  32.057   8.241  1.00  0.00     0.093 A 
ATOM      7  C   UNL     1      19.567  31.659   8.314  1.00  0.00     0.122 A 
ATOM      8  C   UNL     1      20.159  31.016   7.224  1.00  0.00     0.092 A 
ATOM      9  C   UNL     1      19.427  30.763   6.058  1.00  0.00     0.126 A 
ATOM     10  C   UNL     1      18.061  31.128   5.994  1.00  0.00     0.039 A 
ENDROOT
BRANCH   2  11
ATOM     11  O   UNL     1      15.225  29.798   5.636  1.00  0.00    -0.389 OA
ATOM     12  H   UNL     1      15.462  29.843   6.599  1.00  0.00     0.211 HD
ENDBRANCH   2  11
BRANCH   3  13
ATOM     13  C   UNL     1      13.914  32.343   6.130  1.00  0.00    -0.001 A 
ATOM     14  C   UNL     1      13.459  33.002   7.284  1.00  0.00     0.057 A 
ATOM     15  C   UNL     1      12.979  31.740   5.276  1.00  0.00     0.012 A 
ATOM     16  C   UNL     1      12.092  33.081   7.576  1.00  0.00     0.157 A 
ATOM     17  C   UNL     1      11.614  31.820   5.556  1.00  0.00     0.050 A 
ATOM     18  C   UNL     1      11.155  32.486   6.699  1.00  0.00     0.157 A 
BRANCH  16  19
ATOM     19  O   UNL     1      11.713  33.756   8.739  1.00  0.00    -0.504 OA
ATOM     20  H   UNL     1      10.794  34.147   8.890  1.00  0.00     0.293 HD
ENDBRANCH  16  19
BRANCH  18  21
ATOM     21  O   UNL     1       9.778  32.533   6.919  1.00  0.00    -0.504 OA
ATOM     22  H   UNL     1       9.110  31.943   6.444  1.00  0.00     0.293 HD
ENDBRANCH  18  21
ENDBRANCH   3  13
BRANCH   9  23
ATOM     23  O   UNL     1      20.087  30.160   4.986  1.00  0.00    -0.507 OA
ATOM     24  H   UNL     1      19.698  30.104   4.053  1.00  0.00     0.293 HD
ENDBRANCH   9  23
BRANCH   7  25
ATOM     25  O   UNL     1      20.322  31.907   9.458  1.00  0.00    -0.508 OA
ATOM     26  H   UNL     1      20.240  32.780   9.965  1.00  0.00     0.293 HD
ENDBRANCH   7  25
TORSDOF 6
ENDMDL
MODEL 7
REMARK VINA RESULT:    -5.060      3.354      4.692
REMARK INTER + INTRA:          -6.391
REMARK INTER:                  -6.030
REMARK INTRA:                  -0.361
REMARK UNBOUND:                -0.295
REMARK SMILES Oc1cc(O)c2c(c1)O[C@H](c1ccc(O)c(O)c1)[C@H](O)C2
REMARK SMILES IDX 21 1 19 2 10 3 9 4 7 5 8 6 2 7 3 8 4 9 6 10 20 11 11 13
REMARK SMILES IDX 18 14 12 15 16 16 13 17 14 18 17 19 15 21 5 23 1 25
REMARK H PARENT 20 12 17 20 15 22 5 24 1 26
REMARK Flexibility Score: inf
ROOT
ATOM      1  C   UNL     1      18.414  30.853   7.229  1.00  0.00     0.079 C 
ATOM      2  C   UNL     1      16.903  30.943   6.922  1.00  0.00     0.164 C 
ATOM      3  C   UNL     1      16.244  32.021   7.805  1.00  0.00     0.232 C 
ATOM      4  O   UNL     1      16.503  31.758   9.183  1.00  0.00    -0.482 OA
ATOM      5  C   UNL     1      17.746  31.298   9.630  1.00  0.00     0.131 A 
ATOM      6  C   UNL     1      18.006  31.281  11.003  1.00  0.00     0.093 A 
ATOM      7  C   UNL     1      19.243  30.839  11.482  1.00  0.00     0.122 A 
ATOM      8  C   UNL     1      20.224  30.417  10.582  1.00  0.00     0.092 A 
ATOM      9  C   UNL     1      19.983  30.429   9.203  1.00  0.00     0.126 A 
ATOM     10  C   UNL     1      18.719  30.838   8.715  1.00  0.00     0.039 A 
ENDROOT
BRANCH   2  11
ATOM     11  O   UNL     1      16.281  29.690   7.078  1.00  0.00    -0.389 OA
ATOM     12  H   UNL     1      15.624  29.761   7.819  1.00  0.00     0.211 HD
ENDBRANCH   2  11
BRANCH   3  13
ATOM     13  C   UNL     1      14.755  32.115   7.553  1.00  0.00    -0.001 A 
ATOM     14  C   UNL     1      14.254  32.346   6.261  1.00  0.00     0.057 A 
ATOM     15  C   UNL     1      13.858  32.028   8.627  1.00  0.00     0.012 A 
ATOM     16  C   UNL     1      12.877  32.465   6.034  1.00  0.00     0.157 A 
ATOM     17  C   UNL     1      12.484  32.140   8.409  1.00  0.00     0.050 A 
ATOM     18  C   UNL     1      11.979  32.358   7.121  1.00  0.00     0.157 A 
BRANCH  16  19
ATOM     19  O   UNL     1      12.451  32.689   4.723  1.00  0.00    -0.504 OA
ATOM     20  H   UNL     1      12.945  33.270   4.061  1.00  0.00     0.293 HD
ENDBRANCH  16  19
BRANCH  18  21
ATOM     21  O   UNL     1      10.595  32.456   6.970  1.00  0.00    -0.504 OA
ATOM     22  H   UNL     1       9.934  32.327   7.723  1.00  0.00     0.293 HD
ENDBRANCH  18  21
ENDBRANCH   3  13
BRANCH   9  23
ATOM     23  O   UNL     1      21.020  30.040   8.352  1.00  0.00    -0.507 OA
ATOM     24  H   UNL     1      21.986  29.976   8.646  1.00  0.00     0.293 HD
ENDBRANCH   9  23
BRANCH   7  25
ATOM     25  O   UNL     1      19.512  30.826  12.849  1.00  0.00    -0.508 OA
ATOM     26  H   UNL     1      20.277  30.283  13.231  1.00  0.00     0.293 HD
ENDBRANCH   7  25
TORSDOF 6
ENDMDL
MODEL 8
REMARK VINA RESULT:    -5.056      1.662      6.899
REMARK INTER + INTRA:          -6.386
REMARK INTER:                  -6.397
REMARK INTRA:                   0.011
REMARK UNBOUND:                -0.295
REMARK SMILES Oc1cc(O)c2c(c1)O[C@H](c1ccc(O)c(O)c1)[C@H](O)C2
REMARK SMILES IDX 21 1 19 2 10 3 9 4 7 5 8 6 2 7 3 8 4 9 6 10 20 11 11 13
REMARK SMILES IDX 18 14 12 15 16 16 13 17 14 18 17 19 15 21 5 23 1 25
REMARK H PARENT 20 12 17 20 15 22 5 24 1 26
REMARK Flexibility Score: inf
ROOT
ATOM      1  C   UNL     1      13.052  28.764   9.430  1.00  0.00     0.079 C 
ATOM      2  C   UNL     1      14.253  28.802  10.400  1.00  0.00     0.164 C 
ATOM      3  C   UNL     1      14.172  30.050  11.300  1.00  0.00     0.232 C 
ATOM      4  O   UNL     1      14.081  31.229  10.503  1.00  0.00    -0.482 OA
ATOM      5  C   UNL     1      13.307  31.282   9.339  1.00  0.00     0.131 A 
ATOM      6  C   UNL     1      13.077  32.521   8.736  1.00  0.00     0.093 A 
ATOM      7  C   UNL     1      12.297  32.609   7.579  1.00  0.00     0.122 A 
ATOM      8  C   UNL     1      11.743  31.451   7.027  1.00  0.00     0.092 A 
ATOM      9  C   UNL     1      11.960  30.201   7.619  1.00  0.00     0.126 A 
ATOM     10  C   UNL     1      12.781  30.102   8.767  1.00  0.00     0.039 A 
ENDROOT
BRANCH   2  11
ATOM     11  O   UNL     1      15.471  28.745   9.697  1.00  0.00    -0.389 OA
ATOM     12  H   UNL     1      15.947  29.605   9.834  1.00  0.00     0.211 HD
ENDBRANCH   2  11
BRANCH   3  13
ATOM     13  C   UNL     1      15.351  30.136  12.244  1.00  0.00    -0.001 A 
ATOM     14  C   UNL     1      16.623  30.509  11.777  1.00  0.00     0.057 A 
ATOM     15  C   UNL     1      15.194  29.788  13.593  1.00  0.00     0.012 A 
ATOM     16  C   UNL     1      17.721  30.558  12.645  1.00  0.00     0.157 A 
ATOM     17  C   UNL     1      16.282  29.840  14.465  1.00  0.00     0.050 A 
ATOM     18  C   UNL     1      17.549  30.223  14.008  1.00  0.00     0.157 A 
BRANCH  16  19
ATOM     19  O   UNL     1      18.954  30.942  12.112  1.00  0.00    -0.504 OA
ATOM     20  H   UNL     1      19.603  30.304  11.673  1.00  0.00     0.293 HD
ENDBRANCH  16  19
BRANCH  18  21
ATOM     21  O   UNL     1      18.595  30.258  14.933  1.00  0.00    -0.504 OA
ATOM     22  H   UNL     1      18.489  30.036  15.912  1.00  0.00     0.293 HD
ENDBRANCH  18  21
ENDBRANCH   3  13
BRANCH   9  23
ATOM     23  O   UNL     1      11.340  29.088   7.047  1.00  0.00    -0.507 OA
ATOM     24  H   UNL     1      11.387  28.872   6.060  1.00  0.00     0.293 HD
ENDBRANCH   9  23
BRANCH   7  25
ATOM     25  O   UNL     1      12.057  33.841   6.975  1.00  0.00    -0.508 OA
ATOM     26  H   UNL     1      12.322  34.019   6.014  1.00  0.00     0.293 HD
ENDBRANCH   7  25
TORSDOF 6
ENDMDL
MODEL 9
REMARK VINA RESULT:    -5.007      5.659      9.140
REMARK INTER + INTRA:          -6.327
REMARK INTER:                  -6.036
REMARK INTRA:                  -0.291
REMARK UNBOUND:                -0.295
REMARK SMILES Oc1cc(O)c2c(c1)O[C@H](c1ccc(O)c(O)c1)[C@H](O)C2
REMARK SMILES IDX 21 1 19 2 10 3 9 4 7 5 8 6 2 7 3 8 4 9 6 10 20 11 11 13
REMARK SMILES IDX 18 14 12 15 16 16 13 17 14 18 17 19 15 21 5 23 1 25
REMARK H PARENT 20 12 17 20 15 22 5 24 1 26
REMARK Flexibility Score: inf
ROOT
ATOM      1  C   UNL     1       8.868  28.801   5.698  1.00  0.00     0.079 C 
ATOM      2  C   UNL     1      10.355  29.214   5.720  1.00  0.00     0.164 C 
ATOM      3  C   UNL     1      10.588  30.311   6.778  1.00  0.00     0.232 C 
ATOM      4  O   UNL     1       9.720  31.418   6.541  1.00  0.00    -0.482 OA
ATOM      5  C   UNL     1       8.390  31.247   6.141  1.00  0.00     0.131 A 
ATOM      6  C   UNL     1       7.535  32.352   6.150  1.00  0.00     0.093 A 
ATOM      7  C   UNL     1       6.198  32.213   5.767  1.00  0.00     0.122 A 
ATOM      8  C   UNL     1       5.715  30.961   5.378  1.00  0.00     0.092 A 
ATOM      9  C   UNL     1       6.556  29.842   5.364  1.00  0.00     0.126 A 
ATOM     10  C   UNL     1       7.920  29.986   5.713  1.00  0.00     0.039 A 
ENDROOT
BRANCH   2  11
ATOM     11  O   UNL     1      10.784  29.624   4.443  1.00  0.00    -0.389 OA
ATOM     12  H   UNL     1      11.611  29.122   4.219  1.00  0.00     0.211 HD
ENDBRANCH   2  11
BRANCH   3  13
ATOM     13  C   UNL     1      12.031  30.764   6.806  1.00  0.00    -0.001 A 
ATOM     14  C   UNL     1      12.359  32.130   6.806  1.00  0.00     0.057 A 
ATOM     15  C   UNL     1      13.062  29.815   6.774  1.00  0.00     0.012 A 
ATOM     16  C   UNL     1      13.695  32.549   6.799  1.00  0.00     0.157 A 
ATOM     17  C   UNL     1      14.397  30.224   6.773  1.00  0.00     0.050 A 
ATOM     18  C   UNL     1      14.729  31.584   6.786  1.00  0.00     0.157 A 
BRANCH  16  19
ATOM     19  O   UNL     1      13.946  33.923   6.806  1.00  0.00    -0.504 OA
ATOM     20  H   UNL     1      13.312  34.614   6.429  1.00  0.00     0.293 HD
ENDBRANCH  16  19
BRANCH  18  21
ATOM     21  O   UNL     1      16.082  31.926   6.789  1.00  0.00    -0.504 OA
ATOM     22  H   UNL     1      16.444  32.792   7.161  1.00  0.00     0.293 HD
ENDBRANCH  18  21
ENDBRANCH   3  13
BRANCH   9  23
ATOM     23  O   UNL     1       6.003  28.610   5.011  1.00  0.00    -0.507 OA
ATOM     24  H   UNL     1       5.076  28.508   4.618  1.00  0.00     0.293 HD
ENDBRANCH   9  23
BRANCH   7  25
ATOM     25  O   UNL     1       5.337  33.308   5.781  1.00  0.00    -0.508 OA
ATOM     26  H   UNL     1       5.688  34.254   5.860  1.00  0.00     0.293 HD
ENDBRANCH   7  25
TORSDOF 6
ENDMDL
