MODEL 1
REMARK VINA RESULT:    -3.760      0.000      0.000
REMARK INTER + INTRA:          -7.703
REMARK INTER:                  -5.628
REMARK INTRA:                  -2.075
REMARK UNBOUND:                -2.075
REMARK SMILES C=C(CC[C@H](C(=O)[O-])[C@@H]1[C@@H](O)C[C@]2(C)C3=C(CC[C@]12C)[C@@]1(C)CC[C@H](OC(C)=O)C(C)(C)[C@@H]1CC3)C(C)C
REMARK SMILES IDX 4 1 5 2 6 3 7 4 8 5 9 6 10 7 19 8 12 9 13 10 18 11 20 12
REMARK SMILES IDX 14 13 15 14 17 15 16 16 35 17 21 18 34 19 33 20 23 21 22 22
REMARK SMILES IDX 30 23 24 24 25 25 31 26 32 27 11 28 26 30 27 31 29 32 28 33
REMARK SMILES IDX 3 34 2 35 1 36 36 37 37 38 38 39
REMARK H PARENT 11 29
REMARK Flexibility Score: inf
ROOT
ATOM      1  C   UNL     1     195.178 195.657 197.865  1.00  0.00     0.014 C 
ENDROOT
BRANCH   1   2
ATOM      2  C   UNL     1     195.240 197.035 197.151  1.00  0.00     0.042 C 
BRANCH   2   3
ATOM      3  C   UNL     1     193.853 197.480 196.751  1.00  0.00     0.045 C 
ATOM      4  O   UNL     1     193.107 198.017 197.611  1.00  0.00    -0.550 OA
ATOM      5  O   UNL     1     193.369 197.284 195.469  1.00  0.00    -0.550 OA
ENDBRANCH   2   3
BRANCH   2   6
ATOM      6  C   UNL     1     196.321 197.152 196.013  1.00  0.00     0.033 C 
ATOM      7  C   UNL     1     196.437 195.828 195.218  1.00  0.00     0.119 C 
ATOM      8  C   UNL     1     197.801 197.521 196.414  1.00  0.00    -0.017 C 
ATOM      9  C   UNL     1     197.860 195.729 194.669  1.00  0.00     0.043 C 
ATOM     10  C   UNL     1     198.674 196.933 195.221  1.00  0.00    -0.003 C 
ATOM     11  C   UNL     1     198.253 196.927 197.799  1.00  0.00     0.012 C 
ATOM     12  C   UNL     1     197.969 199.064 196.549  1.00  0.00     0.013 C 
ATOM     13  C   UNL     1     198.805 197.962 194.052  1.00  0.00     0.017 C 
ATOM     14  C   UNL     1     200.051 196.401 195.703  1.00  0.00    -0.064 C 
ATOM     15  C   UNL     1     198.892 195.548 197.721  1.00  0.00     0.032 C 
ATOM     16  C   UNL     1     200.119 195.620 196.832  1.00  0.00    -0.064 C 
ATOM     17  C   UNL     1     201.339 196.620 194.901  1.00  0.00     0.032 C 
ATOM     18  C   UNL     1     201.400 194.784 197.095  1.00  0.00    -0.008 C 
ATOM     19  C   UNL     1     202.140 195.324 194.658  1.00  0.00     0.009 C 
ATOM     20  C   UNL     1     201.789 194.208 195.675  1.00  0.00     0.009 C 
ATOM     21  C   UNL     1     201.212 193.578 198.099  1.00  0.00     0.015 C 
ATOM     22  C   UNL     1     202.476 195.753 197.691  1.00  0.00     0.016 C 
ATOM     23  C   UNL     1     202.713 192.933 195.681  1.00  0.00     0.005 C 
ATOM     24  C   UNL     1     200.844 192.268 197.405  1.00  0.00     0.047 C 
ATOM     25  C   UNL     1     202.020 191.773 196.521  1.00  0.00     0.182 C 
ATOM     26  C   UNL     1     204.125 193.275 196.224  1.00  0.00     0.015 C 
ATOM     27  C   UNL     1     202.896 192.413 194.232  1.00  0.00     0.015 C 
BRANCH   7  28
ATOM     28  O   UNL     1     195.488 195.736 194.185  1.00  0.00    -0.393 OA
ATOM     29  H   UNL     1     195.527 194.814 193.822  1.00  0.00     0.210 HD
ENDBRANCH   7  28
BRANCH  25  30
ATOM     30  O   UNL     1     202.982 191.090 197.333  1.00  0.00    -0.462 OA
BRANCH  30  31
ATOM     31  C   UNL     1     203.087 189.697 197.427  1.00  0.00     0.302 C 
ATOM     32  O   UNL     1     203.995 189.161 198.125  1.00  0.00    -0.253 OA
ATOM     33  C   UNL     1     202.139 188.840 196.658  1.00  0.00     0.139 C 
ENDBRANCH  30  31
ENDBRANCH  25  30
ENDBRANCH   2   6
ENDBRANCH   1   2
BRANCH   1  34
ATOM     34  C   UNL     1     193.909 194.782 197.706  1.00  0.00     0.031 C 
BRANCH  34  35
ATOM     35  C   UNL     1     194.068 193.536 196.851  1.00  0.00    -0.075 C 
ATOM     36  C   UNL     1     193.374 193.457 195.701  1.00  0.00     0.008 C 
BRANCH  35  37
ATOM     37  C   UNL     1     195.185 192.526 197.089  1.00  0.00     0.008 C 
ATOM     38  C   UNL     1     194.618 191.212 197.644  1.00  0.00     0.012 C 
ATOM     39  C   UNL     1     196.024 192.263 195.836  1.00  0.00     0.012 C 
ENDBRANCH  35  37
ENDBRANCH  34  35
ENDBRANCH   1  34
TORSDOF 9
ENDMDL
MODEL 2
REMARK VINA RESULT:    -3.735      3.520      8.266
REMARK INTER + INTRA:          -7.666
REMARK INTER:                  -5.184
REMARK INTRA:                  -2.482
REMARK UNBOUND:                -2.075
REMARK SMILES C=C(CC[C@H](C(=O)[O-])[C@@H]1[C@@H](O)C[C@]2(C)C3=C(CC[C@]12C)[C@@]1(C)CC[C@H](OC(C)=O)C(C)(C)[C@@H]1CC3)C(C)C
REMARK SMILES IDX 4 1 5 2 6 3 7 4 8 5 9 6 10 7 19 8 12 9 13 10 18 11 20 12
REMARK SMILES IDX 14 13 15 14 17 15 16 16 35 17 21 18 34 19 33 20 23 21 22 22
REMARK SMILES IDX 30 23 24 24 25 25 31 26 32 27 11 28 26 30 27 31 29 32 28 33
REMARK SMILES IDX 3 34 2 35 1 36 36 37 37 38 38 39
REMARK H PARENT 11 29
REMARK Flexibility Score: inf
ROOT
ATOM      1  C   UNL     1     199.643 195.247 198.067  1.00  0.00     0.014 C 
ENDROOT
BRANCH   1   2
ATOM      2  C   UNL     1     199.763 194.069 197.061  1.00  0.00     0.042 C 
BRANCH   2   3
ATOM      3  C   UNL     1     200.176 192.806 197.781  1.00  0.00     0.045 C 
ATOM      4  O   UNL     1     199.295 191.969 198.108  1.00  0.00    -0.550 OA
ATOM      5  O   UNL     1     201.496 192.560 198.118  1.00  0.00    -0.550 OA
ENDBRANCH   2   3
BRANCH   2   6
ATOM      6  C   UNL     1     200.588 194.382 195.759  1.00  0.00     0.033 C 
ATOM      7  C   UNL     1     201.431 195.671 195.929  1.00  0.00     0.119 C 
ATOM      8  C   UNL     1     199.809 194.578 194.401  1.00  0.00    -0.017 C 
ATOM      9  C   UNL     1     201.619 196.298 194.549  1.00  0.00     0.043 C 
ATOM     10  C   UNL     1     200.794 195.470 193.526  1.00  0.00    -0.003 C 
ATOM     11  C   UNL     1     198.406 195.269 194.565  1.00  0.00     0.012 C 
ATOM     12  C   UNL     1     199.519 193.203 193.727  1.00  0.00     0.013 C 
ATOM     13  C   UNL     1     201.812 194.585 192.736  1.00  0.00     0.017 C 
ATOM     14  C   UNL     1     200.031 196.463 192.607  1.00  0.00    -0.064 C 
ATOM     15  C   UNL     1     198.431 196.788 194.471  1.00  0.00     0.032 C 
ATOM     16  C   UNL     1     198.984 197.192 193.118  1.00  0.00    -0.064 C 
ATOM     17  C   UNL     1     200.473 196.750 191.168  1.00  0.00     0.032 C 
ATOM     18  C   UNL     1     198.480 198.436 192.340  1.00  0.00    -0.008 C 
ATOM     19  C   UNL     1     200.612 198.255 190.855  1.00  0.00     0.009 C 
ATOM     20  C   UNL     1     199.801 199.142 191.835  1.00  0.00     0.009 C 
ATOM     21  C   UNL     1     197.649 199.468 193.201  1.00  0.00     0.015 C 
ATOM     22  C   UNL     1     197.565 197.922 191.177  1.00  0.00     0.016 C 
ATOM     23  C   UNL     1     199.667 200.669 191.469  1.00  0.00     0.005 C 
ATOM     24  C   UNL     1     198.510 200.562 193.826  1.00  0.00     0.047 C 
ATOM     25  C   UNL     1     199.115 201.474 192.725  1.00  0.00     0.182 C 
ATOM     26  C   UNL     1     198.770 200.861 190.219  1.00  0.00     0.015 C 
ATOM     27  C   UNL     1     201.063 201.248 191.121  1.00  0.00     0.015 C 
BRANCH   7  28
ATOM     28  O   UNL     1     202.669 195.426 196.548  1.00  0.00    -0.393 OA
ATOM     29  H   UNL     1     202.569 194.615 197.110  1.00  0.00     0.210 HD
ENDBRANCH   7  28
BRANCH  25  30
ATOM     30  O   UNL     1     198.147 202.448 192.318  1.00  0.00    -0.462 OA
BRANCH  30  31
ATOM     31  C   UNL     1     197.806 203.582 193.065  1.00  0.00     0.302 C 
ATOM     32  O   UNL     1     198.646 204.125 193.839  1.00  0.00    -0.253 OA
ATOM     33  C   UNL     1     196.420 204.125 192.975  1.00  0.00     0.139 C 
ENDBRANCH  30  31
ENDBRANCH  25  30
ENDBRANCH   2   6
ENDBRANCH   1   2
BRANCH   1  34
ATOM     34  C   UNL     1     198.396 196.165 198.008  1.00  0.00     0.031 C 
BRANCH  34  35
ATOM     35  C   UNL     1     198.672 197.659 198.050  1.00  0.00    -0.075 C 
ATOM     36  C   UNL     1     199.923 198.085 197.799  1.00  0.00     0.008 C 
BRANCH  35  37
ATOM     37  C   UNL     1     197.550 198.691 198.069  1.00  0.00     0.008 C 
ATOM     38  C   UNL     1     198.041 200.036 197.517  1.00  0.00     0.012 C 
ATOM     39  C   UNL     1     196.301 198.224 197.316  1.00  0.00     0.012 C 
ENDBRANCH  35  37
ENDBRANCH  34  35
ENDBRANCH   1  34
TORSDOF 9
ENDMDL
MODEL 3
REMARK VINA RESULT:    -3.573      4.962     11.090
REMARK INTER + INTRA:          -7.424
REMARK INTER:                  -4.701
REMARK INTRA:                  -2.722
REMARK UNBOUND:                -2.075
REMARK SMILES C=C(CC[C@H](C(=O)[O-])[C@@H]1[C@@H](O)C[C@]2(C)C3=C(CC[C@]12C)[C@@]1(C)CC[C@H](OC(C)=O)C(C)(C)[C@@H]1CC3)C(C)C
REMARK SMILES IDX 4 1 5 2 6 3 7 4 8 5 9 6 10 7 19 8 12 9 13 10 18 11 20 12
REMARK SMILES IDX 14 13 15 14 17 15 16 16 35 17 21 18 34 19 33 20 23 21 22 22
REMARK SMILES IDX 30 23 24 24 25 25 31 26 32 27 11 28 26 30 27 31 29 32 28 33
REMARK SMILES IDX 3 34 2 35 1 36 36 37 37 38 38 39
REMARK H PARENT 11 29
REMARK Flexibility Score: inf
ROOT
ATOM      1  C   UNL     1     195.064 194.097 196.583  1.00  0.00     0.014 C 
ENDROOT
BRANCH   1   2
ATOM      2  C   UNL     1     195.704 192.688 196.443  1.00  0.00     0.042 C 
BRANCH   2   3
ATOM      3  C   UNL     1     197.196 192.809 196.237  1.00  0.00     0.045 C 
ATOM      4  O   UNL     1     197.767 193.899 196.503  1.00  0.00    -0.550 OA
ATOM      5  O   UNL     1     197.947 191.762 195.732  1.00  0.00    -0.550 OA
ENDBRANCH   2   3
BRANCH   2   6
ATOM      6  C   UNL     1     194.978 191.720 195.436  1.00  0.00     0.033 C 
ATOM      7  C   UNL     1     193.920 192.479 194.598  1.00  0.00     0.119 C 
ATOM      8  C   UNL     1     194.221 190.463 196.013  1.00  0.00    -0.017 C 
ATOM      9  C   UNL     1     192.828 191.486 194.204  1.00  0.00     0.043 C 
ATOM     10  C   UNL     1     193.138 190.130 194.896  1.00  0.00    -0.003 C 
ATOM     11  C   UNL     1     193.543 190.712 197.410  1.00  0.00     0.012 C 
ATOM     12  C   UNL     1     195.207 189.277 196.235  1.00  0.00     0.013 C 
ATOM     13  C   UNL     1     193.726 189.187 193.796  1.00  0.00     0.017 C 
ATOM     14  C   UNL     1     191.815 189.585 195.500  1.00  0.00    -0.064 C 
ATOM     15  C   UNL     1     192.110 191.221 197.339  1.00  0.00     0.032 C 
ATOM     16  C   UNL     1     191.261 190.209 196.593  1.00  0.00    -0.064 C 
ATOM     17  C   UNL     1     191.032 188.436 194.855  1.00  0.00     0.032 C 
ATOM     18  C   UNL     1     189.780 189.921 196.956  1.00  0.00    -0.008 C 
ATOM     19  C   UNL     1     189.537 188.753 194.641  1.00  0.00     0.009 C 
ATOM     20  C   UNL     1     189.035 189.895 195.562  1.00  0.00     0.009 C 
ATOM     21  C   UNL     1     189.098 191.009 197.877  1.00  0.00     0.015 C 
ATOM     22  C   UNL     1     189.741 188.549 197.710  1.00  0.00     0.016 C 
ATOM     23  C   UNL     1     187.479 190.139 195.610  1.00  0.00     0.005 C 
ATOM     24  C   UNL     1     188.393 192.110 197.088  1.00  0.00     0.047 C 
ATOM     25  C   UNL     1     187.178 191.533 196.316  1.00  0.00     0.182 C 
ATOM     26  C   UNL     1     186.756 188.964 196.319  1.00  0.00     0.015 C 
ATOM     27  C   UNL     1     186.917 190.215 194.167  1.00  0.00     0.015 C 
BRANCH   7  28
ATOM     28  O   UNL     1     194.474 193.099 193.465  1.00  0.00    -0.393 OA
ATOM     29  H   UNL     1     195.453 192.940 193.483  1.00  0.00     0.210 HD
ENDBRANCH   7  28
BRANCH  25  30
ATOM     30  O   UNL     1     186.053 191.423 197.196  1.00  0.00    -0.462 OA
BRANCH  30  31
ATOM     31  C   UNL     1     184.914 192.234 197.125  1.00  0.00     0.302 C 
ATOM     32  O   UNL     1     184.559 192.941 198.111  1.00  0.00    -0.253 OA
ATOM     33  C   UNL     1     184.090 192.226 195.881  1.00  0.00     0.139 C 
ENDBRANCH  30  31
ENDBRANCH  25  30
ENDBRANCH   2   6
ENDBRANCH   1   2
BRANCH   1  34
ATOM     34  C   UNL     1     194.153 194.393 197.801  1.00  0.00     0.031 C 
BRANCH  34  35
ATOM     35  C   UNL     1     192.917 195.230 197.514  1.00  0.00    -0.075 C 
ATOM     36  C   UNL     1     193.084 196.524 197.185  1.00  0.00     0.008 C 
BRANCH  35  37
ATOM     37  C   UNL     1     191.544 194.603 197.296  1.00  0.00     0.008 C 
ATOM     38  C   UNL     1     190.471 195.360 198.088  1.00  0.00     0.012 C 
ATOM     39  C   UNL     1     191.160 194.516 195.816  1.00  0.00     0.012 C 
ENDBRANCH  35  37
ENDBRANCH  34  35
ENDBRANCH   1  34
TORSDOF 9
ENDMDL
MODEL 4
REMARK VINA RESULT:    -3.517      2.912      7.967
REMARK INTER + INTRA:          -7.340
REMARK INTER:                  -4.735
REMARK INTRA:                  -2.605
REMARK UNBOUND:                -2.075
REMARK SMILES C=C(CC[C@H](C(=O)[O-])[C@@H]1[C@@H](O)C[C@]2(C)C3=C(CC[C@]12C)[C@@]1(C)CC[C@H](OC(C)=O)C(C)(C)[C@@H]1CC3)C(C)C
REMARK SMILES IDX 4 1 5 2 6 3 7 4 8 5 9 6 10 7 19 8 12 9 13 10 18 11 20 12
REMARK SMILES IDX 14 13 15 14 17 15 16 16 35 17 21 18 34 19 33 20 23 21 22 22
REMARK SMILES IDX 30 23 24 24 25 25 31 26 32 27 11 28 26 30 27 31 29 32 28 33
REMARK SMILES IDX 3 34 2 35 1 36 36 37 37 38 38 39
REMARK H PARENT 11 29
REMARK Flexibility Score: inf
ROOT
ATOM      1  C   UNL     1     200.890 192.556 195.458  1.00  0.00     0.014 C 
ENDROOT
BRANCH   1   2
ATOM      2  C   UNL     1     199.441 192.056 195.204  1.00  0.00     0.042 C 
BRANCH   2   3
ATOM      3  C   UNL     1     199.460 190.635 194.692  1.00  0.00     0.045 C 
ATOM      4  O   UNL     1     199.764 190.419 193.490  1.00  0.00    -0.550 OA
ATOM      5  O   UNL     1     199.122 189.566 195.503  1.00  0.00    -0.550 OA
ENDBRANCH   2   3
BRANCH   2   6
ATOM      6  C   UNL     1     198.529 193.038 194.380  1.00  0.00     0.033 C 
ATOM      7  C   UNL     1     199.365 194.179 193.749  1.00  0.00     0.119 C 
ATOM      8  C   UNL     1     197.339 193.762 195.120  1.00  0.00    -0.017 C 
ATOM      9  C   UNL     1     198.460 195.401 193.598  1.00  0.00     0.043 C 
ATOM     10  C   UNL     1     197.087 195.067 194.244  1.00  0.00    -0.003 C 
ATOM     11  C   UNL     1     197.649 194.131 196.617  1.00  0.00     0.012 C 
ATOM     12  C   UNL     1     196.079 192.846 195.169  1.00  0.00     0.013 C 
ATOM     13  C   UNL     1     196.094 194.780 193.071  1.00  0.00     0.017 C 
ATOM     14  C   UNL     1     196.653 196.283 195.107  1.00  0.00    -0.064 C 
ATOM     15  C   UNL     1     198.270 195.506 196.817  1.00  0.00     0.032 C 
ATOM     16  C   UNL     1     197.325 196.560 196.274  1.00  0.00    -0.064 C 
ATOM     17  C   UNL     1     195.566 197.263 194.651  1.00  0.00     0.032 C 
ATOM     18  C   UNL     1     197.159 197.959 196.925  1.00  0.00    -0.008 C 
ATOM     19  C   UNL     1     196.001 198.742 194.728  1.00  0.00     0.009 C 
ATOM     20  C   UNL     1     197.185 198.964 195.705  1.00  0.00     0.009 C 
ATOM     21  C   UNL     1     198.303 198.360 197.939  1.00  0.00     0.015 C 
ATOM     22  C   UNL     1     195.798 197.955 197.701  1.00  0.00     0.016 C 
ATOM     23  C   UNL     1     197.552 200.456 196.052  1.00  0.00     0.005 C 
ATOM     24  C   UNL     1     199.452 199.119 197.280  1.00  0.00     0.047 C 
ATOM     25  C   UNL     1     198.969 200.504 196.773  1.00  0.00     0.182 C 
ATOM     26  C   UNL     1     196.442 201.113 196.913  1.00  0.00     0.015 C 
ATOM     27  C   UNL     1     197.665 201.284 194.746  1.00  0.00     0.015 C 
BRANCH   7  28
ATOM     28  O   UNL     1     199.933 193.813 192.516  1.00  0.00    -0.393 OA
ATOM     29  H   UNL     1     199.207 193.806 191.841  1.00  0.00     0.210 HD
ENDBRANCH   7  28
BRANCH  25  30
ATOM     30  O   UNL     1     198.955 201.439 197.858  1.00  0.00    -0.462 OA
BRANCH  30  31
ATOM     31  C   UNL     1     199.494 202.729 197.795  1.00  0.00     0.302 C 
ATOM     32  O   UNL     1     198.752 203.748 197.892  1.00  0.00    -0.253 OA
ATOM     33  C   UNL     1     200.959 202.896 197.568  1.00  0.00     0.139 C 
ENDBRANCH  30  31
ENDBRANCH  25  30
ENDBRANCH   2   6
ENDBRANCH   1   2
BRANCH   1  34
ATOM     34  C   UNL     1     201.253 193.139 196.848  1.00  0.00     0.031 C 
BRANCH  34  35
ATOM     35  C   UNL     1     202.123 194.386 196.835  1.00  0.00    -0.075 C 
ATOM     36  C   UNL     1     203.432 194.249 196.557  1.00  0.00     0.008 C 
BRANCH  35  37
ATOM     37  C   UNL     1     201.528 195.790 196.831  1.00  0.00     0.008 C 
ATOM     38  C   UNL     1     202.223 196.676 197.872  1.00  0.00     0.012 C 
ATOM     39  C   UNL     1     201.571 196.448 195.449  1.00  0.00     0.012 C 
ENDBRANCH  35  37
ENDBRANCH  34  35
ENDBRANCH   1  34
TORSDOF 9
ENDMDL
MODEL 5
REMARK VINA RESULT:    -3.483      4.129      7.532
REMARK INTER + INTRA:          -7.288
REMARK INTER:                  -4.625
REMARK INTRA:                  -2.663
REMARK UNBOUND:                -2.075
REMARK SMILES C=C(CC[C@H](C(=O)[O-])[C@@H]1[C@@H](O)C[C@]2(C)C3=C(CC[C@]12C)[C@@]1(C)CC[C@H](OC(C)=O)C(C)(C)[C@@H]1CC3)C(C)C
REMARK SMILES IDX 4 1 5 2 6 3 7 4 8 5 9 6 10 7 19 8 12 9 13 10 18 11 20 12
REMARK SMILES IDX 14 13 15 14 17 15 16 16 35 17 21 18 34 19 33 20 23 21 22 22
REMARK SMILES IDX 30 23 24 24 25 25 31 26 32 27 11 28 26 30 27 31 29 32 28 33
REMARK SMILES IDX 3 34 2 35 1 36 36 37 37 38 38 39
REMARK H PARENT 11 29
REMARK Flexibility Score: inf
ROOT
ATOM      1  C   UNL     1     202.236 196.590 188.894  1.00  0.00     0.014 C 
ENDROOT
BRANCH   1   2
ATOM      2  C   UNL     1     200.759 196.795 188.460  1.00  0.00     0.042 C 
BRANCH   2   3
ATOM      3  C   UNL     1     200.693 197.206 187.007  1.00  0.00     0.045 C 
ATOM      4  O   UNL     1     201.503 196.700 186.188  1.00  0.00    -0.550 OA
ATOM      5  O   UNL     1     199.785 198.149 186.559  1.00  0.00    -0.550 OA
ENDBRANCH   2   3
BRANCH   2   6
ATOM      6  C   UNL     1     199.891 197.678 189.431  1.00  0.00     0.033 C 
ATOM      7  C   UNL     1     200.789 198.489 190.398  1.00  0.00     0.119 C 
ATOM      8  C   UNL     1     198.833 196.962 190.356  1.00  0.00    -0.017 C 
ATOM      9  C   UNL     1     199.999 198.734 191.683  1.00  0.00     0.043 C 
ATOM     10  C   UNL     1     198.648 197.973 191.571  1.00  0.00    -0.003 C 
ATOM     11  C   UNL     1     199.282 195.541 190.859  1.00  0.00     0.012 C 
ATOM     12  C   UNL     1     197.496 196.729 189.589  1.00  0.00     0.013 C 
ATOM     13  C   UNL     1     197.553 199.043 191.259  1.00  0.00     0.017 C 
ATOM     14  C   UNL     1     198.397 197.239 192.917  1.00  0.00    -0.064 C 
ATOM     15  C   UNL     1     200.046 195.545 192.175  1.00  0.00     0.032 C 
ATOM     16  C   UNL     1     199.173 196.156 193.253  1.00  0.00    -0.064 C 
ATOM     17  C   UNL     1     197.382 197.746 193.948  1.00  0.00     0.032 C 
ATOM     18  C   UNL     1     199.191 195.669 194.727  1.00  0.00    -0.008 C 
ATOM     19  C   UNL     1     197.963 197.874 195.372  1.00  0.00     0.009 C 
ATOM     20  C   UNL     1     199.228 197.001 195.578  1.00  0.00     0.009 C 
ATOM     21  C   UNL     1     200.436 194.780 195.119  1.00  0.00     0.015 C 
ATOM     22  C   UNL     1     197.894 194.821 194.955  1.00  0.00     0.016 C 
ATOM     23  C   UNL     1     199.763 196.859 197.053  1.00  0.00     0.005 C 
ATOM     24  C   UNL     1     201.605 195.591 195.673  1.00  0.00     0.047 C 
ATOM     25  C   UNL     1     201.226 196.233 197.033  1.00  0.00     0.182 C 
ATOM     26  C   UNL     1     198.786 196.021 197.917  1.00  0.00     0.015 C 
ATOM     27  C   UNL     1     199.865 198.260 197.709  1.00  0.00     0.015 C 
BRANCH   7  28
ATOM     28  O   UNL     1     201.230 199.699 189.836  1.00  0.00    -0.393 OA
ATOM     29  H   UNL     1     201.231 200.382 190.554  1.00  0.00     0.210 HD
ENDBRANCH   7  28
BRANCH  25  30
ATOM     30  O   UNL     1     201.378 195.269 198.082  1.00  0.00    -0.462 OA
BRANCH  30  31
ATOM     31  C   UNL     1     202.286 194.204 198.048  1.00  0.00     0.302 C 
ATOM     32  O   UNL     1     203.532 194.414 198.008  1.00  0.00    -0.253 OA
ATOM     33  C   UNL     1     201.768 192.805 198.017  1.00  0.00     0.139 C 
ENDBRANCH  30  31
ENDBRANCH  25  30
ENDBRANCH   2   6
ENDBRANCH   1   2
BRANCH   1  34
ATOM     34  C   UNL     1     202.703 195.179 189.334  1.00  0.00     0.031 C 
BRANCH  34  35
ATOM     35  C   UNL     1     203.357 195.097 190.704  1.00  0.00    -0.075 C 
ATOM     36  C   UNL     1     203.588 196.241 191.372  1.00  0.00     0.008 C 
BRANCH  35  37
ATOM     37  C   UNL     1     203.486 193.781 191.463  1.00  0.00     0.008 C 
ATOM     38  C   UNL     1     203.681 194.038 192.963  1.00  0.00     0.012 C 
ATOM     39  C   UNL     1     202.301 192.841 191.227  1.00  0.00     0.012 C 
ENDBRANCH  35  37
ENDBRANCH  34  35
ENDBRANCH   1  34
TORSDOF 9
ENDMDL
MODEL 6
REMARK VINA RESULT:    -3.439      3.661      6.446
REMARK INTER + INTRA:          -7.223
REMARK INTER:                  -4.667
REMARK INTRA:                  -2.557
REMARK UNBOUND:                -2.075
REMARK SMILES C=C(CC[C@H](C(=O)[O-])[C@@H]1[C@@H](O)C[C@]2(C)C3=C(CC[C@]12C)[C@@]1(C)CC[C@H](OC(C)=O)C(C)(C)[C@@H]1CC3)C(C)C
REMARK SMILES IDX 4 1 5 2 6 3 7 4 8 5 9 6 10 7 19 8 12 9 13 10 18 11 20 12
REMARK SMILES IDX 14 13 15 14 17 15 16 16 35 17 21 18 34 19 33 20 23 21 22 22
REMARK SMILES IDX 30 23 24 24 25 25 31 26 32 27 11 28 26 30 27 31 29 32 28 33
REMARK SMILES IDX 3 34 2 35 1 36 36 37 37 38 38 39
REMARK H PARENT 11 29
REMARK Flexibility Score: inf
ROOT
ATOM      1  C   UNL     1     197.764 201.407 191.004  1.00  0.00     0.014 C 
ENDROOT
BRANCH   1   2
ATOM      2  C   UNL     1     196.586 201.700 191.975  1.00  0.00     0.042 C 
BRANCH   2   3
ATOM      3  C   UNL     1     195.807 202.906 191.503  1.00  0.00     0.045 C 
ATOM      4  O   UNL     1     195.451 203.774 192.343  1.00  0.00    -0.550 OA
ATOM      5  O   UNL     1     195.449 203.066 190.176  1.00  0.00    -0.550 OA
ENDBRANCH   2   3
BRANCH   2   6
ATOM      6  C   UNL     1     196.967 201.721 193.502  1.00  0.00     0.033 C 
ATOM      7  C   UNL     1     198.502 201.784 193.693  1.00  0.00     0.119 C 
ATOM      8  C   UNL     1     196.488 200.526 194.414  1.00  0.00    -0.017 C 
ATOM      9  C   UNL     1     198.841 201.118 195.025  1.00  0.00     0.043 C 
ATOM     10  C   UNL     1     197.530 200.529 195.616  1.00  0.00    -0.003 C 
ATOM     11  C   UNL     1     196.464 199.135 193.682  1.00  0.00     0.012 C 
ATOM     12  C   UNL     1     195.030 200.760 194.910  1.00  0.00     0.013 C 
ATOM     13  C   UNL     1     197.077 201.495 196.759  1.00  0.00     0.017 C 
ATOM     14  C   UNL     1     197.837 199.097 196.135  1.00  0.00    -0.064 C 
ATOM     15  C   UNL     1     197.763 198.346 193.774  1.00  0.00     0.032 C 
ATOM     16  C   UNL     1     198.083 198.089 195.233  1.00  0.00    -0.064 C 
ATOM     17  C   UNL     1     197.987 198.782 197.627  1.00  0.00     0.032 C 
ATOM     18  C   UNL     1     198.756 196.781 195.731  1.00  0.00    -0.008 C 
ATOM     19  C   UNL     1     199.281 198.011 197.965  1.00  0.00     0.009 C 
ATOM     20  C   UNL     1     199.872 197.274 196.736  1.00  0.00     0.009 C 
ATOM     21  C   UNL     1     199.437 195.913 194.600  1.00  0.00     0.015 C 
ATOM     22  C   UNL     1     197.644 195.912 196.411  1.00  0.00     0.016 C 
ATOM     23  C   UNL     1     201.045 196.259 197.010  1.00  0.00     0.005 C 
ATOM     24  C   UNL     1     200.910 196.252 194.385  1.00  0.00     0.047 C 
ATOM     25  C   UNL     1     201.744 195.866 195.636  1.00  0.00     0.182 C 
ATOM     26  C   UNL     1     200.532 195.013 197.775  1.00  0.00     0.015 C 
ATOM     27  C   UNL     1     202.120 196.932 197.903  1.00  0.00     0.015 C 
BRANCH   7  28
ATOM     28  O   UNL     1     198.998 203.098 193.643  1.00  0.00    -0.393 OA
ATOM     29  H   UNL     1     198.587 203.603 194.390  1.00  0.00     0.210 HD
ENDBRANCH   7  28
BRANCH  25  30
ATOM     30  O   UNL     1     202.046 194.466 195.603  1.00  0.00    -0.462 OA
BRANCH  30  31
ATOM     31  C   UNL     1     203.339 193.941 195.485  1.00  0.00     0.302 C 
ATOM     32  O   UNL     1     203.829 193.674 194.351  1.00  0.00    -0.253 OA
ATOM     33  C   UNL     1     204.124 193.654 196.720  1.00  0.00     0.139 C 
ENDBRANCH  30  31
ENDBRANCH  25  30
ENDBRANCH   2   6
ENDBRANCH   1   2
BRANCH   1  34
ATOM     34  C   UNL     1     197.888 199.996 190.375  1.00  0.00     0.031 C 
BRANCH  34  35
ATOM     35  C   UNL     1     199.236 199.314 190.542  1.00  0.00    -0.075 C 
ATOM     36  C   UNL     1     200.229 199.999 191.138  1.00  0.00     0.008 C 
BRANCH  35  37
ATOM     37  C   UNL     1     199.418 197.815 190.335  1.00  0.00     0.008 C 
ATOM     38  C   UNL     1     199.379 197.465 188.842  1.00  0.00     0.012 C 
ATOM     39  C   UNL     1     200.698 197.277 190.981  1.00  0.00     0.012 C 
ENDBRANCH  35  37
ENDBRANCH  34  35
ENDBRANCH   1  34
TORSDOF 9
ENDMDL
MODEL 7
REMARK VINA RESULT:    -3.426      1.959      3.617
REMARK INTER + INTRA:          -7.203
REMARK INTER:                  -4.707
REMARK INTRA:                  -2.497
REMARK UNBOUND:                -2.075
REMARK SMILES C=C(CC[C@H](C(=O)[O-])[C@@H]1[C@@H](O)C[C@]2(C)C3=C(CC[C@]12C)[C@@]1(C)CC[C@H](OC(C)=O)C(C)(C)[C@@H]1CC3)C(C)C
REMARK SMILES IDX 4 1 5 2 6 3 7 4 8 5 9 6 10 7 19 8 12 9 13 10 18 11 20 12
REMARK SMILES IDX 14 13 15 14 17 15 16 16 35 17 21 18 34 19 33 20 23 21 22 22
REMARK SMILES IDX 30 23 24 24 25 25 31 26 32 27 11 28 26 30 27 31 29 32 28 33
REMARK SMILES IDX 3 34 2 35 1 36 36 37 37 38 38 39
REMARK H PARENT 11 29
REMARK Flexibility Score: inf
ROOT
ATOM      1  C   UNL     1     192.041 194.511 196.234  1.00  0.00     0.014 C 
ENDROOT
BRANCH   1   2
ATOM      2  C   UNL     1     191.862 196.046 196.396  1.00  0.00     0.042 C 
BRANCH   2   3
ATOM      3  C   UNL     1     190.404 196.421 196.256  1.00  0.00     0.045 C 
ATOM      4  O   UNL     1     190.103 197.572 195.847  1.00  0.00    -0.550 OA
ATOM      5  O   UNL     1     189.392 195.541 196.597  1.00  0.00    -0.550 OA
ENDBRANCH   2   3
BRANCH   2   6
ATOM      6  C   UNL     1     192.850 196.928 195.546  1.00  0.00     0.033 C 
ATOM      7  C   UNL     1     193.651 196.060 194.544  1.00  0.00     0.119 C 
ATOM      8  C   UNL     1     193.935 197.786 196.304  1.00  0.00    -0.017 C 
ATOM      9  C   UNL     1     194.990 196.749 194.287  1.00  0.00     0.043 C 
ATOM     10  C   UNL     1     195.082 197.989 195.220  1.00  0.00    -0.003 C 
ATOM     11  C   UNL     1     194.494 197.103 197.606  1.00  0.00     0.012 C 
ATOM     12  C   UNL     1     193.335 199.146 196.773  1.00  0.00     0.013 C 
ATOM     13  C   UNL     1     194.807 199.244 194.330  1.00  0.00     0.017 C 
ATOM     14  C   UNL     1     196.499 198.009 195.855  1.00  0.00    -0.064 C 
ATOM     15  C   UNL     1     195.717 196.223 197.387  1.00  0.00     0.032 C 
ATOM     16  C   UNL     1     196.832 197.064 196.797  1.00  0.00    -0.064 C 
ATOM     17  C   UNL     1     197.590 198.979 195.391  1.00  0.00     0.032 C 
ATOM     18  C   UNL     1     198.329 196.840 197.143  1.00  0.00    -0.008 C 
ATOM     19  C   UNL     1     198.930 198.287 195.063  1.00  0.00     0.009 C 
ATOM     20  C   UNL     1     199.066 196.902 195.745  1.00  0.00     0.009 C 
ATOM     21  C   UNL     1     198.653 195.453 197.827  1.00  0.00     0.015 C 
ATOM     22  C   UNL     1     198.758 197.982 198.125  1.00  0.00     0.016 C 
ATOM     23  C   UNL     1     200.482 196.214 195.685  1.00  0.00     0.005 C 
ATOM     24  C   UNL     1     199.014 194.357 196.828  1.00  0.00     0.047 C 
ATOM     25  C   UNL     1     200.355 194.689 196.120  1.00  0.00     0.182 C 
ATOM     26  C   UNL     1     201.508 196.981 196.560  1.00  0.00     0.015 C 
ATOM     27  C   UNL     1     201.015 196.241 194.229  1.00  0.00     0.015 C 
BRANCH   7  28
ATOM     28  O   UNL     1     192.954 195.843 193.343  1.00  0.00    -0.393 OA
ATOM     29  H   UNL     1     192.577 194.927 193.375  1.00  0.00     0.210 HD
ENDBRANCH   7  28
BRANCH  25  30
ATOM     30  O   UNL     1     201.452 194.307 196.958  1.00  0.00    -0.462 OA
BRANCH  30  31
ATOM     31  C   UNL     1     202.530 193.520 196.536  1.00  0.00     0.302 C 
ATOM     32  O   UNL     1     202.339 192.448 195.894  1.00  0.00    -0.253 OA
ATOM     33  C   UNL     1     203.919 193.937 196.889  1.00  0.00     0.139 C 
ENDBRANCH  30  31
ENDBRANCH  25  30
ENDBRANCH   2   6
ENDBRANCH   1   2
BRANCH   1  34
ATOM     34  C   UNL     1     192.726 193.709 197.369  1.00  0.00     0.031 C 
BRANCH  34  35
ATOM     35  C   UNL     1     193.668 192.602 196.921  1.00  0.00    -0.075 C 
ATOM     36  C   UNL     1     193.277 191.326 197.085  1.00  0.00     0.008 C 
BRANCH  35  37
ATOM     37  C   UNL     1     194.881 192.877 196.041  1.00  0.00     0.008 C 
ATOM     38  C   UNL     1     196.131 192.195 196.612  1.00  0.00     0.012 C 
ATOM     39  C   UNL     1     194.662 192.464 194.583  1.00  0.00     0.012 C 
ENDBRANCH  35  37
ENDBRANCH  34  35
ENDBRANCH   1  34
TORSDOF 9
ENDMDL
MODEL 8
REMARK VINA RESULT:    -3.294      5.240      9.281
REMARK INTER + INTRA:          -7.005
REMARK INTER:                  -4.316
REMARK INTRA:                  -2.689
REMARK UNBOUND:                -2.075
REMARK SMILES C=C(CC[C@H](C(=O)[O-])[C@@H]1[C@@H](O)C[C@]2(C)C3=C(CC[C@]12C)[C@@]1(C)CC[C@H](OC(C)=O)C(C)(C)[C@@H]1CC3)C(C)C
REMARK SMILES IDX 4 1 5 2 6 3 7 4 8 5 9 6 10 7 19 8 12 9 13 10 18 11 20 12
REMARK SMILES IDX 14 13 15 14 17 15 16 16 35 17 21 18 34 19 33 20 23 21 22 22
REMARK SMILES IDX 30 23 24 24 25 25 31 26 32 27 11 28 26 30 27 31 29 32 28 33
REMARK SMILES IDX 3 34 2 35 1 36 36 37 37 38 38 39
REMARK H PARENT 11 29
REMARK Flexibility Score: inf
ROOT
ATOM      1  C   UNL     1     187.675 189.703 196.212  1.00  0.00     0.014 C 
ENDROOT
BRANCH   1   2
ATOM      2  C   UNL     1     186.722 190.906 196.453  1.00  0.00     0.042 C 
BRANCH   2   3
ATOM      3  C   UNL     1     185.281 190.459 196.359  1.00  0.00     0.045 C 
ATOM      4  O   UNL     1     185.023 189.229 196.289  1.00  0.00    -0.550 OA
ATOM      5  O   UNL     1     184.240 191.369 196.317  1.00  0.00    -0.550 OA
ENDBRANCH   2   3
BRANCH   2   6
ATOM      6  C   UNL     1     187.062 192.204 195.630  1.00  0.00     0.033 C 
ATOM      7  C   UNL     1     188.071 191.897 194.496  1.00  0.00     0.119 C 
ATOM      8  C   UNL     1     187.668 193.443 196.395  1.00  0.00    -0.017 C 
ATOM      9  C   UNL     1     188.872 193.168 194.219  1.00  0.00     0.043 C 
ATOM     10  C   UNL     1     188.449 194.241 195.261  1.00  0.00    -0.003 C 
ATOM     11  C   UNL     1     188.623 193.056 197.582  1.00  0.00     0.012 C 
ATOM     12  C   UNL     1     186.537 194.305 197.035  1.00  0.00     0.013 C 
ATOM     13  C   UNL     1     187.507 195.244 194.520  1.00  0.00     0.017 C 
ATOM     14  C   UNL     1     189.737 194.922 195.799  1.00  0.00    -0.064 C 
ATOM     15  C   UNL     1     190.087 192.905 197.196  1.00  0.00     0.032 C 
ATOM     16  C   UNL     1     190.585 194.215 196.619  1.00  0.00    -0.064 C 
ATOM     17  C   UNL     1     190.164 196.327 195.361  1.00  0.00     0.032 C 
ATOM     18  C   UNL     1     192.030 194.739 196.840  1.00  0.00    -0.008 C 
ATOM     19  C   UNL     1     191.627 196.403 194.877  1.00  0.00     0.009 C 
ATOM     20  C   UNL     1     192.491 195.229 195.409  1.00  0.00     0.009 C 
ATOM     21  C   UNL     1     193.056 193.657 197.362  1.00  0.00     0.015 C 
ATOM     22  C   UNL     1     191.953 195.891 197.899  1.00  0.00     0.016 C 
ATOM     23  C   UNL     1     194.047 195.332 195.187  1.00  0.00     0.005 C 
ATOM     24  C   UNL     1     193.795 192.936 196.237  1.00  0.00     0.047 C 
ATOM     25  C   UNL     1     194.722 193.921 195.477  1.00  0.00     0.182 C 
ATOM     26  C   UNL     1     194.658 196.457 196.062  1.00  0.00     0.015 C 
ATOM     27  C   UNL     1     194.341 195.695 193.709  1.00  0.00     0.015 C 
BRANCH   7  28
ATOM     28  O   UNL     1     187.442 191.429 193.329  1.00  0.00    -0.393 OA
ATOM     29  H   UNL     1     186.997 190.572 193.550  1.00  0.00     0.210 HD
ENDBRANCH   7  28
BRANCH  25  30
ATOM     30  O   UNL     1     195.949 194.085 196.198  1.00  0.00    -0.462 OA
BRANCH  30  31
ATOM     31  C   UNL     1     197.208 193.717 195.707  1.00  0.00     0.302 C 
ATOM     32  O   UNL     1     198.220 193.701 196.464  1.00  0.00    -0.253 OA
ATOM     33  C   UNL     1     197.357 193.384 194.261  1.00  0.00     0.139 C 
ENDBRANCH  30  31
ENDBRANCH  25  30
ENDBRANCH   2   6
ENDBRANCH   1   2
BRANCH   1  34
ATOM     34  C   UNL     1     188.822 189.437 197.220  1.00  0.00     0.031 C 
BRANCH  34  35
ATOM     35  C   UNL     1     189.989 188.618 196.692  1.00  0.00    -0.075 C 
ATOM     36  C   UNL     1     189.737 187.396 196.191  1.00  0.00     0.008 C 
BRANCH  35  37
ATOM     37  C   UNL     1     191.362 189.232 196.439  1.00  0.00     0.008 C 
ATOM     38  C   UNL     1     191.300 190.240 195.283  1.00  0.00     0.012 C 
ATOM     39  C   UNL     1     191.961 189.883 197.688  1.00  0.00     0.012 C 
ENDBRANCH  35  37
ENDBRANCH  34  35
ENDBRANCH   1  34
TORSDOF 9
ENDMDL
