MODEL 1
REMARK VINA RESULT:    -3.996      0.000      0.000
REMARK INTER + INTRA:          -7.219
REMARK INTER:                  -6.332
REMARK INTRA:                  -0.887
REMARK UNBOUND:                -0.887
REMARK SMILES CCCCCCCCCCCC(=O)[O-]
REMARK SMILES IDX 7 1 8 2 9 3 10 4 11 5 12 6 13 7 14 8 6 9 5 10 4 11 3 12 2 13
REMARK SMILES IDX 1 14
REMARK H PARENT
REMARK Flexibility Score: inf
ROOT
ATOM      1  C   UNL     1      47.738   5.583  21.609  1.00  0.00     0.000 C 
ENDROOT
BRANCH   1   2
ATOM      2  C   UNL     1      49.243   5.391  21.371  1.00  0.00     0.000 C 
BRANCH   2   3
ATOM      3  C   UNL     1      49.703   4.009  21.853  1.00  0.00     0.000 C 
BRANCH   3   4
ATOM      4  C   UNL     1      49.779   3.016  20.682  1.00  0.00     0.006 C 
BRANCH   4   5
ATOM      5  C   UNL     1      51.132   2.294  20.621  1.00  0.00     0.053 C 
BRANCH   5   6
ATOM      6  C   UNL     1      52.042   2.906  19.600  1.00  0.00     0.041 C 
ATOM      7  O   UNL     1      51.580   3.684  18.725  1.00  0.00    -0.550 OA
ATOM      8  O   UNL     1      53.405   2.641  19.635  1.00  0.00    -0.550 OA
ENDBRANCH   5   6
ENDBRANCH   4   5
ENDBRANCH   3   4
ENDBRANCH   2   3
ENDBRANCH   1   2
BRANCH   1   9
ATOM      9  C   UNL     1      47.203   6.881  20.985  1.00  0.00     0.000 C 
BRANCH   9  10
ATOM     10  C   UNL     1      48.309   7.928  20.758  1.00  0.00    -0.000 C 
BRANCH  10  11
ATOM     11  C   UNL     1      48.178   8.644  19.404  1.00  0.00    -0.000 C 
BRANCH  11  12
ATOM     12  C   UNL     1      49.518   8.744  18.657  1.00  0.00    -0.000 C 
BRANCH  12  13
ATOM     13  C   UNL     1      50.702   8.258  19.508  1.00  0.00    -0.003 C 
ATOM     14  C   UNL     1      51.509   7.153  18.825  1.00  0.00     0.004 C 
ENDBRANCH  12  13
ENDBRANCH  11  12
ENDBRANCH  10  11
ENDBRANCH   9  10
ENDBRANCH   1   9
TORSDOF 10
ENDMDL
MODEL 2
REMARK VINA RESULT:    -3.955      3.212      5.141
REMARK INTER + INTRA:          -7.154
REMARK INTER:                  -5.751
REMARK INTRA:                  -1.403
REMARK UNBOUND:                -0.887
REMARK SMILES CCCCCCCCCCCC(=O)[O-]
REMARK SMILES IDX 7 1 8 2 9 3 10 4 11 5 12 6 13 7 14 8 6 9 5 10 4 11 3 12 2 13
REMARK SMILES IDX 1 14
REMARK H PARENT
REMARK Flexibility Score: inf
ROOT
ATOM      1  C   UNL     1      49.499   4.808  22.904  1.00  0.00     0.000 C 
ENDROOT
BRANCH   1   2
ATOM      2  C   UNL     1      48.206   4.996  22.097  1.00  0.00     0.000 C 
BRANCH   2   3
ATOM      3  C   UNL     1      48.173   6.376  21.428  1.00  0.00     0.000 C 
BRANCH   3   4
ATOM      4  C   UNL     1      49.585   6.827  21.025  1.00  0.00     0.006 C 
BRANCH   4   5
ATOM      5  C   UNL     1      49.594   8.235  20.415  1.00  0.00     0.053 C 
BRANCH   5   6
ATOM      6  C   UNL     1      50.410   8.292  19.161  1.00  0.00     0.041 C 
ATOM      7  O   UNL     1      51.454   7.596  19.052  1.00  0.00    -0.550 OA
ATOM      8  O   UNL     1      50.002   9.090  18.100  1.00  0.00    -0.550 OA
ENDBRANCH   5   6
ENDBRANCH   4   5
ENDBRANCH   3   4
ENDBRANCH   2   3
ENDBRANCH   1   2
BRANCH   1   9
ATOM      9  C   UNL     1      49.308   5.096  24.401  1.00  0.00     0.000 C 
BRANCH   9  10
ATOM     10  C   UNL     1      50.371   6.059  24.959  1.00  0.00    -0.000 C 
BRANCH  10  11
ATOM     11  C   UNL     1      49.770   7.389  25.444  1.00  0.00    -0.000 C 
BRANCH  11  12
ATOM     12  C   UNL     1      49.895   8.509  24.397  1.00  0.00    -0.000 C 
BRANCH  12  13
ATOM     13  C   UNL     1      48.529   9.060  23.960  1.00  0.00    -0.003 C 
ATOM     14  C   UNL     1      47.393   8.639  24.892  1.00  0.00     0.004 C 
ENDBRANCH  12  13
ENDBRANCH  11  12
ENDBRANCH  10  11
ENDBRANCH   9  10
ENDBRANCH   1   9
TORSDOF 10
ENDMDL
MODEL 3
REMARK VINA RESULT:    -3.950      3.418      5.873
REMARK INTER + INTRA:          -7.146
REMARK INTER:                  -6.000
REMARK INTRA:                  -1.146
REMARK UNBOUND:                -0.887
REMARK SMILES CCCCCCCCCCCC(=O)[O-]
REMARK SMILES IDX 7 1 8 2 9 3 10 4 11 5 12 6 13 7 14 8 6 9 5 10 4 11 3 12 2 13
REMARK SMILES IDX 1 14
REMARK H PARENT
REMARK Flexibility Score: inf
ROOT
ATOM      1  C   UNL     1      47.570   2.510  20.252  1.00  0.00     0.000 C 
ENDROOT
BRANCH   1   2
ATOM      2  C   UNL     1      48.350   3.016  21.476  1.00  0.00     0.000 C 
BRANCH   2   3
ATOM      3  C   UNL     1      49.705   3.601  21.059  1.00  0.00     0.000 C 
BRANCH   3   4
ATOM      4  C   UNL     1      50.683   2.488  20.652  1.00  0.00     0.006 C 
BRANCH   4   5
ATOM      5  C   UNL     1      51.550   2.887  19.450  1.00  0.00     0.053 C 
BRANCH   5   6
ATOM      6  C   UNL     1      52.933   2.321  19.550  1.00  0.00     0.041 C 
ATOM      7  O   UNL     1      53.899   3.060  19.875  1.00  0.00    -0.550 OA
ATOM      8  O   UNL     1      53.150   0.969  19.315  1.00  0.00    -0.550 OA
ENDBRANCH   5   6
ENDBRANCH   4   5
ENDBRANCH   3   4
ENDBRANCH   2   3
ENDBRANCH   1   2
BRANCH   1   9
ATOM      9  C   UNL     1      47.087   1.061  20.419  1.00  0.00     0.000 C 
BRANCH   9  10
ATOM     10  C   UNL     1      46.683   0.734  21.868  1.00  0.00    -0.000 C 
BRANCH  10  11
ATOM     11  C   UNL     1      47.184  -0.645  22.327  1.00  0.00    -0.000 C 
BRANCH  11  12
ATOM     12  C   UNL     1      48.650  -0.899  21.939  1.00  0.00    -0.000 C 
BRANCH  12  13
ATOM     13  C   UNL     1      49.639  -0.303  22.953  1.00  0.00    -0.003 C 
ATOM     14  C   UNL     1      51.099  -0.555  22.576  1.00  0.00     0.004 C 
ENDBRANCH  12  13
ENDBRANCH  11  12
ENDBRANCH  10  11
ENDBRANCH   9  10
ENDBRANCH   1   9
TORSDOF 10
ENDMDL
MODEL 4
REMARK VINA RESULT:    -3.897      2.271      3.540
REMARK INTER + INTRA:          -7.061
REMARK INTER:                  -6.086
REMARK INTRA:                  -0.975
REMARK UNBOUND:                -0.887
REMARK SMILES CCCCCCCCCCCC(=O)[O-]
REMARK SMILES IDX 7 1 8 2 9 3 10 4 11 5 12 6 13 7 14 8 6 9 5 10 4 11 3 12 2 13
REMARK SMILES IDX 1 14
REMARK H PARENT
REMARK Flexibility Score: inf
ROOT
ATOM      1  C   UNL     1      48.263   5.492  21.609  1.00  0.00     0.000 C 
ENDROOT
BRANCH   1   2
ATOM      2  C   UNL     1      48.551   3.983  21.625  1.00  0.00     0.000 C 
BRANCH   2   3
ATOM      3  C   UNL     1      49.903   3.689  22.287  1.00  0.00     0.000 C 
BRANCH   3   4
ATOM      4  C   UNL     1      50.728   2.707  21.442  1.00  0.00     0.006 C 
BRANCH   4   5
ATOM      5  C   UNL     1      50.503   2.904  19.937  1.00  0.00     0.053 C 
BRANCH   5   6
ATOM      6  C   UNL     1      51.781   3.220  19.221  1.00  0.00     0.041 C 
ATOM      7  O   UNL     1      51.915   4.319  18.621  1.00  0.00    -0.550 OA
ATOM      8  O   UNL     1      52.834   2.315  19.243  1.00  0.00    -0.550 OA
ENDBRANCH   5   6
ENDBRANCH   4   5
ENDBRANCH   3   4
ENDBRANCH   2   3
ENDBRANCH   1   2
BRANCH   1   9
ATOM      9  C   UNL     1      49.527   6.331  21.369  1.00  0.00     0.000 C 
BRANCH   9  10
ATOM     10  C   UNL     1      49.482   7.688  22.095  1.00  0.00    -0.000 C 
BRANCH  10  11
ATOM     11  C   UNL     1      49.121   7.554  23.583  1.00  0.00    -0.000 C 
BRANCH  11  12
ATOM     12  C   UNL     1      50.316   7.108  24.442  1.00  0.00    -0.000 C 
BRANCH  12  13
ATOM     13  C   UNL     1      50.082   5.746  25.114  1.00  0.00    -0.003 C 
ATOM     14  C   UNL     1      50.191   5.810  26.637  1.00  0.00     0.004 C 
ENDBRANCH  12  13
ENDBRANCH  11  12
ENDBRANCH  10  11
ENDBRANCH   9  10
ENDBRANCH   1   9
TORSDOF 10
ENDMDL
MODEL 5
REMARK VINA RESULT:    -3.891      2.729      5.404
REMARK INTER + INTRA:          -7.053
REMARK INTER:                  -6.234
REMARK INTRA:                  -0.819
REMARK UNBOUND:                -0.887
REMARK SMILES CCCCCCCCCCCC(=O)[O-]
REMARK SMILES IDX 7 1 8 2 9 3 10 4 11 5 12 6 13 7 14 8 6 9 5 10 4 11 3 12 2 13
REMARK SMILES IDX 1 14
REMARK H PARENT
REMARK Flexibility Score: inf
ROOT
ATOM      1  C   UNL     1      48.633   4.292  21.644  1.00  0.00     0.000 C 
ENDROOT
BRANCH   1   2
ATOM      2  C   UNL     1      48.334   5.789  21.467  1.00  0.00     0.000 C 
BRANCH   2   3
ATOM      3  C   UNL     1      49.630   6.592  21.302  1.00  0.00     0.000 C 
BRANCH   3   4
ATOM      4  C   UNL     1      49.329   8.056  20.947  1.00  0.00     0.006 C 
BRANCH   4   5
ATOM      5  C   UNL     1      48.651   8.194  19.577  1.00  0.00     0.053 C 
BRANCH   5   6
ATOM      6  C   UNL     1      49.571   8.801  18.561  1.00  0.00     0.041 C 
ATOM      7  O   UNL     1      50.546   9.506  18.931  1.00  0.00    -0.550 OA
ATOM      8  O   UNL     1      49.369   8.560  17.208  1.00  0.00    -0.550 OA
ENDBRANCH   5   6
ENDBRANCH   4   5
ENDBRANCH   3   4
ENDBRANCH   2   3
ENDBRANCH   1   2
BRANCH   1   9
ATOM      9  C   UNL     1      49.612   4.019  22.796  1.00  0.00     0.000 C 
BRANCH   9  10
ATOM     10  C   UNL     1      50.530   2.814  22.519  1.00  0.00    -0.000 C 
BRANCH  10  11
ATOM     11  C   UNL     1      50.612   2.462  21.025  1.00  0.00    -0.000 C 
BRANCH  11  12
ATOM     12  C   UNL     1      52.043   2.117  20.579  1.00  0.00    -0.000 C 
BRANCH  12  13
ATOM     13  C   UNL     1      52.365   2.648  19.173  1.00  0.00    -0.003 C 
ATOM     14  C   UNL     1      51.728   4.010  18.894  1.00  0.00     0.004 C 
ENDBRANCH  12  13
ENDBRANCH  11  12
ENDBRANCH  10  11
ENDBRANCH   9  10
ENDBRANCH   1   9
TORSDOF 10
ENDMDL
MODEL 6
REMARK VINA RESULT:    -3.866      4.620      6.680
REMARK INTER + INTRA:          -7.014
REMARK INTER:                  -5.588
REMARK INTRA:                  -1.426
REMARK UNBOUND:                -0.887
REMARK SMILES CCCCCCCCCCCC(=O)[O-]
REMARK SMILES IDX 7 1 8 2 9 3 10 4 11 5 12 6 13 7 14 8 6 9 5 10 4 11 3 12 2 13
REMARK SMILES IDX 1 14
REMARK H PARENT
REMARK Flexibility Score: inf
ROOT
ATOM      1  C   UNL     1      49.761   6.271  24.944  1.00  0.00     0.000 C 
ENDROOT
BRANCH   1   2
ATOM      2  C   UNL     1      50.319   7.688  24.742  1.00  0.00     0.000 C 
BRANCH   2   3
ATOM      3  C   UNL     1      49.254   8.617  24.146  1.00  0.00     0.000 C 
BRANCH   3   4
ATOM      4  C   UNL     1      48.382   7.871  23.125  1.00  0.00     0.006 C 
BRANCH   4   5
ATOM      5  C   UNL     1      48.694   8.289  21.681  1.00  0.00     0.053 C 
BRANCH   5   6
ATOM      6  C   UNL     1      49.628   7.326  21.014  1.00  0.00     0.041 C 
ATOM      7  O   UNL     1      49.599   6.104  21.314  1.00  0.00    -0.550 OA
ATOM      8  O   UNL     1      50.511   7.774  20.039  1.00  0.00    -0.550 OA
ENDBRANCH   5   6
ENDBRANCH   4   5
ENDBRANCH   3   4
ENDBRANCH   2   3
ENDBRANCH   1   2
BRANCH   1   9
ATOM      9  C   UNL     1      50.300   5.600  26.217  1.00  0.00     0.000 C 
BRANCH   9  10
ATOM     10  C   UNL     1      49.956   6.388  27.493  1.00  0.00    -0.000 C 
BRANCH  10  11
ATOM     11  C   UNL     1      48.448   6.408  27.790  1.00  0.00    -0.000 C 
BRANCH  11  12
ATOM     12  C   UNL     1      47.919   7.825  28.067  1.00  0.00    -0.000 C 
BRANCH  12  13
ATOM     13  C   UNL     1      46.760   8.213  27.137  1.00  0.00    -0.003 C 
ATOM     14  C   UNL     1      46.339   7.075  26.207  1.00  0.00     0.004 C 
ENDBRANCH  12  13
ENDBRANCH  11  12
ENDBRANCH  10  11
ENDBRANCH   9  10
ENDBRANCH   1   9
TORSDOF 10
ENDMDL
MODEL 7
REMARK VINA RESULT:    -3.848      3.839      5.814
REMARK INTER + INTRA:          -6.985
REMARK INTER:                  -6.176
REMARK INTRA:                  -0.809
REMARK UNBOUND:                -0.887
REMARK SMILES CCCCCCCCCCCC(=O)[O-]
REMARK SMILES IDX 7 1 8 2 9 3 10 4 11 5 12 6 13 7 14 8 6 9 5 10 4 11 3 12 2 13
REMARK SMILES IDX 1 14
REMARK H PARENT
REMARK Flexibility Score: inf
ROOT
ATOM      1  C   UNL     1      48.186  -0.424  21.717  1.00  0.00     0.000 C 
ENDROOT
BRANCH   1   2
ATOM      2  C   UNL     1      49.493   0.048  22.374  1.00  0.00     0.000 C 
BRANCH   2   3
ATOM      3  C   UNL     1      49.659   1.566  22.235  1.00  0.00     0.000 C 
BRANCH   3   4
ATOM      4  C   UNL     1      50.885   1.909  21.373  1.00  0.00     0.006 C 
BRANCH   4   5
ATOM      5  C   UNL     1      50.527   2.820  20.192  1.00  0.00     0.053 C 
BRANCH   5   6
ATOM      6  C   UNL     1      51.699   3.040  19.285  1.00  0.00     0.041 C 
ATOM      7  O   UNL     1      52.509   2.103  19.059  1.00  0.00    -0.550 OA
ATOM      8  O   UNL     1      51.879   4.269  18.665  1.00  0.00    -0.550 OA
ENDBRANCH   5   6
ENDBRANCH   4   5
ENDBRANCH   3   4
ENDBRANCH   2   3
ENDBRANCH   1   2
BRANCH   1   9
ATOM      9  C   UNL     1      47.120   0.681  21.663  1.00  0.00     0.000 C 
BRANCH   9  10
ATOM     10  C   UNL     1      46.874   1.197  20.234  1.00  0.00    -0.000 C 
BRANCH  10  11
ATOM     11  C   UNL     1      46.191   2.574  20.209  1.00  0.00    -0.000 C 
BRANCH  11  12
ATOM     12  C   UNL     1      45.166   2.745  21.343  1.00  0.00    -0.000 C 
BRANCH  12  13
ATOM     13  C   UNL     1      43.741   2.369  20.909  1.00  0.00    -0.003 C 
ATOM     14  C   UNL     1      43.248   1.072  21.552  1.00  0.00     0.004 C 
ENDBRANCH  12  13
ENDBRANCH  11  12
ENDBRANCH  10  11
ENDBRANCH   9  10
ENDBRANCH   1   9
TORSDOF 10
ENDMDL
MODEL 8
REMARK VINA RESULT:    -3.804      4.098      6.201
REMARK INTER + INTRA:          -6.915
REMARK INTER:                  -5.625
REMARK INTRA:                  -1.290
REMARK UNBOUND:                -0.887
REMARK SMILES CCCCCCCCCCCC(=O)[O-]
REMARK SMILES IDX 7 1 8 2 9 3 10 4 11 5 12 6 13 7 14 8 6 9 5 10 4 11 3 12 2 13
REMARK SMILES IDX 1 14
REMARK H PARENT
REMARK Flexibility Score: inf
ROOT
ATOM      1  C   UNL     1      46.503   2.977  20.276  1.00  0.00     0.000 C 
ENDROOT
BRANCH   1   2
ATOM      2  C   UNL     1      46.736   1.474  20.060  1.00  0.00     0.000 C 
BRANCH   2   3
ATOM      3  C   UNL     1      47.812   0.942  21.016  1.00  0.00     0.000 C 
BRANCH   3   4
ATOM      4  C   UNL     1      48.183   1.998  22.069  1.00  0.00     0.006 C 
BRANCH   4   5
ATOM      5  C   UNL     1      49.691   2.277  22.105  1.00  0.00     0.053 C 
BRANCH   5   6
ATOM      6  C   UNL     1      50.122   3.153  20.968  1.00  0.00     0.041 C 
ATOM      7  O   UNL     1      49.844   4.380  20.973  1.00  0.00    -0.550 OA
ATOM      8  O   UNL     1      50.857   2.618  19.917  1.00  0.00    -0.550 OA
ENDBRANCH   5   6
ENDBRANCH   4   5
ENDBRANCH   3   4
ENDBRANCH   2   3
ENDBRANCH   1   2
BRANCH   1   9
ATOM      9  C   UNL     1      45.012   3.346  20.293  1.00  0.00     0.000 C 
BRANCH   9  10
ATOM     10  C   UNL     1      44.495   3.659  21.708  1.00  0.00    -0.000 C 
BRANCH  10  11
ATOM     11  C   UNL     1      43.359   2.720  22.146  1.00  0.00    -0.000 C 
BRANCH  11  12
ATOM     12  C   UNL     1      43.235   1.483  21.242  1.00  0.00    -0.000 C 
BRANCH  12  13
ATOM     13  C   UNL     1      43.230   0.170  22.040  1.00  0.00    -0.003 C 
ATOM     14  C   UNL     1      44.517  -0.045  22.838  1.00  0.00     0.004 C 
ENDBRANCH  12  13
ENDBRANCH  11  12
ENDBRANCH  10  11
ENDBRANCH   9  10
ENDBRANCH   1   9
TORSDOF 10
ENDMDL
MODEL 9
REMARK VINA RESULT:    -3.795      3.219      4.996
REMARK INTER + INTRA:          -6.900
REMARK INTER:                  -5.313
REMARK INTRA:                  -1.587
REMARK UNBOUND:                -0.887
REMARK SMILES CCCCCCCCCCCC(=O)[O-]
REMARK SMILES IDX 7 1 8 2 9 3 10 4 11 5 12 6 13 7 14 8 6 9 5 10 4 11 3 12 2 13
REMARK SMILES IDX 1 14
REMARK H PARENT
REMARK Flexibility Score: inf
ROOT
ATOM      1  C   UNL     1      50.004   6.596  23.850  1.00  0.00     0.000 C 
ENDROOT
BRANCH   1   2
ATOM      2  C   UNL     1      48.969   5.695  23.159  1.00  0.00     0.000 C 
BRANCH   2   3
ATOM      3  C   UNL     1      48.652   6.207  21.748  1.00  0.00     0.000 C 
BRANCH   3   4
ATOM      4  C   UNL     1      49.813   7.047  21.193  1.00  0.00     0.006 C 
BRANCH   4   5
ATOM      5  C   UNL     1      49.324   8.188  20.292  1.00  0.00     0.053 C 
BRANCH   5   6
ATOM      6  C   UNL     1      50.333   8.535  19.239  1.00  0.00     0.041 C 
ATOM      7  O   UNL     1      50.395   9.707  18.783  1.00  0.00    -0.550 OA
ATOM      8  O   UNL     1      51.225   7.572  18.786  1.00  0.00    -0.550 OA
ENDBRANCH   5   6
ENDBRANCH   4   5
ENDBRANCH   3   4
ENDBRANCH   2   3
ENDBRANCH   1   2
BRANCH   1   9
ATOM      9  C   UNL     1      49.368   7.542  24.880  1.00  0.00     0.000 C 
BRANCH   9  10
ATOM     10  C   UNL     1      49.303   8.998  24.385  1.00  0.00    -0.000 C 
BRANCH  10  11
ATOM     11  C   UNL     1      47.869   9.553  24.362  1.00  0.00    -0.000 C 
BRANCH  11  12
ATOM     12  C   UNL     1      47.341   9.761  22.932  1.00  0.00    -0.000 C 
BRANCH  12  13
ATOM     13  C   UNL     1      46.228   8.767  22.565  1.00  0.00    -0.003 C 
ATOM     14  C   UNL     1      45.801   7.893  23.745  1.00  0.00     0.004 C 
ENDBRANCH  12  13
ENDBRANCH  11  12
ENDBRANCH  10  11
ENDBRANCH   9  10
ENDBRANCH   1   9
TORSDOF 10
ENDMDL
