MODEL 1
REMARK VINA RESULT:    -2.045      0.000      0.000
REMARK INTER + INTRA:          -2.045
REMARK INTER:                  -2.045
REMARK INTRA:                   0.000
REMARK UNBOUND:                 0.000
REMARK SMILES CC(=O)[O-]
REMARK SMILES IDX 1 1 2 2 3 3 4 4
REMARK H PARENT
REMARK Flexibility Score: inf
ROOT
ATOM      1  C   UNL     1      14.535  11.374 -13.837  1.00  0.00     0.063 C 
ATOM      2  C   UNL     1      14.627  10.064 -14.542  1.00  0.00     0.038 C 
ATOM      3  O   UNL     1      15.322   9.133 -14.057  1.00  0.00    -0.550 OA
ATOM      4  O   UNL     1      13.906   9.849 -15.709  1.00  0.00    -0.550 OA
ENDROOT
TORSDOF 0
ENDMDL
MODEL 2
REMARK VINA RESULT:    -1.966      2.452      2.603
REMARK INTER + INTRA:          -1.966
REMARK INTER:                  -1.966
REMARK INTRA:                   0.000
REMARK UNBOUND:                 0.000
REMARK SMILES CC(=O)[O-]
REMARK SMILES IDX 1 1 2 2 3 3 4 4
REMARK H PARENT
REMARK Flexibility Score: inf
ROOT
ATOM      1  C   UNL     1      14.489  11.353 -13.871  1.00  0.00     0.063 C 
ATOM      2  C   UNL     1      15.557  12.146 -14.545  1.00  0.00     0.038 C 
ATOM      3  O   UNL     1      16.726  12.155 -14.080  1.00  0.00    -0.550 OA
ATOM      4  O   UNL     1      15.277  12.834 -15.719  1.00  0.00    -0.550 OA
ENDROOT
TORSDOF 0
ENDMDL
MODEL 3
REMARK VINA RESULT:    -1.964      1.688      1.952
REMARK INTER + INTRA:          -1.964
REMARK INTER:                  -1.964
REMARK INTRA:                   0.000
REMARK UNBOUND:                 0.000
REMARK SMILES CC(=O)[O-]
REMARK SMILES IDX 1 1 2 2 3 3 4 4
REMARK H PARENT
REMARK Flexibility Score: inf
ROOT
ATOM      1  C   UNL     1      15.144   9.339 -14.275  1.00  0.00     0.063 C 
ATOM      2  C   UNL     1      14.770  10.768 -14.479  1.00  0.00     0.038 C 
ATOM      3  O   UNL     1      14.339  11.452 -13.515  1.00  0.00    -0.550 OA
ATOM      4  O   UNL     1      14.946  11.363 -15.721  1.00  0.00    -0.550 OA
ENDROOT
TORSDOF 0
ENDMDL
MODEL 4
REMARK VINA RESULT:    -1.944      1.099      1.585
REMARK INTER + INTRA:          -1.944
REMARK INTER:                  -1.944
REMARK INTRA:                   0.000
REMARK UNBOUND:                 0.000
REMARK SMILES CC(=O)[O-]
REMARK SMILES IDX 1 1 2 2 3 3 4 4
REMARK H PARENT
REMARK Flexibility Score: inf
ROOT
ATOM      1  C   UNL     1      14.469  11.321 -13.874  1.00  0.00     0.063 C 
ATOM      2  C   UNL     1      15.377  10.200 -14.249  1.00  0.00     0.038 C 
ATOM      3  O   UNL     1      14.953   9.015 -14.247  1.00  0.00    -0.550 OA
ATOM      4  O   UNL     1      16.679  10.464 -14.653  1.00  0.00    -0.550 OA
ENDROOT
TORSDOF 0
ENDMDL
MODEL 5
REMARK VINA RESULT:    -1.857      8.148      8.294
REMARK INTER + INTRA:          -1.857
REMARK INTER:                  -1.857
REMARK INTRA:                   0.000
REMARK UNBOUND:                 0.000
REMARK SMILES CC(=O)[O-]
REMARK SMILES IDX 1 1 2 2 3 3 4 4
REMARK H PARENT
REMARK Flexibility Score: inf
ROOT
ATOM      1  C   UNL     1       6.656  10.150 -13.366  1.00  0.00     0.063 C 
ATOM      2  C   UNL     1       6.796   9.018 -12.405  1.00  0.00     0.038 C 
ATOM      3  O   UNL     1       7.783   8.241 -12.484  1.00  0.00    -0.550 OA
ATOM      4  O   UNL     1       5.867   8.851 -11.387  1.00  0.00    -0.550 OA
ENDROOT
TORSDOF 0
ENDMDL
MODEL 6
REMARK VINA RESULT:    -1.830      8.167      8.495
REMARK INTER + INTRA:          -1.830
REMARK INTER:                  -1.830
REMARK INTRA:                   0.000
REMARK UNBOUND:                 0.000
REMARK SMILES CC(=O)[O-]
REMARK SMILES IDX 1 1 2 2 3 3 4 4
REMARK H PARENT
REMARK Flexibility Score: inf
ROOT
ATOM      1  C   UNL     1       7.260   8.872 -12.295  1.00  0.00     0.063 C 
ATOM      2  C   UNL     1       6.431   9.784 -13.134  1.00  0.00     0.038 C 
ATOM      3  O   UNL     1       6.936  10.357 -14.134  1.00  0.00    -0.550 OA
ATOM      4  O   UNL     1       5.084   9.963 -12.845  1.00  0.00    -0.550 OA
ENDROOT
TORSDOF 0
ENDMDL
MODEL 7
REMARK VINA RESULT:    -1.724      7.944      8.108
REMARK INTER + INTRA:          -1.724
REMARK INTER:                  -1.724
REMARK INTRA:                   0.000
REMARK UNBOUND:                 0.000
REMARK SMILES CC(=O)[O-]
REMARK SMILES IDX 1 1 2 2 3 3 4 4
REMARK H PARENT
REMARK Flexibility Score: inf
ROOT
ATOM      1  C   UNL     1       6.191  10.797 -15.104  1.00  0.00     0.063 C 
ATOM      2  C   UNL     1       6.658   9.802 -14.096  1.00  0.00     0.038 C 
ATOM      3  O   UNL     1       7.089  10.190 -12.979  1.00  0.00    -0.550 OA
ATOM      4  O   UNL     1       6.570   8.443 -14.367  1.00  0.00    -0.550 OA
ENDROOT
TORSDOF 0
ENDMDL
MODEL 8
REMARK VINA RESULT:    -1.713      3.273      3.503
REMARK INTER + INTRA:          -1.713
REMARK INTER:                  -1.713
REMARK INTRA:                   0.000
REMARK UNBOUND:                 0.000
REMARK SMILES CC(=O)[O-]
REMARK SMILES IDX 1 1 2 2 3 3 4 4
REMARK H PARENT
REMARK Flexibility Score: inf
ROOT
ATOM      1  C   UNL     1      18.565  11.642 -13.436  1.00  0.00     0.063 C 
ATOM      2  C   UNL     1      17.270  11.606 -14.175  1.00  0.00     0.038 C 
ATOM      3  O   UNL     1      17.160  10.919 -15.224  1.00  0.00    -0.550 OA
ATOM      4  O   UNL     1      16.166  12.287 -13.678  1.00  0.00    -0.550 OA
ENDROOT
TORSDOF 0
ENDMDL
MODEL 9
REMARK VINA RESULT:    -1.712      6.125      6.518
REMARK INTER + INTRA:          -1.712
REMARK INTER:                  -1.712
REMARK INTRA:                   0.000
REMARK UNBOUND:                 0.000
REMARK SMILES CC(=O)[O-]
REMARK SMILES IDX 1 1 2 2 3 3 4 4
REMARK H PARENT
REMARK Flexibility Score: inf
ROOT
ATOM      1  C   UNL     1      21.490  13.173 -13.363  1.00  0.00     0.063 C 
ATOM      2  C   UNL     1      20.133  12.932 -13.932  1.00  0.00     0.038 C 
ATOM      3  O   UNL     1      19.728  13.612 -14.911  1.00  0.00    -0.550 OA
ATOM      4  O   UNL     1      19.331  11.921 -13.418  1.00  0.00    -0.550 OA
ENDROOT
TORSDOF 0
ENDMDL
