MODEL 1
REMARK VINA RESULT:    -4.820      0.000      0.000
REMARK INTER + INTRA:          -4.820
REMARK INTER:                  -4.820
REMARK INTRA:                   0.000
REMARK UNBOUND:                 0.000
REMARK SMILES O=c1ccc2ccccc2o1
REMARK SMILES IDX 7 1 8 2 9 3 10 4 5 5 6 6 4 7 3 8 2 9 1 10 11 11
REMARK H PARENT
REMARK Flexibility Score: inf
ROOT
ATOM      1  C   UNL     1      19.329  -1.095 -17.794  1.00  0.00     0.001 A 
ATOM      2  C   UNL     1      18.827  -1.562 -19.014  1.00  0.00     0.004 A 
ATOM      3  C   UNL     1      19.301  -1.032 -20.219  1.00  0.00     0.048 A 
ATOM      4  C   UNL     1      20.280  -0.033 -20.207  1.00  0.00     0.138 A 
ATOM      5  C   UNL     1      20.787   0.439 -18.976  1.00  0.00     0.018 A 
ATOM      6  C   UNL     1      20.308  -0.097 -17.772  1.00  0.00     0.012 A 
ATOM      7  C   UNL     1      21.765   1.438 -18.997  1.00  0.00     0.019 A 
ATOM      8  C   UNL     1      22.207   1.937 -20.221  1.00  0.00     0.094 A 
ATOM      9  C   UNL     1      21.660   1.422 -21.403  1.00  0.00     0.336 A 
ATOM     10  O   UNL     1      22.046   1.860 -22.517  1.00  0.00    -0.246 OA
ATOM     11  O   UNL     1      20.730   0.471 -21.355  1.00  0.00    -0.423 OA
ENDROOT
TORSDOF 0
ENDMDL
MODEL 2
REMARK VINA RESULT:    -4.814     16.106     18.181
REMARK INTER + INTRA:          -4.814
REMARK INTER:                  -4.814
REMARK INTRA:                   0.000
REMARK UNBOUND:                 0.000
REMARK SMILES O=c1ccc2ccccc2o1
REMARK SMILES IDX 7 1 8 2 9 3 10 4 5 5 6 6 4 7 3 8 2 9 1 10 11 11
REMARK H PARENT
REMARK Flexibility Score: inf
ROOT
ATOM      1  C   UNL     1       7.586  -7.608  -5.685  1.00  0.00     0.001 A 
ATOM      2  C   UNL     1       7.873  -6.253  -5.487  1.00  0.00     0.004 A 
ATOM      3  C   UNL     1       8.860  -5.623  -6.254  1.00  0.00     0.048 A 
ATOM      4  C   UNL     1       9.563  -6.348  -7.222  1.00  0.00     0.138 A 
ATOM      5  C   UNL     1       9.273  -7.716  -7.422  1.00  0.00     0.018 A 
ATOM      6  C   UNL     1       8.283  -8.341  -6.650  1.00  0.00     0.012 A 
ATOM      7  C   UNL     1       9.993  -8.414  -8.397  1.00  0.00     0.019 A 
ATOM      8  C   UNL     1      10.967  -7.746  -9.137  1.00  0.00     0.094 A 
ATOM      9  C   UNL     1      11.201  -6.389  -8.885  1.00  0.00     0.336 A 
ATOM     10  O   UNL     1      12.076  -5.769  -9.542  1.00  0.00    -0.246 OA
ATOM     11  O   UNL     1      10.502  -5.748  -7.951  1.00  0.00    -0.423 OA
ENDROOT
TORSDOF 0
ENDMDL
MODEL 3
REMARK VINA RESULT:    -4.800      1.106      2.255
REMARK INTER + INTRA:          -4.800
REMARK INTER:                  -4.800
REMARK INTRA:                   0.000
REMARK UNBOUND:                 0.000
REMARK SMILES O=c1ccc2ccccc2o1
REMARK SMILES IDX 7 1 8 2 9 3 10 4 5 5 6 6 4 7 3 8 2 9 1 10 11 11
REMARK H PARENT
REMARK Flexibility Score: inf
ROOT
ATOM      1  C   UNL     1      19.502  -0.857 -17.828  1.00  0.00     0.001 A 
ATOM      2  C   UNL     1      20.272   0.264 -17.499  1.00  0.00     0.004 A 
ATOM      3  C   UNL     1      21.036   0.906 -18.479  1.00  0.00     0.048 A 
ATOM      4  C   UNL     1      21.033   0.427 -19.794  1.00  0.00     0.138 A 
ATOM      5  C   UNL     1      20.257  -0.705 -20.127  1.00  0.00     0.018 A 
ATOM      6  C   UNL     1      19.492  -1.344 -19.139  1.00  0.00     0.012 A 
ATOM      7  C   UNL     1      20.274  -1.160 -21.449  1.00  0.00     0.019 A 
ATOM      8  C   UNL     1      21.050  -0.490 -22.393  1.00  0.00     0.094 A 
ATOM      9  C   UNL     1      21.795   0.626 -21.991  1.00  0.00     0.336 A 
ATOM     10  O   UNL     1      22.502   1.243 -22.829  1.00  0.00    -0.246 OA
ATOM     11  O   UNL     1      21.761   1.038 -20.726  1.00  0.00    -0.423 OA
ENDROOT
TORSDOF 0
ENDMDL
MODEL 4
REMARK VINA RESULT:    -4.733     15.762     17.824
REMARK INTER + INTRA:          -4.733
REMARK INTER:                  -4.733
REMARK INTRA:                   0.000
REMARK UNBOUND:                 0.000
REMARK SMILES O=c1ccc2ccccc2o1
REMARK SMILES IDX 7 1 8 2 9 3 10 4 5 5 6 6 4 7 3 8 2 9 1 10 11 11
REMARK H PARENT
REMARK Flexibility Score: inf
ROOT
ATOM      1  C   UNL     1      10.572  -5.615 -10.811  1.00  0.00     0.001 A 
ATOM      2  C   UNL     1      11.497  -6.060  -9.861  1.00  0.00     0.004 A 
ATOM      3  C   UNL     1      11.115  -6.212  -8.523  1.00  0.00     0.048 A 
ATOM      4  C   UNL     1       9.805  -5.917  -8.132  1.00  0.00     0.138 A 
ATOM      5  C   UNL     1       8.871  -5.467  -9.091  1.00  0.00     0.018 A 
ATOM      6  C   UNL     1       9.260  -5.317 -10.430  1.00  0.00     0.012 A 
ATOM      7  C   UNL     1       7.568  -5.180  -8.670  1.00  0.00     0.019 A 
ATOM      8  C   UNL     1       7.232  -5.345  -7.327  1.00  0.00     0.094 A 
ATOM      9  C   UNL     1       8.210  -5.796  -6.432  1.00  0.00     0.336 A 
ATOM     10  O   UNL     1       7.926  -5.950  -5.216  1.00  0.00    -0.246 OA
ATOM     11  O   UNL     1       9.442  -6.061  -6.859  1.00  0.00    -0.423 OA
ENDROOT
TORSDOF 0
ENDMDL
MODEL 5
REMARK VINA RESULT:    -4.669      2.037      3.965
REMARK INTER + INTRA:          -4.669
REMARK INTER:                  -4.669
REMARK INTRA:                   0.000
REMARK UNBOUND:                 0.000
REMARK SMILES O=c1ccc2ccccc2o1
REMARK SMILES IDX 7 1 8 2 9 3 10 4 5 5 6 6 4 7 3 8 2 9 1 10 11 11
REMARK H PARENT
REMARK Flexibility Score: inf
ROOT
ATOM      1  C   UNL     1      21.046  -0.467 -22.331  1.00  0.00     0.001 A 
ATOM      2  C   UNL     1      21.805   0.678 -22.066  1.00  0.00     0.004 A 
ATOM      3  C   UNL     1      21.851   1.209 -20.772  1.00  0.00     0.048 A 
ATOM      4  C   UNL     1      21.137   0.595 -19.738  1.00  0.00     0.138 A 
ATOM      5  C   UNL     1      20.370  -0.561 -20.005  1.00  0.00     0.018 A 
ATOM      6  C   UNL     1      20.329  -1.088 -21.304  1.00  0.00     0.012 A 
ATOM      7  C   UNL     1      19.667  -1.153 -18.951  1.00  0.00     0.019 A 
ATOM      8  C   UNL     1      19.742  -0.590 -17.677  1.00  0.00     0.094 A 
ATOM      9  C   UNL     1      20.522   0.557 -17.486  1.00  0.00     0.336 A 
ATOM     10  O   UNL     1      20.602   1.079 -16.345  1.00  0.00    -0.246 OA
ATOM     11  O   UNL     1      21.181   1.100 -18.507  1.00  0.00    -0.423 OA
ENDROOT
TORSDOF 0
ENDMDL
MODEL 6
REMARK VINA RESULT:    -4.657      2.834      4.433
REMARK INTER + INTRA:          -4.657
REMARK INTER:                  -4.657
REMARK INTRA:                   0.000
REMARK UNBOUND:                 0.000
REMARK SMILES O=c1ccc2ccccc2o1
REMARK SMILES IDX 7 1 8 2 9 3 10 4 5 5 6 6 4 7 3 8 2 9 1 10 11 11
REMARK H PARENT
REMARK Flexibility Score: inf
ROOT
ATOM      1  C   UNL     1      19.514  -1.297 -19.917  1.00  0.00     0.001 A 
ATOM      2  C   UNL     1      20.681  -0.527 -19.976  1.00  0.00     0.004 A 
ATOM      3  C   UNL     1      21.056   0.270 -18.889  1.00  0.00     0.048 A 
ATOM      4  C   UNL     1      20.262   0.300 -17.737  1.00  0.00     0.138 A 
ATOM      5  C   UNL     1      19.084  -0.476 -17.677  1.00  0.00     0.018 A 
ATOM      6  C   UNL     1      18.714  -1.274 -18.770  1.00  0.00     0.012 A 
ATOM      7  C   UNL     1      18.311  -0.426 -16.512  1.00  0.00     0.019 A 
ATOM      8  C   UNL     1      18.722   0.383 -15.453  1.00  0.00     0.094 A 
ATOM      9  C   UNL     1      19.902   1.125 -15.584  1.00  0.00     0.336 A 
ATOM     10  O   UNL     1      20.288   1.861 -14.639  1.00  0.00    -0.246 OA
ATOM     11  O   UNL     1      20.618   1.059 -16.703  1.00  0.00    -0.423 OA
ENDROOT
TORSDOF 0
ENDMDL
MODEL 7
REMARK VINA RESULT:    -4.626      6.340      8.517
REMARK INTER + INTRA:          -4.626
REMARK INTER:                  -4.626
REMARK INTRA:                   0.000
REMARK UNBOUND:                 0.000
REMARK SMILES O=c1ccc2ccccc2o1
REMARK SMILES IDX 7 1 8 2 9 3 10 4 5 5 6 6 4 7 3 8 2 9 1 10 11 11
REMARK H PARENT
REMARK Flexibility Score: inf
ROOT
ATOM      1  C   UNL     1      23.990  10.273 -18.530  1.00  0.00     0.001 A 
ATOM      2  C   UNL     1      23.022  10.391 -19.533  1.00  0.00     0.004 A 
ATOM      3  C   UNL     1      22.564   9.254 -20.208  1.00  0.00     0.048 A 
ATOM      4  C   UNL     1      23.075   7.994 -19.882  1.00  0.00     0.138 A 
ATOM      5  C   UNL     1      24.053   7.874 -18.870  1.00  0.00     0.018 A 
ATOM      6  C   UNL     1      24.507   9.017 -18.196  1.00  0.00     0.012 A 
ATOM      7  C   UNL     1      24.545   6.601 -18.565  1.00  0.00     0.019 A 
ATOM      8  C   UNL     1      24.061   5.495 -19.264  1.00  0.00     0.094 A 
ATOM      9  C   UNL     1      23.091   5.690 -20.255  1.00  0.00     0.336 A 
ATOM     10  O   UNL     1      22.643   4.705 -20.896  1.00  0.00    -0.246 OA
ATOM     11  O   UNL     1      22.640   6.912 -20.525  1.00  0.00    -0.423 OA
ENDROOT
TORSDOF 0
ENDMDL
MODEL 8
REMARK VINA RESULT:    -4.570     16.024     17.575
REMARK INTER + INTRA:          -4.570
REMARK INTER:                  -4.570
REMARK INTRA:                   0.000
REMARK UNBOUND:                 0.000
REMARK SMILES O=c1ccc2ccccc2o1
REMARK SMILES IDX 7 1 8 2 9 3 10 4 5 5 6 6 4 7 3 8 2 9 1 10 11 11
REMARK H PARENT
REMARK Flexibility Score: inf
ROOT
ATOM      1  C   UNL     1      14.864   4.976  -6.621  1.00  0.00     0.001 A 
ATOM      2  C   UNL     1      13.618   5.140  -7.237  1.00  0.00     0.004 A 
ATOM      3  C   UNL     1      12.463   4.628  -6.638  1.00  0.00     0.048 A 
ATOM      4  C   UNL     1      12.550   3.948  -5.419  1.00  0.00     0.138 A 
ATOM      5  C   UNL     1      13.806   3.781  -4.796  1.00  0.00     0.018 A 
ATOM      6  C   UNL     1      14.961   4.298  -5.402  1.00  0.00     0.012 A 
ATOM      7  C   UNL     1      13.862   3.097  -3.578  1.00  0.00     0.019 A 
ATOM      8  C   UNL     1      12.684   2.603  -3.017  1.00  0.00     0.094 A 
ATOM      9  C   UNL     1      11.474   2.805  -3.690  1.00  0.00     0.336 A 
ATOM     10  O   UNL     1      10.402   2.366  -3.201  1.00  0.00    -0.246 OA
ATOM     11  O   UNL     1      11.450   3.460  -4.849  1.00  0.00    -0.423 OA
ENDROOT
TORSDOF 0
ENDMDL
MODEL 9
REMARK VINA RESULT:    -4.526      7.282      7.441
REMARK INTER + INTRA:          -4.526
REMARK INTER:                  -4.526
REMARK INTRA:                   0.000
REMARK UNBOUND:                 0.000
REMARK SMILES O=c1ccc2ccccc2o1
REMARK SMILES IDX 7 1 8 2 9 3 10 4 5 5 6 6 4 7 3 8 2 9 1 10 11 11
REMARK H PARENT
REMARK Flexibility Score: inf
ROOT
ATOM      1  C   UNL     1      21.798   8.117 -18.107  1.00  0.00     0.001 A 
ATOM      2  C   UNL     1      21.082   8.390 -19.278  1.00  0.00     0.004 A 
ATOM      3  C   UNL     1      21.562   7.952 -20.516  1.00  0.00     0.048 A 
ATOM      4  C   UNL     1      22.763   7.238 -20.588  1.00  0.00     0.138 A 
ATOM      5  C   UNL     1      23.487   6.962 -19.407  1.00  0.00     0.018 A 
ATOM      6  C   UNL     1      22.999   7.404 -18.168  1.00  0.00     0.012 A 
ATOM      7  C   UNL     1      24.684   6.246 -19.510  1.00  0.00     0.019 A 
ATOM      8  C   UNL     1      25.125   5.828 -20.765  1.00  0.00     0.094 A 
ATOM      9  C   UNL     1      24.355   6.138 -21.893  1.00  0.00     0.336 A 
ATOM     10  O   UNL     1      24.738   5.770 -23.033  1.00  0.00    -0.246 OA
ATOM     11  O   UNL     1      23.220   6.821 -21.767  1.00  0.00    -0.423 OA
ENDROOT
TORSDOF 0
ENDMDL
