MODEL 1
REMARK VINA RESULT:    -8.309      0.000      0.000
REMARK INTER + INTRA:         -12.542
REMARK INTER:                 -12.195
REMARK INTRA:                  -0.347
REMARK UNBOUND:                -0.347
REMARK SMILES O=c1c(O[C@@H]2O[C@H](CO)[C@H](O)[C@H](O)[C@H]2O)c(-c2ccc(O)c(O)c2)oc2cc(O)cc(O)c12
REMARK SMILES IDX 4 1 3 2 16 3 25 4 2 5 26 6 1 7 33 8 27 9 31 10 28 11 30 12
REMARK SMILES IDX 17 13 18 14 19 15 20 16 24 17 22 18 21 19 23 21 32 23 29 25
REMARK SMILES IDX 5 27 14 28 6 29 12 30 7 31 10 32 15 33 13 35 8 37 9 38 11 40
REMARK H PARENT 21 20 23 22 32 24 29 26 15 34 13 36 9 39 11 41
REMARK Flexibility Score: inf
ROOT
ATOM      1  O   UNL     1       0.026 -46.520 -34.499  1.00  0.00    -0.454 OA
ENDROOT
BRANCH   1   2
ATOM      2  C   UNL     1      -0.327 -45.228 -34.942  1.00  0.00     0.214 A 
ATOM      3  C   UNL     1      -0.185 -44.931 -36.313  1.00  0.00     0.180 A 
ATOM      4  O   UNL     1      -0.580 -43.755 -36.790  1.00  0.00    -0.452 OA
ATOM      5  C   UNL     1      -0.848 -44.223 -34.092  1.00  0.00     0.239 A 
ATOM      6  C   UNL     1      -1.093 -42.795 -36.032  1.00  0.00     0.146 A 
ATOM      7  O   UNL     1      -0.960 -44.428 -32.855  1.00  0.00    -0.285 OA
ATOM      8  C   UNL     1      -1.242 -42.982 -34.639  1.00  0.00     0.111 A 
ATOM      9  C   UNL     1      -1.485 -41.593 -36.628  1.00  0.00     0.094 A 
ATOM     10  C   UNL     1      -1.782 -41.930 -33.857  1.00  0.00     0.134 A 
ATOM     11  C   UNL     1      -2.024 -40.562 -35.854  1.00  0.00     0.123 A 
ATOM     12  C   UNL     1      -2.167 -40.732 -34.475  1.00  0.00     0.093 A 
BRANCH   3  13
ATOM     13  C   UNL     1       0.362 -45.918 -37.271  1.00  0.00     0.025 A 
ATOM     14  C   UNL     1      -0.066 -45.897 -38.607  1.00  0.00     0.016 A 
ATOM     15  C   UNL     1       0.427 -46.829 -39.522  1.00  0.00     0.051 A 
ATOM     16  C   UNL     1       1.359 -47.791 -39.119  1.00  0.00     0.157 A 
ATOM     17  C   UNL     1       1.331 -46.856 -36.878  1.00  0.00     0.062 A 
ATOM     18  C   UNL     1       1.821 -47.801 -37.792  1.00  0.00     0.158 A 
BRANCH  16  19
ATOM     19  O   UNL     1       1.813 -48.726 -40.048  1.00  0.00    -0.504 OA
ATOM     20  H   UNL     1       2.232 -49.603 -39.765  1.00  0.00     0.293 HD
ENDBRANCH  16  19
BRANCH  18  21
ATOM     21  O   UNL     1       2.762 -48.744 -37.386  1.00  0.00    -0.504 OA
ATOM     22  H   UNL     1       2.613 -49.737 -37.525  1.00  0.00     0.293 HD
ENDBRANCH  18  21
ENDBRANCH   3  13
BRANCH  10  23
ATOM     23  O   UNL     1      -1.940 -42.066 -32.476  1.00  0.00    -0.507 OA
ATOM     24  H   UNL     1      -1.410 -42.747 -31.944  1.00  0.00     0.293 HD
ENDBRANCH  10  23
BRANCH  11  25
ATOM     25  O   UNL     1      -2.423 -39.364 -36.443  1.00  0.00    -0.508 OA
ATOM     26  H   UNL     1      -3.382 -39.040 -36.387  1.00  0.00     0.293 HD
ENDBRANCH  11  25
ENDBRANCH   1   2
BRANCH   1  27
ATOM     27  C   UNL     1      -0.269 -47.103 -33.228  1.00  0.00     0.339 C 
ATOM     28  C   UNL     1      -0.724 -48.570 -33.443  1.00  0.00     0.214 C 
ATOM     29  O   UNL     1       0.843 -46.925 -32.348  1.00  0.00    -0.332 OA
ATOM     30  C   UNL     1       0.455 -49.490 -33.842  1.00  0.00     0.180 C 
ATOM     31  C   UNL     1       1.583 -48.102 -32.059  1.00  0.00     0.179 C 
ATOM     32  C   UNL     1       1.813 -48.965 -33.318  1.00  0.00     0.177 C 
BRANCH  28  33
ATOM     33  O   UNL     1      -1.318 -49.058 -32.266  1.00  0.00    -0.384 OA
ATOM     34  H   UNL     1      -0.686 -48.873 -31.524  1.00  0.00     0.211 HD
ENDBRANCH  28  33
BRANCH  30  35
ATOM     35  O   UNL     1       0.489 -49.639 -35.240  1.00  0.00    -0.387 OA
ATOM     36  H   UNL     1       0.633 -50.605 -35.421  1.00  0.00     0.211 HD
ENDBRANCH  30  35
BRANCH  31  37
ATOM     37  C   UNL     1       2.915 -47.703 -31.408  1.00  0.00     0.191 C 
BRANCH  37  38
ATOM     38  O   UNL     1       3.893 -48.674 -31.663  1.00  0.00    -0.394 OA
ATOM     39  H   UNL     1       4.661 -48.202 -32.078  1.00  0.00     0.210 HD
ENDBRANCH  37  38
ENDBRANCH  31  37
BRANCH  32  40
ATOM     40  O   UNL     1       2.455 -48.203 -34.310  1.00  0.00    -0.387 OA
ATOM     41  H   UNL     1       2.645 -47.310 -33.921  1.00  0.00     0.211 HD
ENDBRANCH  32  40
ENDBRANCH   1  27
TORSDOF 12
ENDMDL
MODEL 2
REMARK VINA RESULT:    -8.176      2.221      3.307
REMARK INTER + INTRA:         -12.347
REMARK INTER:                 -10.809
REMARK INTRA:                  -1.538
REMARK UNBOUND:                -0.347
REMARK SMILES O=c1c(O[C@@H]2O[C@H](CO)[C@H](O)[C@H](O)[C@H]2O)c(-c2ccc(O)c(O)c2)oc2cc(O)cc(O)c12
REMARK SMILES IDX 4 1 3 2 16 3 25 4 2 5 26 6 1 7 33 8 27 9 31 10 28 11 30 12
REMARK SMILES IDX 17 13 18 14 19 15 20 16 24 17 22 18 21 19 23 21 32 23 29 25
REMARK SMILES IDX 5 27 14 28 6 29 12 30 7 31 10 32 15 33 13 35 8 37 9 38 11 40
REMARK H PARENT 21 20 23 22 32 24 29 26 15 34 13 36 9 39 11 41
REMARK Flexibility Score: inf
ROOT
ATOM      1  O   UNL     1       0.500 -46.153 -35.413  1.00  0.00    -0.454 OA
ENDROOT
BRANCH   1   2
ATOM      2  C   UNL     1      -0.438 -45.121 -35.200  1.00  0.00     0.214 A 
ATOM      3  C   UNL     1      -0.459 -44.041 -36.107  1.00  0.00     0.180 A 
ATOM      4  O   UNL     1      -1.377 -43.087 -35.994  1.00  0.00    -0.452 OA
ATOM      5  C   UNL     1      -1.384 -45.126 -34.147  1.00  0.00     0.239 A 
ATOM      6  C   UNL     1      -2.292 -43.066 -35.034  1.00  0.00     0.146 A 
ATOM      7  O   UNL     1      -1.381 -46.050 -33.292  1.00  0.00    -0.285 OA
ATOM      8  C   UNL     1      -2.332 -44.085 -34.055  1.00  0.00     0.111 A 
ATOM      9  C   UNL     1      -3.221 -42.021 -35.003  1.00  0.00     0.094 A 
ATOM     10  C   UNL     1      -3.316 -44.023 -33.038  1.00  0.00     0.134 A 
ATOM     11  C   UNL     1      -4.194 -41.969 -34.001  1.00  0.00     0.123 A 
ATOM     12  C   UNL     1      -4.237 -42.965 -33.023  1.00  0.00     0.093 A 
BRANCH   3  13
ATOM     13  C   UNL     1       0.501 -43.949 -37.231  1.00  0.00     0.025 A 
ATOM     14  C   UNL     1       0.344 -44.788 -38.344  1.00  0.00     0.016 A 
ATOM     15  C   UNL     1       1.248 -44.726 -39.407  1.00  0.00     0.051 A 
ATOM     16  C   UNL     1       2.315 -43.823 -39.377  1.00  0.00     0.157 A 
ATOM     17  C   UNL     1       1.547 -43.011 -37.221  1.00  0.00     0.062 A 
ATOM     18  C   UNL     1       2.462 -42.954 -38.283  1.00  0.00     0.158 A 
BRANCH  16  19
ATOM     19  O   UNL     1       3.217 -43.803 -40.440  1.00  0.00    -0.504 OA
ATOM     20  H   UNL     1       3.338 -42.985 -41.025  1.00  0.00     0.293 HD
ENDBRANCH  16  19
BRANCH  18  21
ATOM     21  O   UNL     1       3.512 -42.039 -38.252  1.00  0.00    -0.504 OA
ATOM     22  H   UNL     1       3.795 -41.527 -39.080  1.00  0.00     0.293 HD
ENDBRANCH  18  21
ENDBRANCH   3  13
BRANCH  10  23
ATOM     23  O   UNL     1      -3.389 -45.002 -32.045  1.00  0.00    -0.507 OA
ATOM     24  H   UNL     1      -2.640 -45.670 -31.899  1.00  0.00     0.293 HD
ENDBRANCH  10  23
BRANCH  11  25
ATOM     25  O   UNL     1      -5.126 -40.934 -33.967  1.00  0.00    -0.508 OA
ATOM     26  H   UNL     1      -5.854 -40.899 -33.261  1.00  0.00     0.293 HD
ENDBRANCH  11  25
ENDBRANCH   1   2
BRANCH   1  27
ATOM     27  C   UNL     1       0.256 -47.425 -36.018  1.00  0.00     0.339 C 
ATOM     28  C   UNL     1       1.615 -48.074 -36.389  1.00  0.00     0.214 C 
ATOM     29  O   UNL     1      -0.590 -48.205 -35.171  1.00  0.00    -0.332 OA
ATOM     30  C   UNL     1       2.383 -48.565 -35.138  1.00  0.00     0.180 C 
ATOM     31  C   UNL     1       0.046 -49.295 -34.518  1.00  0.00     0.179 C 
ATOM     32  C   UNL     1       1.434 -48.909 -33.964  1.00  0.00     0.177 C 
BRANCH  28  33
ATOM     33  O   UNL     1       1.401 -49.156 -37.259  1.00  0.00    -0.384 OA
ATOM     34  H   UNL     1       1.367 -49.976 -36.700  1.00  0.00     0.211 HD
ENDBRANCH  28  33
BRANCH  30  35
ATOM     35  O   UNL     1       3.322 -47.595 -34.746  1.00  0.00    -0.387 OA
ATOM     36  H   UNL     1       3.669 -47.876 -33.858  1.00  0.00     0.211 HD
ENDBRANCH  30  35
BRANCH  31  37
ATOM     37  C   UNL     1      -0.874 -49.808 -33.400  1.00  0.00     0.191 C 
BRANCH  37  38
ATOM     38  O   UNL     1      -1.120 -48.792 -32.466  1.00  0.00    -0.394 OA
ATOM     39  H   UNL     1      -0.694 -47.969 -32.821  1.00  0.00     0.210 HD
ENDBRANCH  37  38
ENDBRANCH  31  37
BRANCH  32  40
ATOM     40  O   UNL     1       1.315 -47.807 -33.097  1.00  0.00    -0.387 OA
ATOM     41  H   UNL     1       2.152 -47.756 -32.567  1.00  0.00     0.211 HD
ENDBRANCH  32  40
ENDBRANCH   1  27
TORSDOF 12
ENDMDL
MODEL 3
REMARK VINA RESULT:    -8.159      1.384      2.470
REMARK INTER + INTRA:         -12.322
REMARK INTER:                 -10.433
REMARK INTRA:                  -1.888
REMARK UNBOUND:                -0.347
REMARK SMILES O=c1c(O[C@@H]2O[C@H](CO)[C@H](O)[C@H](O)[C@H]2O)c(-c2ccc(O)c(O)c2)oc2cc(O)cc(O)c12
REMARK SMILES IDX 4 1 3 2 16 3 25 4 2 5 26 6 1 7 33 8 27 9 31 10 28 11 30 12
REMARK SMILES IDX 17 13 18 14 19 15 20 16 24 17 22 18 21 19 23 21 32 23 29 25
REMARK SMILES IDX 5 27 14 28 6 29 12 30 7 31 10 32 15 33 13 35 8 37 9 38 11 40
REMARK H PARENT 21 20 23 22 32 24 29 26 15 34 13 36 9 39 11 41
REMARK Flexibility Score: inf
ROOT
ATOM      1  O   UNL     1       0.968 -46.581 -35.447  1.00  0.00    -0.454 OA
ENDROOT
BRANCH   1   2
ATOM      2  C   UNL     1       0.216 -45.402 -35.632  1.00  0.00     0.214 A 
ATOM      3  C   UNL     1       0.142 -44.856 -36.930  1.00  0.00     0.180 A 
ATOM      4  O   UNL     1      -0.619 -43.792 -37.169  1.00  0.00    -0.452 OA
ATOM      5  C   UNL     1      -0.497 -44.756 -34.595  1.00  0.00     0.239 A 
ATOM      6  C   UNL     1      -1.319 -43.171 -36.230  1.00  0.00     0.146 A 
ATOM      7  O   UNL     1      -0.433 -45.184 -33.413  1.00  0.00    -0.285 OA
ATOM      8  C   UNL     1      -1.282 -43.620 -34.890  1.00  0.00     0.111 A 
ATOM      9  C   UNL     1      -2.095 -42.062 -36.581  1.00  0.00     0.094 A 
ATOM     10  C   UNL     1      -2.032 -42.923 -33.910  1.00  0.00     0.134 A 
ATOM     11  C   UNL     1      -2.840 -41.384 -35.612  1.00  0.00     0.123 A 
ATOM     12  C   UNL     1      -2.803 -41.813 -34.283  1.00  0.00     0.093 A 
BRANCH   3  13
ATOM     13  C   UNL     1       0.865 -45.460 -38.072  1.00  0.00     0.025 A 
ATOM     14  C   UNL     1       2.248 -45.264 -38.197  1.00  0.00     0.016 A 
ATOM     15  C   UNL     1       2.945 -45.813 -39.276  1.00  0.00     0.051 A 
ATOM     16  C   UNL     1       2.272 -46.570 -40.241  1.00  0.00     0.157 A 
ATOM     17  C   UNL     1       0.198 -46.258 -39.017  1.00  0.00     0.062 A 
ATOM     18  C   UNL     1       0.893 -46.803 -40.107  1.00  0.00     0.158 A 
BRANCH  16  19
ATOM     19  O   UNL     1       2.989 -47.083 -41.321  1.00  0.00    -0.504 OA
ATOM     20  H   UNL     1       3.178 -48.073 -41.418  1.00  0.00     0.293 HD
ENDBRANCH  16  19
BRANCH  18  21
ATOM     21  O   UNL     1       0.219 -47.570 -41.054  1.00  0.00    -0.504 OA
ATOM     22  H   UNL     1       0.541 -47.636 -42.013  1.00  0.00     0.293 HD
ENDBRANCH  18  21
ENDBRANCH   3  13
BRANCH  10  23
ATOM     23  O   UNL     1      -2.020 -43.325 -32.572  1.00  0.00    -0.507 OA
ATOM     24  H   UNL     1      -1.469 -44.116 -32.259  1.00  0.00     0.293 HD
ENDBRANCH  10  23
BRANCH  11  25
ATOM     25  O   UNL     1      -3.621 -40.283 -35.956  1.00  0.00    -0.508 OA
ATOM     26  H   UNL     1      -3.297 -39.592 -36.625  1.00  0.00     0.293 HD
ENDBRANCH  11  25
ENDBRANCH   1   2
BRANCH   1  27
ATOM     27  C   UNL     1       0.487 -47.926 -35.507  1.00  0.00     0.339 C 
ATOM     28  C   UNL     1       1.683 -48.896 -35.331  1.00  0.00     0.214 C 
ATOM     29  O   UNL     1      -0.586 -48.094 -34.578  1.00  0.00    -0.332 OA
ATOM     30  C   UNL     1       2.207 -48.912 -33.875  1.00  0.00     0.180 C 
ATOM     31  C   UNL     1      -0.279 -48.877 -33.433  1.00  0.00     0.179 C 
ATOM     32  C   UNL     1       1.109 -48.534 -32.852  1.00  0.00     0.177 C 
BRANCH  28  33
ATOM     33  O   UNL     1       1.297 -50.196 -35.702  1.00  0.00    -0.384 OA
ATOM     34  H   UNL     1       1.661 -50.813 -35.015  1.00  0.00     0.211 HD
ENDBRANCH  28  33
BRANCH  30  35
ATOM     35  O   UNL     1       3.310 -48.047 -33.758  1.00  0.00    -0.387 OA
ATOM     36  H   UNL     1       3.678 -47.928 -34.673  1.00  0.00     0.211 HD
ENDBRANCH  30  35
BRANCH  31  37
ATOM     37  C   UNL     1      -1.384 -48.678 -32.385  1.00  0.00     0.191 C 
BRANCH  37  38
ATOM     38  O   UNL     1      -1.816 -47.345 -32.379  1.00  0.00    -0.394 OA
ATOM     39  H   UNL     1      -2.182 -47.160 -33.282  1.00  0.00     0.210 HD
ENDBRANCH  37  38
ENDBRANCH  31  37
BRANCH  32  40
ATOM     40  O   UNL     1       1.177 -47.161 -32.551  1.00  0.00    -0.387 OA
ATOM     41  H   UNL     1       1.846 -47.050 -31.827  1.00  0.00     0.211 HD
ENDBRANCH  32  40
ENDBRANCH   1  27
TORSDOF 12
ENDMDL
MODEL 4
REMARK VINA RESULT:    -8.066      1.637      5.668
REMARK INTER + INTRA:         -12.185
REMARK INTER:                 -11.214
REMARK INTRA:                  -0.971
REMARK UNBOUND:                -0.347
REMARK SMILES O=c1c(O[C@@H]2O[C@H](CO)[C@H](O)[C@H](O)[C@H]2O)c(-c2ccc(O)c(O)c2)oc2cc(O)cc(O)c12
REMARK SMILES IDX 4 1 3 2 16 3 25 4 2 5 26 6 1 7 33 8 27 9 31 10 28 11 30 12
REMARK SMILES IDX 17 13 18 14 19 15 20 16 24 17 22 18 21 19 23 21 32 23 29 25
REMARK SMILES IDX 5 27 14 28 6 29 12 30 7 31 10 32 15 33 13 35 8 37 9 38 11 40
REMARK H PARENT 21 20 23 22 32 24 29 26 15 34 13 36 9 39 11 41
REMARK Flexibility Score: inf
ROOT
ATOM      1  O   UNL     1       1.400 -46.648 -34.325  1.00  0.00    -0.454 OA
ENDROOT
BRANCH   1   2
ATOM      2  C   UNL     1       1.103 -46.742 -35.700  1.00  0.00     0.214 A 
ATOM      3  C   UNL     1       0.103 -45.897 -36.226  1.00  0.00     0.180 A 
ATOM      4  O   UNL     1      -0.155 -45.893 -37.530  1.00  0.00    -0.452 OA
ATOM      5  C   UNL     1       1.777 -47.612 -36.591  1.00  0.00     0.239 A 
ATOM      6  C   UNL     1       0.468 -46.676 -38.400  1.00  0.00     0.146 A 
ATOM      7  O   UNL     1       2.652 -48.410 -36.163  1.00  0.00    -0.285 OA
ATOM      8  C   UNL     1       1.461 -47.585 -37.966  1.00  0.00     0.111 A 
ATOM      9  C   UNL     1       0.130 -46.594 -39.754  1.00  0.00     0.094 A 
ATOM     10  C   UNL     1       2.097 -48.416 -38.922  1.00  0.00     0.134 A 
ATOM     11  C   UNL     1       0.767 -47.411 -40.693  1.00  0.00     0.123 A 
ATOM     12  C   UNL     1       1.742 -48.319 -40.275  1.00  0.00     0.093 A 
BRANCH   3  13
ATOM     13  C   UNL     1      -0.660 -44.964 -35.366  1.00  0.00     0.025 A 
ATOM     14  C   UNL     1      -1.950 -45.314 -34.940  1.00  0.00     0.016 A 
ATOM     15  C   UNL     1      -2.691 -44.441 -34.141  1.00  0.00     0.051 A 
ATOM     16  C   UNL     1      -2.153 -43.210 -33.752  1.00  0.00     0.157 A 
ATOM     17  C   UNL     1      -0.104 -43.748 -34.937  1.00  0.00     0.062 A 
ATOM     18  C   UNL     1      -0.849 -42.864 -34.143  1.00  0.00     0.158 A 
BRANCH  16  19
ATOM     19  O   UNL     1      -2.927 -42.347 -32.977  1.00  0.00    -0.504 OA
ATOM     20  H   UNL     1      -2.761 -41.349 -32.958  1.00  0.00     0.293 HD
ENDBRANCH  16  19
BRANCH  18  21
ATOM     21  O   UNL     1      -0.299 -41.648 -33.745  1.00  0.00    -0.504 OA
ATOM     22  H   UNL     1      -0.395 -40.811 -34.309  1.00  0.00     0.293 HD
ENDBRANCH  18  21
ENDBRANCH   3  13
BRANCH  10  23
ATOM     23  O   UNL     1       3.078 -49.334 -38.540  1.00  0.00    -0.507 OA
ATOM     24  H   UNL     1       2.903 -50.036 -37.829  1.00  0.00     0.293 HD
ENDBRANCH  10  23
BRANCH  11  25
ATOM     25  O   UNL     1       0.439 -47.329 -42.045  1.00  0.00    -0.508 OA
ATOM     26  H   UNL     1       0.254 -46.438 -42.492  1.00  0.00     0.293 HD
ENDBRANCH  11  25
ENDBRANCH   1   2
BRANCH   1  27
ATOM     27  C   UNL     1       0.503 -46.874 -33.235  1.00  0.00     0.339 C 
ATOM     28  C   UNL     1      -0.211 -48.235 -33.445  1.00  0.00     0.214 C 
ATOM     29  O   UNL     1       1.205 -46.730 -31.998  1.00  0.00    -0.332 OA
ATOM     30  C   UNL     1       0.740 -49.432 -33.203  1.00  0.00     0.180 C 
ATOM     31  C   UNL     1       1.438 -47.939 -31.289  1.00  0.00     0.179 C 
ATOM     32  C   UNL     1       1.887 -49.081 -32.225  1.00  0.00     0.177 C 
BRANCH  28  33
ATOM     33  O   UNL     1      -1.311 -48.331 -32.577  1.00  0.00    -0.384 OA
ATOM     34  H   UNL     1      -1.400 -49.287 -32.326  1.00  0.00     0.211 HD
ENDBRANCH  28  33
BRANCH  30  35
ATOM     35  O   UNL     1       1.258 -49.882 -34.431  1.00  0.00    -0.387 OA
ATOM     36  H   UNL     1       0.545 -50.426 -34.858  1.00  0.00     0.211 HD
ENDBRANCH  30  35
BRANCH  31  37
ATOM     37  C   UNL     1       2.481 -47.677 -30.193  1.00  0.00     0.191 C 
BRANCH  37  38
ATOM     38  O   UNL     1       2.275 -46.417 -29.614  1.00  0.00    -0.394 OA
ATOM     39  H   UNL     1       2.089 -46.573 -28.652  1.00  0.00     0.210 HD
ENDBRANCH  37  38
ENDBRANCH  31  37
BRANCH  32  40
ATOM     40  O   UNL     1       3.034 -48.692 -32.940  1.00  0.00    -0.387 OA
ATOM     41  H   UNL     1       2.733 -48.367 -33.828  1.00  0.00     0.211 HD
ENDBRANCH  32  40
ENDBRANCH   1  27
TORSDOF 12
ENDMDL
MODEL 5
REMARK VINA RESULT:    -7.883      1.929      5.511
REMARK INTER + INTRA:         -11.916
REMARK INTER:                 -10.994
REMARK INTRA:                  -0.922
REMARK UNBOUND:                -0.347
REMARK SMILES O=c1c(O[C@@H]2O[C@H](CO)[C@H](O)[C@H](O)[C@H]2O)c(-c2ccc(O)c(O)c2)oc2cc(O)cc(O)c12
REMARK SMILES IDX 4 1 3 2 16 3 25 4 2 5 26 6 1 7 33 8 27 9 31 10 28 11 30 12
REMARK SMILES IDX 17 13 18 14 19 15 20 16 24 17 22 18 21 19 23 21 32 23 29 25
REMARK SMILES IDX 5 27 14 28 6 29 12 30 7 31 10 32 15 33 13 35 8 37 9 38 11 40
REMARK H PARENT 21 20 23 22 32 24 29 26 15 34 13 36 9 39 11 41
REMARK Flexibility Score: inf
ROOT
ATOM      1  O   UNL     1      -0.100 -47.187 -35.854  1.00  0.00    -0.454 OA
ENDROOT
BRANCH   1   2
ATOM      2  C   UNL     1       0.394 -46.433 -36.939  1.00  0.00     0.214 A 
ATOM      3  C   UNL     1       0.139 -45.046 -36.958  1.00  0.00     0.180 A 
ATOM      4  O   UNL     1       0.651 -44.281 -37.918  1.00  0.00    -0.452 OA
ATOM      5  C   UNL     1       1.163 -46.984 -37.992  1.00  0.00     0.239 A 
ATOM      6  C   UNL     1       1.393 -44.755 -38.910  1.00  0.00     0.146 A 
ATOM      7  O   UNL     1       1.387 -48.221 -38.038  1.00  0.00    -0.285 OA
ATOM      8  C   UNL     1       1.676 -46.138 -38.999  1.00  0.00     0.111 A 
ATOM      9  C   UNL     1       1.893 -43.870 -39.869  1.00  0.00     0.094 A 
ATOM     10  C   UNL     1       2.461 -46.611 -40.080  1.00  0.00     0.134 A 
ATOM     11  C   UNL     1       2.673 -44.341 -40.928  1.00  0.00     0.123 A 
ATOM     12  C   UNL     1       2.951 -45.705 -41.032  1.00  0.00     0.093 A 
BRANCH   3  13
ATOM     13  C   UNL     1      -0.665 -44.387 -35.904  1.00  0.00     0.025 A 
ATOM     14  C   UNL     1      -2.001 -44.771 -35.711  1.00  0.00     0.016 A 
ATOM     15  C   UNL     1      -2.779 -44.150 -34.731  1.00  0.00     0.051 A 
ATOM     16  C   UNL     1      -2.234 -43.144 -33.928  1.00  0.00     0.157 A 
ATOM     17  C   UNL     1      -0.106 -43.408 -35.066  1.00  0.00     0.062 A 
ATOM     18  C   UNL     1      -0.888 -42.775 -34.088  1.00  0.00     0.158 A 
BRANCH  16  19
ATOM     19  O   UNL     1      -3.043 -42.523 -32.976  1.00  0.00    -0.504 OA
ATOM     20  H   UNL     1      -3.983 -42.845 -32.780  1.00  0.00     0.293 HD
ENDBRANCH  16  19
BRANCH  18  21
ATOM     21  O   UNL     1      -0.332 -41.786 -33.280  1.00  0.00    -0.504 OA
ATOM     22  H   UNL     1       0.161 -42.013 -32.425  1.00  0.00     0.293 HD
ENDBRANCH  18  21
ENDBRANCH   3  13
BRANCH  10  23
ATOM     23  O   UNL     1       2.759 -47.968 -40.215  1.00  0.00    -0.507 OA
ATOM     24  H   UNL     1       2.880 -48.570 -39.407  1.00  0.00     0.293 HD
ENDBRANCH  10  23
BRANCH  11  25
ATOM     25  O   UNL     1       3.180 -43.462 -41.884  1.00  0.00    -0.508 OA
ATOM     26  H   UNL     1       3.367 -43.764 -42.834  1.00  0.00     0.293 HD
ENDBRANCH  11  25
ENDBRANCH   1   2
BRANCH   1  27
ATOM     27  C   UNL     1       0.120 -46.938 -34.464  1.00  0.00     0.339 C 
ATOM     28  C   UNL     1      -0.675 -47.981 -33.636  1.00  0.00     0.214 C 
ATOM     29  O   UNL     1       1.524 -46.882 -34.202  1.00  0.00    -0.332 OA
ATOM     30  C   UNL     1      -0.039 -49.389 -33.713  1.00  0.00     0.180 C 
ATOM     31  C   UNL     1       2.051 -47.989 -33.485  1.00  0.00     0.179 C 
ATOM     32  C   UNL     1       1.482 -49.332 -33.993  1.00  0.00     0.177 C 
BRANCH  28  33
ATOM     33  O   UNL     1      -0.737 -47.570 -32.293  1.00  0.00    -0.384 OA
ATOM     34  H   UNL     1      -1.620 -47.858 -31.942  1.00  0.00     0.211 HD
ENDBRANCH  28  33
BRANCH  30  35
ATOM     35  O   UNL     1      -0.694 -50.152 -34.696  1.00  0.00    -0.387 OA
ATOM     36  H   UNL     1      -0.617 -51.103 -34.418  1.00  0.00     0.211 HD
ENDBRANCH  30  35
BRANCH  31  37
ATOM     37  C   UNL     1       3.583 -47.962 -33.587  1.00  0.00     0.191 C 
BRANCH  37  38
ATOM     38  O   UNL     1       3.982 -47.924 -34.931  1.00  0.00    -0.394 OA
ATOM     39  H   UNL     1       4.836 -48.425 -34.987  1.00  0.00     0.210 HD
ENDBRANCH  37  38
ENDBRANCH  31  37
BRANCH  32  40
ATOM     40  O   UNL     1       1.728 -49.466 -35.372  1.00  0.00    -0.387 OA
ATOM     41  H   UNL     1       2.499 -48.881 -35.593  1.00  0.00     0.211 HD
ENDBRANCH  32  40
ENDBRANCH   1  27
TORSDOF 12
ENDMDL
MODEL 6
REMARK VINA RESULT:    -7.850      2.371      6.384
REMARK INTER + INTRA:         -11.868
REMARK INTER:                 -10.767
REMARK INTRA:                  -1.101
REMARK UNBOUND:                -0.347
REMARK SMILES O=c1c(O[C@@H]2O[C@H](CO)[C@H](O)[C@H](O)[C@H]2O)c(-c2ccc(O)c(O)c2)oc2cc(O)cc(O)c12
REMARK SMILES IDX 4 1 3 2 16 3 25 4 2 5 26 6 1 7 33 8 27 9 31 10 28 11 30 12
REMARK SMILES IDX 17 13 18 14 19 15 20 16 24 17 22 18 21 19 23 21 32 23 29 25
REMARK SMILES IDX 5 27 14 28 6 29 12 30 7 31 10 32 15 33 13 35 8 37 9 38 11 40
REMARK H PARENT 21 20 23 22 32 24 29 26 15 34 13 36 9 39 11 41
REMARK Flexibility Score: inf
ROOT
ATOM      1  O   UNL     1      -0.210 -43.341 -36.351  1.00  0.00    -0.454 OA
ENDROOT
BRANCH   1   2
ATOM      2  C   UNL     1      -0.018 -44.723 -36.141  1.00  0.00     0.214 A 
ATOM      3  C   UNL     1       0.775 -45.434 -37.066  1.00  0.00     0.180 A 
ATOM      4  O   UNL     1       1.049 -46.720 -36.867  1.00  0.00    -0.452 OA
ATOM      5  C   UNL     1      -0.548 -45.429 -35.035  1.00  0.00     0.239 A 
ATOM      6  C   UNL     1       0.589 -47.412 -35.833  1.00  0.00     0.146 A 
ATOM      7  O   UNL     1      -1.291 -44.847 -34.203  1.00  0.00    -0.285 OA
ATOM      8  C   UNL     1      -0.244 -46.798 -34.870  1.00  0.00     0.111 A 
ATOM      9  C   UNL     1       0.939 -48.759 -35.707  1.00  0.00     0.094 A 
ATOM     10  C   UNL     1      -0.727 -47.571 -33.785  1.00  0.00     0.134 A 
ATOM     11  C   UNL     1       0.466 -49.515 -34.631  1.00  0.00     0.123 A 
ATOM     12  C   UNL     1      -0.366 -48.922 -33.678  1.00  0.00     0.093 A 
BRANCH   3  13
ATOM     13  C   UNL     1       1.360 -44.778 -38.257  1.00  0.00     0.025 A 
ATOM     14  C   UNL     1       1.176 -45.353 -39.524  1.00  0.00     0.016 A 
ATOM     15  C   UNL     1       1.733 -44.757 -40.657  1.00  0.00     0.051 A 
ATOM     16  C   UNL     1       2.476 -43.577 -40.544  1.00  0.00     0.157 A 
ATOM     17  C   UNL     1       2.068 -43.570 -38.150  1.00  0.00     0.062 A 
ATOM     18  C   UNL     1       2.637 -42.974 -39.285  1.00  0.00     0.158 A 
BRANCH  16  19
ATOM     19  O   UNL     1       3.043 -43.020 -41.689  1.00  0.00    -0.504 OA
ATOM     20  H   UNL     1       2.562 -42.319 -42.238  1.00  0.00     0.293 HD
ENDBRANCH  16  19
BRANCH  18  21
ATOM     21  O   UNL     1       3.361 -41.789 -39.165  1.00  0.00    -0.504 OA
ATOM     22  H   UNL     1       3.737 -41.485 -38.275  1.00  0.00     0.293 HD
ENDBRANCH  18  21
ENDBRANCH   3  13
BRANCH  10  23
ATOM     23  O   UNL     1      -1.559 -47.011 -32.814  1.00  0.00    -0.507 OA
ATOM     24  H   UNL     1      -1.788 -46.023 -32.815  1.00  0.00     0.293 HD
ENDBRANCH  10  23
BRANCH  11  25
ATOM     25  O   UNL     1       0.816 -50.857 -34.495  1.00  0.00    -0.508 OA
ATOM     26  H   UNL     1       1.760 -51.179 -34.679  1.00  0.00     0.293 HD
ENDBRANCH  11  25
ENDBRANCH   1   2
BRANCH   1  27
ATOM     27  C   UNL     1       0.510 -42.271 -35.735  1.00  0.00     0.339 C 
ATOM     28  C   UNL     1       0.062 -40.931 -36.375  1.00  0.00     0.214 C 
ATOM     29  O   UNL     1       0.371 -42.353 -34.315  1.00  0.00    -0.332 OA
ATOM     30  C   UNL     1      -1.365 -40.526 -35.932  1.00  0.00     0.180 C 
ATOM     31  C   UNL     1      -0.453 -41.357 -33.728  1.00  0.00     0.179 C 
ATOM     32  C   UNL     1      -1.738 -41.110 -34.548  1.00  0.00     0.177 C 
BRANCH  28  33
ATOM     33  O   UNL     1       0.966 -39.914 -36.024  1.00  0.00    -0.384 OA
ATOM     34  H   UNL     1       1.232 -39.460 -36.866  1.00  0.00     0.211 HD
ENDBRANCH  28  33
BRANCH  30  35
ATOM     35  O   UNL     1      -2.297 -40.927 -36.905  1.00  0.00    -0.387 OA
ATOM     36  H   UNL     1      -2.712 -41.766 -36.573  1.00  0.00     0.211 HD
ENDBRANCH  30  35
BRANCH  31  37
ATOM     37  C   UNL     1      -0.786 -41.774 -32.288  1.00  0.00     0.191 C 
BRANCH  37  38
ATOM     38  O   UNL     1      -0.742 -43.169 -32.161  1.00  0.00    -0.394 OA
ATOM     39  H   UNL     1      -0.492 -43.361 -31.220  1.00  0.00     0.210 HD
ENDBRANCH  37  38
ENDBRANCH  31  37
BRANCH  32  40
ATOM     40  O   UNL     1      -2.446 -42.315 -34.704  1.00  0.00    -0.387 OA
ATOM     41  H   UNL     1      -2.403 -42.798 -33.838  1.00  0.00     0.211 HD
ENDBRANCH  32  40
ENDBRANCH   1  27
TORSDOF 12
ENDMDL
MODEL 7
REMARK VINA RESULT:    -7.839      2.037      7.013
REMARK INTER + INTRA:         -11.852
REMARK INTER:                 -10.392
REMARK INTRA:                  -1.459
REMARK UNBOUND:                -0.347
REMARK SMILES O=c1c(O[C@@H]2O[C@H](CO)[C@H](O)[C@H](O)[C@H]2O)c(-c2ccc(O)c(O)c2)oc2cc(O)cc(O)c12
REMARK SMILES IDX 4 1 3 2 16 3 25 4 2 5 26 6 1 7 33 8 27 9 31 10 28 11 30 12
REMARK SMILES IDX 17 13 18 14 19 15 20 16 24 17 22 18 21 19 23 21 32 23 29 25
REMARK SMILES IDX 5 27 14 28 6 29 12 30 7 31 10 32 15 33 13 35 8 37 9 38 11 40
REMARK H PARENT 21 20 23 22 32 24 29 26 15 34 13 36 9 39 11 41
REMARK Flexibility Score: inf
ROOT
ATOM      1  O   UNL     1       1.373 -45.072 -37.344  1.00  0.00    -0.454 OA
ENDROOT
BRANCH   1   2
ATOM      2  C   UNL     1       0.785 -45.757 -36.260  1.00  0.00     0.214 A 
ATOM      3  C   UNL     1      -0.152 -45.066 -35.464  1.00  0.00     0.180 A 
ATOM      4  O   UNL     1      -0.791 -45.694 -34.481  1.00  0.00    -0.452 OA
ATOM      5  C   UNL     1       1.057 -47.110 -35.947  1.00  0.00     0.239 A 
ATOM      6  C   UNL     1      -0.581 -46.965 -34.170  1.00  0.00     0.146 A 
ATOM      7  O   UNL     1       1.912 -47.758 -36.605  1.00  0.00    -0.285 OA
ATOM      8  C   UNL     1       0.366 -47.734 -34.885  1.00  0.00     0.111 A 
ATOM      9  C   UNL     1      -1.307 -47.538 -33.122  1.00  0.00     0.094 A 
ATOM     10  C   UNL     1       0.574 -49.086 -34.516  1.00  0.00     0.134 A 
ATOM     11  C   UNL     1      -1.104 -48.875 -32.768  1.00  0.00     0.123 A 
ATOM     12  C   UNL     1      -0.164 -49.641 -33.461  1.00  0.00     0.093 A 
BRANCH   3  13
ATOM     13  C   UNL     1      -0.489 -43.646 -35.712  1.00  0.00     0.025 A 
ATOM     14  C   UNL     1      -1.830 -43.236 -35.675  1.00  0.00     0.016 A 
ATOM     15  C   UNL     1      -2.168 -41.904 -35.922  1.00  0.00     0.051 A 
ATOM     16  C   UNL     1      -1.174 -40.962 -36.203  1.00  0.00     0.157 A 
ATOM     17  C   UNL     1       0.513 -42.690 -35.950  1.00  0.00     0.062 A 
ATOM     18  C   UNL     1       0.175 -41.353 -36.208  1.00  0.00     0.158 A 
BRANCH  16  19
ATOM     19  O   UNL     1      -1.544 -39.645 -36.472  1.00  0.00    -0.504 OA
ATOM     20  H   UNL     1      -0.866 -38.895 -36.510  1.00  0.00     0.293 HD
ENDBRANCH  16  19
BRANCH  18  21
ATOM     21  O   UNL     1       1.174 -40.418 -36.470  1.00  0.00    -0.504 OA
ATOM     22  H   UNL     1       1.831 -40.541 -37.232  1.00  0.00     0.293 HD
ENDBRANCH  18  21
ENDBRANCH   3  13
BRANCH  10  23
ATOM     23  O   UNL     1       1.504 -49.882 -35.189  1.00  0.00    -0.507 OA
ATOM     24  H   UNL     1       1.494 -49.976 -36.198  1.00  0.00     0.293 HD
ENDBRANCH  10  23
BRANCH  11  25
ATOM     25  O   UNL     1      -1.829 -49.454 -31.729  1.00  0.00    -0.508 OA
ATOM     26  H   UNL     1      -1.415 -49.609 -30.816  1.00  0.00     0.293 HD
ENDBRANCH  11  25
ENDBRANCH   1   2
BRANCH   1  27
ATOM     27  C   UNL     1       0.942 -45.090 -38.707  1.00  0.00     0.339 C 
ATOM     28  C   UNL     1       1.829 -44.117 -39.526  1.00  0.00     0.214 C 
ATOM     29  O   UNL     1       0.904 -46.438 -39.180  1.00  0.00    -0.332 OA
ATOM     30  C   UNL     1       3.258 -44.673 -39.736  1.00  0.00     0.180 C 
ATOM     31  C   UNL     1       1.921 -46.782 -40.111  1.00  0.00     0.179 C 
ATOM     32  C   UNL     1       3.298 -46.219 -39.698  1.00  0.00     0.177 C 
BRANCH  28  33
ATOM     33  O   UNL     1       1.234 -43.874 -40.776  1.00  0.00    -0.384 OA
ATOM     34  H   UNL     1       0.346 -44.317 -40.765  1.00  0.00     0.211 HD
ENDBRANCH  28  33
BRANCH  30  35
ATOM     35  O   UNL     1       4.125 -44.132 -38.770  1.00  0.00    -0.387 OA
ATOM     36  H   UNL     1       4.206 -44.810 -38.048  1.00  0.00     0.211 HD
ENDBRANCH  30  35
BRANCH  31  37
ATOM     37  C   UNL     1       1.966 -48.311 -40.252  1.00  0.00     0.191 C 
BRANCH  37  38
ATOM     38  O   UNL     1       1.457 -48.923 -39.099  1.00  0.00    -0.394 OA
ATOM     39  H   UNL     1       1.146 -48.193 -38.503  1.00  0.00     0.210 HD
ENDBRANCH  37  38
ENDBRANCH  31  37
BRANCH  32  40
ATOM     40  O   UNL     1       3.631 -46.665 -38.406  1.00  0.00    -0.387 OA
ATOM     41  H   UNL     1       4.495 -46.244 -38.161  1.00  0.00     0.211 HD
ENDBRANCH  32  40
ENDBRANCH   1  27
TORSDOF 12
ENDMDL
MODEL 8
REMARK VINA RESULT:    -7.817      2.128      5.984
REMARK INTER + INTRA:         -11.819
REMARK INTER:                 -10.793
REMARK INTRA:                  -1.026
REMARK UNBOUND:                -0.347
REMARK SMILES O=c1c(O[C@@H]2O[C@H](CO)[C@H](O)[C@H](O)[C@H]2O)c(-c2ccc(O)c(O)c2)oc2cc(O)cc(O)c12
REMARK SMILES IDX 4 1 3 2 16 3 25 4 2 5 26 6 1 7 33 8 27 9 31 10 28 11 30 12
REMARK SMILES IDX 17 13 18 14 19 15 20 16 24 17 22 18 21 19 23 21 32 23 29 25
REMARK SMILES IDX 5 27 14 28 6 29 12 30 7 31 10 32 15 33 13 35 8 37 9 38 11 40
REMARK H PARENT 21 20 23 22 32 24 29 26 15 34 13 36 9 39 11 41
REMARK Flexibility Score: inf
ROOT
ATOM      1  O   UNL     1       1.098 -46.766 -35.990  1.00  0.00    -0.454 OA
ENDROOT
BRANCH   1   2
ATOM      2  C   UNL     1       1.400 -46.191 -37.242  1.00  0.00     0.214 A 
ATOM      3  C   UNL     1       0.939 -44.884 -37.504  1.00  0.00     0.180 A 
ATOM      4  O   UNL     1       1.266 -44.271 -38.638  1.00  0.00    -0.452 OA
ATOM      5  C   UNL     1       2.169 -46.839 -38.238  1.00  0.00     0.239 A 
ATOM      6  C   UNL     1       2.002 -44.836 -39.586  1.00  0.00     0.146 A 
ATOM      7  O   UNL     1       2.572 -48.019 -38.066  1.00  0.00    -0.285 OA
ATOM      8  C   UNL     1       2.481 -46.157 -39.434  1.00  0.00     0.111 A 
ATOM      9  C   UNL     1       2.298 -44.106 -40.741  1.00  0.00     0.094 A 
ATOM     10  C   UNL     1       3.253 -46.733 -40.474  1.00  0.00     0.134 A 
ATOM     11  C   UNL     1       3.066 -44.676 -41.760  1.00  0.00     0.123 A 
ATOM     12  C   UNL     1       3.537 -45.985 -41.625  1.00  0.00     0.093 A 
BRANCH   3  13
ATOM     13  C   UNL     1       0.119 -44.136 -36.524  1.00  0.00     0.025 A 
ATOM     14  C   UNL     1       0.513 -42.848 -36.133  1.00  0.00     0.016 A 
ATOM     15  C   UNL     1      -0.239 -42.133 -35.198  1.00  0.00     0.051 A 
ATOM     16  C   UNL     1      -1.397 -42.690 -34.647  1.00  0.00     0.157 A 
ATOM     17  C   UNL     1      -1.068 -44.677 -36.003  1.00  0.00     0.062 A 
ATOM     18  C   UNL     1      -1.820 -43.965 -35.057  1.00  0.00     0.158 A 
BRANCH  16  19
ATOM     19  O   UNL     1      -2.112 -41.964 -33.696  1.00  0.00    -0.504 OA
ATOM     20  H   UNL     1      -1.863 -41.974 -32.715  1.00  0.00     0.293 HD
ENDBRANCH  16  19
BRANCH  18  21
ATOM     21  O   UNL     1      -2.982 -44.521 -34.525  1.00  0.00    -0.504 OA
ATOM     22  H   UNL     1      -3.224 -45.493 -34.679  1.00  0.00     0.293 HD
ENDBRANCH  18  21
ENDBRANCH   3  13
BRANCH  10  23
ATOM     23  O   UNL     1       3.741 -48.037 -40.372  1.00  0.00    -0.507 OA
ATOM     24  H   UNL     1       3.122 -48.840 -40.395  1.00  0.00     0.293 HD
ENDBRANCH  10  23
BRANCH  11  25
ATOM     25  O   UNL     1       3.371 -43.953 -42.912  1.00  0.00    -0.508 OA
ATOM     26  H   UNL     1       4.275 -43.510 -43.035  1.00  0.00     0.293 HD
ENDBRANCH  11  25
ENDBRANCH   1   2
BRANCH   1  27
ATOM     27  C   UNL     1       0.535 -48.058 -35.750  1.00  0.00     0.339 C 
ATOM     28  C   UNL     1       1.651 -49.006 -35.242  1.00  0.00     0.214 C 
ATOM     29  O   UNL     1      -0.605 -47.933 -34.898  1.00  0.00    -0.332 OA
ATOM     30  C   UNL     1       2.076 -48.676 -33.791  1.00  0.00     0.180 C 
ATOM     31  C   UNL     1      -0.426 -48.413 -33.573  1.00  0.00     0.179 C 
ATOM     32  C   UNL     1       0.940 -47.999 -32.986  1.00  0.00     0.177 C 
BRANCH  28  33
ATOM     33  O   UNL     1       1.206 -50.338 -35.305  1.00  0.00    -0.384 OA
ATOM     34  H   UNL     1       0.284 -50.318 -35.673  1.00  0.00     0.211 HD
ENDBRANCH  28  33
BRANCH  30  35
ATOM     35  O   UNL     1       3.223 -47.863 -33.806  1.00  0.00    -0.387 OA
ATOM     36  H   UNL     1       3.605 -47.891 -32.889  1.00  0.00     0.211 HD
ENDBRANCH  30  35
BRANCH  31  37
ATOM     37  C   UNL     1      -1.582 -47.902 -32.700  1.00  0.00     0.191 C 
BRANCH  37  38
ATOM     38  O   UNL     1      -1.698 -46.510 -32.810  1.00  0.00    -0.394 OA
ATOM     39  H   UNL     1      -2.563 -46.332 -33.262  1.00  0.00     0.210 HD
ENDBRANCH  37  38
ENDBRANCH  31  37
BRANCH  32  40
ATOM     40  O   UNL     1       1.078 -46.600 -33.034  1.00  0.00    -0.387 OA
ATOM     41  H   UNL     1       0.989 -46.262 -32.105  1.00  0.00     0.211 HD
ENDBRANCH  32  40
ENDBRANCH   1  27
TORSDOF 12
ENDMDL
MODEL 9
REMARK VINA RESULT:    -7.782      2.200      6.465
REMARK INTER + INTRA:         -11.767
REMARK INTER:                 -10.804
REMARK INTRA:                  -0.964
REMARK UNBOUND:                -0.347
REMARK SMILES O=c1c(O[C@@H]2O[C@H](CO)[C@H](O)[C@H](O)[C@H]2O)c(-c2ccc(O)c(O)c2)oc2cc(O)cc(O)c12
REMARK SMILES IDX 4 1 3 2 16 3 25 4 2 5 26 6 1 7 33 8 27 9 31 10 28 11 30 12
REMARK SMILES IDX 17 13 18 14 19 15 20 16 24 17 22 18 21 19 23 21 32 23 29 25
REMARK SMILES IDX 5 27 14 28 6 29 12 30 7 31 10 32 15 33 13 35 8 37 9 38 11 40
REMARK H PARENT 21 20 23 22 32 24 29 26 15 34 13 36 9 39 11 41
REMARK Flexibility Score: inf
ROOT
ATOM      1  O   UNL     1      -0.073 -43.958 -35.626  1.00  0.00    -0.454 OA
ENDROOT
BRANCH   1   2
ATOM      2  C   UNL     1      -0.006 -45.365 -35.563  1.00  0.00     0.214 A 
ATOM      3  C   UNL     1       0.601 -46.053 -36.634  1.00  0.00     0.180 A 
ATOM      4  O   UNL     1       0.759 -47.372 -36.583  1.00  0.00    -0.452 OA
ATOM      5  C   UNL     1      -0.483 -46.125 -34.468  1.00  0.00     0.239 A 
ATOM      6  C   UNL     1       0.345 -48.117 -35.567  1.00  0.00     0.146 A 
ATOM      7  O   UNL     1      -1.065 -45.561 -33.505  1.00  0.00    -0.285 OA
ATOM      8  C   UNL     1      -0.308 -47.526 -34.461  1.00  0.00     0.111 A 
ATOM      9  C   UNL     1       0.562 -49.497 -35.602  1.00  0.00     0.094 A 
ATOM     10  C   UNL     1      -0.749 -48.354 -33.399  1.00  0.00     0.134 A 
ATOM     11  C   UNL     1       0.133 -50.309 -34.548  1.00  0.00     0.123 A 
ATOM     12  C   UNL     1      -0.522 -49.737 -33.455  1.00  0.00     0.093 A 
BRANCH   3  13
ATOM     13  C   UNL     1       1.118 -45.340 -37.824  1.00  0.00     0.025 A 
ATOM     14  C   UNL     1       1.010 -45.937 -39.089  1.00  0.00     0.016 A 
ATOM     15  C   UNL     1       1.505 -45.286 -40.222  1.00  0.00     0.051 A 
ATOM     16  C   UNL     1       2.109 -44.030 -40.108  1.00  0.00     0.157 A 
ATOM     17  C   UNL     1       1.685 -44.059 -37.718  1.00  0.00     0.062 A 
ATOM     18  C   UNL     1       2.192 -43.408 -38.852  1.00  0.00     0.158 A 
BRANCH  16  19
ATOM     19  O   UNL     1       2.619 -43.418 -41.252  1.00  0.00    -0.504 OA
ATOM     20  H   UNL     1       3.520 -43.669 -41.639  1.00  0.00     0.293 HD
ENDBRANCH  16  19
BRANCH  18  21
ATOM     21  O   UNL     1       2.777 -42.149 -38.732  1.00  0.00    -0.504 OA
ATOM     22  H   UNL     1       3.595 -41.889 -39.272  1.00  0.00     0.293 HD
ENDBRANCH  18  21
ENDBRANCH   3  13
BRANCH  10  23
ATOM     23  O   UNL     1      -1.406 -47.817 -32.290  1.00  0.00    -0.507 OA
ATOM     24  H   UNL     1      -2.205 -47.201 -32.391  1.00  0.00     0.293 HD
ENDBRANCH  10  23
BRANCH  11  25
ATOM     25  O   UNL     1       0.352 -51.684 -34.574  1.00  0.00    -0.508 OA
ATOM     26  H   UNL     1       1.038 -52.123 -33.969  1.00  0.00     0.293 HD
ENDBRANCH  11  25
ENDBRANCH   1   2
BRANCH   1  27
ATOM     27  C   UNL     1      -1.216 -43.165 -35.953  1.00  0.00     0.339 C 
ATOM     28  C   UNL     1      -2.070 -42.963 -34.674  1.00  0.00     0.214 C 
ATOM     29  O   UNL     1      -0.798 -41.968 -36.612  1.00  0.00    -0.332 OA
ATOM     30  C   UNL     1      -1.399 -41.986 -33.678  1.00  0.00     0.180 C 
ATOM     31  C   UNL     1      -0.924 -40.779 -35.845  1.00  0.00     0.179 C 
ATOM     32  C   UNL     1      -0.461 -40.978 -34.386  1.00  0.00     0.177 C 
BRANCH  28  33
ATOM     33  O   UNL     1      -3.339 -42.472 -35.025  1.00  0.00    -0.384 OA
ATOM     34  H   UNL     1      -3.820 -42.281 -34.178  1.00  0.00     0.211 HD
ENDBRANCH  28  33
BRANCH  30  35
ATOM     35  O   UNL     1      -0.695 -42.714 -32.701  1.00  0.00    -0.387 OA
ATOM     36  H   UNL     1      -0.310 -42.048 -32.073  1.00  0.00     0.211 HD
ENDBRANCH  30  35
BRANCH  31  37
ATOM     37  C   UNL     1      -0.128 -39.660 -36.531  1.00  0.00     0.191 C 
BRANCH  37  38
ATOM     38  O   UNL     1       1.111 -40.143 -36.975  1.00  0.00    -0.394 OA
ATOM     39  H   UNL     1       1.365 -40.879 -36.360  1.00  0.00     0.210 HD
ENDBRANCH  37  38
ENDBRANCH  31  37
BRANCH  32  40
ATOM     40  O   UNL     1       0.864 -41.449 -34.364  1.00  0.00    -0.387 OA
ATOM     41  H   UNL     1       0.900 -42.201 -33.717  1.00  0.00     0.211 HD
ENDBRANCH  32  40
ENDBRANCH   1  27
TORSDOF 12
ENDMDL
