MODEL 1
REMARK VINA RESULT:    -5.247      0.000      0.000
REMARK INTER + INTRA:          -5.554
REMARK INTER:                  -5.554
REMARK INTRA:                   0.000
REMARK UNBOUND:                 0.000
REMARK SMILES O=c1ccc2cc(O)c(O)cc2o1
REMARK SMILES IDX 4 1 3 2 2 3 1 4 13 5 12 6 11 7 9 8 7 9 6 10 5 11 8 12 10 14
REMARK H PARENT 8 13 10 15
REMARK Flexibility Score: inf
ROOT
ATOM      1  C   UNL     1      59.449  48.149  29.099  1.00  0.00     0.019 A 
ATOM      2  C   UNL     1      58.061  48.046  29.008  1.00  0.00     0.094 A 
ATOM      3  C   UNL     1      57.407  48.643  27.926  1.00  0.00     0.336 A 
ATOM      4  O   UNL     1      56.155  48.563  27.826  1.00  0.00    -0.246 OA
ATOM      5  O   UNL     1      58.101  49.298  26.998  1.00  0.00    -0.423 OA
ATOM      6  C   UNL     1      59.425  49.419  27.048  1.00  0.00     0.142 A 
ATOM      7  C   UNL     1      60.100  50.119  26.044  1.00  0.00     0.098 A 
ATOM      8  C   UNL     1      61.494  50.255  26.082  1.00  0.00     0.161 A 
ATOM      9  C   UNL     1      62.225  49.676  27.149  1.00  0.00     0.158 A 
ATOM     10  C   UNL     1      61.545  48.975  28.153  1.00  0.00     0.062 A 
ATOM     11  C   UNL     1      60.152  48.844  28.109  1.00  0.00     0.022 A 
ENDROOT
BRANCH   9  12
ATOM     12  O   UNL     1      63.615  49.772  27.249  1.00  0.00    -0.504 OA
ATOM     13  H   UNL     1      64.219  50.040  26.486  1.00  0.00     0.293 HD
ENDBRANCH   9  12
BRANCH   8  14
ATOM     14  O   UNL     1      62.106  50.967  25.048  1.00  0.00    -0.504 OA
ATOM     15  H   UNL     1      62.929  50.651  24.554  1.00  0.00     0.293 HD
ENDBRANCH   8  14
TORSDOF 2
ENDMDL
MODEL 2
REMARK VINA RESULT:    -4.892     10.715     11.404
REMARK INTER + INTRA:          -5.178
REMARK INTER:                  -5.178
REMARK INTRA:                   0.000
REMARK UNBOUND:                 0.000
REMARK SMILES O=c1ccc2cc(O)c(O)cc2o1
REMARK SMILES IDX 4 1 3 2 2 3 1 4 13 5 12 6 11 7 9 8 7 9 6 10 5 11 8 12 10 14
REMARK H PARENT 8 13 10 15
REMARK Flexibility Score: inf
ROOT
ATOM      1  C   UNL     1      68.465  53.212  20.210  1.00  0.00     0.019 A 
ATOM      2  C   UNL     1      67.396  52.971  19.348  1.00  0.00     0.094 A 
ATOM      3  C   UNL     1      66.838  51.689  19.304  1.00  0.00     0.336 A 
ATOM      4  O   UNL     1      65.873  51.449  18.532  1.00  0.00    -0.246 OA
ATOM      5  O   UNL     1      67.322  50.717  20.074  1.00  0.00    -0.423 OA
ATOM      6  C   UNL     1      68.339  50.906  20.910  1.00  0.00     0.142 A 
ATOM      7  C   UNL     1      68.804  49.848  21.695  1.00  0.00     0.098 A 
ATOM      8  C   UNL     1      69.875  50.031  22.579  1.00  0.00     0.161 A 
ATOM      9  C   UNL     1      70.492  51.304  22.678  1.00  0.00     0.158 A 
ATOM     10  C   UNL     1      70.023  52.362  21.890  1.00  0.00     0.062 A 
ATOM     11  C   UNL     1      68.952  52.171  21.009  1.00  0.00     0.022 A 
ENDROOT
BRANCH   9  12
ATOM     12  O   UNL     1      71.562  51.557  23.539  1.00  0.00    -0.504 OA
ATOM     13  H   UNL     1      71.530  51.416  24.538  1.00  0.00     0.293 HD
ENDBRANCH   9  12
BRANCH   8  14
ATOM     14  O   UNL     1      70.291  48.932  23.334  1.00  0.00    -0.504 OA
ATOM     15  H   UNL     1      71.035  48.964  24.017  1.00  0.00     0.293 HD
ENDBRANCH   8  14
TORSDOF 2
ENDMDL
MODEL 3
REMARK VINA RESULT:    -4.737     10.928     11.944
REMARK INTER + INTRA:          -5.014
REMARK INTER:                  -5.014
REMARK INTRA:                   0.000
REMARK UNBOUND:                 0.000
REMARK SMILES O=c1ccc2cc(O)c(O)cc2o1
REMARK SMILES IDX 4 1 3 2 2 3 1 4 13 5 12 6 11 7 9 8 7 9 6 10 5 11 8 12 10 14
REMARK H PARENT 8 13 10 15
REMARK Flexibility Score: inf
ROOT
ATOM      1  C   UNL     1      67.622  51.467  19.808  1.00  0.00     0.019 A 
ATOM      2  C   UNL     1      67.505  52.680  19.130  1.00  0.00     0.094 A 
ATOM      3  C   UNL     1      68.354  53.735  19.480  1.00  0.00     0.336 A 
ATOM      4  O   UNL     1      68.265  54.839  18.880  1.00  0.00    -0.246 OA
ATOM      5  O   UNL     1      69.258  53.581  20.444  1.00  0.00    -0.423 OA
ATOM      6  C   UNL     1      69.402  52.441  21.114  1.00  0.00     0.142 A 
ATOM      7  C   UNL     1      70.369  52.338  22.118  1.00  0.00     0.098 A 
ATOM      8  C   UNL     1      70.532  51.144  22.833  1.00  0.00     0.161 A 
ATOM      9  C   UNL     1      69.707  50.031  22.534  1.00  0.00     0.158 A 
ATOM     10  C   UNL     1      68.739  50.137  21.528  1.00  0.00     0.062 A 
ATOM     11  C   UNL     1      68.582  51.334  20.818  1.00  0.00     0.022 A 
ENDROOT
BRANCH   9  12
ATOM     12  O   UNL     1      69.816  48.811  23.206  1.00  0.00    -0.504 OA
ATOM     13  H   UNL     1      69.154  48.054  23.115  1.00  0.00     0.293 HD
ENDBRANCH   9  12
BRANCH   8  14
ATOM     14  O   UNL     1      71.517  51.108  23.822  1.00  0.00    -0.504 OA
ATOM     15  H   UNL     1      72.509  51.111  23.633  1.00  0.00     0.293 HD
ENDBRANCH   8  14
TORSDOF 2
ENDMDL
MODEL 4
REMARK VINA RESULT:    -4.621     11.142     11.849
REMARK INTER + INTRA:          -4.892
REMARK INTER:                  -4.892
REMARK INTRA:                   0.000
REMARK UNBOUND:                 0.000
REMARK SMILES O=c1ccc2cc(O)c(O)cc2o1
REMARK SMILES IDX 4 1 3 2 2 3 1 4 13 5 12 6 11 7 9 8 7 9 6 10 5 11 8 12 10 14
REMARK H PARENT 8 13 10 15
REMARK Flexibility Score: inf
ROOT
ATOM      1  C   UNL     1      68.994  50.147  21.547  1.00  0.00     0.019 A 
ATOM      2  C   UNL     1      69.914  50.176  22.594  1.00  0.00     0.094 A 
ATOM      3  C   UNL     1      70.429  51.409  23.009  1.00  0.00     0.336 A 
ATOM      4  O   UNL     1      71.261  51.458  23.952  1.00  0.00    -0.246 OA
ATOM      5  O   UNL     1      70.043  52.534  22.413  1.00  0.00    -0.423 OA
ATOM      6  C   UNL     1      69.168  52.549  21.411  1.00  0.00     0.142 A 
ATOM      7  C   UNL     1      68.800  53.763  20.823  1.00  0.00     0.098 A 
ATOM      8  C   UNL     1      67.880  53.795  19.767  1.00  0.00     0.161 A 
ATOM      9  C   UNL     1      67.316  52.584  19.293  1.00  0.00     0.158 A 
ATOM     10  C   UNL     1      67.687  51.370  19.884  1.00  0.00     0.062 A 
ATOM     11  C   UNL     1      68.607  51.346  20.939  1.00  0.00     0.022 A 
ENDROOT
BRANCH   9  12
ATOM     12  O   UNL     1      66.393  52.543  18.245  1.00  0.00    -0.504 OA
ATOM     13  H   UNL     1      65.538  52.007  18.265  1.00  0.00     0.293 HD
ENDBRANCH   9  12
BRANCH   8  14
ATOM     14  O   UNL     1      67.557  55.041  19.225  1.00  0.00    -0.504 OA
ATOM     15  H   UNL     1      66.730  55.219  18.672  1.00  0.00     0.293 HD
ENDBRANCH   8  14
TORSDOF 2
ENDMDL
MODEL 5
REMARK VINA RESULT:    -4.579     11.081     12.299
REMARK INTER + INTRA:          -4.847
REMARK INTER:                  -4.847
REMARK INTRA:                   0.000
REMARK UNBOUND:                 0.000
REMARK SMILES O=c1ccc2cc(O)c(O)cc2o1
REMARK SMILES IDX 4 1 3 2 2 3 1 4 13 5 12 6 11 7 9 8 7 9 6 10 5 11 8 12 10 14
REMARK H PARENT 8 13 10 15
REMARK Flexibility Score: inf
ROOT
ATOM      1  C   UNL     1      68.937  52.920  18.318  1.00  0.00     0.019 A 
ATOM      2  C   UNL     1      67.696  52.442  17.901  1.00  0.00     0.094 A 
ATOM      3  C   UNL     1      66.966  51.614  18.760  1.00  0.00     0.336 A 
ATOM      4  O   UNL     1      65.843  51.170  18.403  1.00  0.00    -0.246 OA
ATOM      5  O   UNL     1      67.451  51.290  19.957  1.00  0.00    -0.423 OA
ATOM      6  C   UNL     1      68.630  51.726  20.392  1.00  0.00     0.142 A 
ATOM      7  C   UNL     1      69.088  51.353  21.659  1.00  0.00     0.098 A 
ATOM      8  C   UNL     1      70.328  51.803  22.132  1.00  0.00     0.161 A 
ATOM      9  C   UNL     1      71.124  52.646  21.315  1.00  0.00     0.158 A 
ATOM     10  C   UNL     1      70.662  53.018  20.047  1.00  0.00     0.062 A 
ATOM     11  C   UNL     1      69.422  52.563  19.581  1.00  0.00     0.022 A 
ENDROOT
BRANCH   9  12
ATOM     12  O   UNL     1      72.368  53.131  21.724  1.00  0.00    -0.504 OA
ATOM     13  H   UNL     1      73.037  53.566  21.104  1.00  0.00     0.293 HD
ENDBRANCH   9  12
BRANCH   8  14
ATOM     14  O   UNL     1      70.726  51.393  23.406  1.00  0.00    -0.504 OA
ATOM     15  H   UNL     1      70.807  50.427  23.689  1.00  0.00     0.293 HD
ENDBRANCH   8  14
TORSDOF 2
ENDMDL
MODEL 6
REMARK VINA RESULT:    -4.510     12.062     15.102
REMARK INTER + INTRA:          -4.773
REMARK INTER:                  -4.773
REMARK INTRA:                   0.000
REMARK UNBOUND:                 0.000
REMARK SMILES O=c1ccc2cc(O)c(O)cc2o1
REMARK SMILES IDX 4 1 3 2 2 3 1 4 13 5 12 6 11 7 9 8 7 9 6 10 5 11 8 12 10 14
REMARK H PARENT 8 13 10 15
REMARK Flexibility Score: inf
ROOT
ATOM      1  C   UNL     1      70.408  54.240  16.291  1.00  0.00     0.019 A 
ATOM      2  C   UNL     1      71.777  54.502  16.302  1.00  0.00     0.094 A 
ATOM      3  C   UNL     1      72.550  54.016  17.362  1.00  0.00     0.336 A 
ATOM      4  O   UNL     1      73.788  54.243  17.392  1.00  0.00    -0.246 OA
ATOM      5  O   UNL     1      71.985  53.314  18.341  1.00  0.00    -0.423 OA
ATOM      6  C   UNL     1      70.683  53.041  18.366  1.00  0.00     0.142 A 
ATOM      7  C   UNL     1      70.146  52.299  19.421  1.00  0.00     0.098 A 
ATOM      8  C   UNL     1      68.777  52.004  19.463  1.00  0.00     0.161 A 
ATOM      9  C   UNL     1      67.930  52.464  18.423  1.00  0.00     0.158 A 
ATOM     10  C   UNL     1      68.472  53.208  17.367  1.00  0.00     0.062 A 
ATOM     11  C   UNL     1      69.841  53.499  17.333  1.00  0.00     0.022 A 
ENDROOT
BRANCH   9  12
ATOM     12  O   UNL     1      66.557  52.206  18.401  1.00  0.00    -0.504 OA
ATOM     13  H   UNL     1      66.142  51.390  17.976  1.00  0.00     0.293 HD
ENDBRANCH   9  12
BRANCH   8  14
ATOM     14  O   UNL     1      68.305  51.258  20.545  1.00  0.00    -0.504 OA
ATOM     15  H   UNL     1      68.053  50.281  20.491  1.00  0.00     0.293 HD
ENDBRANCH   8  14
TORSDOF 2
ENDMDL
MODEL 7
REMARK VINA RESULT:    -4.481     11.057     11.637
REMARK INTER + INTRA:          -4.743
REMARK INTER:                  -4.743
REMARK INTRA:                   0.000
REMARK UNBOUND:                 0.000
REMARK SMILES O=c1ccc2cc(O)c(O)cc2o1
REMARK SMILES IDX 4 1 3 2 2 3 1 4 13 5 12 6 11 7 9 8 7 9 6 10 5 11 8 12 10 14
REMARK H PARENT 8 13 10 15
REMARK Flexibility Score: inf
ROOT
ATOM      1  C   UNL     1      69.771  52.605  22.644  1.00  0.00     0.019 A 
ATOM      2  C   UNL     1      70.115  51.353  23.150  1.00  0.00     0.094 A 
ATOM      3  C   UNL     1      69.644  50.207  22.500  1.00  0.00     0.336 A 
ATOM      4  O   UNL     1      69.942  49.067  22.941  1.00  0.00    -0.246 OA
ATOM      5  O   UNL     1      68.882  50.315  21.414  1.00  0.00    -0.423 OA
ATOM      6  C   UNL     1      68.532  51.491  20.899  1.00  0.00     0.142 A 
ATOM      7  C   UNL     1      67.729  51.541  19.757  1.00  0.00     0.098 A 
ATOM      8  C   UNL     1      67.351  52.771  19.203  1.00  0.00     0.161 A 
ATOM      9  C   UNL     1      67.791  53.976  19.808  1.00  0.00     0.158 A 
ATOM     10  C   UNL     1      68.595  53.921  20.953  1.00  0.00     0.062 A 
ATOM     11  C   UNL     1      68.968  52.688  21.501  1.00  0.00     0.022 A 
ENDROOT
BRANCH   9  12
ATOM     12  O   UNL     1      67.453  55.236  19.308  1.00  0.00    -0.504 OA
ATOM     13  H   UNL     1      68.126  55.913  18.980  1.00  0.00     0.293 HD
ENDBRANCH   9  12
BRANCH   8  14
ATOM     14  O   UNL     1      66.548  52.751  18.061  1.00  0.00    -0.504 OA
ATOM     15  H   UNL     1      66.678  53.363  17.267  1.00  0.00     0.293 HD
ENDBRANCH   8  14
TORSDOF 2
ENDMDL
MODEL 8
REMARK VINA RESULT:    -4.390     12.183     15.024
REMARK INTER + INTRA:          -4.647
REMARK INTER:                  -4.647
REMARK INTRA:                   0.000
REMARK UNBOUND:                 0.000
REMARK SMILES O=c1ccc2cc(O)c(O)cc2o1
REMARK SMILES IDX 4 1 3 2 2 3 1 4 13 5 12 6 11 7 9 8 7 9 6 10 5 11 8 12 10 14
REMARK H PARENT 8 13 10 15
REMARK Flexibility Score: inf
ROOT
ATOM      1  C   UNL     1      72.063  53.505  17.925  1.00  0.00     0.019 A 
ATOM      2  C   UNL     1      72.365  54.238  16.778  1.00  0.00     0.094 A 
ATOM      3  C   UNL     1      71.334  54.558  15.888  1.00  0.00     0.336 A 
ATOM      4  O   UNL     1      71.585  55.218  14.846  1.00  0.00    -0.246 OA
ATOM      5  O   UNL     1      70.086  54.169  16.136  1.00  0.00    -0.423 OA
ATOM      6  C   UNL     1      69.756  53.469  17.219  1.00  0.00     0.142 A 
ATOM      7  C   UNL     1      68.428  53.088  17.426  1.00  0.00     0.098 A 
ATOM      8  C   UNL     1      68.065  52.351  18.561  1.00  0.00     0.161 A 
ATOM      9  C   UNL     1      69.057  51.989  19.508  1.00  0.00     0.158 A 
ATOM     10  C   UNL     1      70.387  52.373  19.296  1.00  0.00     0.062 A 
ATOM     11  C   UNL     1      70.742  53.109  18.160  1.00  0.00     0.022 A 
ENDROOT
BRANCH   9  12
ATOM     12  O   UNL     1      68.766  51.256  20.660  1.00  0.00    -0.504 OA
ATOM     13  H   UNL     1      69.396  51.159  21.443  1.00  0.00     0.293 HD
ENDBRANCH   9  12
BRANCH   8  14
ATOM     14  O   UNL     1      66.721  52.002  18.708  1.00  0.00    -0.504 OA
ATOM     15  H   UNL     1      66.035  52.580  19.174  1.00  0.00     0.293 HD
ENDBRANCH   8  14
TORSDOF 2
ENDMDL
