MODEL 1
REMARK VINA RESULT:    -3.275      0.000      0.000
REMARK INTER + INTRA:          -5.334
REMARK INTER:                  -4.807
REMARK INTRA:                  -0.527
REMARK UNBOUND:                -0.527
REMARK SMILES O=C([O-])CCCCCCCC(=O)[O-]
REMARK SMILES IDX 7 1 6 2 5 3 4 4 2 5 1 6 3 7 8 8 9 9 10 10 11 11 12 12 13 13
REMARK H PARENT
REMARK Flexibility Score: inf
ROOT
ATOM      1  C   UNL     1      16.055  -6.354   5.635  1.00  0.00     0.000 C 
ENDROOT
BRANCH   1   2
ATOM      2  C   UNL     1      15.687  -7.555   6.521  1.00  0.00     0.000 C 
BRANCH   2   3
ATOM      3  C   UNL     1      14.185  -7.877   6.488  1.00  0.00     0.006 C 
BRANCH   3   4
ATOM      4  C   UNL     1      13.639  -7.794   5.061  1.00  0.00     0.053 C 
BRANCH   4   5
ATOM      5  C   UNL     1      12.268  -7.194   5.058  1.00  0.00     0.041 C 
ATOM      6  O   UNL     1      11.879  -6.505   4.079  1.00  0.00    -0.550 OA
ATOM      7  O   UNL     1      11.438  -7.353   6.161  1.00  0.00    -0.550 OA
ENDBRANCH   4   5
ENDBRANCH   3   4
ENDBRANCH   2   3
ENDBRANCH   1   2
BRANCH   1   8
ATOM      8  C   UNL     1      17.212  -6.660   4.672  1.00  0.00     0.000 C 
BRANCH   8   9
ATOM      9  C   UNL     1      18.216  -7.632   5.313  1.00  0.00     0.006 C 
BRANCH   9  10
ATOM     10  C   UNL     1      19.321  -6.900   6.084  1.00  0.00     0.053 C 
BRANCH  10  11
ATOM     11  C   UNL     1      19.267  -7.201   7.551  1.00  0.00     0.041 C 
ATOM     12  O   UNL     1      19.838  -8.226   8.011  1.00  0.00    -0.550 OA
ATOM     13  O   UNL     1      18.559  -6.366   8.406  1.00  0.00    -0.550 OA
ENDBRANCH  10  11
ENDBRANCH   9  10
ENDBRANCH   8   9
ENDBRANCH   1   8
TORSDOF 8
ENDMDL
MODEL 2
REMARK VINA RESULT:    -3.087      1.916      2.689
REMARK INTER + INTRA:          -5.057
REMARK INTER:                  -4.424
REMARK INTRA:                  -0.633
REMARK UNBOUND:                -0.527
REMARK SMILES O=C([O-])CCCCCCCC(=O)[O-]
REMARK SMILES IDX 7 1 6 2 5 3 4 4 2 5 1 6 3 7 8 8 9 9 10 10 11 11 12 12 13 13
REMARK H PARENT
REMARK Flexibility Score: inf
ROOT
ATOM      1  C   UNL     1      18.199  -7.425   4.482  1.00  0.00     0.000 C 
ENDROOT
BRANCH   1   2
ATOM      2  C   UNL     1      17.190  -6.350   4.049  1.00  0.00     0.000 C 
BRANCH   2   3
ATOM      3  C   UNL     1      16.060  -6.151   5.072  1.00  0.00     0.006 C 
BRANCH   3   4
ATOM      4  C   UNL     1      16.227  -7.098   6.262  1.00  0.00     0.053 C 
BRANCH   4   5
ATOM      5  C   UNL     1      15.026  -7.980   6.404  1.00  0.00     0.041 C 
ATOM      6  O   UNL     1      14.303  -7.905   7.431  1.00  0.00    -0.550 OA
ATOM      7  O   UNL     1      14.736  -8.921   5.423  1.00  0.00    -0.550 OA
ENDBRANCH   4   5
ENDBRANCH   3   4
ENDBRANCH   2   3
ENDBRANCH   1   2
BRANCH   1   8
ATOM      8  C   UNL     1      19.614  -6.864   4.682  1.00  0.00     0.000 C 
BRANCH   8   9
ATOM      9  C   UNL     1      20.426  -7.750   5.640  1.00  0.00     0.006 C 
BRANCH   9  10
ATOM     10  C   UNL     1      19.528  -8.579   6.566  1.00  0.00     0.053 C 
BRANCH  10  11
ATOM     11  C   UNL     1      19.621  -8.118   7.988  1.00  0.00     0.041 C 
ATOM     12  O   UNL     1      20.052  -8.895   8.881  1.00  0.00    -0.550 OA
ATOM     13  O   UNL     1      19.201  -6.839   8.333  1.00  0.00    -0.550 OA
ENDBRANCH  10  11
ENDBRANCH   9  10
ENDBRANCH   8   9
ENDBRANCH   1   8
TORSDOF 8
ENDMDL
MODEL 3
REMARK VINA RESULT:    -2.999      1.346      6.988
REMARK INTER + INTRA:          -4.929
REMARK INTER:                  -4.687
REMARK INTRA:                  -0.242
REMARK UNBOUND:                -0.527
REMARK SMILES O=C([O-])CCCCCCCC(=O)[O-]
REMARK SMILES IDX 7 1 6 2 5 3 4 4 2 5 1 6 3 7 8 8 9 9 10 10 11 11 12 12 13 13
REMARK H PARENT
REMARK Flexibility Score: inf
ROOT
ATOM      1  C   UNL     1      14.199  -7.778   6.267  1.00  0.00     0.000 C 
ENDROOT
BRANCH   1   2
ATOM      2  C   UNL     1      15.714  -8.026   6.342  1.00  0.00     0.000 C 
BRANCH   2   3
ATOM      3  C   UNL     1      16.512  -6.741   6.613  1.00  0.00     0.006 C 
BRANCH   3   4
ATOM      4  C   UNL     1      17.967  -6.895   6.163  1.00  0.00     0.053 C 
BRANCH   4   5
ATOM      5  C   UNL     1      18.853  -7.174   7.336  1.00  0.00     0.041 C 
ATOM      6  O   UNL     1      18.814  -6.429   8.351  1.00  0.00    -0.550 OA
ATOM      7  O   UNL     1      19.759  -8.226   7.288  1.00  0.00    -0.550 OA
ENDBRANCH   4   5
ENDBRANCH   3   4
ENDBRANCH   2   3
ENDBRANCH   1   2
BRANCH   1   8
ATOM      8  C   UNL     1      13.649  -7.899   4.838  1.00  0.00     0.000 C 
BRANCH   8   9
ATOM      9  C   UNL     1      12.358  -7.082   4.676  1.00  0.00     0.006 C 
BRANCH   9  10
ATOM     10  C   UNL     1      11.424  -7.226   5.884  1.00  0.00     0.053 C 
BRANCH  10  11
ATOM     11  C   UNL     1       9.983  -7.114   5.489  1.00  0.00     0.041 C 
ATOM     12  O   UNL     1       9.223  -8.115   5.568  1.00  0.00    -0.550 OA
ATOM     13  O   UNL     1       9.488  -5.910   5.002  1.00  0.00    -0.550 OA
ENDBRANCH  10  11
ENDBRANCH   9  10
ENDBRANCH   8   9
ENDBRANCH   1   8
TORSDOF 8
ENDMDL
MODEL 4
REMARK VINA RESULT:    -2.978      1.267      2.158
REMARK INTER + INTRA:          -4.898
REMARK INTER:                  -4.627
REMARK INTRA:                  -0.270
REMARK UNBOUND:                -0.527
REMARK SMILES O=C([O-])CCCCCCCC(=O)[O-]
REMARK SMILES IDX 7 1 6 2 5 3 4 4 2 5 1 6 3 7 8 8 9 9 10 10 11 11 12 12 13 13
REMARK H PARENT
REMARK Flexibility Score: inf
ROOT
ATOM      1  C   UNL     1      14.336  -7.864   6.203  1.00  0.00     0.000 C 
ENDROOT
BRANCH   1   2
ATOM      2  C   UNL     1      13.756  -7.960   4.783  1.00  0.00     0.000 C 
BRANCH   2   3
ATOM      3  C   UNL     1      12.438  -7.185   4.627  1.00  0.00     0.006 C 
BRANCH   3   4
ATOM      4  C   UNL     1      11.617  -7.238   5.917  1.00  0.00     0.053 C 
BRANCH   4   5
ATOM      5  C   UNL     1      10.153  -7.198   5.609  1.00  0.00     0.041 C 
ATOM      6  O   UNL     1       9.441  -8.223   5.777  1.00  0.00    -0.550 OA
ATOM      7  O   UNL     1       9.584  -6.043   5.087  1.00  0.00    -0.550 OA
ENDBRANCH   4   5
ENDBRANCH   3   4
ENDBRANCH   2   3
ENDBRANCH   1   2
BRANCH   1   8
ATOM      8  C   UNL     1      15.856  -8.084   6.238  1.00  0.00     0.000 C 
BRANCH   8   9
ATOM      9  C   UNL     1      16.600  -6.749   6.395  1.00  0.00     0.006 C 
BRANCH   9  10
ATOM     10  C   UNL     1      18.098  -6.880   6.093  1.00  0.00     0.053 C 
BRANCH  10  11
ATOM     11  C   UNL     1      18.890  -7.181   7.328  1.00  0.00     0.041 C 
ATOM     12  O   UNL     1      19.634  -8.196   7.374  1.00  0.00    -0.550 OA
ATOM     13  O   UNL     1      18.780  -6.357   8.442  1.00  0.00    -0.550 OA
ENDBRANCH  10  11
ENDBRANCH   9  10
ENDBRANCH   8   9
ENDBRANCH   1   8
TORSDOF 8
ENDMDL
MODEL 5
REMARK VINA RESULT:    -2.956      1.434      5.785
REMARK INTER + INTRA:          -4.865
REMARK INTER:                  -4.405
REMARK INTRA:                  -0.460
REMARK UNBOUND:                -0.527
REMARK SMILES O=C([O-])CCCCCCCC(=O)[O-]
REMARK SMILES IDX 7 1 6 2 5 3 4 4 2 5 1 6 3 7 8 8 9 9 10 10 11 11 12 12 13 13
REMARK H PARENT
REMARK Flexibility Score: inf
ROOT
ATOM      1  C   UNL     1      17.259  -6.505   5.083  1.00  0.00     0.000 C 
ENDROOT
BRANCH   1   2
ATOM      2  C   UNL     1      18.675  -6.482   4.483  1.00  0.00     0.000 C 
BRANCH   2   3
ATOM      3  C   UNL     1      19.752  -6.920   5.488  1.00  0.00     0.006 C 
BRANCH   3   4
ATOM      4  C   UNL     1      19.267  -8.103   6.329  1.00  0.00     0.053 C 
BRANCH   4   5
ATOM      5  C   UNL     1      19.468  -7.829   7.786  1.00  0.00     0.041 C 
ATOM      6  O   UNL     1      19.982  -8.705   8.531  1.00  0.00    -0.550 OA
ATOM      7  O   UNL     1      19.041  -6.625   8.332  1.00  0.00    -0.550 OA
ENDBRANCH   4   5
ENDBRANCH   3   4
ENDBRANCH   2   3
ENDBRANCH   1   2
BRANCH   1   8
ATOM      8  C   UNL     1      16.196  -5.970   4.113  1.00  0.00     0.000 C 
BRANCH   8   9
ATOM      9  C   UNL     1      15.072  -6.997   3.909  1.00  0.00     0.006 C 
BRANCH   9  10
ATOM     10  C   UNL     1      15.068  -8.077   4.999  1.00  0.00     0.053 C 
BRANCH  10  11
ATOM     11  C   UNL     1      14.044  -7.796   6.056  1.00  0.00     0.041 C 
ATOM     12  O   UNL     1      12.881  -7.432   5.734  1.00  0.00    -0.550 OA
ATOM     13  O   UNL     1      14.384  -7.904   7.399  1.00  0.00    -0.550 OA
ENDBRANCH  10  11
ENDBRANCH   9  10
ENDBRANCH   8   9
ENDBRANCH   1   8
TORSDOF 8
ENDMDL
MODEL 6
REMARK VINA RESULT:    -2.929      2.771      3.322
REMARK INTER + INTRA:          -4.826
REMARK INTER:                  -4.299
REMARK INTRA:                  -0.527
REMARK UNBOUND:                -0.527
REMARK SMILES O=C([O-])CCCCCCCC(=O)[O-]
REMARK SMILES IDX 7 1 6 2 5 3 4 4 2 5 1 6 3 7 8 8 9 9 10 10 11 11 12 12 13 13
REMARK H PARENT
REMARK Flexibility Score: inf
ROOT
ATOM      1  C   UNL     1      17.769  -6.730   4.960  1.00  0.00     0.000 C 
ENDROOT
BRANCH   1   2
ATOM      2  C   UNL     1      16.327  -6.406   5.384  1.00  0.00     0.000 C 
BRANCH   2   3
ATOM      3  C   UNL     1      16.006  -6.886   6.808  1.00  0.00     0.006 C 
BRANCH   3   4
ATOM      4  C   UNL     1      14.762  -7.777   6.817  1.00  0.00     0.053 C 
BRANCH   4   5
ATOM      5  C   UNL     1      14.978  -8.989   5.966  1.00  0.00     0.041 C 
ATOM      6  O   UNL     1      14.271  -9.178   4.941  1.00  0.00    -0.550 OA
ATOM      7  O   UNL     1      15.926  -9.935   6.334  1.00  0.00    -0.550 OA
ENDBRANCH   4   5
ENDBRANCH   3   4
ENDBRANCH   2   3
ENDBRANCH   1   2
BRANCH   1   8
ATOM      8  C   UNL     1      18.573  -7.417   6.073  1.00  0.00     0.000 C 
BRANCH   8   9
ATOM      9  C   UNL     1      20.083  -7.300   5.810  1.00  0.00     0.006 C 
BRANCH   9  10
ATOM     10  C   UNL     1      20.389  -6.579   4.492  1.00  0.00     0.053 C 
BRANCH  10  11
ATOM     11  C   UNL     1      21.438  -5.524   4.667  1.00  0.00     0.041 C 
ATOM     12  O   UNL     1      22.657  -5.838   4.702  1.00  0.00    -0.550 OA
ATOM     13  O   UNL     1      21.066  -4.194   4.823  1.00  0.00    -0.550 OA
ENDBRANCH  10  11
ENDBRANCH   9  10
ENDBRANCH   8   9
ENDBRANCH   1   8
TORSDOF 8
ENDMDL
MODEL 7
REMARK VINA RESULT:    -2.851      2.752      6.474
REMARK INTER + INTRA:          -4.711
REMARK INTER:                  -4.189
REMARK INTRA:                  -0.523
REMARK UNBOUND:                -0.527
REMARK SMILES O=C([O-])CCCCCCCC(=O)[O-]
REMARK SMILES IDX 7 1 6 2 5 3 4 4 2 5 1 6 3 7 8 8 9 9 10 10 11 11 12 12 13 13
REMARK H PARENT
REMARK Flexibility Score: inf
ROOT
ATOM      1  C   UNL     1      19.054  -6.981   6.760  1.00  0.00     0.000 C 
ENDROOT
BRANCH   1   2
ATOM      2  C   UNL     1      19.737  -8.135   6.008  1.00  0.00     0.000 C 
BRANCH   2   3
ATOM      3  C   UNL     1      20.890  -7.659   5.112  1.00  0.00     0.006 C 
BRANCH   3   4
ATOM      4  C   UNL     1      20.482  -6.423   4.306  1.00  0.00     0.053 C 
BRANCH   4   5
ATOM      5  C   UNL     1      21.515  -5.348   4.434  1.00  0.00     0.041 C 
ATOM      6  O   UNL     1      22.738  -5.645   4.467  1.00  0.00    -0.550 OA
ATOM      7  O   UNL     1      21.124  -4.022   4.570  1.00  0.00    -0.550 OA
ENDBRANCH   4   5
ENDBRANCH   3   4
ENDBRANCH   2   3
ENDBRANCH   1   2
BRANCH   1   8
ATOM      8  C   UNL     1      17.532  -6.962   6.558  1.00  0.00     0.000 C 
BRANCH   8   9
ATOM      9  C   UNL     1      17.100  -8.026   5.537  1.00  0.00     0.006 C 
BRANCH   9  10
ATOM     10  C   UNL     1      15.901  -8.848   6.027  1.00  0.00     0.053 C 
BRANCH  10  11
ATOM     11  C   UNL     1      14.715  -7.980   6.317  1.00  0.00     0.041 C 
ATOM     12  O   UNL     1      14.197  -7.974   7.465  1.00  0.00    -0.550 OA
ATOM     13  O   UNL     1      14.160  -7.201   5.308  1.00  0.00    -0.550 OA
ENDBRANCH  10  11
ENDBRANCH   9  10
ENDBRANCH   8   9
ENDBRANCH   1   8
TORSDOF 8
ENDMDL
MODEL 8
REMARK VINA RESULT:    -2.798      1.777      6.676
REMARK INTER + INTRA:          -4.634
REMARK INTER:                  -4.292
REMARK INTRA:                  -0.343
REMARK UNBOUND:                -0.527
REMARK SMILES O=C([O-])CCCCCCCC(=O)[O-]
REMARK SMILES IDX 7 1 6 2 5 3 4 4 2 5 1 6 3 7 8 8 9 9 10 10 11 11 12 12 13 13
REMARK H PARENT
REMARK Flexibility Score: inf
ROOT
ATOM      1  C   UNL     1      16.368  -6.109   4.806  1.00  0.00     0.000 C 
ENDROOT
BRANCH   1   2
ATOM      2  C   UNL     1      16.870  -6.808   6.079  1.00  0.00     0.000 C 
BRANCH   2   3
ATOM      3  C   UNL     1      18.353  -7.203   5.993  1.00  0.00     0.006 C 
BRANCH   3   4
ATOM      4  C   UNL     1      19.033  -6.518   4.806  1.00  0.00     0.053 C 
BRANCH   4   5
ATOM      5  C   UNL     1      20.497  -6.351   5.065  1.00  0.00     0.041 C 
ATOM      6  O   UNL     1      21.000  -5.199   5.143  1.00  0.00    -0.550 OA
ATOM      7  O   UNL     1      21.316  -7.469   5.169  1.00  0.00    -0.550 OA
ENDBRANCH   4   5
ENDBRANCH   3   4
ENDBRANCH   2   3
ENDBRANCH   1   2
BRANCH   1   8
ATOM      8  C   UNL     1      15.202  -6.856   4.141  1.00  0.00     0.000 C 
BRANCH   8   9
ATOM      9  C   UNL     1      14.288  -7.498   5.196  1.00  0.00     0.006 C 
BRANCH   9  10
ATOM     10  C   UNL     1      12.962  -7.983   4.598  1.00  0.00     0.053 C 
BRANCH  10  11
ATOM     11  C   UNL     1      11.825  -7.078   4.962  1.00  0.00     0.041 C 
ATOM     12  O   UNL     1      11.347  -6.284   4.108  1.00  0.00    -0.550 OA
ATOM     13  O   UNL     1      11.313  -7.089   6.254  1.00  0.00    -0.550 OA
ENDBRANCH  10  11
ENDBRANCH   9  10
ENDBRANCH   8   9
ENDBRANCH   1   8
TORSDOF 8
ENDMDL
MODEL 9
REMARK VINA RESULT:    -2.757      3.847      8.177
REMARK INTER + INTRA:          -4.574
REMARK INTER:                  -4.323
REMARK INTRA:                  -0.251
REMARK UNBOUND:                -0.527
REMARK SMILES O=C([O-])CCCCCCCC(=O)[O-]
REMARK SMILES IDX 7 1 6 2 5 3 4 4 2 5 1 6 3 7 8 8 9 9 10 10 11 11 12 12 13 13
REMARK H PARENT
REMARK Flexibility Score: inf
ROOT
ATOM      1  C   UNL     1      10.531  -7.490   6.099  1.00  0.00     0.000 C 
ENDROOT
BRANCH   1   2
ATOM      2  C   UNL     1      11.701  -7.113   5.176  1.00  0.00     0.000 C 
BRANCH   2   3
ATOM      3  C   UNL     1      13.054  -7.620   5.697  1.00  0.00     0.006 C 
BRANCH   3   4
ATOM      4  C   UNL     1      14.173  -7.320   4.697  1.00  0.00     0.053 C 
BRANCH   4   5
ATOM      5  C   UNL     1      15.449  -7.011   5.414  1.00  0.00     0.041 C 
ATOM      6  O   UNL     1      15.784  -7.676   6.429  1.00  0.00    -0.550 OA
ATOM      7  O   UNL     1      16.244  -5.952   4.992  1.00  0.00    -0.550 OA
ENDBRANCH   4   5
ENDBRANCH   3   4
ENDBRANCH   2   3
ENDBRANCH   1   2
BRANCH   1   8
ATOM      8  C   UNL     1       9.297  -7.975   5.323  1.00  0.00     0.000 C 
BRANCH   8   9
ATOM      9  C   UNL     1       8.825  -9.342   5.842  1.00  0.00     0.006 C 
BRANCH   9  10
ATOM     10  C   UNL     1       8.689  -9.369   7.369  1.00  0.00     0.053 C 
BRANCH  10  11
ATOM     11  C   UNL     1       7.291  -9.696   7.797  1.00  0.00     0.041 C 
ATOM     12  O   UNL     1       6.377  -9.819   6.939  1.00  0.00    -0.550 OA
ATOM     13  O   UNL     1       6.991  -9.833   9.147  1.00  0.00    -0.550 OA
ENDBRANCH  10  11
ENDBRANCH   9  10
ENDBRANCH   8   9
ENDBRANCH   1   8
TORSDOF 8
ENDMDL
