MODEL 1
REMARK VINA RESULT:    -4.586      0.000      0.000
REMARK INTER + INTRA:          -6.735
REMARK INTER:                  -6.195
REMARK INTRA:                  -0.540
REMARK UNBOUND:                -0.540
REMARK SMILES O=C[C@H](O)[C@H](O)[C@@H](O)CO
REMARK SMILES IDX 7 1 9 2 10 3 5 5 3 6 2 7 1 8 4 9 6 11 8 13
REMARK H PARENT 10 4 4 10 6 12 8 14
REMARK Flexibility Score: inf
ROOT
ATOM      1  C   UNL     1      -9.440   3.651  18.460  1.00  0.00     0.171 C 
ENDROOT
BRANCH   1   2
ATOM      2  C   UNL     1     -10.411   2.918  19.404  1.00  0.00     0.190 C 
BRANCH   2   3
ATOM      3  O   UNL     1      -9.805   1.785  19.969  1.00  0.00    -0.394 OA
ATOM      4  H   UNL     1      -9.992   1.027  19.354  1.00  0.00     0.210 HD
ENDBRANCH   2   3
ENDBRANCH   1   2
BRANCH   1   5
ATOM      5  C   UNL     1      -9.206   5.113  18.910  1.00  0.00     0.181 C 
BRANCH   5   6
ATOM      6  C   UNL     1      -9.152   5.250  20.455  1.00  0.00     0.209 C 
BRANCH   6   7
ATOM      7  C   UNL     1      -9.373   6.662  20.941  1.00  0.00     0.258 C 
ATOM      8  O   UNL     1      -8.808   7.604  20.409  1.00  0.00    -0.300 OA
ENDBRANCH   6   7
BRANCH   6   9
ATOM      9  O   UNL     1      -7.944   4.739  20.963  1.00  0.00    -0.383 OA
ATOM     10  H   UNL     1      -7.442   5.491  21.373  1.00  0.00     0.211 HD
ENDBRANCH   6   9
ENDBRANCH   5   6
BRANCH   5  11
ATOM     11  O   UNL     1     -10.210   5.941  18.372  1.00  0.00    -0.387 OA
ATOM     12  H   UNL     1     -10.760   6.268  19.130  1.00  0.00     0.211 HD
ENDBRANCH   5  11
ENDBRANCH   1   5
BRANCH   1  13
ATOM     13  O   UNL     1      -8.216   2.961  18.432  1.00  0.00    -0.388 OA
ATOM     14  H   UNL     1      -7.639   3.368  19.131  1.00  0.00     0.211 HD
ENDBRANCH   1  13
TORSDOF 8
ENDMDL
MODEL 2
REMARK VINA RESULT:    -4.533      1.058      1.963
REMARK INTER + INTRA:          -6.663
REMARK INTER:                  -6.210
REMARK INTRA:                  -0.454
REMARK UNBOUND:                -0.540
REMARK SMILES O=C[C@H](O)[C@H](O)[C@@H](O)CO
REMARK SMILES IDX 7 1 9 2 10 3 5 5 3 6 2 7 1 8 4 9 6 11 8 13
REMARK H PARENT 10 4 4 10 6 12 8 14
REMARK Flexibility Score: inf
ROOT
ATOM      1  C   UNL     1     -10.384   3.411  18.363  1.00  0.00     0.171 C 
ENDROOT
BRANCH   1   2
ATOM      2  C   UNL     1     -10.653   2.040  19.011  1.00  0.00     0.190 C 
BRANCH   2   3
ATOM      3  O   UNL     1      -9.677   1.739  19.973  1.00  0.00    -0.394 OA
ATOM      4  H   UNL     1      -9.735   0.761  20.140  1.00  0.00     0.210 HD
ENDBRANCH   2   3
ENDBRANCH   1   2
BRANCH   1   5
ATOM      5  C   UNL     1      -9.064   4.034  18.877  1.00  0.00     0.181 C 
BRANCH   5   6
ATOM      6  C   UNL     1      -9.117   5.584  18.903  1.00  0.00     0.209 C 
BRANCH   6   7
ATOM      7  C   UNL     1      -8.948   6.168  20.285  1.00  0.00     0.258 C 
ATOM      8  O   UNL     1      -8.309   7.195  20.457  1.00  0.00    -0.300 OA
ENDBRANCH   6   7
BRANCH   6   9
ATOM      9  O   UNL     1     -10.303   6.056  18.312  1.00  0.00    -0.383 OA
ATOM     10  H   UNL     1     -10.087   6.360  17.392  1.00  0.00     0.211 HD
ENDBRANCH   6   9
ENDBRANCH   5   6
BRANCH   5  11
ATOM     11  O   UNL     1      -7.989   3.585  18.087  1.00  0.00    -0.387 OA
ATOM     12  H   UNL     1      -8.003   2.593  18.107  1.00  0.00     0.211 HD
ENDBRANCH   5  11
ENDBRANCH   1   5
BRANCH   1  13
ATOM     13  O   UNL     1     -10.326   3.258  16.967  1.00  0.00    -0.388 OA
ATOM     14  H   UNL     1      -9.783   2.445  16.789  1.00  0.00     0.211 HD
ENDBRANCH   1  13
TORSDOF 8
ENDMDL
MODEL 3
REMARK VINA RESULT:    -4.522      1.446      2.593
REMARK INTER + INTRA:          -6.648
REMARK INTER:                  -6.136
REMARK INTRA:                  -0.513
REMARK UNBOUND:                -0.540
REMARK SMILES O=C[C@H](O)[C@H](O)[C@@H](O)CO
REMARK SMILES IDX 7 1 9 2 10 3 5 5 3 6 2 7 1 8 4 9 6 11 8 13
REMARK H PARENT 10 4 4 10 6 12 8 14
REMARK Flexibility Score: inf
ROOT
ATOM      1  C   UNL     1      -9.819   2.865  18.238  1.00  0.00     0.171 C 
ENDROOT
BRANCH   1   2
ATOM      2  C   UNL     1      -8.332   3.172  17.983  1.00  0.00     0.190 C 
BRANCH   2   3
ATOM      3  O   UNL     1      -7.811   2.340  16.981  1.00  0.00    -0.394 OA
ATOM      4  H   UNL     1      -7.334   1.602  17.445  1.00  0.00     0.210 HD
ENDBRANCH   2   3
ENDBRANCH   1   2
BRANCH   1   5
ATOM      5  C   UNL     1     -10.383   3.715  19.402  1.00  0.00     0.181 C 
BRANCH   5   6
ATOM      6  C   UNL     1     -10.078   5.226  19.226  1.00  0.00     0.209 C 
BRANCH   6   7
ATOM      7  C   UNL     1      -9.947   5.969  20.534  1.00  0.00     0.258 C 
ATOM      8  O   UNL     1      -8.862   6.090  21.080  1.00  0.00    -0.300 OA
ENDBRANCH   6   7
BRANCH   6   9
ATOM      9  O   UNL     1     -11.041   5.841  18.407  1.00  0.00    -0.383 OA
ATOM     10  H   UNL     1     -11.938   5.555  18.721  1.00  0.00     0.211 HD
ENDBRANCH   6   9
ENDBRANCH   5   6
BRANCH   5  11
ATOM     11  O   UNL     1      -9.871   3.243  20.625  1.00  0.00    -0.387 OA
ATOM     12  H   UNL     1     -10.593   3.328  21.300  1.00  0.00     0.211 HD
ENDBRANCH   5  11
ENDBRANCH   1   5
BRANCH   1  13
ATOM     13  O   UNL     1     -10.550   3.121  17.065  1.00  0.00    -0.388 OA
ATOM     14  H   UNL     1     -10.622   2.259  16.576  1.00  0.00     0.211 HD
ENDBRANCH   1  13
TORSDOF 8
ENDMDL
MODEL 4
REMARK VINA RESULT:    -4.498      1.246      1.619
REMARK INTER + INTRA:          -6.616
REMARK INTER:                  -6.114
REMARK INTRA:                  -0.502
REMARK UNBOUND:                -0.540
REMARK SMILES O=C[C@H](O)[C@H](O)[C@@H](O)CO
REMARK SMILES IDX 7 1 9 2 10 3 5 5 3 6 2 7 1 8 4 9 6 11 8 13
REMARK H PARENT 10 4 4 10 6 12 8 14
REMARK Flexibility Score: inf
ROOT
ATOM      1  C   UNL     1      -9.571   4.054  18.719  1.00  0.00     0.171 C 
ENDROOT
BRANCH   1   2
ATOM      2  C   UNL     1     -10.492   3.170  17.858  1.00  0.00     0.190 C 
BRANCH   2   3
ATOM      3  O   UNL     1     -10.230   1.810  18.074  1.00  0.00    -0.394 OA
ATOM      4  H   UNL     1      -9.958   1.721  19.026  1.00  0.00     0.210 HD
ENDBRANCH   2   3
ENDBRANCH   1   2
BRANCH   1   5
ATOM      5  C   UNL     1     -10.065   4.129  20.184  1.00  0.00     0.181 C 
BRANCH   5   6
ATOM      6  C   UNL     1      -9.263   5.160  21.022  1.00  0.00     0.209 C 
BRANCH   6   7
ATOM      7  C   UNL     1      -9.480   6.589  20.584  1.00  0.00     0.258 C 
ATOM      8  O   UNL     1      -8.536   7.343  20.414  1.00  0.00    -0.300 OA
ENDBRANCH   6   7
BRANCH   6   9
ATOM      9  O   UNL     1      -7.891   4.850  21.021  1.00  0.00    -0.383 OA
ATOM     10  H   UNL     1      -7.660   4.484  20.128  1.00  0.00     0.211 HD
ENDBRANCH   6   9
ENDBRANCH   5   6
BRANCH   5  11
ATOM     11  O   UNL     1     -10.000   2.851  20.772  1.00  0.00    -0.387 OA
ATOM     12  H   UNL     1      -9.057   2.547  20.714  1.00  0.00     0.211 HD
ENDBRANCH   5  11
ENDBRANCH   1   5
BRANCH   1  13
ATOM     13  O   UNL     1      -8.266   3.534  18.683  1.00  0.00    -0.388 OA
ATOM     14  H   UNL     1      -7.794   3.990  17.937  1.00  0.00     0.211 HD
ENDBRANCH   1  13
TORSDOF 8
ENDMDL
MODEL 5
REMARK VINA RESULT:    -4.481      1.527      1.884
REMARK INTER + INTRA:          -6.593
REMARK INTER:                  -5.962
REMARK INTRA:                  -0.631
REMARK UNBOUND:                -0.540
REMARK SMILES O=C[C@H](O)[C@H](O)[C@@H](O)CO
REMARK SMILES IDX 7 1 9 2 10 3 5 5 3 6 2 7 1 8 4 9 6 11 8 13
REMARK H PARENT 10 4 4 10 6 12 8 14
REMARK Flexibility Score: inf
ROOT
ATOM      1  C   UNL     1      -9.871   2.852  18.797  1.00  0.00     0.171 C 
ENDROOT
BRANCH   1   2
ATOM      2  C   UNL     1     -11.322   3.036  18.313  1.00  0.00     0.190 C 
BRANCH   2   3
ATOM      3  O   UNL     1     -11.381   3.096  16.913  1.00  0.00    -0.394 OA
ATOM      4  H   UNL     1     -11.628   4.030  16.679  1.00  0.00     0.210 HD
ENDBRANCH   2   3
ENDBRANCH   1   2
BRANCH   1   5
ATOM      5  C   UNL     1      -9.171   4.213  19.022  1.00  0.00     0.181 C 
BRANCH   5   6
ATOM      6  C   UNL     1      -9.295   4.700  20.491  1.00  0.00     0.209 C 
BRANCH   6   7
ATOM      7  C   UNL     1     -10.178   5.914  20.649  1.00  0.00     0.258 C 
ATOM      8  O   UNL     1     -11.378   5.849  20.430  1.00  0.00    -0.300 OA
ENDBRANCH   6   7
BRANCH   6   9
ATOM      9  O   UNL     1      -8.026   4.940  21.049  1.00  0.00    -0.383 OA
ATOM     10  H   UNL     1      -7.476   5.409  20.369  1.00  0.00     0.211 HD
ENDBRANCH   6   9
ENDBRANCH   5   6
BRANCH   5  11
ATOM     11  O   UNL     1      -9.698   5.170  18.135  1.00  0.00    -0.387 OA
ATOM     12  H   UNL     1      -9.824   4.721  17.258  1.00  0.00     0.211 HD
ENDBRANCH   5  11
ENDBRANCH   1   5
BRANCH   1  13
ATOM     13  O   UNL     1      -9.874   2.114  19.993  1.00  0.00    -0.388 OA
ATOM     14  H   UNL     1     -10.819   2.065  20.299  1.00  0.00     0.211 HD
ENDBRANCH   1  13
TORSDOF 8
ENDMDL
MODEL 6
REMARK VINA RESULT:    -4.386      1.183      3.985
REMARK INTER + INTRA:          -6.464
REMARK INTER:                  -5.984
REMARK INTRA:                  -0.480
REMARK UNBOUND:                -0.540
REMARK SMILES O=C[C@H](O)[C@H](O)[C@@H](O)CO
REMARK SMILES IDX 7 1 9 2 10 3 5 5 3 6 2 7 1 8 4 9 6 11 8 13
REMARK H PARENT 10 4 4 10 6 12 8 14
REMARK Flexibility Score: inf
ROOT
ATOM      1  C   UNL     1      -9.214   5.214  20.507  1.00  0.00     0.171 C 
ENDROOT
BRANCH   1   2
ATOM      2  C   UNL     1      -9.197   6.754  20.555  1.00  0.00     0.190 C 
BRANCH   2   3
ATOM      3  O   UNL     1      -7.923   7.253  20.248  1.00  0.00    -0.394 OA
ATOM      4  H   UNL     1      -7.270   6.691  20.744  1.00  0.00     0.210 HD
ENDBRANCH   2   3
ENDBRANCH   1   2
BRANCH   1   5
ATOM      5  C   UNL     1      -9.455   4.694  19.069  1.00  0.00     0.181 C 
BRANCH   5   6
ATOM      6  C   UNL     1      -9.680   3.160  19.031  1.00  0.00     0.209 C 
BRANCH   6   7
ATOM      7  C   UNL     1     -10.871   2.748  18.199  1.00  0.00     0.258 C 
ATOM      8  O   UNL     1     -11.286   1.601  18.224  1.00  0.00    -0.300 OA
ENDBRANCH   6   7
BRANCH   6   9
ATOM      9  O   UNL     1      -9.784   2.634  20.331  1.00  0.00    -0.383 OA
ATOM     10  H   UNL     1      -8.871   2.391  20.637  1.00  0.00     0.211 HD
ENDBRANCH   6   9
ENDBRANCH   5   6
BRANCH   5  11
ATOM     11  O   UNL     1      -8.374   5.060  18.245  1.00  0.00    -0.387 OA
ATOM     12  H   UNL     1      -7.788   4.264  18.157  1.00  0.00     0.211 HD
ENDBRANCH   5  11
ENDBRANCH   1   5
BRANCH   1  13
ATOM     13  O   UNL     1      -7.988   4.725  20.990  1.00  0.00    -0.388 OA
ATOM     14  H   UNL     1      -7.273   5.146  20.443  1.00  0.00     0.211 HD
ENDBRANCH   1  13
TORSDOF 8
ENDMDL
MODEL 7
REMARK VINA RESULT:    -4.317      1.339      3.903
REMARK INTER + INTRA:          -6.371
REMARK INTER:                  -5.676
REMARK INTRA:                  -0.695
REMARK UNBOUND:                -0.540
REMARK SMILES O=C[C@H](O)[C@H](O)[C@@H](O)CO
REMARK SMILES IDX 7 1 9 2 10 3 5 5 3 6 2 7 1 8 4 9 6 11 8 13
REMARK H PARENT 10 4 4 10 6 12 8 14
REMARK Flexibility Score: inf
ROOT
ATOM      1  C   UNL     1      -9.220   5.550  18.930  1.00  0.00     0.171 C 
ENDROOT
BRANCH   1   2
ATOM      2  C   UNL     1      -9.021   6.428  20.180  1.00  0.00     0.190 C 
BRANCH   2   3
ATOM      3  O   UNL     1      -7.997   5.920  20.993  1.00  0.00    -0.394 OA
ATOM      4  H   UNL     1      -7.172   6.419  20.755  1.00  0.00     0.210 HD
ENDBRANCH   2   3
ENDBRANCH   1   2
BRANCH   1   5
ATOM      5  C   UNL     1      -9.023   4.050  19.253  1.00  0.00     0.181 C 
BRANCH   5   6
ATOM      6  C   UNL     1      -9.508   3.133  18.099  1.00  0.00     0.209 C 
BRANCH   6   7
ATOM      7  C   UNL     1     -10.772   2.374  18.425  1.00  0.00     0.258 C 
ATOM      8  O   UNL     1     -11.839   2.956  18.539  1.00  0.00    -0.300 OA
ENDBRANCH   6   7
BRANCH   6   9
ATOM      9  O   UNL     1      -8.492   2.245  17.702  1.00  0.00    -0.383 OA
ATOM     10  H   UNL     1      -8.658   1.371  18.143  1.00  0.00     0.211 HD
ENDBRANCH   6   9
ENDBRANCH   5   6
BRANCH   5  11
ATOM     11  O   UNL     1      -9.686   3.732  20.454  1.00  0.00    -0.387 OA
ATOM     12  H   UNL     1      -9.017   3.318  21.059  1.00  0.00     0.211 HD
ENDBRANCH   5  11
ENDBRANCH   1   5
BRANCH   1  13
ATOM     13  O   UNL     1     -10.512   5.761  18.420  1.00  0.00    -0.388 OA
ATOM     14  H   UNL     1     -10.415   6.337  17.616  1.00  0.00     0.211 HD
ENDBRANCH   1  13
TORSDOF 8
ENDMDL
MODEL 8
REMARK VINA RESULT:    -4.135      1.928      3.145
REMARK INTER + INTRA:          -6.125
REMARK INTER:                  -5.570
REMARK INTRA:                  -0.555
REMARK UNBOUND:                -0.540
REMARK SMILES O=C[C@H](O)[C@H](O)[C@@H](O)CO
REMARK SMILES IDX 7 1 9 2 10 3 5 5 3 6 2 7 1 8 4 9 6 11 8 13
REMARK H PARENT 10 4 4 10 6 12 8 14
REMARK Flexibility Score: inf
ROOT
ATOM      1  C   UNL     1      -9.029   3.967  18.739  1.00  0.00     0.171 C 
ENDROOT
BRANCH   1   2
ATOM      2  C   UNL     1      -7.920   3.462  17.796  1.00  0.00     0.190 C 
BRANCH   2   3
ATOM      3  O   UNL     1      -8.139   2.126  17.432  1.00  0.00    -0.394 OA
ATOM      4  H   UNL     1      -7.991   1.581  18.250  1.00  0.00     0.210 HD
ENDBRANCH   2   3
ENDBRANCH   1   2
BRANCH   1   5
ATOM      5  C   UNL     1     -10.100   2.878  18.989  1.00  0.00     0.181 C 
BRANCH   5   6
ATOM      6  C   UNL     1     -11.423   3.472  19.542  1.00  0.00     0.209 C 
BRANCH   6   7
ATOM      7  C   UNL     1     -11.891   4.696  18.792  1.00  0.00     0.258 C 
ATOM      8  O   UNL     1     -12.022   5.768  19.361  1.00  0.00    -0.300 OA
ENDBRANCH   6   7
BRANCH   6   9
ATOM      9  O   UNL     1     -11.313   3.750  20.916  1.00  0.00    -0.383 OA
ATOM     10  H   UNL     1     -12.204   4.044  21.241  1.00  0.00     0.211 HD
ENDBRANCH   6   9
ENDBRANCH   5   6
BRANCH   5  11
ATOM     11  O   UNL     1      -9.588   1.901  19.864  1.00  0.00    -0.387 OA
ATOM     12  H   UNL     1     -10.135   1.082  19.744  1.00  0.00     0.211 HD
ENDBRANCH   5  11
ENDBRANCH   1   5
BRANCH   1  13
ATOM     13  O   UNL     1      -8.453   4.357  19.961  1.00  0.00    -0.388 OA
ATOM     14  H   UNL     1      -7.479   4.170  19.893  1.00  0.00     0.211 HD
ENDBRANCH   1  13
TORSDOF 8
ENDMDL
MODEL 9
REMARK VINA RESULT:    -4.076      1.577      2.218
REMARK INTER + INTRA:          -6.046
REMARK INTER:                  -5.852
REMARK INTRA:                  -0.193
REMARK UNBOUND:                -0.540
REMARK SMILES O=C[C@H](O)[C@H](O)[C@@H](O)CO
REMARK SMILES IDX 7 1 9 2 10 3 5 5 3 6 2 7 1 8 4 9 6 11 8 13
REMARK H PARENT 10 4 4 10 6 12 8 14
REMARK Flexibility Score: inf
ROOT
ATOM      1  C   UNL     1      -9.317   3.072  18.618  1.00  0.00     0.171 C 
ENDROOT
BRANCH   1   2
ATOM      2  C   UNL     1      -8.085   3.335  17.730  1.00  0.00     0.190 C 
BRANCH   2   3
ATOM      3  O   UNL     1      -7.778   2.210  16.951  1.00  0.00    -0.394 OA
ATOM      4  H   UNL     1      -8.110   1.418  17.452  1.00  0.00     0.210 HD
ENDBRANCH   2   3
ENDBRANCH   1   2
BRANCH   1   5
ATOM      5  C   UNL     1     -10.185   4.344  18.773  1.00  0.00     0.181 C 
BRANCH   5   6
ATOM      6  C   UNL     1     -10.502   4.661  20.258  1.00  0.00     0.209 C 
BRANCH   6   7
ATOM      7  C   UNL     1      -9.347   5.293  20.997  1.00  0.00     0.258 C 
ATOM      8  O   UNL     1      -8.734   6.232  20.515  1.00  0.00    -0.300 OA
ENDBRANCH   6   7
BRANCH   6   9
ATOM      9  O   UNL     1     -10.946   3.510  20.934  1.00  0.00    -0.383 OA
ATOM     10  H   UNL     1     -11.834   3.711  21.330  1.00  0.00     0.211 HD
ENDBRANCH   6   9
ENDBRANCH   5   6
BRANCH   5  11
ATOM     11  O   UNL     1     -11.372   4.200  18.030  1.00  0.00    -0.387 OA
ATOM     12  H   UNL     1     -12.118   4.114  18.679  1.00  0.00     0.211 HD
ENDBRANCH   5  11
ENDBRANCH   1   5
BRANCH   1  13
ATOM     13  O   UNL     1     -10.082   2.039  18.052  1.00  0.00    -0.388 OA
ATOM     14  H   UNL     1     -10.994   2.109  18.441  1.00  0.00     0.211 HD
ENDBRANCH   1  13
TORSDOF 8
ENDMDL
