MODEL 1
REMARK VINA RESULT:    -5.149      0.000      0.000
REMARK INTER + INTRA:          -8.667
REMARK INTER:                  -7.256
REMARK INTRA:                  -1.411
REMARK UNBOUND:                -1.411
REMARK SMILES OCC1=C[C@H](O)[C@@H]2C=CO[C@@H](O[C@@H]3O[C@H](CO)[C@@H](O)[C@H](O)[C@@H]3O)[C@@H]12
REMARK SMILES IDX 12 1 11 2 8 3 9 4 7 5 10 6 24 7 5 8 3 9 4 10 6 11 2 13 1 14
REMARK SMILES IDX 13 16 22 17 14 18 20 19 15 20 18 21 23 22 21 24 16 26 17 27
REMARK SMILES IDX 19 29
REMARK H PARENT 6 12 1 15 23 23 21 25 17 28 19 30
REMARK Flexibility Score: inf
ROOT
ATOM      1  O   UNL     1      69.261  53.872  20.563  1.00  0.00    -0.310 OA
ENDROOT
BRANCH   1   2
ATOM      2  C   UNL     1      68.378  54.594  19.727  1.00  0.00     0.316 C 
ATOM      3  C   UNL     1      65.662  53.959  20.589  1.00  0.00     0.018 C 
ATOM      4  C   UNL     1      66.211  55.143  20.910  1.00  0.00     0.186 C 
ATOM      5  C   UNL     1      66.559  52.936  19.968  1.00  0.00     0.061 C 
ATOM      6  O   UNL     1      67.536  55.462  20.521  1.00  0.00    -0.472 OA
ATOM      7  C   UNL     1      67.469  53.624  18.965  1.00  0.00     0.096 C 
ATOM      8  C   UNL     1      65.993  51.753  19.181  1.00  0.00     0.145 C 
ATOM      9  C   UNL     1      68.022  52.461  18.216  1.00  0.00    -0.036 C 
ATOM     10  C   UNL     1      67.154  51.444  18.276  1.00  0.00     0.007 C 
BRANCH   8  11
ATOM     11  O   UNL     1      64.883  52.133  18.413  1.00  0.00    -0.388 OA
ATOM     12  H   UNL     1      65.064  53.059  18.096  1.00  0.00     0.211 HD
ENDBRANCH   8  11
BRANCH   9  13
ATOM     13  C   UNL     1      69.246  52.482  17.347  1.00  0.00     0.187 C 
BRANCH  13  14
ATOM     14  O   UNL     1      70.368  52.074  18.081  1.00  0.00    -0.392 OA
ATOM     15  H   UNL     1      71.119  52.655  17.792  1.00  0.00     0.211 HD
ENDBRANCH  13  14
ENDBRANCH   9  13
ENDBRANCH   1   2
BRANCH   1  16
ATOM     16  C   UNL     1      70.502  54.541  20.717  1.00  0.00     0.286 C 
ATOM     17  C   UNL     1      71.013  54.346  22.178  1.00  0.00     0.202 C 
ATOM     18  O   UNL     1      71.390  54.011  19.739  1.00  0.00    -0.341 OA
ATOM     19  C   UNL     1      72.048  53.209  22.264  1.00  0.00     0.179 C 
ATOM     20  C   UNL     1      72.740  54.295  20.049  1.00  0.00     0.178 C 
ATOM     21  C   UNL     1      73.207  53.433  21.253  1.00  0.00     0.177 C 
BRANCH  17  22
ATOM     22  O   UNL     1      69.942  54.108  23.056  1.00  0.00    -0.385 OA
ATOM     23  H   UNL     1      69.251  53.618  22.541  1.00  0.00     0.211 HD
ENDBRANCH  17  22
BRANCH  19  24
ATOM     24  O   UNL     1      71.438  51.955  22.079  1.00  0.00    -0.387 OA
ATOM     25  H   UNL     1      72.022  51.260  22.476  1.00  0.00     0.211 HD
ENDBRANCH  19  24
BRANCH  20  26
ATOM     26  C   UNL     1      73.610  54.055  18.806  1.00  0.00     0.191 C 
BRANCH  26  27
ATOM     27  O   UNL     1      72.858  53.521  17.749  1.00  0.00    -0.394 OA
ATOM     28  H   UNL     1      72.849  52.537  17.872  1.00  0.00     0.210 HD
ENDBRANCH  26  27
ENDBRANCH  20  26
BRANCH  21  29
ATOM     29  O   UNL     1      74.278  54.089  21.885  1.00  0.00    -0.387 OA
ATOM     30  H   UNL     1      74.775  53.403  22.403  1.00  0.00     0.211 HD
ENDBRANCH  21  29
ENDBRANCH   1  16
TORSDOF 10
ENDMDL
MODEL 2
REMARK VINA RESULT:    -4.886      3.015      5.123
REMARK INTER + INTRA:          -8.297
REMARK INTER:                  -6.690
REMARK INTRA:                  -1.606
REMARK UNBOUND:                -1.411
REMARK SMILES OCC1=C[C@H](O)[C@@H]2C=CO[C@@H](O[C@@H]3O[C@H](CO)[C@@H](O)[C@H](O)[C@@H]3O)[C@@H]12
REMARK SMILES IDX 12 1 11 2 8 3 9 4 7 5 10 6 24 7 5 8 3 9 4 10 6 11 2 13 1 14
REMARK SMILES IDX 13 16 22 17 14 18 20 19 15 20 18 21 23 22 21 24 16 26 17 27
REMARK SMILES IDX 19 29
REMARK H PARENT 6 12 1 15 23 23 21 25 17 28 19 30
REMARK Flexibility Score: inf
ROOT
ATOM      1  O   UNL     1      69.642  54.976  18.259  1.00  0.00    -0.310 OA
ENDROOT
BRANCH   1   2
ATOM      2  C   UNL     1      70.559  56.049  18.342  1.00  0.00     0.316 C 
ATOM      3  C   UNL     1      69.930  57.892  16.167  1.00  0.00     0.018 C 
ATOM      4  C   UNL     1      69.575  58.191  17.429  1.00  0.00     0.186 C 
ATOM      5  C   UNL     1      70.461  56.516  15.916  1.00  0.00     0.061 C 
ATOM      6  O   UNL     1      69.850  57.300  18.496  1.00  0.00    -0.472 OA
ATOM      7  C   UNL     1      71.388  56.131  17.056  1.00  0.00     0.096 C 
ATOM      8  C   UNL     1      71.282  56.196  14.667  1.00  0.00     0.145 C 
ATOM      9  C   UNL     1      72.074  54.935  16.492  1.00  0.00    -0.036 C 
ATOM     10  C   UNL     1      72.080  55.018  15.156  1.00  0.00     0.007 C 
BRANCH   8  11
ATOM     11  O   UNL     1      72.148  57.249  14.338  1.00  0.00    -0.388 OA
ATOM     12  H   UNL     1      72.818  56.875  13.704  1.00  0.00     0.211 HD
ENDBRANCH   8  11
BRANCH   9  13
ATOM     13  C   UNL     1      72.833  53.908  17.282  1.00  0.00     0.187 C 
BRANCH  13  14
ATOM     14  O   UNL     1      71.999  52.829  17.600  1.00  0.00    -0.392 OA
ATOM     15  H   UNL     1      71.109  53.039  17.216  1.00  0.00     0.211 HD
ENDBRANCH  13  14
ENDBRANCH   9  13
ENDBRANCH   1   2
BRANCH   1  16
ATOM     16  C   UNL     1      69.379  54.410  19.533  1.00  0.00     0.286 C 
ATOM     17  C   UNL     1      68.291  53.300  19.386  1.00  0.00     0.202 C 
ATOM     18  O   UNL     1      70.615  53.917  20.038  1.00  0.00    -0.341 OA
ATOM     19  C   UNL     1      68.925  51.899  19.317  1.00  0.00     0.179 C 
ATOM     20  C   UNL     1      70.419  52.991  21.088  1.00  0.00     0.178 C 
ATOM     21  C   UNL     1      69.867  51.653  20.527  1.00  0.00     0.177 C 
BRANCH  17  22
ATOM     22  O   UNL     1      67.484  53.536  18.261  1.00  0.00    -0.385 OA
ATOM     23  H   UNL     1      67.891  54.293  17.768  1.00  0.00     0.211 HD
ENDBRANCH  17  22
BRANCH  19  24
ATOM     24  O   UNL     1      69.594  51.708  18.095  1.00  0.00    -0.387 OA
ATOM     25  H   UNL     1      69.587  52.564  17.595  1.00  0.00     0.211 HD
ENDBRANCH  19  24
BRANCH  20  26
ATOM     26  C   UNL     1      71.741  52.790  21.844  1.00  0.00     0.191 C 
BRANCH  26  27
ATOM     27  O   UNL     1      71.638  51.763  22.793  1.00  0.00    -0.394 OA
ATOM     28  H   UNL     1      71.739  52.185  23.684  1.00  0.00     0.210 HD
ENDBRANCH  26  27
ENDBRANCH  20  26
BRANCH  21  29
ATOM     29  O   UNL     1      69.171  50.989  21.553  1.00  0.00    -0.387 OA
ATOM     30  H   UNL     1      68.227  50.903  21.257  1.00  0.00     0.211 HD
ENDBRANCH  21  29
ENDBRANCH   1  16
TORSDOF 10
ENDMDL
MODEL 3
REMARK VINA RESULT:    -4.737      3.371      5.804
REMARK INTER + INTRA:          -8.086
REMARK INTER:                  -7.318
REMARK INTRA:                  -0.768
REMARK UNBOUND:                -1.411
REMARK SMILES OCC1=C[C@H](O)[C@@H]2C=CO[C@@H](O[C@@H]3O[C@H](CO)[C@@H](O)[C@H](O)[C@@H]3O)[C@@H]12
REMARK SMILES IDX 12 1 11 2 8 3 9 4 7 5 10 6 24 7 5 8 3 9 4 10 6 11 2 13 1 14
REMARK SMILES IDX 13 16 22 17 14 18 20 19 15 20 18 21 23 22 21 24 16 26 17 27
REMARK SMILES IDX 19 29
REMARK H PARENT 6 12 1 15 23 23 21 25 17 28 19 30
REMARK Flexibility Score: inf
ROOT
ATOM      1  O   UNL     1      69.906  52.922  23.885  1.00  0.00    -0.310 OA
ENDROOT
BRANCH   1   2
ATOM      2  C   UNL     1      71.008  52.341  23.217  1.00  0.00     0.316 C 
ATOM      3  C   UNL     1      71.229  53.649  20.617  1.00  0.00     0.018 C 
ATOM      4  C   UNL     1      72.085  53.964  21.604  1.00  0.00     0.186 C 
ATOM      5  C   UNL     1      70.067  52.777  20.973  1.00  0.00     0.061 C 
ATOM      6  O   UNL     1      71.981  53.357  22.882  1.00  0.00    -0.472 OA
ATOM      7  C   UNL     1      70.543  51.683  21.914  1.00  0.00     0.096 C 
ATOM      8  C   UNL     1      69.290  52.011  19.902  1.00  0.00     0.145 C 
ATOM      9  C   UNL     1      69.390  50.740  21.883  1.00  0.00    -0.036 C 
ATOM     10  C   UNL     1      68.741  50.874  20.720  1.00  0.00     0.007 C 
BRANCH   8  11
ATOM     11  O   UNL     1      70.144  51.508  18.910  1.00  0.00    -0.388 OA
ATOM     12  H   UNL     1      69.709  51.706  18.037  1.00  0.00     0.211 HD
ENDBRANCH   8  11
BRANCH   9  13
ATOM     13  C   UNL     1      69.120  49.657  22.887  1.00  0.00     0.187 C 
BRANCH  13  14
ATOM     14  O   UNL     1      70.266  48.872  23.072  1.00  0.00    -0.392 OA
ATOM     15  H   UNL     1      70.686  48.774  22.178  1.00  0.00     0.211 HD
ENDBRANCH  13  14
ENDBRANCH   9  13
ENDBRANCH   1   2
BRANCH   1  16
ATOM     16  C   UNL     1      70.200  54.234  24.339  1.00  0.00     0.286 C 
ATOM     17  C   UNL     1      68.930  55.128  24.181  1.00  0.00     0.202 C 
ATOM     18  O   UNL     1      70.641  54.124  25.687  1.00  0.00    -0.341 OA
ATOM     19  C   UNL     1      68.161  55.251  25.509  1.00  0.00     0.179 C 
ATOM     20  C   UNL     1      70.573  55.365  26.362  1.00  0.00     0.178 C 
ATOM     21  C   UNL     1      69.095  55.740  26.650  1.00  0.00     0.177 C 
BRANCH  17  22
ATOM     22  O   UNL     1      68.093  54.633  23.166  1.00  0.00    -0.385 OA
ATOM     23  H   UNL     1      68.427  53.730  22.932  1.00  0.00     0.211 HD
ENDBRANCH  17  22
BRANCH  19  24
ATOM     24  O   UNL     1      67.531  54.038  25.841  1.00  0.00    -0.387 OA
ATOM     25  H   UNL     1      68.047  53.606  26.569  1.00  0.00     0.211 HD
ENDBRANCH  19  24
BRANCH  20  26
ATOM     26  C   UNL     1      71.403  55.288  27.654  1.00  0.00     0.191 C 
BRANCH  26  27
ATOM     27  O   UNL     1      70.589  55.371  28.792  1.00  0.00    -0.394 OA
ATOM     28  H   UNL     1      70.722  54.532  29.302  1.00  0.00     0.210 HD
ENDBRANCH  26  27
ENDBRANCH  20  26
BRANCH  21  29
ATOM     29  O   UNL     1      69.004  57.136  26.782  1.00  0.00    -0.387 OA
ATOM     30  H   UNL     1      69.638  57.534  26.129  1.00  0.00     0.211 HD
ENDBRANCH  21  29
ENDBRANCH   1  16
TORSDOF 10
ENDMDL
MODEL 4
REMARK VINA RESULT:    -4.722      2.335      5.518
REMARK INTER + INTRA:          -8.065
REMARK INTER:                  -7.090
REMARK INTRA:                  -0.975
REMARK UNBOUND:                -1.411
REMARK SMILES OCC1=C[C@H](O)[C@@H]2C=CO[C@@H](O[C@@H]3O[C@H](CO)[C@@H](O)[C@H](O)[C@@H]3O)[C@@H]12
REMARK SMILES IDX 12 1 11 2 8 3 9 4 7 5 10 6 24 7 5 8 3 9 4 10 6 11 2 13 1 14
REMARK SMILES IDX 13 16 22 17 14 18 20 19 15 20 18 21 23 22 21 24 16 26 17 27
REMARK SMILES IDX 19 29
REMARK H PARENT 6 12 1 15 23 23 21 25 17 28 19 30
REMARK Flexibility Score: inf
ROOT
ATOM      1  O   UNL     1      68.762  54.960  21.631  1.00  0.00    -0.310 OA
ENDROOT
BRANCH   1   2
ATOM      2  C   UNL     1      67.894  54.627  22.697  1.00  0.00     0.316 C 
ATOM      3  C   UNL     1      68.833  56.069  25.055  1.00  0.00     0.018 C 
ATOM      4  C   UNL     1      67.743  56.495  24.395  1.00  0.00     0.186 C 
ATOM      5  C   UNL     1      69.633  54.978  24.419  1.00  0.00     0.061 C 
ATOM      6  O   UNL     1      67.283  55.824  23.234  1.00  0.00    -0.472 OA
ATOM      7  C   UNL     1      68.683  53.953  23.824  1.00  0.00     0.096 C 
ATOM      8  C   UNL     1      70.608  54.127  25.233  1.00  0.00     0.145 C 
ATOM      9  C   UNL     1      69.602  52.811  23.558  1.00  0.00    -0.036 C 
ATOM     10  C   UNL     1      70.638  52.872  24.405  1.00  0.00     0.007 C 
BRANCH   8  11
ATOM     11  O   UNL     1      70.097  53.840  26.507  1.00  0.00    -0.388 OA
ATOM     12  H   UNL     1      70.882  53.753  27.113  1.00  0.00     0.211 HD
ENDBRANCH   8  11
BRANCH   9  13
ATOM     13  C   UNL     1      69.317  51.653  22.647  1.00  0.00     0.187 C 
BRANCH  13  14
ATOM     14  O   UNL     1      70.498  51.222  22.029  1.00  0.00    -0.392 OA
ATOM     15  H   UNL     1      70.345  50.280  21.756  1.00  0.00     0.211 HD
ENDBRANCH  13  14
ENDBRANCH   9  13
ENDBRANCH   1   2
BRANCH   1  16
ATOM     16  C   UNL     1      68.157  54.727  20.369  1.00  0.00     0.286 C 
ATOM     17  C   UNL     1      69.228  54.898  19.247  1.00  0.00     0.202 C 
ATOM     18  O   UNL     1      67.593  53.421  20.408  1.00  0.00    -0.341 OA
ATOM     19  C   UNL     1      69.796  53.538  18.800  1.00  0.00     0.179 C 
ATOM     20  C   UNL     1      67.327  52.928  19.109  1.00  0.00     0.178 C 
ATOM     21  C   UNL     1      68.655  52.567  18.391  1.00  0.00     0.177 C 
BRANCH  17  22
ATOM     22  O   UNL     1      70.262  55.753  19.668  1.00  0.00    -0.385 OA
ATOM     23  H   UNL     1      70.202  55.812  20.655  1.00  0.00     0.211 HD
ENDBRANCH  17  22
BRANCH  19  24
ATOM     24  O   UNL     1      70.615  52.981  19.798  1.00  0.00    -0.387 OA
ATOM     25  H   UNL     1      71.415  52.587  19.364  1.00  0.00     0.211 HD
ENDBRANCH  19  24
BRANCH  20  26
ATOM     26  C   UNL     1      66.385  51.718  19.207  1.00  0.00     0.191 C 
BRANCH  26  27
ATOM     27  O   UNL     1      65.065  52.069  18.888  1.00  0.00    -0.394 OA
ATOM     28  H   UNL     1      64.595  52.229  19.746  1.00  0.00     0.210 HD
ENDBRANCH  26  27
ENDBRANCH  20  26
BRANCH  21  29
ATOM     29  O   UNL     1      68.444  52.629  17.002  1.00  0.00    -0.387 OA
ATOM     30  H   UNL     1      69.117  52.033  16.578  1.00  0.00     0.211 HD
ENDBRANCH  21  29
ENDBRANCH   1  16
TORSDOF 10
ENDMDL
MODEL 5
REMARK VINA RESULT:    -4.682      2.322      4.978
REMARK INTER + INTRA:          -8.009
REMARK INTER:                  -6.343
REMARK INTRA:                  -1.665
REMARK UNBOUND:                -1.411
REMARK SMILES OCC1=C[C@H](O)[C@@H]2C=CO[C@@H](O[C@@H]3O[C@H](CO)[C@@H](O)[C@H](O)[C@@H]3O)[C@@H]12
REMARK SMILES IDX 12 1 11 2 8 3 9 4 7 5 10 6 24 7 5 8 3 9 4 10 6 11 2 13 1 14
REMARK SMILES IDX 13 16 22 17 14 18 20 19 15 20 18 21 23 22 21 24 16 26 17 27
REMARK SMILES IDX 19 29
REMARK H PARENT 6 12 1 15 23 23 21 25 17 28 19 30
REMARK Flexibility Score: inf
ROOT
ATOM      1  O   UNL     1      71.416  54.528  19.983  1.00  0.00    -0.310 OA
ENDROOT
BRANCH   1   2
ATOM      2  C   UNL     1      72.274  53.738  19.184  1.00  0.00     0.316 C 
ATOM      3  C   UNL     1      73.327  55.467  17.081  1.00  0.00     0.018 C 
ATOM      4  C   UNL     1      74.103  55.127  18.124  1.00  0.00     0.186 C 
ATOM      5  C   UNL     1      71.880  55.097  17.157  1.00  0.00     0.061 C 
ATOM      6  O   UNL     1      73.604  54.307  19.168  1.00  0.00    -0.472 OA
ATOM      7  C   UNL     1      71.760  53.700  17.742  1.00  0.00     0.096 C 
ATOM      8  C   UNL     1      71.009  55.033  15.902  1.00  0.00     0.145 C 
ATOM      9  C   UNL     1      70.342  53.366  17.427  1.00  0.00    -0.036 C 
ATOM     10  C   UNL     1      69.954  54.057  16.349  1.00  0.00     0.007 C 
BRANCH   8  11
ATOM     11  O   UNL     1      71.714  54.500  14.814  1.00  0.00    -0.388 OA
ATOM     12  H   UNL     1      71.926  55.265  14.213  1.00  0.00     0.211 HD
ENDBRANCH   8  11
BRANCH   9  13
ATOM     13  C   UNL     1      69.539  52.272  18.069  1.00  0.00     0.187 C 
BRANCH  13  14
ATOM     14  O   UNL     1      68.858  52.766  19.189  1.00  0.00    -0.392 OA
ATOM     15  H   UNL     1      67.987  52.291  19.220  1.00  0.00     0.211 HD
ENDBRANCH  13  14
ENDBRANCH   9  13
ENDBRANCH   1   2
BRANCH   1  16
ATOM     16  C   UNL     1      71.330  54.032  21.310  1.00  0.00     0.286 C 
ATOM     17  C   UNL     1      70.578  55.070  22.198  1.00  0.00     0.202 C 
ATOM     18  O   UNL     1      70.672  52.771  21.246  1.00  0.00    -0.341 OA
ATOM     19  C   UNL     1      69.093  54.695  22.367  1.00  0.00     0.179 C 
ATOM     20  C   UNL     1      70.173  52.377  22.509  1.00  0.00     0.178 C 
ATOM     21  C   UNL     1      68.943  53.242  22.894  1.00  0.00     0.177 C 
BRANCH  17  22
ATOM     22  O   UNL     1      70.704  56.366  21.670  1.00  0.00    -0.385 OA
ATOM     23  H   UNL     1      70.012  56.460  20.968  1.00  0.00     0.211 HD
ENDBRANCH  17  22
BRANCH  19  24
ATOM     24  O   UNL     1      68.386  54.885  21.166  1.00  0.00    -0.387 OA
ATOM     25  H   UNL     1      68.334  54.016  20.692  1.00  0.00     0.211 HD
ENDBRANCH  19  24
BRANCH  20  26
ATOM     26  C   UNL     1      69.829  50.879  22.475  1.00  0.00     0.191 C 
BRANCH  26  27
ATOM     27  O   UNL     1      69.523  50.453  21.175  1.00  0.00    -0.394 OA
ATOM     28  H   UNL     1      68.962  49.640  21.265  1.00  0.00     0.210 HD
ENDBRANCH  26  27
ENDBRANCH  20  26
BRANCH  21  29
ATOM     29  O   UNL     1      68.820  53.247  24.294  1.00  0.00    -0.387 OA
ATOM     30  H   UNL     1      69.732  53.127  24.669  1.00  0.00     0.211 HD
ENDBRANCH  21  29
ENDBRANCH   1  16
TORSDOF 10
ENDMDL
MODEL 6
REMARK VINA RESULT:    -4.657      2.219      4.653
REMARK INTER + INTRA:          -7.974
REMARK INTER:                  -6.322
REMARK INTRA:                  -1.652
REMARK UNBOUND:                -1.411
REMARK SMILES OCC1=C[C@H](O)[C@@H]2C=CO[C@@H](O[C@@H]3O[C@H](CO)[C@@H](O)[C@H](O)[C@@H]3O)[C@@H]12
REMARK SMILES IDX 12 1 11 2 8 3 9 4 7 5 10 6 24 7 5 8 3 9 4 10 6 11 2 13 1 14
REMARK SMILES IDX 13 16 22 17 14 18 20 19 15 20 18 21 23 22 21 24 16 26 17 27
REMARK SMILES IDX 19 29
REMARK H PARENT 6 12 1 15 23 23 21 25 17 28 19 30
REMARK Flexibility Score: inf
ROOT
ATOM      1  O   UNL     1      69.348  52.890  20.904  1.00  0.00    -0.310 OA
ENDROOT
BRANCH   1   2
ATOM      2  C   UNL     1      68.474  53.594  20.044  1.00  0.00     0.316 C 
ATOM      3  C   UNL     1      68.701  52.376  17.400  1.00  0.00     0.018 C 
ATOM      4  C   UNL     1      67.627  52.124  18.168  1.00  0.00     0.186 C 
ATOM      5  C   UNL     1      69.833  53.121  18.033  1.00  0.00     0.061 C 
ATOM      6  O   UNL     1      67.508  52.686  19.464  1.00  0.00    -0.472 OA
ATOM      7  C   UNL     1      69.267  54.233  18.900  1.00  0.00     0.096 C 
ATOM      8  C   UNL     1      70.889  53.832  17.187  1.00  0.00     0.145 C 
ATOM      9  C   UNL     1      70.480  55.058  19.157  1.00  0.00    -0.036 C 
ATOM     10  C   UNL     1      71.350  54.889  18.154  1.00  0.00     0.007 C 
BRANCH   8  11
ATOM     11  O   UNL     1      70.319  54.441  16.060  1.00  0.00    -0.388 OA
ATOM     12  H   UNL     1      71.066  54.615  15.426  1.00  0.00     0.211 HD
ENDBRANCH   8  11
BRANCH   9  13
ATOM     13  C   UNL     1      70.625  56.085  20.242  1.00  0.00     0.187 C 
BRANCH  13  14
ATOM     14  O   UNL     1      71.149  55.494  21.400  1.00  0.00    -0.392 OA
ATOM     15  H   UNL     1      70.887  54.538  21.370  1.00  0.00     0.211 HD
ENDBRANCH  13  14
ENDBRANCH   9  13
ENDBRANCH   1   2
BRANCH   1  16
ATOM     16  C   UNL     1      68.900  52.924  22.250  1.00  0.00     0.286 C 
ATOM     17  C   UNL     1      69.827  52.021  23.122  1.00  0.00     0.202 C 
ATOM     18  O   UNL     1      68.903  54.287  22.660  1.00  0.00    -0.341 OA
ATOM     19  C   UNL     1      70.895  52.854  23.855  1.00  0.00     0.179 C 
ATOM     20  C   UNL     1      68.870  54.410  24.068  1.00  0.00     0.178 C 
ATOM     21  C   UNL     1      70.240  54.001  24.674  1.00  0.00     0.177 C 
BRANCH  17  22
ATOM     22  O   UNL     1      70.430  51.020  22.341  1.00  0.00    -0.385 OA
ATOM     23  H   UNL     1      71.168  50.640  22.881  1.00  0.00     0.211 HD
ENDBRANCH  17  22
BRANCH  19  24
ATOM     24  O   UNL     1      71.857  53.346  22.956  1.00  0.00    -0.387 OA
ATOM     25  H   UNL     1      72.492  53.920  23.457  1.00  0.00     0.211 HD
ENDBRANCH  19  24
BRANCH  20  26
ATOM     26  C   UNL     1      68.487  55.849  24.445  1.00  0.00     0.191 C 
BRANCH  26  27
ATOM     27  O   UNL     1      68.329  55.991  25.831  1.00  0.00    -0.394 OA
ATOM     28  H   UNL     1      67.353  56.020  26.007  1.00  0.00     0.210 HD
ENDBRANCH  26  27
ENDBRANCH  20  26
BRANCH  21  29
ATOM     29  O   UNL     1      70.038  53.591  26.003  1.00  0.00    -0.387 OA
ATOM     30  H   UNL     1      69.775  54.396  26.521  1.00  0.00     0.211 HD
ENDBRANCH  21  29
ENDBRANCH   1  16
TORSDOF 10
ENDMDL
MODEL 7
REMARK VINA RESULT:    -4.575      2.491      4.311
REMARK INTER + INTRA:          -7.858
REMARK INTER:                  -6.402
REMARK INTRA:                  -1.456
REMARK UNBOUND:                -1.411
REMARK SMILES OCC1=C[C@H](O)[C@@H]2C=CO[C@@H](O[C@@H]3O[C@H](CO)[C@@H](O)[C@H](O)[C@@H]3O)[C@@H]12
REMARK SMILES IDX 12 1 11 2 8 3 9 4 7 5 10 6 24 7 5 8 3 9 4 10 6 11 2 13 1 14
REMARK SMILES IDX 13 16 22 17 14 18 20 19 15 20 18 21 23 22 21 24 16 26 17 27
REMARK SMILES IDX 19 29
REMARK H PARENT 6 12 1 15 23 23 21 25 17 28 19 30
REMARK Flexibility Score: inf
ROOT
ATOM      1  O   UNL     1      70.998  54.098  19.821  1.00  0.00    -0.310 OA
ENDROOT
BRANCH   1   2
ATOM      2  C   UNL     1      70.342  54.317  21.055  1.00  0.00     0.316 C 
ATOM      3  C   UNL     1      71.285  52.268  22.908  1.00  0.00     0.018 C 
ATOM      4  C   UNL     1      71.741  53.528  23.008  1.00  0.00     0.186 C 
ATOM      5  C   UNL     1      70.456  51.935  21.708  1.00  0.00     0.061 C 
ATOM      6  O   UNL     1      71.314  54.533  22.104  1.00  0.00    -0.472 OA
ATOM      7  C   UNL     1      69.508  53.089  21.430  1.00  0.00     0.096 C 
ATOM      8  C   UNL     1      69.542  50.710  21.687  1.00  0.00     0.145 C 
ATOM      9  C   UNL     1      68.556  52.468  20.467  1.00  0.00    -0.036 C 
ATOM     10  C   UNL     1      68.522  51.145  20.670  1.00  0.00     0.007 C 
BRANCH   8  11
ATOM     11  O   UNL     1      68.917  50.515  22.928  1.00  0.00    -0.388 OA
ATOM     12  H   UNL     1      67.990  50.212  22.731  1.00  0.00     0.211 HD
ENDBRANCH   8  11
BRANCH   9  13
ATOM     13  C   UNL     1      67.618  53.212  19.561  1.00  0.00     0.187 C 
BRANCH  13  14
ATOM     14  O   UNL     1      68.322  53.763  18.483  1.00  0.00    -0.392 OA
ATOM     15  H   UNL     1      69.266  53.849  18.778  1.00  0.00     0.211 HD
ENDBRANCH  13  14
ENDBRANCH   9  13
ENDBRANCH   1   2
BRANCH   1  16
ATOM     16  C   UNL     1      71.489  55.307  19.265  1.00  0.00     0.286 C 
ATOM     17  C   UNL     1      73.039  55.209  19.111  1.00  0.00     0.202 C 
ATOM     18  O   UNL     1      70.817  55.504  18.026  1.00  0.00    -0.341 OA
ATOM     19  C   UNL     1      73.438  54.830  17.673  1.00  0.00     0.179 C 
ATOM     20  C   UNL     1      71.495  56.433  17.205  1.00  0.00     0.178 C 
ATOM     21  C   UNL     1      72.798  55.802  16.644  1.00  0.00     0.177 C 
BRANCH  17  22
ATOM     22  O   UNL     1      73.576  54.294  20.033  1.00  0.00    -0.385 OA
ATOM     23  H   UNL     1      73.106  54.441  20.892  1.00  0.00     0.211 HD
ENDBRANCH  17  22
BRANCH  19  24
ATOM     24  O   UNL     1      73.108  53.492  17.394  1.00  0.00    -0.387 OA
ATOM     25  H   UNL     1      73.876  53.069  16.931  1.00  0.00     0.211 HD
ENDBRANCH  19  24
BRANCH  20  26
ATOM     26  C   UNL     1      70.558  56.899  16.080  1.00  0.00     0.191 C 
BRANCH  26  27
ATOM     27  O   UNL     1      71.047  56.531  14.819  1.00  0.00    -0.394 OA
ATOM     28  H   UNL     1      70.294  56.111  14.330  1.00  0.00     0.210 HD
ENDBRANCH  26  27
ENDBRANCH  20  26
BRANCH  21  29
ATOM     29  O   UNL     1      73.699  56.835  16.331  1.00  0.00    -0.387 OA
ATOM     30  H   UNL     1      73.264  57.690  16.589  1.00  0.00     0.211 HD
ENDBRANCH  21  29
ENDBRANCH   1  16
TORSDOF 10
ENDMDL
MODEL 8
REMARK VINA RESULT:    -4.568      3.259      5.907
REMARK INTER + INTRA:          -7.849
REMARK INTER:                  -6.508
REMARK INTRA:                  -1.341
REMARK UNBOUND:                -1.411
REMARK SMILES OCC1=C[C@H](O)[C@@H]2C=CO[C@@H](O[C@@H]3O[C@H](CO)[C@@H](O)[C@H](O)[C@@H]3O)[C@@H]12
REMARK SMILES IDX 12 1 11 2 8 3 9 4 7 5 10 6 24 7 5 8 3 9 4 10 6 11 2 13 1 14
REMARK SMILES IDX 13 16 22 17 14 18 20 19 15 20 18 21 23 22 21 24 16 26 17 27
REMARK SMILES IDX 19 29
REMARK H PARENT 6 12 1 15 23 23 21 25 17 28 19 30
REMARK Flexibility Score: inf
ROOT
ATOM      1  O   UNL     1      69.376  53.796  23.756  1.00  0.00    -0.310 OA
ENDROOT
BRANCH   1   2
ATOM      2  C   UNL     1      70.034  54.792  24.514  1.00  0.00     0.316 C 
ATOM      3  C   UNL     1      68.978  54.646  27.231  1.00  0.00     0.018 C 
ATOM      4  C   UNL     1      70.197  54.153  26.955  1.00  0.00     0.186 C 
ATOM      5  C   UNL     1      68.135  55.071  26.071  1.00  0.00     0.061 C 
ATOM      6  O   UNL     1      70.720  54.193  25.637  1.00  0.00    -0.472 OA
ATOM      7  C   UNL     1      69.012  55.793  25.063  1.00  0.00     0.096 C 
ATOM      8  C   UNL     1      66.950  56.020  26.255  1.00  0.00     0.145 C 
ATOM      9  C   UNL     1      67.993  56.430  24.183  1.00  0.00    -0.036 C 
ATOM     10  C   UNL     1      66.867  56.626  24.880  1.00  0.00     0.007 C 
BRANCH   8  11
ATOM     11  O   UNL     1      67.234  57.020  27.195  1.00  0.00    -0.388 OA
ATOM     12  H   UNL     1      66.828  57.859  26.846  1.00  0.00     0.211 HD
ENDBRANCH   8  11
BRANCH   9  13
ATOM     13  C   UNL     1      68.244  56.973  22.806  1.00  0.00     0.187 C 
BRANCH  13  14
ATOM     14  O   UNL     1      67.468  56.282  21.865  1.00  0.00    -0.392 OA
ATOM     15  H   UNL     1      67.681  55.320  21.978  1.00  0.00     0.211 HD
ENDBRANCH  13  14
ENDBRANCH   9  13
ENDBRANCH   1   2
BRANCH   1  16
ATOM     16  C   UNL     1      69.896  53.709  22.439  1.00  0.00     0.286 C 
ATOM     17  C   UNL     1      70.741  52.404  22.306  1.00  0.00     0.202 C 
ATOM     18  O   UNL     1      68.789  53.751  21.545  1.00  0.00    -0.341 OA
ATOM     19  C   UNL     1      69.928  51.272  21.651  1.00  0.00     0.179 C 
ATOM     20  C   UNL     1      69.135  53.273  20.260  1.00  0.00     0.178 C 
ATOM     21  C   UNL     1      69.326  51.733  20.294  1.00  0.00     0.177 C 
BRANCH  17  22
ATOM     22  O   UNL     1      71.237  51.999  23.557  1.00  0.00    -0.385 OA
ATOM     23  H   UNL     1      71.172  52.782  24.159  1.00  0.00     0.211 HD
ENDBRANCH  17  22
BRANCH  19  24
ATOM     24  O   UNL     1      68.932  50.797  22.523  1.00  0.00    -0.387 OA
ATOM     25  H   UNL     1      68.813  51.457  23.253  1.00  0.00     0.211 HD
ENDBRANCH  19  24
BRANCH  20  26
ATOM     26  C   UNL     1      68.054  53.691  19.253  1.00  0.00     0.191 C 
BRANCH  26  27
ATOM     27  O   UNL     1      66.874  54.084  19.900  1.00  0.00    -0.394 OA
ATOM     28  H   UNL     1      66.432  54.749  19.313  1.00  0.00     0.210 HD
ENDBRANCH  26  27
ENDBRANCH  20  26
BRANCH  21  29
ATOM     29  O   UNL     1      70.177  51.363  19.239  1.00  0.00    -0.387 OA
ATOM     30  H   UNL     1      70.974  51.954  19.285  1.00  0.00     0.211 HD
ENDBRANCH  21  29
ENDBRANCH   1  16
TORSDOF 10
ENDMDL
MODEL 9
REMARK VINA RESULT:    -4.502      1.944      3.530
REMARK INTER + INTRA:          -7.755
REMARK INTER:                  -6.106
REMARK INTRA:                  -1.649
REMARK UNBOUND:                -1.411
REMARK SMILES OCC1=C[C@H](O)[C@@H]2C=CO[C@@H](O[C@@H]3O[C@H](CO)[C@@H](O)[C@H](O)[C@@H]3O)[C@@H]12
REMARK SMILES IDX 12 1 11 2 8 3 9 4 7 5 10 6 24 7 5 8 3 9 4 10 6 11 2 13 1 14
REMARK SMILES IDX 13 16 22 17 14 18 20 19 15 20 18 21 23 22 21 24 16 26 17 27
REMARK SMILES IDX 19 29
REMARK H PARENT 6 12 1 15 23 23 21 25 17 28 19 30
REMARK Flexibility Score: inf
ROOT
ATOM      1  O   UNL     1      70.888  54.027  20.312  1.00  0.00    -0.310 OA
ENDROOT
BRANCH   1   2
ATOM      2  C   UNL     1      71.103  53.016  19.347  1.00  0.00     0.316 C 
ATOM      3  C   UNL     1      69.247  53.513  17.149  1.00  0.00     0.018 C 
ATOM      4  C   UNL     1      70.549  53.820  17.015  1.00  0.00     0.186 C 
ATOM      5  C   UNL     1      68.779  53.111  18.512  1.00  0.00     0.061 C 
ATOM      6  O   UNL     1      71.463  53.608  18.077  1.00  0.00    -0.472 OA
ATOM      7  C   UNL     1      69.821  52.204  19.143  1.00  0.00     0.096 C 
ATOM      8  C   UNL     1      67.472  52.342  18.709  1.00  0.00     0.145 C 
ATOM      9  C   UNL     1      69.065  51.637  20.295  1.00  0.00    -0.036 C 
ATOM     10  C   UNL     1      67.756  51.645  20.012  1.00  0.00     0.007 C 
BRANCH   8  11
ATOM     11  O   UNL     1      67.279  51.391  17.697  1.00  0.00    -0.388 OA
ATOM     12  H   UNL     1      66.324  51.113  17.750  1.00  0.00     0.211 HD
ENDBRANCH   8  11
BRANCH   9  13
ATOM     13  C   UNL     1      69.670  50.959  21.490  1.00  0.00     0.187 C 
BRANCH  13  14
ATOM     14  O   UNL     1      69.974  51.904  22.479  1.00  0.00    -0.392 OA
ATOM     15  H   UNL     1      69.150  52.018  23.020  1.00  0.00     0.211 HD
ENDBRANCH  13  14
ENDBRANCH   9  13
ENDBRANCH   1   2
BRANCH   1  16
ATOM     16  C   UNL     1      72.061  54.293  21.065  1.00  0.00     0.286 C 
ATOM     17  C   UNL     1      71.815  55.537  21.974  1.00  0.00     0.202 C 
ATOM     18  O   UNL     1      72.365  53.114  21.802  1.00  0.00    -0.341 OA
ATOM     19  C   UNL     1      71.447  55.119  23.410  1.00  0.00     0.179 C 
ATOM     20  C   UNL     1      73.249  53.379  22.872  1.00  0.00     0.178 C 
ATOM     21  C   UNL     1      72.511  54.152  23.999  1.00  0.00     0.177 C 
BRANCH  17  22
ATOM     22  O   UNL     1      70.821  56.367  21.429  1.00  0.00    -0.385 OA
ATOM     23  H   UNL     1      69.948  55.990  21.705  1.00  0.00     0.211 HD
ENDBRANCH  17  22
BRANCH  19  24
ATOM     24  O   UNL     1      70.158  54.559  23.458  1.00  0.00    -0.387 OA
ATOM     25  H   UNL     1      69.502  55.261  23.215  1.00  0.00     0.211 HD
ENDBRANCH  19  24
BRANCH  20  26
ATOM     26  C   UNL     1      73.843  52.057  23.383  1.00  0.00     0.191 C 
BRANCH  26  27
ATOM     27  O   UNL     1      72.838  51.130  23.694  1.00  0.00    -0.394 OA
ATOM     28  H   UNL     1      72.728  51.146  24.679  1.00  0.00     0.210 HD
ENDBRANCH  26  27
ENDBRANCH  20  26
BRANCH  21  29
ATOM     29  O   UNL     1      73.460  54.874  24.743  1.00  0.00    -0.387 OA
ATOM     30  H   UNL     1      73.320  55.836  24.540  1.00  0.00     0.211 HD
ENDBRANCH  21  29
ENDBRANCH   1  16
TORSDOF 10
ENDMDL
