MODEL 1
REMARK VINA RESULT:    -3.869      0.000      0.000
REMARK INTER + INTRA:          -5.630
REMARK INTER:                  -5.453
REMARK INTRA:                  -0.178
REMARK UNBOUND:                -0.178
REMARK SMILES CCCCCCCCC(=O)[O-]
REMARK SMILES IDX 6 1 7 2 8 3 9 4 10 5 11 6 5 7 4 8 3 9 2 10 1 11
REMARK H PARENT
REMARK Flexibility Score: inf
ROOT
ATOM      1  C   UNL     1     154.052 132.947 164.934  1.00  0.00     0.000 C 
ENDROOT
BRANCH   1   2
ATOM      2  C   UNL     1     153.076 132.254 163.965  1.00  0.00     0.006 C 
BRANCH   2   3
ATOM      3  C   UNL     1     151.716 131.895 164.586  1.00  0.00     0.053 C 
BRANCH   3   4
ATOM      4  C   UNL     1     150.591 132.652 163.950  1.00  0.00     0.041 C 
ATOM      5  O   UNL     1     149.567 132.042 163.544  1.00  0.00    -0.550 OA
ATOM      6  O   UNL     1     150.688 134.027 163.777  1.00  0.00    -0.550 OA
ENDBRANCH   3   4
ENDBRANCH   2   3
ENDBRANCH   1   2
BRANCH   1   7
ATOM      7  C   UNL     1     154.803 131.954 165.834  1.00  0.00     0.000 C 
BRANCH   7   8
ATOM      8  C   UNL     1     155.685 132.691 166.849  1.00  0.00    -0.000 C 
BRANCH   8   9
ATOM      9  C   UNL     1     157.075 132.044 166.941  1.00  0.00    -0.000 C 
BRANCH   9  10
ATOM     10  C   UNL     1     158.076 132.908 167.723  1.00  0.00    -0.003 C 
ATOM     11  C   UNL     1     157.958 132.729 169.236  1.00  0.00     0.004 C 
ENDBRANCH   9  10
ENDBRANCH   8   9
ENDBRANCH   7   8
ENDBRANCH   1   7
TORSDOF 7
ENDMDL
MODEL 2
REMARK VINA RESULT:    -3.697      1.444      2.535
REMARK INTER + INTRA:          -5.388
REMARK INTER:                  -5.023
REMARK INTRA:                  -0.364
REMARK UNBOUND:                -0.178
REMARK SMILES CCCCCCCCC(=O)[O-]
REMARK SMILES IDX 6 1 7 2 8 3 9 4 10 5 11 6 5 7 4 8 3 9 2 10 1 11
REMARK H PARENT
REMARK Flexibility Score: inf
ROOT
ATOM      1  C   UNL     1     155.711 132.262 167.021  1.00  0.00     0.000 C 
ENDROOT
BRANCH   1   2
ATOM      2  C   UNL     1     154.859 131.945 165.778  1.00  0.00     0.006 C 
BRANCH   2   3
ATOM      3  C   UNL     1     154.303 133.185 165.058  1.00  0.00     0.053 C 
BRANCH   3   4
ATOM      4  C   UNL     1     153.010 132.897 164.361  1.00  0.00     0.041 C 
ATOM      5  O   UNL     1     152.967 132.050 163.430  1.00  0.00    -0.550 OA
ATOM      6  O   UNL     1     151.858 133.587 164.718  1.00  0.00    -0.550 OA
ENDBRANCH   3   4
ENDBRANCH   2   3
ENDBRANCH   1   2
BRANCH   1   7
ATOM      7  C   UNL     1     157.218 132.120 166.762  1.00  0.00     0.000 C 
BRANCH   7   8
ATOM      8  C   UNL     1     158.030 132.901 167.801  1.00  0.00    -0.000 C 
BRANCH   8   9
ATOM      9  C   UNL     1     157.146 133.919 168.538  1.00  0.00    -0.000 C 
BRANCH   9  10
ATOM     10  C   UNL     1     157.116 133.684 170.056  1.00  0.00    -0.003 C 
ATOM     11  C   UNL     1     158.124 132.630 170.512  1.00  0.00     0.004 C 
ENDBRANCH   9  10
ENDBRANCH   8   9
ENDBRANCH   7   8
ENDBRANCH   1   7
TORSDOF 7
ENDMDL
MODEL 3
REMARK VINA RESULT:    -3.566      3.528      5.891
REMARK INTER + INTRA:          -5.203
REMARK INTER:                  -4.594
REMARK INTRA:                  -0.609
REMARK UNBOUND:                -0.178
REMARK SMILES CCCCCCCCC(=O)[O-]
REMARK SMILES IDX 6 1 7 2 8 3 9 4 10 5 11 6 5 7 4 8 3 9 2 10 1 11
REMARK H PARENT
REMARK Flexibility Score: inf
ROOT
ATOM      1  C   UNL     1     153.641 132.820 164.513  1.00  0.00     0.000 C 
ENDROOT
BRANCH   1   2
ATOM      2  C   UNL     1     154.531 132.069 165.521  1.00  0.00     0.006 C 
BRANCH   2   3
ATOM      3  C   UNL     1     154.152 132.296 166.993  1.00  0.00     0.053 C 
BRANCH   3   4
ATOM      4  C   UNL     1     155.356 132.517 167.855  1.00  0.00     0.041 C 
ATOM      5  O   UNL     1     156.512 132.372 167.378  1.00  0.00    -0.550 OA
ATOM      6  O   UNL     1     155.201 132.853 169.194  1.00  0.00    -0.550 OA
ENDBRANCH   3   4
ENDBRANCH   2   3
ENDBRANCH   1   2
BRANCH   1   7
ATOM      7  C   UNL     1     152.794 131.876 163.647  1.00  0.00     0.000 C 
BRANCH   7   8
ATOM      8  C   UNL     1     151.320 132.296 163.656  1.00  0.00    -0.000 C 
BRANCH   8   9
ATOM      9  C   UNL     1     151.063 133.381 164.713  1.00  0.00    -0.000 C 
BRANCH   9  10
ATOM     10  C   UNL     1     149.932 133.004 165.682  1.00  0.00    -0.003 C 
ATOM     11  C   UNL     1     150.435 132.710 167.094  1.00  0.00     0.004 C 
ENDBRANCH   9  10
ENDBRANCH   8   9
ENDBRANCH   7   8
ENDBRANCH   1   7
TORSDOF 7
ENDMDL
MODEL 4
REMARK VINA RESULT:    -3.537      3.595      8.346
REMARK INTER + INTRA:          -5.162
REMARK INTER:                  -5.003
REMARK INTRA:                  -0.159
REMARK UNBOUND:                -0.178
REMARK SMILES CCCCCCCCC(=O)[O-]
REMARK SMILES IDX 6 1 7 2 8 3 9 4 10 5 11 6 5 7 4 8 3 9 2 10 1 11
REMARK H PARENT
REMARK Flexibility Score: inf
ROOT
ATOM      1  C   UNL     1     150.139 132.966 163.125  1.00  0.00     0.000 C 
ENDROOT
BRANCH   1   2
ATOM      2  C   UNL     1     151.029 131.888 163.772  1.00  0.00     0.006 C 
BRANCH   2   3
ATOM      3  C   UNL     1     152.529 132.042 163.473  1.00  0.00     0.053 C 
BRANCH   3   4
ATOM      4  C   UNL     1     153.294 132.514 164.671  1.00  0.00     0.041 C 
ATOM      5  O   UNL     1     152.963 132.133 165.824  1.00  0.00    -0.550 OA
ATOM      6  O   UNL     1     154.354 133.399 164.515  1.00  0.00    -0.550 OA
ENDBRANCH   3   4
ENDBRANCH   2   3
ENDBRANCH   1   2
BRANCH   1   7
ATOM      7  C   UNL     1     148.646 132.609 163.168  1.00  0.00     0.000 C 
BRANCH   7   8
ATOM      8  C   UNL     1     147.883 133.300 162.031  1.00  0.00    -0.000 C 
BRANCH   8   9
ATOM      9  C   UNL     1     146.368 133.094 162.180  1.00  0.00    -0.000 C 
BRANCH   9  10
ATOM     10  C   UNL     1     145.855 131.889 161.378  1.00  0.00    -0.003 C 
ATOM     11  C   UNL     1     145.422 132.261 159.961  1.00  0.00     0.004 C 
ENDBRANCH   9  10
ENDBRANCH   8   9
ENDBRANCH   7   8
ENDBRANCH   1   7
TORSDOF 7
ENDMDL
MODEL 5
REMARK VINA RESULT:    -3.528      2.208      3.914
REMARK INTER + INTRA:          -5.149
REMARK INTER:                  -4.866
REMARK INTRA:                  -0.283
REMARK UNBOUND:                -0.178
REMARK SMILES CCCCCCCCC(=O)[O-]
REMARK SMILES IDX 6 1 7 2 8 3 9 4 10 5 11 6 5 7 4 8 3 9 2 10 1 11
REMARK H PARENT
REMARK Flexibility Score: inf
ROOT
ATOM      1  C   UNL     1     150.398 132.921 164.503  1.00  0.00     0.000 C 
ENDROOT
BRANCH   1   2
ATOM      2  C   UNL     1     149.824 132.959 163.074  1.00  0.00     0.006 C 
BRANCH   2   3
ATOM      3  C   UNL     1     148.371 132.471 162.963  1.00  0.00     0.053 C 
BRANCH   3   4
ATOM      4  C   UNL     1     147.509 133.441 162.214  1.00  0.00     0.041 C 
ATOM      5  O   UNL     1     147.212 134.551 162.728  1.00  0.00    -0.550 OA
ATOM      6  O   UNL     1     147.008 133.104 160.963  1.00  0.00    -0.550 OA
ENDBRANCH   3   4
ENDBRANCH   2   3
ENDBRANCH   1   2
BRANCH   1   7
ATOM      7  C   UNL     1     151.510 131.875 164.670  1.00  0.00     0.000 C 
BRANCH   7   8
ATOM      8  C   UNL     1     152.695 132.181 163.746  1.00  0.00    -0.000 C 
BRANCH   8   9
ATOM      9  C   UNL     1     153.893 132.716 164.546  1.00  0.00    -0.000 C 
BRANCH   9  10
ATOM     10  C   UNL     1     154.189 131.875 165.798  1.00  0.00    -0.003 C 
ATOM     11  C   UNL     1     155.304 132.466 166.659  1.00  0.00     0.004 C 
ENDBRANCH   9  10
ENDBRANCH   8   9
ENDBRANCH   7   8
ENDBRANCH   1   7
TORSDOF 7
ENDMDL
MODEL 6
REMARK VINA RESULT:    -3.523      3.207      5.686
REMARK INTER + INTRA:          -5.143
REMARK INTER:                  -4.430
REMARK INTRA:                  -0.713
REMARK UNBOUND:                -0.178
REMARK SMILES CCCCCCCCC(=O)[O-]
REMARK SMILES IDX 6 1 7 2 8 3 9 4 10 5 11 6 5 7 4 8 3 9 2 10 1 11
REMARK H PARENT
REMARK Flexibility Score: inf
ROOT
ATOM      1  C   UNL     1     153.257 131.885 164.789  1.00  0.00     0.000 C 
ENDROOT
BRANCH   1   2
ATOM      2  C   UNL     1     154.206 133.091 164.914  1.00  0.00     0.006 C 
BRANCH   2   3
ATOM      3  C   UNL     1     154.101 133.844 166.250  1.00  0.00     0.053 C 
BRANCH   3   4
ATOM      4  C   UNL     1     154.227 132.924 167.424  1.00  0.00     0.041 C 
ATOM      5  O   UNL     1     153.266 132.787 168.227  1.00  0.00    -0.550 OA
ATOM      6  O   UNL     1     155.416 132.241 167.650  1.00  0.00    -0.550 OA
ENDBRANCH   3   4
ENDBRANCH   2   3
ENDBRANCH   1   2
BRANCH   1   7
ATOM      7  C   UNL     1     152.476 131.876 163.467  1.00  0.00     0.000 C 
BRANCH   7   8
ATOM      8  C   UNL     1     150.972 132.038 163.716  1.00  0.00    -0.000 C 
BRANCH   8   9
ATOM      9  C   UNL     1     150.584 133.523 163.797  1.00  0.00    -0.000 C 
BRANCH   9  10
ATOM     10  C   UNL     1     150.412 134.009 165.244  1.00  0.00    -0.003 C 
ATOM     11  C   UNL     1     149.982 132.894 166.197  1.00  0.00     0.004 C 
ENDBRANCH   9  10
ENDBRANCH   8   9
ENDBRANCH   7   8
ENDBRANCH   1   7
TORSDOF 7
ENDMDL
MODEL 7
REMARK VINA RESULT:    -3.520      3.993      6.024
REMARK INTER + INTRA:          -5.138
REMARK INTER:                  -4.883
REMARK INTRA:                  -0.256
REMARK UNBOUND:                -0.178
REMARK SMILES CCCCCCCCC(=O)[O-]
REMARK SMILES IDX 6 1 7 2 8 3 9 4 10 5 11 6 5 7 4 8 3 9 2 10 1 11
REMARK H PARENT
REMARK Flexibility Score: inf
ROOT
ATOM      1  C   UNL     1     148.378 132.410 163.586  1.00  0.00     0.000 C 
ENDROOT
BRANCH   1   2
ATOM      2  C   UNL     1     147.161 132.286 162.651  1.00  0.00     0.006 C 
BRANCH   2   3
ATOM      3  C   UNL     1     147.176 133.257 161.459  1.00  0.00     0.053 C 
BRANCH   3   4
ATOM      4  C   UNL     1     145.838 133.348 160.793  1.00  0.00     0.041 C 
ATOM      5  O   UNL     1     145.466 132.449 159.994  1.00  0.00    -0.550 OA
ATOM      6  O   UNL     1     145.015 134.442 161.031  1.00  0.00    -0.550 OA
ENDBRANCH   3   4
ENDBRANCH   2   3
ENDBRANCH   1   2
BRANCH   1   7
ATOM      7  C   UNL     1     149.611 132.997 162.883  1.00  0.00     0.000 C 
BRANCH   7   8
ATOM      8  C   UNL     1     150.897 132.324 163.376  1.00  0.00    -0.000 C 
BRANCH   8   9
ATOM      9  C   UNL     1     151.001 132.391 164.907  1.00  0.00    -0.000 C 
BRANCH   9  10
ATOM     10  C   UNL     1     152.350 131.875 165.430  1.00  0.00    -0.003 C 
ATOM     11  C   UNL     1     153.534 132.366 164.598  1.00  0.00     0.004 C 
ENDBRANCH   9  10
ENDBRANCH   8   9
ENDBRANCH   7   8
ENDBRANCH   1   7
TORSDOF 7
ENDMDL
MODEL 8
REMARK VINA RESULT:    -3.496      3.498      6.119
REMARK INTER + INTRA:          -5.105
REMARK INTER:                  -4.634
REMARK INTRA:                  -0.471
REMARK UNBOUND:                -0.178
REMARK SMILES CCCCCCCCC(=O)[O-]
REMARK SMILES IDX 6 1 7 2 8 3 9 4 10 5 11 6 5 7 4 8 3 9 2 10 1 11
REMARK H PARENT
REMARK Flexibility Score: inf
ROOT
ATOM      1  C   UNL     1     154.319 133.983 166.886  1.00  0.00     0.000 C 
ENDROOT
BRANCH   1   2
ATOM      2  C   UNL     1     154.637 132.632 167.554  1.00  0.00     0.006 C 
BRANCH   2   3
ATOM      3  C   UNL     1     155.964 132.606 168.329  1.00  0.00     0.053 C 
BRANCH   3   4
ATOM      4  C   UNL     1     157.149 132.669 167.415  1.00  0.00     0.041 C 
ATOM      5  O   UNL     1     158.119 133.424 167.688  1.00  0.00    -0.550 OA
ATOM      6  O   UNL     1     157.167 131.918 166.246  1.00  0.00    -0.550 OA
ENDBRANCH   3   4
ENDBRANCH   2   3
ENDBRANCH   1   2
BRANCH   1   7
ATOM      7  C   UNL     1     154.122 133.864 165.367  1.00  0.00     0.000 C 
BRANCH   7   8
ATOM      8  C   UNL     1     153.869 132.408 164.958  1.00  0.00    -0.000 C 
BRANCH   8   9
ATOM      9  C   UNL     1     152.968 132.334 163.716  1.00  0.00    -0.000 C 
BRANCH   9  10
ATOM     10  C   UNL     1     151.540 131.877 164.050  1.00  0.00    -0.003 C 
ATOM     11  C   UNL     1     151.022 132.464 165.363  1.00  0.00     0.004 C 
ENDBRANCH   9  10
ENDBRANCH   8   9
ENDBRANCH   7   8
ENDBRANCH   1   7
TORSDOF 7
ENDMDL
MODEL 9
REMARK VINA RESULT:    -3.482      3.080      6.792
REMARK INTER + INTRA:          -5.084
REMARK INTER:                  -4.772
REMARK INTRA:                  -0.313
REMARK UNBOUND:                -0.178
REMARK SMILES CCCCCCCCC(=O)[O-]
REMARK SMILES IDX 6 1 7 2 8 3 9 4 10 5 11 6 5 7 4 8 3 9 2 10 1 11
REMARK H PARENT
REMARK Flexibility Score: inf
ROOT
ATOM      1  C   UNL     1     152.737 131.875 163.985  1.00  0.00     0.000 C 
ENDROOT
BRANCH   1   2
ATOM      2  C   UNL     1     153.181 132.182 165.427  1.00  0.00     0.006 C 
BRANCH   2   3
ATOM      3  C   UNL     1     154.662 131.882 165.712  1.00  0.00     0.053 C 
BRANCH   3   4
ATOM      4  C   UNL     1     155.109 132.453 167.022  1.00  0.00     0.041 C 
ATOM      5  O   UNL     1     154.270 132.684 167.931  1.00  0.00    -0.550 OA
ATOM      6  O   UNL     1     156.449 132.759 167.226  1.00  0.00    -0.550 OA
ENDBRANCH   3   4
ENDBRANCH   2   3
ENDBRANCH   1   2
BRANCH   1   7
ATOM      7  C   UNL     1     151.217 131.986 163.794  1.00  0.00     0.000 C 
BRANCH   7   8
ATOM      8  C   UNL     1     150.599 132.923 164.838  1.00  0.00    -0.000 C 
BRANCH   8   9
ATOM      9  C   UNL     1     149.078 133.030 164.650  1.00  0.00    -0.000 C 
BRANCH   9  10
ATOM     10  C   UNL     1     148.593 132.336 163.368  1.00  0.00    -0.003 C 
ATOM     11  C   UNL     1     148.008 133.314 162.350  1.00  0.00     0.004 C 
ENDBRANCH   9  10
ENDBRANCH   8   9
ENDBRANCH   7   8
ENDBRANCH   1   7
TORSDOF 7
ENDMDL
