MODEL 1
REMARK VINA RESULT:    -4.383      0.000      0.000
REMARK INTER + INTRA:          -9.489
REMARK INTER:                  -7.971
REMARK INTRA:                  -1.518
REMARK UNBOUND:                -1.518
REMARK SMILES CCCCCCCCCCCCCC[C@H](C)C(=O)[O-]
REMARK SMILES IDX 9 1 10 2 11 3 12 4 13 5 14 6 15 7 16 8 17 9 18 10 19 11 8 12
REMARK SMILES IDX 7 13 6 14 5 15 4 16 3 17 2 18 1 19
REMARK H PARENT
REMARK Flexibility Score: inf
ROOT
ATOM      1  C   UNL     1      23.583  26.055  21.501  1.00  0.00     0.000 C 
ENDROOT
BRANCH   1   2
ATOM      2  C   UNL     1      24.162  24.641  21.647  1.00  0.00     0.000 C 
BRANCH   2   3
ATOM      3  C   UNL     1      24.630  24.096  20.293  1.00  0.00     0.000 C 
BRANCH   3   4
ATOM      4  C   UNL     1      26.162  24.089  20.201  1.00  0.00     0.000 C 
BRANCH   4   5
ATOM      5  C   UNL     1      26.758  22.925  21.005  1.00  0.00     0.001 C 
BRANCH   5   6
ATOM      6  C   UNL     1      27.525  23.369  22.269  1.00  0.00     0.009 C 
BRANCH   6   7
ATOM      7  C   UNL     1      27.259  22.578  23.577  1.00  0.00     0.032 C 
ATOM      8  C   UNL     1      25.806  22.094  23.704  1.00  0.00     0.014 C 
BRANCH   7   9
ATOM      9  C   UNL     1      27.718  23.314  24.809  1.00  0.00     0.044 C 
ATOM     10  O   UNL     1      27.751  24.572  24.810  1.00  0.00    -0.550 OA
ATOM     11  O   UNL     1      28.058  22.622  25.966  1.00  0.00    -0.550 OA
ENDBRANCH   7   9
ENDBRANCH   6   7
ENDBRANCH   5   6
ENDBRANCH   4   5
ENDBRANCH   3   4
ENDBRANCH   2   3
ENDBRANCH   1   2
BRANCH   1  12
ATOM     12  C   UNL     1      24.406  27.123  22.246  1.00  0.00     0.000 C 
BRANCH  12  13
ATOM     13  C   UNL     1      25.779  26.649  22.759  1.00  0.00    -0.000 C 
BRANCH  13  14
ATOM     14  C   UNL     1      26.794  27.796  22.892  1.00  0.00    -0.000 C 
BRANCH  14  15
ATOM     15  C   UNL     1      27.304  27.978  24.333  1.00  0.00    -0.000 C 
BRANCH  15  16
ATOM     16  C   UNL     1      27.266  29.425  24.863  1.00  0.00    -0.000 C 
BRANCH  16  17
ATOM     17  C   UNL     1      25.932  30.152  24.598  1.00  0.00    -0.000 C 
BRANCH  17  18
ATOM     18  C   UNL     1      25.860  31.514  25.305  1.00  0.00    -0.003 C 
ATOM     19  C   UNL     1      27.256  32.078  25.558  1.00  0.00     0.004 C 
ENDBRANCH  17  18
ENDBRANCH  16  17
ENDBRANCH  15  16
ENDBRANCH  14  15
ENDBRANCH  13  14
ENDBRANCH  12  13
ENDBRANCH   1  12
TORSDOF 14
ENDMDL
MODEL 2
REMARK VINA RESULT:    -4.364      2.094      3.803
REMARK INTER + INTRA:          -9.453
REMARK INTER:                  -8.045
REMARK INTRA:                  -1.408
REMARK UNBOUND:                -1.518
REMARK SMILES CCCCCCCCCCCCCC[C@H](C)C(=O)[O-]
REMARK SMILES IDX 9 1 10 2 11 3 12 4 13 5 14 6 15 7 16 8 17 9 18 10 19 11 8 12
REMARK SMILES IDX 7 13 6 14 5 15 4 16 3 17 2 18 1 19
REMARK H PARENT
REMARK Flexibility Score: inf
ROOT
ATOM      1  C   UNL     1      27.363  25.370  24.131  1.00  0.00     0.000 C 
ENDROOT
BRANCH   1   2
ATOM      2  C   UNL     1      28.046  24.056  24.537  1.00  0.00     0.000 C 
BRANCH   2   3
ATOM      3  C   UNL     1      27.847  22.979  23.464  1.00  0.00     0.000 C 
BRANCH   3   4
ATOM      4  C   UNL     1      26.521  22.236  23.667  1.00  0.00     0.000 C 
BRANCH   4   5
ATOM      5  C   UNL     1      25.692  22.220  22.375  1.00  0.00     0.001 C 
BRANCH   5   6
ATOM      6  C   UNL     1      24.581  23.290  22.333  1.00  0.00     0.009 C 
BRANCH   6   7
ATOM      7  C   UNL     1      24.534  24.218  21.090  1.00  0.00     0.032 C 
ATOM      8  C   UNL     1      25.856  24.246  20.308  1.00  0.00     0.014 C 
BRANCH   7   9
ATOM      9  C   UNL     1      24.040  25.604  21.414  1.00  0.00     0.044 C 
ATOM     10  O   UNL     1      22.890  25.960  21.044  1.00  0.00    -0.550 OA
ATOM     11  O   UNL     1      24.817  26.481  22.161  1.00  0.00    -0.550 OA
ENDBRANCH   7   9
ENDBRANCH   6   7
ENDBRANCH   5   6
ENDBRANCH   4   5
ENDBRANCH   3   4
ENDBRANCH   2   3
ENDBRANCH   1   2
BRANCH   1  12
ATOM     12  C   UNL     1      28.039  26.051  22.926  1.00  0.00     0.000 C 
BRANCH  12  13
ATOM     13  C   UNL     1      28.125  27.587  23.007  1.00  0.00    -0.000 C 
BRANCH  13  14
ATOM     14  C   UNL     1      27.543  28.149  24.315  1.00  0.00    -0.000 C 
BRANCH  14  15
ATOM     15  C   UNL     1      26.277  28.994  24.090  1.00  0.00    -0.000 C 
BRANCH  15  16
ATOM     16  C   UNL     1      26.248  30.341  24.839  1.00  0.00    -0.000 C 
BRANCH  16  17
ATOM     17  C   UNL     1      27.641  30.970  25.048  1.00  0.00    -0.000 C 
BRANCH  17  18
ATOM     18  C   UNL     1      27.563  32.477  25.333  1.00  0.00    -0.003 C 
ATOM     19  C   UNL     1      26.988  32.746  26.721  1.00  0.00     0.004 C 
ENDBRANCH  17  18
ENDBRANCH  16  17
ENDBRANCH  15  16
ENDBRANCH  14  15
ENDBRANCH  13  14
ENDBRANCH  12  13
ENDBRANCH   1  12
TORSDOF 14
ENDMDL
MODEL 3
REMARK VINA RESULT:    -4.299      2.112      2.825
REMARK INTER + INTRA:          -9.336
REMARK INTER:                  -8.085
REMARK INTRA:                  -1.250
REMARK UNBOUND:                -1.518
REMARK SMILES CCCCCCCCCCCCCC[C@H](C)C(=O)[O-]
REMARK SMILES IDX 9 1 10 2 11 3 12 4 13 5 14 6 15 7 16 8 17 9 18 10 19 11 8 12
REMARK SMILES IDX 7 13 6 14 5 15 4 16 3 17 2 18 1 19
REMARK H PARENT
REMARK Flexibility Score: inf
ROOT
ATOM      1  C   UNL     1      24.467  27.630  22.275  1.00  0.00     0.000 C 
ENDROOT
BRANCH   1   2
ATOM      2  C   UNL     1      24.617  26.109  22.119  1.00  0.00     0.000 C 
BRANCH   2   3
ATOM      3  C   UNL     1      23.615  25.561  21.097  1.00  0.00     0.000 C 
BRANCH   3   4
ATOM      4  C   UNL     1      23.627  24.027  21.081  1.00  0.00     0.000 C 
BRANCH   4   5
ATOM      5  C   UNL     1      24.390  23.468  22.290  1.00  0.00     0.001 C 
BRANCH   5   6
ATOM      6  C   UNL     1      25.432  22.390  21.926  1.00  0.00     0.009 C 
BRANCH   6   7
ATOM      7  C   UNL     1      26.913  22.841  21.819  1.00  0.00     0.032 C 
ATOM      8  C   UNL     1      27.333  23.805  22.938  1.00  0.00     0.014 C 
BRANCH   7   9
ATOM      9  C   UNL     1      27.265  23.373  20.454  1.00  0.00     0.044 C 
ATOM     10  O   UNL     1      27.720  22.593  19.577  1.00  0.00    -0.550 OA
ATOM     11  O   UNL     1      27.046  24.708  20.132  1.00  0.00    -0.550 OA
ENDBRANCH   7   9
ENDBRANCH   6   7
ENDBRANCH   5   6
ENDBRANCH   4   5
ENDBRANCH   3   4
ENDBRANCH   2   3
ENDBRANCH   1   2
BRANCH   1  12
ATOM     12  C   UNL     1      25.508  28.242  23.231  1.00  0.00     0.000 C 
BRANCH  12  13
ATOM     13  C   UNL     1      26.606  27.272  23.709  1.00  0.00    -0.000 C 
BRANCH  13  14
ATOM     14  C   UNL     1      28.024  27.835  23.518  1.00  0.00    -0.000 C 
BRANCH  14  15
ATOM     15  C   UNL     1      28.125  29.331  23.868  1.00  0.00    -0.000 C 
BRANCH  15  16
ATOM     16  C   UNL     1      27.604  29.711  25.268  1.00  0.00    -0.000 C 
BRANCH  16  17
ATOM     17  C   UNL     1      28.103  31.083  25.768  1.00  0.00    -0.000 C 
BRANCH  17  18
ATOM     18  C   UNL     1      27.069  32.196  25.540  1.00  0.00    -0.003 C 
ATOM     19  C   UNL     1      25.676  31.617  25.308  1.00  0.00     0.004 C 
ENDBRANCH  17  18
ENDBRANCH  16  17
ENDBRANCH  15  16
ENDBRANCH  14  15
ENDBRANCH  13  14
ENDBRANCH  12  13
ENDBRANCH   1  12
TORSDOF 14
ENDMDL
MODEL 4
REMARK VINA RESULT:    -4.275      2.408      6.698
REMARK INTER + INTRA:          -9.292
REMARK INTER:                  -7.683
REMARK INTRA:                  -1.609
REMARK UNBOUND:                -1.518
REMARK SMILES CCCCCCCCCCCCCC[C@H](C)C(=O)[O-]
REMARK SMILES IDX 9 1 10 2 11 3 12 4 13 5 14 6 15 7 16 8 17 9 18 10 19 11 8 12
REMARK SMILES IDX 7 13 6 14 5 15 4 16 3 17 2 18 1 19
REMARK H PARENT
REMARK Flexibility Score: inf
ROOT
ATOM      1  C   UNL     1      24.162  25.928  21.509  1.00  0.00     0.000 C 
ENDROOT
BRANCH   1   2
ATOM      2  C   UNL     1      24.889  26.884  22.465  1.00  0.00     0.000 C 
BRANCH   2   3
ATOM      3  C   UNL     1      26.399  26.618  22.464  1.00  0.00     0.000 C 
BRANCH   3   4
ATOM      4  C   UNL     1      27.025  26.988  23.815  1.00  0.00     0.000 C 
BRANCH   4   5
ATOM      5  C   UNL     1      27.748  28.339  23.737  1.00  0.00     0.001 C 
BRANCH   5   6
ATOM      6  C   UNL     1      27.887  29.051  25.100  1.00  0.00     0.009 C 
BRANCH   6   7
ATOM      7  C   UNL     1      27.537  30.563  25.151  1.00  0.00     0.032 C 
ATOM      8  C   UNL     1      28.124  31.276  26.378  1.00  0.00     0.014 C 
BRANCH   7   9
ATOM      9  C   UNL     1      26.061  30.826  24.997  1.00  0.00     0.044 C 
ATOM     10  O   UNL     1      25.606  31.979  25.216  1.00  0.00    -0.550 OA
ATOM     11  O   UNL     1      25.200  29.824  24.565  1.00  0.00    -0.550 OA
ENDBRANCH   7   9
ENDBRANCH   6   7
ENDBRANCH   5   6
ENDBRANCH   4   5
ENDBRANCH   3   4
ENDBRANCH   2   3
ENDBRANCH   1   2
BRANCH   1  12
ATOM     12  C   UNL     1      24.270  24.452  21.936  1.00  0.00     0.000 C 
BRANCH  12  13
ATOM     13  C   UNL     1      24.686  23.477  20.818  1.00  0.00    -0.000 C 
BRANCH  13  14
ATOM     14  C   UNL     1      25.681  24.099  19.823  1.00  0.00    -0.000 C 
BRANCH  14  15
ATOM     15  C   UNL     1      27.147  23.788  20.173  1.00  0.00    -0.000 C 
BRANCH  15  16
ATOM     16  C   UNL     1      27.435  22.319  20.539  1.00  0.00    -0.000 C 
BRANCH  16  17
ATOM     17  C   UNL     1      28.080  22.136  21.928  1.00  0.00    -0.000 C 
BRANCH  17  18
ATOM     18  C   UNL     1      27.890  23.369  22.825  1.00  0.00    -0.003 C 
ATOM     19  C   UNL     1      27.024  23.040  24.038  1.00  0.00     0.004 C 
ENDBRANCH  17  18
ENDBRANCH  16  17
ENDBRANCH  15  16
ENDBRANCH  14  15
ENDBRANCH  13  14
ENDBRANCH  12  13
ENDBRANCH   1  12
TORSDOF 14
ENDMDL
MODEL 5
REMARK VINA RESULT:    -4.207      3.260      7.188
REMARK INTER + INTRA:          -9.168
REMARK INTER:                  -8.069
REMARK INTRA:                  -1.100
REMARK UNBOUND:                -1.518
REMARK SMILES CCCCCCCCCCCCCC[C@H](C)C(=O)[O-]
REMARK SMILES IDX 9 1 10 2 11 3 12 4 13 5 14 6 15 7 16 8 17 9 18 10 19 11 8 12
REMARK SMILES IDX 7 13 6 14 5 15 4 16 3 17 2 18 1 19
REMARK H PARENT
REMARK Flexibility Score: inf
ROOT
ATOM      1  C   UNL     1      24.115  25.936  21.876  1.00  0.00     0.000 C 
ENDROOT
BRANCH   1   2
ATOM      2  C   UNL     1      25.541  26.363  22.251  1.00  0.00     0.000 C 
BRANCH   2   3
ATOM      3  C   UNL     1      25.536  27.703  22.996  1.00  0.00     0.000 C 
BRANCH   3   4
ATOM      4  C   UNL     1      26.762  27.831  23.909  1.00  0.00     0.000 C 
BRANCH   4   5
ATOM      5  C   UNL     1      27.470  29.176  23.698  1.00  0.00     0.001 C 
BRANCH   5   6
ATOM      6  C   UNL     1      27.861  29.888  25.011  1.00  0.00     0.009 C 
BRANCH   6   7
ATOM      7  C   UNL     1      26.820  30.859  25.630  1.00  0.00     0.032 C 
ATOM      8  C   UNL     1      25.489  30.883  24.865  1.00  0.00     0.014 C 
BRANCH   7   9
ATOM      9  C   UNL     1      27.371  32.244  25.849  1.00  0.00     0.044 C 
ATOM     10  O   UNL     1      27.818  32.901  24.873  1.00  0.00    -0.550 OA
ATOM     11  O   UNL     1      27.346  32.829  27.110  1.00  0.00    -0.550 OA
ENDBRANCH   7   9
ENDBRANCH   6   7
ENDBRANCH   5   6
ENDBRANCH   4   5
ENDBRANCH   3   4
ENDBRANCH   2   3
ENDBRANCH   1   2
BRANCH   1  12
ATOM     12  C   UNL     1      24.048  24.517  21.283  1.00  0.00     0.000 C 
BRANCH  12  13
ATOM     13  C   UNL     1      23.481  23.440  22.226  1.00  0.00    -0.000 C 
BRANCH  13  14
ATOM     14  C   UNL     1      24.523  22.377  22.615  1.00  0.00    -0.000 C 
BRANCH  14  15
ATOM     15  C   UNL     1      25.968  22.902  22.537  1.00  0.00    -0.000 C 
BRANCH  15  16
ATOM     16  C   UNL     1      27.010  21.878  22.048  1.00  0.00    -0.000 C 
BRANCH  16  17
ATOM     17  C   UNL     1      27.760  22.312  20.771  1.00  0.00    -0.000 C 
BRANCH  17  18
ATOM     18  C   UNL     1      27.665  23.825  20.525  1.00  0.00    -0.003 C 
ATOM     19  C   UNL     1      26.877  24.129  19.253  1.00  0.00     0.004 C 
ENDBRANCH  17  18
ENDBRANCH  16  17
ENDBRANCH  15  16
ENDBRANCH  14  15
ENDBRANCH  13  14
ENDBRANCH  12  13
ENDBRANCH   1  12
TORSDOF 14
ENDMDL
MODEL 6
REMARK VINA RESULT:    -4.108      3.262      7.167
REMARK INTER + INTRA:          -8.989
REMARK INTER:                  -7.739
REMARK INTRA:                  -1.251
REMARK UNBOUND:                -1.518
REMARK SMILES CCCCCCCCCCCCCC[C@H](C)C(=O)[O-]
REMARK SMILES IDX 9 1 10 2 11 3 12 4 13 5 14 6 15 7 16 8 17 9 18 10 19 11 8 12
REMARK SMILES IDX 7 13 6 14 5 15 4 16 3 17 2 18 1 19
REMARK H PARENT
REMARK Flexibility Score: inf
ROOT
ATOM      1  C   UNL     1      27.287  25.022  23.809  1.00  0.00     0.000 C 
ENDROOT
BRANCH   1   2
ATOM      2  C   UNL     1      27.283  25.862  22.524  1.00  0.00     0.000 C 
BRANCH   2   3
ATOM      3  C   UNL     1      28.124  27.133  22.696  1.00  0.00     0.000 C 
BRANCH   3   4
ATOM      4  C   UNL     1      27.984  27.698  24.115  1.00  0.00     0.000 C 
BRANCH   4   5
ATOM      5  C   UNL     1      27.038  28.906  24.138  1.00  0.00     0.001 C 
BRANCH   5   6
ATOM      6  C   UNL     1      27.628  30.147  24.841  1.00  0.00     0.009 C 
BRANCH   6   7
ATOM      7  C   UNL     1      26.636  31.082  25.585  1.00  0.00     0.032 C 
ATOM      8  C   UNL     1      25.267  31.179  24.896  1.00  0.00     0.014 C 
BRANCH   7   9
ATOM      9  C   UNL     1      27.219  32.441  25.875  1.00  0.00     0.044 C 
ATOM     10  O   UNL     1      27.054  32.963  27.009  1.00  0.00    -0.550 OA
ATOM     11  O   UNL     1      27.983  33.106  24.923  1.00  0.00    -0.550 OA
ENDBRANCH   7   9
ENDBRANCH   6   7
ENDBRANCH   5   6
ENDBRANCH   4   5
ENDBRANCH   3   4
ENDBRANCH   2   3
ENDBRANCH   1   2
BRANCH   1  12
ATOM     12  C   UNL     1      27.014  23.529  23.552  1.00  0.00     0.000 C 
BRANCH  12  13
ATOM     13  C   UNL     1      27.856  22.894  22.430  1.00  0.00    -0.000 C 
BRANCH  13  14
ATOM     14  C   UNL     1      27.005  22.422  21.239  1.00  0.00    -0.000 C 
BRANCH  14  15
ATOM     15  C   UNL     1      26.855  23.498  20.149  1.00  0.00    -0.000 C 
BRANCH  15  16
ATOM     16  C   UNL     1      25.403  23.816  19.740  1.00  0.00    -0.000 C 
BRANCH  16  17
ATOM     17  C   UNL     1      24.441  23.988  20.934  1.00  0.00    -0.000 C 
BRANCH  17  18
ATOM     18  C   UNL     1      23.415  25.106  20.698  1.00  0.00    -0.003 C 
ATOM     19  C   UNL     1      23.661  26.287  21.633  1.00  0.00     0.004 C 
ENDBRANCH  17  18
ENDBRANCH  16  17
ENDBRANCH  15  16
ENDBRANCH  14  15
ENDBRANCH  13  14
ENDBRANCH  12  13
ENDBRANCH   1  12
TORSDOF 14
ENDMDL
MODEL 7
REMARK VINA RESULT:    -3.976      3.232      6.976
REMARK INTER + INTRA:          -8.748
REMARK INTER:                  -7.350
REMARK INTRA:                  -1.398
REMARK UNBOUND:                -1.518
REMARK SMILES CCCCCCCCCCCCCC[C@H](C)C(=O)[O-]
REMARK SMILES IDX 9 1 10 2 11 3 12 4 13 5 14 6 15 7 16 8 17 9 18 10 19 11 8 12
REMARK SMILES IDX 7 13 6 14 5 15 4 16 3 17 2 18 1 19
REMARK H PARENT
REMARK Flexibility Score: inf
ROOT
ATOM      1  C   UNL     1      24.573  26.919  22.208  1.00  0.00     0.000 C 
ENDROOT
BRANCH   1   2
ATOM      2  C   UNL     1      25.768  26.385  23.010  1.00  0.00     0.000 C 
BRANCH   2   3
ATOM      3  C   UNL     1      27.038  27.186  22.701  1.00  0.00     0.000 C 
BRANCH   3   4
ATOM      4  C   UNL     1      27.657  27.754  23.984  1.00  0.00     0.000 C 
BRANCH   4   5
ATOM      5  C   UNL     1      27.853  29.273  23.879  1.00  0.00     0.001 C 
BRANCH   5   6
ATOM      6  C   UNL     1      27.947  29.985  25.245  1.00  0.00     0.009 C 
BRANCH   6   7
ATOM      7  C   UNL     1      26.755  30.889  25.660  1.00  0.00     0.032 C 
ATOM      8  C   UNL     1      25.538  30.744  24.734  1.00  0.00     0.014 C 
BRANCH   7   9
ATOM      9  C   UNL     1      27.152  32.330  25.849  1.00  0.00     0.044 C 
ATOM     10  O   UNL     1      26.937  32.897  26.953  1.00  0.00    -0.550 OA
ATOM     11  O   UNL     1      27.800  33.029  24.838  1.00  0.00    -0.550 OA
ENDBRANCH   7   9
ENDBRANCH   6   7
ENDBRANCH   5   6
ENDBRANCH   4   5
ENDBRANCH   3   4
ENDBRANCH   2   3
ENDBRANCH   1   2
BRANCH   1  12
ATOM     12  C   UNL     1      23.758  25.803  21.528  1.00  0.00     0.000 C 
BRANCH  12  13
ATOM     13  C   UNL     1      24.592  24.756  20.766  1.00  0.00    -0.000 C 
BRANCH  13  14
ATOM     14  C   UNL     1      24.205  23.310  21.121  1.00  0.00    -0.000 C 
BRANCH  14  15
ATOM     15  C   UNL     1      24.218  23.044  22.637  1.00  0.00    -0.000 C 
BRANCH  15  16
ATOM     16  C   UNL     1      25.117  21.877  23.088  1.00  0.00    -0.000 C 
BRANCH  16  17
ATOM     17  C   UNL     1      26.096  22.246  24.223  1.00  0.00    -0.000 C 
BRANCH  17  18
ATOM     18  C   UNL     1      27.104  23.322  23.795  1.00  0.00    -0.003 C 
ATOM     19  C   UNL     1      27.866  23.873  24.997  1.00  0.00     0.004 C 
ENDBRANCH  17  18
ENDBRANCH  16  17
ENDBRANCH  15  16
ENDBRANCH  14  15
ENDBRANCH  13  14
ENDBRANCH  12  13
ENDBRANCH   1  12
TORSDOF 14
ENDMDL
MODEL 8
REMARK VINA RESULT:    -3.906     16.887     19.229
REMARK INTER + INTRA:          -8.622
REMARK INTER:                  -7.035
REMARK INTRA:                  -1.586
REMARK UNBOUND:                -1.518
REMARK SMILES CCCCCCCCCCCCCC[C@H](C)C(=O)[O-]
REMARK SMILES IDX 9 1 10 2 11 3 12 4 13 5 14 6 15 7 16 8 17 9 18 10 19 11 8 12
REMARK SMILES IDX 7 13 6 14 5 15 4 16 3 17 2 18 1 19
REMARK H PARENT
REMARK Flexibility Score: inf
ROOT
ATOM      1  C   UNL     1      10.426  32.326  23.525  1.00  0.00     0.000 C 
ENDROOT
BRANCH   1   2
ATOM      2  C   UNL     1      10.868  32.811  24.913  1.00  0.00     0.000 C 
BRANCH   2   3
ATOM      3  C   UNL     1      12.155  33.638  24.822  1.00  0.00     0.000 C 
BRANCH   3   4
ATOM      4  C   UNL     1      12.036  34.935  25.632  1.00  0.00     0.000 C 
BRANCH   4   5
ATOM      5  C   UNL     1      12.090  36.166  24.716  1.00  0.00     0.001 C 
BRANCH   5   6
ATOM      6  C   UNL     1      12.599  35.861  23.291  1.00  0.00     0.009 C 
BRANCH   6   7
ATOM      7  C   UNL     1      13.094  37.061  22.440  1.00  0.00     0.032 C 
ATOM      8  C   UNL     1      12.670  38.422  23.014  1.00  0.00     0.014 C 
BRANCH   7   9
ATOM      9  C   UNL     1      12.742  36.929  20.981  1.00  0.00     0.044 C 
ATOM     10  O   UNL     1      13.326  37.649  20.130  1.00  0.00    -0.550 OA
ATOM     11  O   UNL     1      11.816  35.984  20.555  1.00  0.00    -0.550 OA
ENDBRANCH   7   9
ENDBRANCH   6   7
ENDBRANCH   5   6
ENDBRANCH   4   5
ENDBRANCH   3   4
ENDBRANCH   2   3
ENDBRANCH   1   2
BRANCH   1  12
ATOM     12  C   UNL     1       9.221  33.108  22.970  1.00  0.00     0.000 C 
BRANCH  12  13
ATOM     13  C   UNL     1       9.454  34.619  22.780  1.00  0.00    -0.000 C 
BRANCH  13  14
ATOM     14  C   UNL     1       8.440  35.263  21.820  1.00  0.00    -0.000 C 
BRANCH  14  15
ATOM     15  C   UNL     1       7.875  36.592  22.353  1.00  0.00    -0.000 C 
BRANCH  15  16
ATOM     16  C   UNL     1       8.790  37.343  23.339  1.00  0.00    -0.000 C 
BRANCH  16  17
ATOM     17  C   UNL     1       8.052  38.382  24.208  1.00  0.00    -0.000 C 
BRANCH  17  18
ATOM     18  C   UNL     1       8.910  38.874  25.383  1.00  0.00    -0.003 C 
ATOM     19  C   UNL     1       8.165  39.916  26.212  1.00  0.00     0.004 C 
ENDBRANCH  17  18
ENDBRANCH  16  17
ENDBRANCH  15  16
ENDBRANCH  14  15
ENDBRANCH  13  14
ENDBRANCH  12  13
ENDBRANCH   1  12
TORSDOF 14
ENDMDL
MODEL 9
REMARK VINA RESULT:    -3.754      2.202      2.784
REMARK INTER + INTRA:          -8.344
REMARK INTER:                  -7.162
REMARK INTRA:                  -1.183
REMARK UNBOUND:                -1.518
REMARK SMILES CCCCCCCCCCCCCC[C@H](C)C(=O)[O-]
REMARK SMILES IDX 9 1 10 2 11 3 12 4 13 5 14 6 15 7 16 8 17 9 18 10 19 11 8 12
REMARK SMILES IDX 7 13 6 14 5 15 4 16 3 17 2 18 1 19
REMARK H PARENT
REMARK Flexibility Score: inf
ROOT
ATOM      1  C   UNL     1      24.017  24.937  21.105  1.00  0.00     0.000 C 
ENDROOT
BRANCH   1   2
ATOM      2  C   UNL     1      23.076  23.889  21.718  1.00  0.00     0.000 C 
BRANCH   2   3
ATOM      3  C   UNL     1      23.827  22.987  22.704  1.00  0.00     0.000 C 
BRANCH   3   4
ATOM      4  C   UNL     1      24.851  22.107  21.975  1.00  0.00     0.000 C 
BRANCH   4   5
ATOM      5  C   UNL     1      26.200  22.107  22.707  1.00  0.00     0.001 C 
BRANCH   5   6
ATOM      6  C   UNL     1      27.421  22.140  21.764  1.00  0.00     0.009 C 
BRANCH   6   7
ATOM      7  C   UNL     1      28.100  23.516  21.528  1.00  0.00     0.032 C 
ATOM      8  C   UNL     1      27.944  24.477  22.716  1.00  0.00     0.014 C 
BRANCH   7   9
ATOM      9  C   UNL     1      27.688  24.155  20.227  1.00  0.00     0.044 C 
ATOM     10  O   UNL     1      27.981  25.359  20.001  1.00  0.00    -0.550 OA
ATOM     11  O   UNL     1      27.032  23.418  19.248  1.00  0.00    -0.550 OA
ENDBRANCH   7   9
ENDBRANCH   6   7
ENDBRANCH   5   6
ENDBRANCH   4   5
ENDBRANCH   3   4
ENDBRANCH   2   3
ENDBRANCH   1   2
BRANCH   1  12
ATOM     12  C   UNL     1      23.993  26.280  21.858  1.00  0.00     0.000 C 
BRANCH  12  13
ATOM     13  C   UNL     1      25.333  26.697  22.493  1.00  0.00    -0.000 C 
BRANCH  13  14
ATOM     14  C   UNL     1      25.465  28.220  22.663  1.00  0.00    -0.000 C 
BRANCH  14  15
ATOM     15  C   UNL     1      25.807  28.633  24.106  1.00  0.00    -0.000 C 
BRANCH  15  16
ATOM     16  C   UNL     1      26.794  29.809  24.233  1.00  0.00    -0.000 C 
BRANCH  16  17
ATOM     17  C   UNL     1      26.338  30.904  25.220  1.00  0.00    -0.000 C 
BRANCH  17  18
ATOM     18  C   UNL     1      27.520  31.569  25.940  1.00  0.00    -0.003 C 
ATOM     19  C   UNL     1      28.125  32.684  25.092  1.00  0.00     0.004 C 
ENDBRANCH  17  18
ENDBRANCH  16  17
ENDBRANCH  15  16
ENDBRANCH  14  15
ENDBRANCH  13  14
ENDBRANCH  12  13
ENDBRANCH   1  12
TORSDOF 14
ENDMDL
