MODEL 1
REMARK VINA RESULT:    -2.245      0.000      0.000
REMARK INTER + INTRA:          -3.166
REMARK INTER:                  -2.901
REMARK INTRA:                  -0.265
REMARK UNBOUND:                -0.265
REMARK SMILES CCCCCCC=O
REMARK SMILES IDX 4 1 3 2 2 3 1 4 5 5 6 6 7 7 8 8
REMARK H PARENT
REMARK Flexibility Score: inf
ROOT
ATOM      1  C   UNL     1     107.432 108.300 104.016  1.00  0.00     0.000 C 
ENDROOT
BRANCH   1   2
ATOM      2  C   UNL     1     108.180 107.159 104.719  1.00  0.00    -0.000 C 
BRANCH   2   3
ATOM      3  C   UNL     1     107.528 106.822 106.066  1.00  0.00    -0.003 C 
ATOM      4  C   UNL     1     108.358 107.356 107.229  1.00  0.00     0.004 C 
ENDBRANCH   2   3
ENDBRANCH   1   2
BRANCH   1   5
ATOM      5  C   UNL     1     108.198 109.635 104.050  1.00  0.00     0.008 C 
BRANCH   5   6
ATOM      6  C   UNL     1     107.854 110.521 105.261  1.00  0.00     0.072 C 
BRANCH   6   7
ATOM      7  C   UNL     1     107.129 111.774 104.868  1.00  0.00     0.224 C 
ATOM      8  O   UNL     1     106.334 111.767 103.943  1.00  0.00    -0.303 OA
ENDBRANCH   6   7
ENDBRANCH   5   6
ENDBRANCH   1   5
TORSDOF 5
ENDMDL
MODEL 2
REMARK VINA RESULT:    -2.172      5.642      6.993
REMARK INTER + INTRA:          -3.072
REMARK INTER:                  -2.921
REMARK INTRA:                  -0.151
REMARK UNBOUND:                -0.265
REMARK SMILES CCCCCCC=O
REMARK SMILES IDX 4 1 3 2 2 3 1 4 5 5 6 6 7 7 8 8
REMARK H PARENT
REMARK Flexibility Score: inf
ROOT
ATOM      1  C   UNL     1     102.942 106.162 109.094  1.00  0.00     0.000 C 
ENDROOT
BRANCH   1   2
ATOM      2  C   UNL     1     101.687 105.356 108.730  1.00  0.00    -0.000 C 
BRANCH   2   3
ATOM      3  C   UNL     1     101.709 103.975 109.395  1.00  0.00    -0.003 C 
ATOM      4  C   UNL     1     101.444 102.869 108.378  1.00  0.00     0.004 C 
ENDBRANCH   2   3
ENDBRANCH   1   2
BRANCH   1   5
ATOM      5  C   UNL     1     104.005 106.160 107.980  1.00  0.00     0.008 C 
BRANCH   5   6
ATOM      6  C   UNL     1     105.420 105.802 108.470  1.00  0.00     0.072 C 
BRANCH   6   7
ATOM      7  C   UNL     1     106.484 106.614 107.794  1.00  0.00     0.224 C 
ATOM      8  O   UNL     1     106.896 106.302 106.689  1.00  0.00    -0.303 OA
ENDBRANCH   6   7
ENDBRANCH   5   6
ENDBRANCH   1   5
TORSDOF 5
ENDMDL
MODEL 3
REMARK VINA RESULT:    -2.158      9.444     11.171
REMARK INTER + INTRA:          -3.054
REMARK INTER:                  -2.953
REMARK INTRA:                  -0.101
REMARK UNBOUND:                -0.265
REMARK SMILES CCCCCCC=O
REMARK SMILES IDX 4 1 3 2 2 3 1 4 5 5 6 6 7 7 8 8
REMARK H PARENT
REMARK Flexibility Score: inf
ROOT
ATOM      1  C   UNL     1     113.850 102.947 108.973  1.00  0.00     0.000 C 
ENDROOT
BRANCH   1   2
ATOM      2  C   UNL     1     113.839 103.978 107.837  1.00  0.00    -0.000 C 
BRANCH   2   3
ATOM      3  C   UNL     1     113.752 105.405 108.390  1.00  0.00    -0.003 C 
ATOM      4  C   UNL     1     113.662 106.429 107.263  1.00  0.00     0.004 C 
ENDBRANCH   2   3
ENDBRANCH   1   2
BRANCH   1   5
ATOM      5  C   UNL     1     114.655 101.680 108.632  1.00  0.00     0.008 C 
BRANCH   5   6
ATOM      6  C   UNL     1     116.076 101.665 109.224  1.00  0.00     0.072 C 
BRANCH   6   7
ATOM      7  C   UNL     1     117.138 101.637 108.166  1.00  0.00     0.224 C 
ATOM      8  O   UNL     1     118.080 100.866 108.253  1.00  0.00    -0.303 OA
ENDBRANCH   6   7
ENDBRANCH   5   6
ENDBRANCH   1   5
TORSDOF 5
ENDMDL
MODEL 4
REMARK VINA RESULT:    -2.150      2.298      4.238
REMARK INTER + INTRA:          -3.044
REMARK INTER:                  -2.840
REMARK INTRA:                  -0.204
REMARK UNBOUND:                -0.265
REMARK SMILES CCCCCCC=O
REMARK SMILES IDX 4 1 3 2 2 3 1 4 5 5 6 6 7 7 8 8
REMARK H PARENT
REMARK Flexibility Score: inf
ROOT
ATOM      1  C   UNL     1     108.604 109.799 104.806  1.00  0.00     0.000 C 
ENDROOT
BRANCH   1   2
ATOM      2  C   UNL     1     107.398 109.989 103.875  1.00  0.00    -0.000 C 
BRANCH   2   3
ATOM      3  C   UNL     1     106.912 111.442 103.895  1.00  0.00    -0.003 C 
ATOM      4  C   UNL     1     106.907 112.003 105.313  1.00  0.00     0.004 C 
ENDBRANCH   2   3
ENDBRANCH   1   2
BRANCH   1   5
ATOM      5  C   UNL     1     109.002 108.323 104.984  1.00  0.00     0.008 C 
BRANCH   5   6
ATOM      6  C   UNL     1     107.816 107.344 104.918  1.00  0.00     0.072 C 
BRANCH   6   7
ATOM      7  C   UNL     1     107.471 106.767 106.259  1.00  0.00     0.224 C 
ATOM      8  O   UNL     1     108.080 107.113 107.258  1.00  0.00    -0.303 OA
ENDBRANCH   6   7
ENDBRANCH   5   6
ENDBRANCH   1   5
TORSDOF 5
ENDMDL
MODEL 5
REMARK VINA RESULT:    -2.148      4.548      4.950
REMARK INTER + INTRA:          -3.041
REMARK INTER:                  -2.813
REMARK INTRA:                  -0.228
REMARK UNBOUND:                -0.265
REMARK SMILES CCCCCCC=O
REMARK SMILES IDX 4 1 3 2 2 3 1 4 5 5 6 6 7 7 8 8
REMARK H PARENT
REMARK Flexibility Score: inf
ROOT
ATOM      1  C   UNL     1     111.220 109.850 104.386  1.00  0.00     0.000 C 
ENDROOT
BRANCH   1   2
ATOM      2  C   UNL     1     112.668 109.859 103.876  1.00  0.00    -0.000 C 
BRANCH   2   3
ATOM      3  C   UNL     1     113.298 108.466 103.984  1.00  0.00    -0.003 C 
ATOM      4  C   UNL     1     113.158 107.905 105.395  1.00  0.00     0.004 C 
ENDBRANCH   2   3
ENDBRANCH   1   2
BRANCH   1   5
ATOM      5  C   UNL     1     110.629 111.261 104.552  1.00  0.00     0.008 C 
BRANCH   5   6
ATOM      6  C   UNL     1     111.315 112.100 105.645  1.00  0.00     0.072 C 
BRANCH   6   7
ATOM      7  C   UNL     1     111.944 113.349 105.101  1.00  0.00     0.224 C 
ATOM      8  O   UNL     1     111.954 113.566 103.900  1.00  0.00    -0.303 OA
ENDBRANCH   6   7
ENDBRANCH   5   6
ENDBRANCH   1   5
TORSDOF 5
ENDMDL
MODEL 6
REMARK VINA RESULT:    -2.147      5.864      7.301
REMARK INTER + INTRA:          -3.040
REMARK INTER:                  -2.949
REMARK INTRA:                  -0.092
REMARK UNBOUND:                -0.265
REMARK SMILES CCCCCCC=O
REMARK SMILES IDX 4 1 3 2 2 3 1 4 5 5 6 6 7 7 8 8
REMARK H PARENT
REMARK Flexibility Score: inf
ROOT
ATOM      1  C   UNL     1     104.028 106.203 107.977  1.00  0.00     0.000 C 
ENDROOT
BRANCH   1   2
ATOM      2  C   UNL     1     105.449 105.807 108.403  1.00  0.00    -0.000 C 
BRANCH   2   3
ATOM      3  C   UNL     1     106.478 106.235 107.351  1.00  0.00    -0.003 C 
ATOM      4  C   UNL     1     107.573 107.098 107.970  1.00  0.00     0.004 C 
ENDBRANCH   2   3
ENDBRANCH   1   2
BRANCH   1   5
ATOM      5  C   UNL     1     102.998 106.072 109.112  1.00  0.00     0.008 C 
BRANCH   5   6
ATOM      6  C   UNL     1     101.696 105.364 108.695  1.00  0.00     0.072 C 
BRANCH   6   7
ATOM      7  C   UNL     1     101.917 103.926 108.329  1.00  0.00     0.224 C 
ATOM      8  O   UNL     1     101.117 103.069 108.668  1.00  0.00    -0.303 OA
ENDBRANCH   6   7
ENDBRANCH   5   6
ENDBRANCH   1   5
TORSDOF 5
ENDMDL
MODEL 7
REMARK VINA RESULT:    -2.122      3.711      4.623
REMARK INTER + INTRA:          -3.007
REMARK INTER:                  -2.742
REMARK INTRA:                  -0.265
REMARK UNBOUND:                -0.265
REMARK SMILES CCCCCCC=O
REMARK SMILES IDX 4 1 3 2 2 3 1 4 5 5 6 6 7 7 8 8
REMARK H PARENT
REMARK Flexibility Score: inf
ROOT
ATOM      1  C   UNL     1     110.659 108.576 105.986  1.00  0.00     0.000 C 
ENDROOT
BRANCH   1   2
ATOM      2  C   UNL     1     112.078 109.127 105.794  1.00  0.00    -0.000 C 
BRANCH   2   3
ATOM      3  C   UNL     1     113.045 108.018 105.364  1.00  0.00    -0.003 C 
ATOM      4  C   UNL     1     113.406 108.142 103.887  1.00  0.00     0.004 C 
ENDBRANCH   2   3
ENDBRANCH   1   2
BRANCH   1   5
ATOM      5  C   UNL     1     109.783 108.711 104.728  1.00  0.00     0.008 C 
BRANCH   5   6
ATOM      6  C   UNL     1     109.623 107.400 103.936  1.00  0.00     0.072 C 
BRANCH   6   7
ATOM      7  C   UNL     1     108.213 106.889 103.951  1.00  0.00     0.224 C 
ATOM      8  O   UNL     1     107.433 107.243 104.820  1.00  0.00    -0.303 OA
ENDBRANCH   6   7
ENDBRANCH   5   6
ENDBRANCH   1   5
TORSDOF 5
ENDMDL
MODEL 8
REMARK VINA RESULT:    -2.105      7.051      8.868
REMARK INTER + INTRA:          -2.986
REMARK INTER:                  -2.615
REMARK INTRA:                  -0.371
REMARK UNBOUND:                -0.265
REMARK SMILES CCCCCCC=O
REMARK SMILES IDX 4 1 3 2 2 3 1 4 5 5 6 6 7 7 8 8
REMARK H PARENT
REMARK Flexibility Score: inf
ROOT
ATOM      1  C   UNL     1     101.680 104.006 109.348  1.00  0.00     0.000 C 
ENDROOT
BRANCH   1   2
ATOM      2  C   UNL     1     101.689 105.405 108.718  1.00  0.00    -0.000 C 
BRANCH   2   3
ATOM      3  C   UNL     1     102.937 106.190 109.139  1.00  0.00    -0.003 C 
ATOM      4  C   UNL     1     104.022 106.117 108.070  1.00  0.00     0.004 C 
ENDBRANCH   2   3
ENDBRANCH   1   2
BRANCH   1   5
ATOM      5  C   UNL     1     101.549 102.877 108.311  1.00  0.00     0.008 C 
BRANCH   5   6
ATOM      6  C   UNL     1     102.851 102.089 108.080  1.00  0.00     0.072 C 
BRANCH   6   7
ATOM      7  C   UNL     1     103.888 102.373 109.126  1.00  0.00     0.224 C 
ATOM      8  O   UNL     1     105.007 102.742 108.807  1.00  0.00    -0.303 OA
ENDBRANCH   6   7
ENDBRANCH   5   6
ENDBRANCH   1   5
TORSDOF 5
ENDMDL
MODEL 9
REMARK VINA RESULT:    -2.088      3.106      4.748
REMARK INTER + INTRA:          -2.964
REMARK INTER:                  -2.823
REMARK INTRA:                  -0.141
REMARK UNBOUND:                -0.265
REMARK SMILES CCCCCCC=O
REMARK SMILES IDX 4 1 3 2 2 3 1 4 5 5 6 6 7 7 8 8
REMARK H PARENT
REMARK Flexibility Score: inf
ROOT
ATOM      1  C   UNL     1     108.051 107.323 106.949  1.00  0.00     0.000 C 
ENDROOT
BRANCH   1   2
ATOM      2  C   UNL     1     108.137 108.373 105.833  1.00  0.00    -0.000 C 
BRANCH   2   3
ATOM      3  C   UNL     1     107.690 107.785 104.490  1.00  0.00    -0.003 C 
ATOM      4  C   UNL     1     108.784 106.918 103.876  1.00  0.00     0.004 C 
ENDBRANCH   2   3
ENDBRANCH   1   2
BRANCH   1   5
ATOM      5  C   UNL     1     106.707 106.572 106.971  1.00  0.00     0.008 C 
BRANCH   5   6
ATOM      6  C   UNL     1     106.307 106.051 108.363  1.00  0.00     0.072 C 
BRANCH   6   7
ATOM      7  C   UNL     1     104.831 106.156 108.612  1.00  0.00     0.224 C 
ATOM      8  O   UNL     1     104.049 106.248 107.680  1.00  0.00    -0.303 OA
ENDBRANCH   6   7
ENDBRANCH   5   6
ENDBRANCH   1   5
TORSDOF 5
ENDMDL
