MODEL 1
REMARK VINA RESULT:     2.329      0.000      0.000
REMARK INTER + INTRA:           4.464
REMARK INTER:                   2.601
REMARK INTRA:                   1.862
REMARK UNBOUND:                 1.862
REMARK SMILES C=C(C)[C@@H]1CC[C@]2(C(=O)[O-])CC[C@]3(C)[C@H](CC[C@@H]4[C@@]5(C)CCC(=O)C(C)(C)[C@H]5CC[C@@]43C)[C@H]12
REMARK SMILES IDX 7 1 6 2 33 3 11 4 5 5 15 6 4 7 12 8 16 9 13 10 17 11 31 12
REMARK SMILES IDX 14 13 18 14 30 15 32 16 19 17 29 18 21 19 20 20 28 21 22 22
REMARK SMILES IDX 25 23 23 24 26 25 27 26 24 27 8 28 9 29 10 30 2 31 3 32 1 33
REMARK H PARENT
REMARK Flexibility Score: inf
ROOT
ATOM      1  C   UNL     1     -17.184  10.988 -27.273  1.00  0.00     0.014 C 
ATOM      2  C   UNL     1     -18.488  10.389 -26.680  1.00  0.00     0.014 C 
ATOM      3  C   UNL     1     -17.365  10.877 -28.813  1.00  0.00     0.012 C 
ATOM      4  C   UNL     1     -17.002  12.461 -26.836  1.00  0.00     0.014 C 
ATOM      5  C   UNL     1     -19.352   9.893 -27.841  1.00  0.00     0.009 C 
ATOM      6  C   UNL     1     -16.447  11.832 -29.669  1.00  0.00     0.000 C 
ATOM      7  C   UNL     1     -18.871  10.611 -29.108  1.00  0.00     0.018 C 
ATOM      8  C   UNL     1     -15.869  13.165 -27.609  1.00  0.00     0.008 C 
ATOM      9  C   UNL     1     -16.763  11.835 -31.155  1.00  0.00     0.005 C 
ATOM     10  C   UNL     1     -16.146  13.284 -29.150  1.00  0.00    -0.024 C 
ATOM     11  C   UNL     1     -15.553  12.326 -31.933  1.00  0.00     0.005 C 
ATOM     12  C   UNL     1     -14.886  13.934 -29.962  1.00  0.00    -0.024 C 
ATOM     13  C   UNL     1     -17.395  14.200 -29.340  1.00  0.00     0.012 C 
ATOM     14  C   UNL     1     -15.059  13.768 -31.551  1.00  0.00     0.002 C 
ATOM     15  C   UNL     1     -13.528  13.268 -29.565  1.00  0.00     0.008 C 
ATOM     16  C   UNL     1     -14.804  15.453 -29.567  1.00  0.00     0.012 C 
ATOM     17  C   UNL     1     -13.788  14.179 -32.454  1.00  0.00    -0.025 C 
ATOM     18  C   UNL     1     -12.315  13.712 -30.397  1.00  0.00     0.006 C 
ATOM     19  C   UNL     1     -13.564  15.719 -32.471  1.00  0.00     0.015 C 
ATOM     20  C   UNL     1     -14.078  13.756 -33.934  1.00  0.00     0.012 C 
ATOM     21  C   UNL     1     -12.474  13.495 -31.927  1.00  0.00     0.008 C 
ATOM     22  C   UNL     1     -12.423  16.184 -33.384  1.00  0.00     0.077 C 
ATOM     23  C   UNL     1     -11.159  13.879 -32.760  1.00  0.00     0.027 C 
ATOM     24  C   UNL     1     -11.249  15.238 -33.468  1.00  0.00     0.138 C 
ATOM     25  C   UNL     1     -10.898  12.787 -33.835  1.00  0.00     0.020 C 
ATOM     26  C   UNL     1      -9.875  13.913 -31.885  1.00  0.00     0.020 C 
ATOM     27  O   UNL     1     -10.316  15.584 -34.183  1.00  0.00    -0.299 OA
ENDROOT
BRANCH   1  28
ATOM     28  C   UNL     1     -15.984  10.190 -26.764  1.00  0.00     0.048 C 
ATOM     29  O   UNL     1     -15.029   9.879 -27.525  1.00  0.00    -0.550 OA
ATOM     30  O   UNL     1     -15.888   9.875 -25.412  1.00  0.00    -0.550 OA
ENDBRANCH   1  28
BRANCH   7  31
ATOM     31  C   UNL     1     -19.795  11.770 -29.504  1.00  0.00    -0.077 C 
ATOM     32  C   UNL     1     -19.384  13.222 -29.391  1.00  0.00     0.039 C 
ATOM     33  C   UNL     1     -21.093  11.522 -29.748  1.00  0.00     0.008 C 
ENDBRANCH   7  31
TORSDOF 2
ENDMDL
