MODEL 1
REMARK VINA RESULT:    -3.705      0.000      0.000
REMARK INTER + INTRA:          -4.059
REMARK INTER:                  -4.030
REMARK INTRA:                  -0.029
REMARK UNBOUND:                -0.029
REMARK SMILES O=C([O-])c1ccc(O)cc1
REMARK SMILES IDX 4 1 5 2 10 3 6 4 9 5 7 6 2 7 1 8 3 9 8 10
REMARK H PARENT 8 11
REMARK Flexibility Score: inf
ROOT
ATOM      1  C   UNL     1      39.978 183.051 171.467  1.00  0.00    -0.003 A 
ATOM      2  C   UNL     1      40.625 181.803 171.424  1.00  0.00     0.014 A 
ATOM      3  C   UNL     1      40.421 184.018 172.388  1.00  0.00     0.014 A 
ATOM      4  C   UNL     1      41.693 181.530 172.285  1.00  0.00     0.047 A 
ATOM      5  C   UNL     1      41.488 183.741 173.247  1.00  0.00     0.047 A 
ATOM      6  C   UNL     1      42.127 182.499 173.198  1.00  0.00     0.115 A 
ENDROOT
BRANCH   1   7
ATOM      7  C   UNL     1      38.848 183.338 170.554  1.00  0.00     0.071 C 
ATOM      8  O   UNL     1      39.007 183.289 169.305  1.00  0.00    -0.545 OA
ATOM      9  O   UNL     1      37.598 183.666 171.063  1.00  0.00    -0.545 OA
ENDBRANCH   1   7
BRANCH   6  10
ATOM     10  O   UNL     1      43.190 182.236 174.060  1.00  0.00    -0.508 OA
ATOM     11  H   UNL     1      43.105 181.568 174.818  1.00  0.00     0.293 HD
ENDBRANCH   6  10
TORSDOF 2
ENDMDL
MODEL 2
REMARK VINA RESULT:    -3.668      1.884      2.490
REMARK INTER + INTRA:          -4.018
REMARK INTER:                  -3.991
REMARK INTRA:                  -0.027
REMARK UNBOUND:                -0.029
REMARK SMILES O=C([O-])c1ccc(O)cc1
REMARK SMILES IDX 4 1 5 2 10 3 6 4 9 5 7 6 2 7 1 8 3 9 8 10
REMARK H PARENT 8 11
REMARK Flexibility Score: inf
ROOT
ATOM      1  C   UNL     1      38.332 184.051 171.060  1.00  0.00    -0.003 A 
ATOM      2  C   UNL     1      39.499 183.283 170.898  1.00  0.00     0.014 A 
ATOM      3  C   UNL     1      38.342 185.123 171.972  1.00  0.00     0.014 A 
ATOM      4  C   UNL     1      40.650 183.580 171.634  1.00  0.00     0.047 A 
ATOM      5  C   UNL     1      39.495 185.416 172.706  1.00  0.00     0.047 A 
ATOM      6  C   UNL     1      40.651 184.648 172.540  1.00  0.00     0.115 A 
ENDROOT
BRANCH   1   7
ATOM      7  C   UNL     1      37.116 183.735 170.279  1.00  0.00     0.071 C 
ATOM      8  O   UNL     1      36.152 183.124 170.815  1.00  0.00    -0.545 OA
ATOM      9  O   UNL     1      37.019 184.107 168.944  1.00  0.00    -0.545 OA
ENDBRANCH   1   7
BRANCH   6  10
ATOM     10  O   UNL     1      41.793 184.953 173.278  1.00  0.00    -0.508 OA
ATOM     11  H   UNL     1      42.644 184.411 173.185  1.00  0.00     0.293 HD
ENDBRANCH   6  10
TORSDOF 2
ENDMDL
MODEL 3
REMARK VINA RESULT:    -3.661      1.894      2.889
REMARK INTER + INTRA:          -4.011
REMARK INTER:                  -3.984
REMARK INTRA:                  -0.027
REMARK UNBOUND:                -0.029
REMARK SMILES O=C([O-])c1ccc(O)cc1
REMARK SMILES IDX 4 1 5 2 10 3 6 4 9 5 7 6 2 7 1 8 3 9 8 10
REMARK H PARENT 8 11
REMARK Flexibility Score: inf
ROOT
ATOM      1  C   UNL     1      38.329 184.042 171.057  1.00  0.00    -0.003 A 
ATOM      2  C   UNL     1      38.339 185.122 171.958  1.00  0.00     0.014 A 
ATOM      3  C   UNL     1      39.497 183.274 170.899  1.00  0.00     0.014 A 
ATOM      4  C   UNL     1      39.495 185.428 172.683  1.00  0.00     0.047 A 
ATOM      5  C   UNL     1      40.651 183.583 171.626  1.00  0.00     0.047 A 
ATOM      6  C   UNL     1      40.654 184.658 172.519  1.00  0.00     0.115 A 
ENDROOT
BRANCH   1   7
ATOM      7  C   UNL     1      37.104 183.720 170.292  1.00  0.00     0.071 C 
ATOM      8  O   UNL     1      36.169 183.064 170.825  1.00  0.00    -0.545 OA
ATOM      9  O   UNL     1      36.968 184.136 168.973  1.00  0.00    -0.545 OA
ENDBRANCH   1   7
BRANCH   6  10
ATOM     10  O   UNL     1      41.811 184.954 173.237  1.00  0.00    -0.508 OA
ATOM     11  H   UNL     1      42.063 185.909 173.466  1.00  0.00     0.293 HD
ENDBRANCH   6  10
TORSDOF 2
ENDMDL
MODEL 4
REMARK VINA RESULT:    -3.648      1.304      4.151
REMARK INTER + INTRA:          -3.997
REMARK INTER:                  -3.969
REMARK INTRA:                  -0.029
REMARK UNBOUND:                -0.029
REMARK SMILES O=C([O-])c1ccc(O)cc1
REMARK SMILES IDX 4 1 5 2 10 3 6 4 9 5 7 6 2 7 1 8 3 9 8 10
REMARK H PARENT 8 11
REMARK Flexibility Score: inf
ROOT
ATOM      1  C   UNL     1      41.529 182.737 172.461  1.00  0.00    -0.003 A 
ATOM      2  C   UNL     1      40.496 182.207 171.666  1.00  0.00     0.014 A 
ATOM      3  C   UNL     1      41.400 184.045 172.964  1.00  0.00     0.014 A 
ATOM      4  C   UNL     1      39.360 182.971 171.380  1.00  0.00     0.047 A 
ATOM      5  C   UNL     1      40.263 184.805 172.675  1.00  0.00     0.047 A 
ATOM      6  C   UNL     1      39.240 184.272 171.885  1.00  0.00     0.115 A 
ENDROOT
BRANCH   1   7
ATOM      7  C   UNL     1      42.730 181.927 172.763  1.00  0.00     0.071 C 
ATOM      8  O   UNL     1      43.004 181.606 173.950  1.00  0.00    -0.545 OA
ATOM      9  O   UNL     1      43.573 181.510 171.740  1.00  0.00    -0.545 OA
ENDBRANCH   1   7
BRANCH   6  10
ATOM     10  O   UNL     1      38.112 185.041 171.606  1.00  0.00    -0.508 OA
ATOM     11  H   UNL     1      37.181 184.642 171.629  1.00  0.00     0.293 HD
ENDBRANCH   6  10
TORSDOF 2
ENDMDL
MODEL 5
REMARK VINA RESULT:    -3.585     22.315     23.024
REMARK INTER + INTRA:          -3.929
REMARK INTER:                  -3.899
REMARK INTRA:                  -0.030
REMARK UNBOUND:                -0.029
REMARK SMILES O=C([O-])c1ccc(O)cc1
REMARK SMILES IDX 4 1 5 2 10 3 6 4 9 5 7 6 2 7 1 8 3 9 8 10
REMARK H PARENT 8 11
REMARK Flexibility Score: inf
ROOT
ATOM      1  C   UNL     1      31.545 169.633 155.078  1.00  0.00    -0.003 A 
ATOM      2  C   UNL     1      31.266 169.066 156.335  1.00  0.00     0.014 A 
ATOM      3  C   UNL     1      32.849 169.536 154.559  1.00  0.00     0.014 A 
ATOM      4  C   UNL     1      32.273 168.418 157.057  1.00  0.00     0.047 A 
ATOM      5  C   UNL     1      33.853 168.888 155.285  1.00  0.00     0.047 A 
ATOM      6  C   UNL     1      33.569 168.326 156.533  1.00  0.00     0.115 A 
ENDROOT
BRANCH   1   7
ATOM      7  C   UNL     1      30.478 170.318 154.315  1.00  0.00     0.071 C 
ATOM      8  O   UNL     1      30.653 171.487 153.877  1.00  0.00    -0.545 OA
ATOM      9  O   UNL     1      29.266 169.683 154.071  1.00  0.00    -0.545 OA
ENDBRANCH   1   7
BRANCH   6  10
ATOM     10  O   UNL     1      34.578 167.682 157.245  1.00  0.00    -0.508 OA
ATOM     11  H   UNL     1      35.557 167.840 157.037  1.00  0.00     0.293 HD
ENDBRANCH   6  10
TORSDOF 2
ENDMDL
MODEL 6
REMARK VINA RESULT:    -3.458      1.549      2.057
REMARK INTER + INTRA:          -3.790
REMARK INTER:                  -3.755
REMARK INTRA:                  -0.035
REMARK UNBOUND:                -0.029
REMARK SMILES O=C([O-])c1ccc(O)cc1
REMARK SMILES IDX 4 1 5 2 10 3 6 4 9 5 7 6 2 7 1 8 3 9 8 10
REMARK H PARENT 8 11
REMARK Flexibility Score: inf
ROOT
ATOM      1  C   UNL     1      40.319 183.678 172.349  1.00  0.00    -0.003 A 
ATOM      2  C   UNL     1      40.041 182.544 171.565  1.00  0.00     0.014 A 
ATOM      3  C   UNL     1      41.412 183.644 173.234  1.00  0.00     0.014 A 
ATOM      4  C   UNL     1      40.840 181.401 171.665  1.00  0.00     0.047 A 
ATOM      5  C   UNL     1      42.209 182.500 173.331  1.00  0.00     0.047 A 
ATOM      6  C   UNL     1      41.927 181.376 172.548  1.00  0.00     0.115 A 
ENDROOT
BRANCH   1   7
ATOM      7  C   UNL     1      39.471 184.886 172.241  1.00  0.00     0.071 C 
ATOM      8  O   UNL     1      39.875 185.993 172.690  1.00  0.00    -0.545 OA
ATOM      9  O   UNL     1      38.219 184.817 171.643  1.00  0.00    -0.545 OA
ENDBRANCH   1   7
BRANCH   6  10
ATOM     10  O   UNL     1      42.729 180.242 172.655  1.00  0.00    -0.508 OA
ATOM     11  H   UNL     1      42.352 179.312 172.521  1.00  0.00     0.293 HD
ENDBRANCH   6  10
TORSDOF 2
ENDMDL
MODEL 7
REMARK VINA RESULT:    -3.415      1.295      1.729
REMARK INTER + INTRA:          -3.744
REMARK INTER:                  -3.708
REMARK INTRA:                  -0.036
REMARK UNBOUND:                -0.029
REMARK SMILES O=C([O-])c1ccc(O)cc1
REMARK SMILES IDX 4 1 5 2 10 3 6 4 9 5 7 6 2 7 1 8 3 9 8 10
REMARK H PARENT 8 11
REMARK Flexibility Score: inf
ROOT
ATOM      1  C   UNL     1      39.072 184.248 171.775  1.00  0.00    -0.003 A 
ATOM      2  C   UNL     1      39.466 182.917 171.546  1.00  0.00     0.014 A 
ATOM      3  C   UNL     1      39.861 185.059 172.611  1.00  0.00     0.014 A 
ATOM      4  C   UNL     1      40.625 182.410 172.143  1.00  0.00     0.047 A 
ATOM      5  C   UNL     1      41.019 184.548 173.205  1.00  0.00     0.047 A 
ATOM      6  C   UNL     1      41.405 183.224 172.974  1.00  0.00     0.115 A 
ENDROOT
BRANCH   1   7
ATOM      7  C   UNL     1      37.846 184.782 171.142  1.00  0.00     0.071 C 
ATOM      8  O   UNL     1      37.397 185.914 171.470  1.00  0.00    -0.545 OA
ATOM      9  O   UNL     1      37.171 184.043 170.178  1.00  0.00    -0.545 OA
ENDBRANCH   1   7
BRANCH   6  10
ATOM     10  O   UNL     1      42.561 182.728 173.572  1.00  0.00    -0.508 OA
ATOM     11  H   UNL     1      42.521 182.021 174.296  1.00  0.00     0.293 HD
ENDBRANCH   6  10
TORSDOF 2
ENDMDL
MODEL 8
REMARK VINA RESULT:    -3.289      5.249      7.330
REMARK INTER + INTRA:          -3.606
REMARK INTER:                  -3.577
REMARK INTRA:                  -0.030
REMARK UNBOUND:                -0.029
REMARK SMILES O=C([O-])c1ccc(O)cc1
REMARK SMILES IDX 4 1 5 2 10 3 6 4 9 5 7 6 2 7 1 8 3 9 8 10
REMARK H PARENT 8 11
REMARK Flexibility Score: inf
ROOT
ATOM      1  C   UNL     1      34.872 182.204 170.719  1.00  0.00    -0.003 A 
ATOM      2  C   UNL     1      33.921 182.215 169.683  1.00  0.00     0.014 A 
ATOM      3  C   UNL     1      34.981 181.061 171.533  1.00  0.00     0.014 A 
ATOM      4  C   UNL     1      33.096 181.106 169.467  1.00  0.00     0.047 A 
ATOM      5  C   UNL     1      34.155 179.955 171.314  1.00  0.00     0.047 A 
ATOM      6  C   UNL     1      33.212 179.973 170.282  1.00  0.00     0.115 A 
ENDROOT
BRANCH   1   7
ATOM      7  C   UNL     1      35.743 183.378 170.946  1.00  0.00     0.071 C 
ATOM      8  O   UNL     1      35.806 183.920 172.082  1.00  0.00    -0.545 OA
ATOM      9  O   UNL     1      36.504 183.901 169.907  1.00  0.00    -0.545 OA
ENDBRANCH   1   7
BRANCH   6  10
ATOM     10  O   UNL     1      32.395 178.863 170.075  1.00  0.00    -0.508 OA
ATOM     11  H   UNL     1      31.408 178.963 169.868  1.00  0.00     0.293 HD
ENDBRANCH   6  10
TORSDOF 2
ENDMDL
MODEL 9
REMARK VINA RESULT:    -3.286      2.004      4.585
REMARK INTER + INTRA:          -3.603
REMARK INTER:                  -3.576
REMARK INTRA:                  -0.027
REMARK UNBOUND:                -0.029
REMARK SMILES O=C([O-])c1ccc(O)cc1
REMARK SMILES IDX 4 1 5 2 10 3 6 4 9 5 7 6 2 7 1 8 3 9 8 10
REMARK H PARENT 8 11
REMARK Flexibility Score: inf
ROOT
ATOM      1  C   UNL     1      39.482 183.997 171.855  1.00  0.00    -0.003 A 
ATOM      2  C   UNL     1      39.636 183.262 170.666  1.00  0.00     0.014 A 
ATOM      3  C   UNL     1      38.349 184.817 172.008  1.00  0.00     0.014 A 
ATOM      4  C   UNL     1      38.677 183.346 169.652  1.00  0.00     0.047 A 
ATOM      5  C   UNL     1      37.392 184.899 170.992  1.00  0.00     0.047 A 
ATOM      6  C   UNL     1      37.552 184.165 169.813  1.00  0.00     0.115 A 
ENDROOT
BRANCH   1   7
ATOM      7  C   UNL     1      40.498 183.905 172.927  1.00  0.00     0.071 C 
ATOM      8  O   UNL     1      41.385 184.793 173.045  1.00  0.00    -0.545 OA
ATOM      9  O   UNL     1      40.489 182.838 173.817  1.00  0.00    -0.545 OA
ENDBRANCH   1   7
BRANCH   6  10
ATOM     10  O   UNL     1      36.590 184.256 168.808  1.00  0.00    -0.508 OA
ATOM     11  H   UNL     1      36.044 185.098 168.673  1.00  0.00     0.293 HD
ENDBRANCH   6  10
TORSDOF 2
ENDMDL
