MODEL 1
REMARK VINA RESULT:    -4.282      0.000      0.000
REMARK INTER + INTRA:          -9.316
REMARK INTER:                  -7.536
REMARK INTRA:                  -1.779
REMARK UNBOUND:                -1.779
REMARK SMILES CCCCCCCCCCCCCCC(=O)[O-]
REMARK SMILES IDX 9 1 10 2 11 3 12 4 13 5 14 6 15 7 16 8 17 9 8 10 7 11 6 12
REMARK SMILES IDX 5 13 4 14 3 15 2 16 1 17
REMARK H PARENT
REMARK Flexibility Score: inf
ROOT
ATOM      1  C   UNL     1      -8.887   2.111  19.267  1.00  0.00     0.000 C 
ENDROOT
BRANCH   1   2
ATOM      2  C   UNL     1      -8.264   3.029  18.199  1.00  0.00     0.000 C 
BRANCH   2   3
ATOM      3  C   UNL     1      -9.279   3.450  17.123  1.00  0.00     0.000 C 
BRANCH   3   4
ATOM      4  C   UNL     1      -9.747   2.264  16.261  1.00  0.00     0.000 C 
BRANCH   4   5
ATOM      5  C   UNL     1     -11.152   2.477  15.673  1.00  0.00     0.006 C 
BRANCH   5   6
ATOM      6  C   UNL     1     -11.981   1.187  15.636  1.00  0.00     0.053 C 
BRANCH   6   7
ATOM      7  C   UNL     1     -11.764   0.466  14.342  1.00  0.00     0.041 C 
ATOM      8  O   UNL     1     -12.690  -0.226  13.839  1.00  0.00    -0.550 OA
ATOM      9  O   UNL     1     -10.522   0.513  13.721  1.00  0.00    -0.550 OA
ENDBRANCH   6   7
ENDBRANCH   5   6
ENDBRANCH   4   5
ENDBRANCH   3   4
ENDBRANCH   2   3
ENDBRANCH   1   2
BRANCH   1  10
ATOM     10  C   UNL     1     -10.114   2.740  19.946  1.00  0.00     0.000 C 
BRANCH  10  11
ATOM     11  C   UNL     1     -11.384   1.886  19.788  1.00  0.00    -0.000 C 
BRANCH  11  12
ATOM     12  C   UNL     1     -11.100   0.496  19.189  1.00  0.00    -0.000 C 
BRANCH  12  13
ATOM     13  C   UNL     1     -11.177  -0.677  20.182  1.00  0.00    -0.000 C 
BRANCH  13  14
ATOM     14  C   UNL     1      -9.814  -1.347  20.428  1.00  0.00    -0.000 C 
BRANCH  14  15
ATOM     15  C   UNL     1      -9.120  -0.823  21.696  1.00  0.00    -0.000 C 
BRANCH  15  16
ATOM     16  C   UNL     1     -10.077  -0.057  22.622  1.00  0.00    -0.003 C 
ATOM     17  C   UNL     1      -9.358   1.093  23.322  1.00  0.00     0.004 C 
ENDBRANCH  15  16
ENDBRANCH  14  15
ENDBRANCH  13  14
ENDBRANCH  12  13
ENDBRANCH  11  12
ENDBRANCH  10  11
ENDBRANCH   1  10
TORSDOF 13
ENDMDL
MODEL 2
REMARK VINA RESULT:    -4.254      1.436      2.353
REMARK INTER + INTRA:          -9.267
REMARK INTER:                  -7.511
REMARK INTRA:                  -1.756
REMARK UNBOUND:                -1.779
REMARK SMILES CCCCCCCCCCCCCCC(=O)[O-]
REMARK SMILES IDX 9 1 10 2 11 3 12 4 13 5 14 6 15 7 16 8 17 9 8 10 7 11 6 12
REMARK SMILES IDX 5 13 4 14 3 15 2 16 1 17
REMARK H PARENT
REMARK Flexibility Score: inf
ROOT
ATOM      1  C   UNL     1      -9.955   4.287  18.863  1.00  0.00     0.000 C 
ENDROOT
BRANCH   1   2
ATOM      2  C   UNL     1     -11.229   4.530  18.033  1.00  0.00     0.000 C 
BRANCH   2   3
ATOM      3  C   UNL     1     -12.079   3.258  17.878  1.00  0.00     0.000 C 
BRANCH   3   4
ATOM      4  C   UNL     1     -12.469   2.987  16.414  1.00  0.00     0.000 C 
BRANCH   4   5
ATOM      5  C   UNL     1     -12.031   1.595  15.932  1.00  0.00     0.006 C 
BRANCH   5   6
ATOM      6  C   UNL     1     -10.619   1.592  15.332  1.00  0.00     0.053 C 
BRANCH   6   7
ATOM      7  C   UNL     1     -10.524   0.582  14.231  1.00  0.00     0.041 C 
ATOM      8  O   UNL     1      -9.403   0.289  13.734  1.00  0.00    -0.550 OA
ATOM      9  O   UNL     1     -11.678   0.005  13.715  1.00  0.00    -0.550 OA
ENDBRANCH   6   7
ENDBRANCH   5   6
ENDBRANCH   4   5
ENDBRANCH   3   4
ENDBRANCH   2   3
ENDBRANCH   1   2
BRANCH   1  10
ATOM     10  C   UNL     1      -9.015   3.256  18.218  1.00  0.00     0.000 C 
BRANCH  10  11
ATOM     11  C   UNL     1      -8.696   2.076  19.153  1.00  0.00    -0.000 C 
BRANCH  11  12
ATOM     12  C   UNL     1      -9.357   0.759  18.703  1.00  0.00    -0.000 C 
BRANCH  12  13
ATOM     13  C   UNL     1      -8.865  -0.505  19.430  1.00  0.00    -0.000 C 
BRANCH  13  14
ATOM     14  C   UNL     1      -9.933  -1.122  20.349  1.00  0.00    -0.000 C 
BRANCH  14  15
ATOM     15  C   UNL     1     -11.239  -0.312  20.364  1.00  0.00    -0.000 C 
BRANCH  15  16
ATOM     16  C   UNL     1     -11.403   0.525  21.643  1.00  0.00    -0.003 C 
ATOM     17  C   UNL     1     -12.003   1.893  21.329  1.00  0.00     0.004 C 
ENDBRANCH  15  16
ENDBRANCH  14  15
ENDBRANCH  13  14
ENDBRANCH  12  13
ENDBRANCH  11  12
ENDBRANCH  10  11
ENDBRANCH   1  10
TORSDOF 13
ENDMDL
MODEL 3
REMARK VINA RESULT:    -4.120      3.015      5.875
REMARK INTER + INTRA:          -9.030
REMARK INTER:                  -7.302
REMARK INTRA:                  -1.728
REMARK UNBOUND:                -1.779
REMARK SMILES CCCCCCCCCCCCCCC(=O)[O-]
REMARK SMILES IDX 9 1 10 2 11 3 12 4 13 5 14 6 15 7 16 8 17 9 8 10 7 11 6 12
REMARK SMILES IDX 5 13 4 14 3 15 2 16 1 17
REMARK H PARENT
REMARK Flexibility Score: inf
ROOT
ATOM      1  C   UNL     1     -11.388   4.614  19.186  1.00  0.00     0.000 C 
ENDROOT
BRANCH   1   2
ATOM      2  C   UNL     1     -10.674   3.597  20.094  1.00  0.00     0.000 C 
BRANCH   2   3
ATOM      3  C   UNL     1     -11.660   2.675  20.831  1.00  0.00     0.000 C 
BRANCH   3   4
ATOM      4  C   UNL     1     -11.316   1.185  20.654  1.00  0.00     0.000 C 
BRANCH   4   5
ATOM      5  C   UNL     1     -10.471   0.918  19.397  1.00  0.00     0.006 C 
BRANCH   5   6
ATOM      6  C   UNL     1      -9.154   0.196  19.710  1.00  0.00     0.053 C 
BRANCH   6   7
ATOM      7  C   UNL     1      -9.411  -1.008  20.561  1.00  0.00     0.041 C 
ATOM      8  O   UNL     1      -8.902  -1.091  21.712  1.00  0.00    -0.550 OA
ATOM      9  O   UNL     1     -10.165  -2.063  20.063  1.00  0.00    -0.550 OA
ENDBRANCH   6   7
ENDBRANCH   5   6
ENDBRANCH   4   5
ENDBRANCH   3   4
ENDBRANCH   2   3
ENDBRANCH   1   2
BRANCH   1  10
ATOM     10  C   UNL     1     -12.782   4.138  18.745  1.00  0.00     0.000 C 
BRANCH  10  11
ATOM     11  C   UNL     1     -12.893   3.955  17.221  1.00  0.00    -0.000 C 
BRANCH  11  12
ATOM     12  C   UNL     1     -12.019   2.802  16.692  1.00  0.00    -0.000 C 
BRANCH  12  13
ATOM     13  C   UNL     1     -10.854   3.225  15.780  1.00  0.00    -0.000 C 
BRANCH  13  14
ATOM     14  C   UNL     1      -9.593   2.367  15.978  1.00  0.00    -0.000 C 
BRANCH  14  15
ATOM     15  C   UNL     1      -9.850   0.873  15.727  1.00  0.00    -0.000 C 
BRANCH  15  16
ATOM     16  C   UNL     1      -9.948   0.532  14.232  1.00  0.00    -0.003 C 
ATOM     17  C   UNL     1     -11.370   0.120  13.856  1.00  0.00     0.004 C 
ENDBRANCH  15  16
ENDBRANCH  14  15
ENDBRANCH  13  14
ENDBRANCH  12  13
ENDBRANCH  11  12
ENDBRANCH  10  11
ENDBRANCH   1  10
TORSDOF 13
ENDMDL
MODEL 4
REMARK VINA RESULT:    -4.116      3.591      6.599
REMARK INTER + INTRA:          -9.023
REMARK INTER:                  -7.431
REMARK INTRA:                  -1.592
REMARK UNBOUND:                -1.779
REMARK SMILES CCCCCCCCCCCCCCC(=O)[O-]
REMARK SMILES IDX 9 1 10 2 11 3 12 4 13 5 14 6 15 7 16 8 17 9 8 10 7 11 6 12
REMARK SMILES IDX 5 13 4 14 3 15 2 16 1 17
REMARK H PARENT
REMARK Flexibility Score: inf
ROOT
ATOM      1  C   UNL     1      -9.184   2.318  19.344  1.00  0.00     0.000 C 
ENDROOT
BRANCH   1   2
ATOM      2  C   UNL     1      -9.157   0.938  18.661  1.00  0.00     0.000 C 
BRANCH   2   3
ATOM      3  C   UNL     1      -9.969  -0.115  19.434  1.00  0.00     0.000 C 
BRANCH   3   4
ATOM      4  C   UNL     1     -11.188   0.493  20.151  1.00  0.00     0.000 C 
BRANCH   4   5
ATOM      5  C   UNL     1     -11.299   0.042  21.616  1.00  0.00     0.006 C 
BRANCH   5   6
ATOM      6  C   UNL     1     -10.283   0.740  22.531  1.00  0.00     0.053 C 
BRANCH   6   7
ATOM      7  C   UNL     1      -9.384  -0.269  23.174  1.00  0.00     0.041 C 
ATOM      8  O   UNL     1      -8.639  -0.998  22.465  1.00  0.00    -0.550 OA
ATOM      9  O   UNL     1      -9.410  -0.443  24.553  1.00  0.00    -0.550 OA
ENDBRANCH   6   7
ENDBRANCH   5   6
ENDBRANCH   4   5
ENDBRANCH   3   4
ENDBRANCH   2   3
ENDBRANCH   1   2
BRANCH   1  10
ATOM     10  C   UNL     1      -9.285   3.475  18.337  1.00  0.00     0.000 C 
BRANCH  10  11
ATOM     11  C   UNL     1      -9.344   2.989  16.878  1.00  0.00    -0.000 C 
BRANCH  11  12
ATOM     12  C   UNL     1     -10.632   3.423  16.153  1.00  0.00    -0.000 C 
BRANCH  12  13
ATOM     13  C   UNL     1     -11.901   2.647  16.546  1.00  0.00    -0.000 C 
BRANCH  13  14
ATOM     14  C   UNL     1     -11.803   1.142  16.243  1.00  0.00    -0.000 C 
BRANCH  14  15
ATOM     15  C   UNL     1     -12.511   0.757  14.934  1.00  0.00    -0.000 C 
BRANCH  15  16
ATOM     16  C   UNL     1     -11.559   0.121  13.910  1.00  0.00    -0.003 C 
ATOM     17  C   UNL     1     -10.102   0.400  14.270  1.00  0.00     0.004 C 
ENDBRANCH  15  16
ENDBRANCH  14  15
ENDBRANCH  13  14
ENDBRANCH  12  13
ENDBRANCH  11  12
ENDBRANCH  10  11
ENDBRANCH   1  10
TORSDOF 13
ENDMDL
MODEL 5
REMARK VINA RESULT:    -4.095      1.029      1.847
REMARK INTER + INTRA:          -8.985
REMARK INTER:                  -6.989
REMARK INTRA:                  -1.997
REMARK UNBOUND:                -1.779
REMARK SMILES CCCCCCCCCCCCCCC(=O)[O-]
REMARK SMILES IDX 9 1 10 2 11 3 12 4 13 5 14 6 15 7 16 8 17 9 8 10 7 11 6 12
REMARK SMILES IDX 5 13 4 14 3 15 2 16 1 17
REMARK H PARENT
REMARK Flexibility Score: inf
ROOT
ATOM      1  C   UNL     1      -9.056   2.349  19.431  1.00  0.00     0.000 C 
ENDROOT
BRANCH   1   2
ATOM      2  C   UNL     1      -8.738   3.074  18.111  1.00  0.00     0.000 C 
BRANCH   2   3
ATOM      3  C   UNL     1      -9.482   2.463  16.911  1.00  0.00     0.000 C 
BRANCH   3   4
ATOM      4  C   UNL     1     -10.128   1.107  17.250  1.00  0.00     0.000 C 
BRANCH   4   5
ATOM      5  C   UNL     1     -11.652   1.111  17.050  1.00  0.00     0.006 C 
BRANCH   5   6
ATOM      6  C   UNL     1     -12.071   1.671  15.685  1.00  0.00     0.053 C 
BRANCH   6   7
ATOM      7  C   UNL     1     -11.900   0.631  14.622  1.00  0.00     0.041 C 
ATOM      8  O   UNL     1     -12.801  -0.229  14.426  1.00  0.00    -0.550 OA
ATOM      9  O   UNL     1     -10.723   0.577  13.886  1.00  0.00    -0.550 OA
ENDBRANCH   6   7
ENDBRANCH   5   6
ENDBRANCH   4   5
ENDBRANCH   3   4
ENDBRANCH   2   3
ENDBRANCH   1   2
BRANCH   1  10
ATOM     10  C   UNL     1      -9.247   3.318  20.608  1.00  0.00     0.000 C 
BRANCH  10  11
ATOM     11  C   UNL     1     -10.720   3.712  20.820  1.00  0.00    -0.000 C 
BRANCH  11  12
ATOM     12  C   UNL     1     -11.699   2.570  20.489  1.00  0.00    -0.000 C 
BRANCH  12  13
ATOM     13  C   UNL     1     -12.052   1.644  21.666  1.00  0.00    -0.000 C 
BRANCH  13  14
ATOM     14  C   UNL     1     -11.500   0.218  21.497  1.00  0.00    -0.000 C 
BRANCH  14  15
ATOM     15  C   UNL     1     -10.134   0.030  22.177  1.00  0.00    -0.000 C 
BRANCH  15  16
ATOM     16  C   UNL     1      -9.176  -0.842  21.351  1.00  0.00    -0.003 C 
ATOM     17  C   UNL     1      -9.869  -1.391  20.106  1.00  0.00     0.004 C 
ENDBRANCH  15  16
ENDBRANCH  14  15
ENDBRANCH  13  14
ENDBRANCH  12  13
ENDBRANCH  11  12
ENDBRANCH  10  11
ENDBRANCH   1  10
TORSDOF 13
ENDMDL
MODEL 6
REMARK VINA RESULT:    -4.081     10.239     12.699
REMARK INTER + INTRA:          -8.962
REMARK INTER:                  -7.913
REMARK INTRA:                  -1.049
REMARK UNBOUND:                -1.779
REMARK SMILES CCCCCCCCCCCCCCC(=O)[O-]
REMARK SMILES IDX 9 1 10 2 11 3 12 4 13 5 14 6 15 7 16 8 17 9 8 10 7 11 6 12
REMARK SMILES IDX 5 13 4 14 3 15 2 16 1 17
REMARK H PARENT
REMARK Flexibility Score: inf
ROOT
ATOM      1  C   UNL     1      -3.434  -6.650  20.455  1.00  0.00     0.000 C 
ENDROOT
BRANCH   1   2
ATOM      2  C   UNL     1      -2.103  -7.215  20.985  1.00  0.00     0.000 C 
BRANCH   2   3
ATOM      3  C   UNL     1      -1.028  -6.127  21.150  1.00  0.00     0.000 C 
BRANCH   3   4
ATOM      4  C   UNL     1      -1.546  -4.728  20.768  1.00  0.00     0.000 C 
BRANCH   4   5
ATOM      5  C   UNL     1      -1.485  -3.734  21.939  1.00  0.00     0.006 C 
BRANCH   5   6
ATOM      6  C   UNL     1      -2.733  -2.846  22.029  1.00  0.00     0.053 C 
BRANCH   6   7
ATOM      7  C   UNL     1      -2.694  -2.020  23.277  1.00  0.00     0.041 C 
ATOM      8  O   UNL     1      -3.319  -0.927  23.333  1.00  0.00    -0.550 OA
ATOM      9  O   UNL     1      -1.921  -2.428  24.357  1.00  0.00    -0.550 OA
ENDBRANCH   6   7
ENDBRANCH   5   6
ENDBRANCH   4   5
ENDBRANCH   3   4
ENDBRANCH   2   3
ENDBRANCH   1   2
BRANCH   1  10
ATOM     10  C   UNL     1      -3.796  -7.196  19.064  1.00  0.00     0.000 C 
BRANCH  10  11
ATOM     11  C   UNL     1      -2.953  -6.568  17.941  1.00  0.00    -0.000 C 
BRANCH  11  12
ATOM     12  C   UNL     1      -2.734  -7.521  16.751  1.00  0.00    -0.000 C 
BRANCH  12  13
ATOM     13  C   UNL     1      -1.443  -8.357  16.808  1.00  0.00    -0.000 C 
BRANCH  13  14
ATOM     14  C   UNL     1      -1.709  -9.873  16.806  1.00  0.00    -0.000 C 
BRANCH  14  15
ATOM     15  C   UNL     1      -3.208 -10.208  16.759  1.00  0.00    -0.000 C 
BRANCH  15  16
ATOM     16  C   UNL     1      -3.673 -10.654  15.363  1.00  0.00    -0.003 C 
ATOM     17  C   UNL     1      -5.191 -10.559  15.235  1.00  0.00     0.004 C 
ENDBRANCH  15  16
ENDBRANCH  14  15
ENDBRANCH  13  14
ENDBRANCH  12  13
ENDBRANCH  11  12
ENDBRANCH  10  11
ENDBRANCH   1  10
TORSDOF 13
ENDMDL
MODEL 7
REMARK VINA RESULT:    -4.063      1.870      3.583
REMARK INTER + INTRA:          -8.929
REMARK INTER:                  -6.976
REMARK INTRA:                  -1.953
REMARK UNBOUND:                -1.779
REMARK SMILES CCCCCCCCCCCCCCC(=O)[O-]
REMARK SMILES IDX 9 1 10 2 11 3 12 4 13 5 14 6 15 7 16 8 17 9 8 10 7 11 6 12
REMARK SMILES IDX 5 13 4 14 3 15 2 16 1 17
REMARK H PARENT
REMARK Flexibility Score: inf
ROOT
ATOM      1  C   UNL     1      -9.645  -0.992  20.027  1.00  0.00     0.000 C 
ENDROOT
BRANCH   1   2
ATOM      2  C   UNL     1      -8.856  -0.075  19.074  1.00  0.00     0.000 C 
BRANCH   2   3
ATOM      3  C   UNL     1      -9.599   1.237  18.773  1.00  0.00     0.000 C 
BRANCH   3   4
ATOM      4  C   UNL     1     -11.039   0.998  18.285  1.00  0.00     0.000 C 
BRANCH   4   5
ATOM      5  C   UNL     1     -11.612   2.200  17.516  1.00  0.00     0.006 C 
BRANCH   5   6
ATOM      6  C   UNL     1     -12.152   1.817  16.133  1.00  0.00     0.053 C 
BRANCH   6   7
ATOM      7  C   UNL     1     -11.031   1.394  15.236  1.00  0.00     0.041 C 
ATOM      8  O   UNL     1     -11.155   0.375  14.503  1.00  0.00    -0.550 OA
ATOM      9  O   UNL     1      -9.829   2.091  15.249  1.00  0.00    -0.550 OA
ENDBRANCH   6   7
ENDBRANCH   5   6
ENDBRANCH   4   5
ENDBRANCH   3   4
ENDBRANCH   2   3
ENDBRANCH   1   2
BRANCH   1  10
ATOM     10  C   UNL     1      -9.154  -0.899  21.480  1.00  0.00     0.000 C 
BRANCH  10  11
ATOM     11  C   UNL     1     -10.008   0.054  22.335  1.00  0.00    -0.000 C 
BRANCH  11  12
ATOM     12  C   UNL     1     -11.483   0.096  21.894  1.00  0.00    -0.000 C 
BRANCH  12  13
ATOM     13  C   UNL     1     -12.177   1.460  22.048  1.00  0.00    -0.000 C 
BRANCH  13  14
ATOM     14  C   UNL     1     -11.223   2.647  21.832  1.00  0.00    -0.000 C 
BRANCH  14  15
ATOM     15  C   UNL     1     -11.805   3.707  20.883  1.00  0.00    -0.000 C 
BRANCH  15  16
ATOM     16  C   UNL     1     -13.339   3.653  20.803  1.00  0.00    -0.003 C 
ATOM     17  C   UNL     1     -13.877   4.731  19.865  1.00  0.00     0.004 C 
ENDBRANCH  15  16
ENDBRANCH  14  15
ENDBRANCH  13  14
ENDBRANCH  12  13
ENDBRANCH  11  12
ENDBRANCH  10  11
ENDBRANCH   1  10
TORSDOF 13
ENDMDL
MODEL 8
REMARK VINA RESULT:    -4.063      1.333      2.616
REMARK INTER + INTRA:          -8.929
REMARK INTER:                  -7.100
REMARK INTRA:                  -1.829
REMARK UNBOUND:                -1.779
REMARK SMILES CCCCCCCCCCCCCCC(=O)[O-]
REMARK SMILES IDX 9 1 10 2 11 3 12 4 13 5 14 6 15 7 16 8 17 9 8 10 7 11 6 12
REMARK SMILES IDX 5 13 4 14 3 15 2 16 1 17
REMARK H PARENT
REMARK Flexibility Score: inf
ROOT
ATOM      1  C   UNL     1      -9.786   4.642  17.576  1.00  0.00     0.000 C 
ENDROOT
BRANCH   1   2
ATOM      2  C   UNL     1     -11.222   4.875  18.080  1.00  0.00     0.000 C 
BRANCH   2   3
ATOM      3  C   UNL     1     -12.145   3.677  17.798  1.00  0.00     0.000 C 
BRANCH   3   4
ATOM      4  C   UNL     1     -12.069   3.210  16.333  1.00  0.00     0.000 C 
BRANCH   4   5
ATOM      5  C   UNL     1     -11.592   1.755  16.199  1.00  0.00     0.006 C 
BRANCH   5   6
ATOM      6  C   UNL     1     -10.256   1.635  15.454  1.00  0.00     0.053 C 
BRANCH   6   7
ATOM      7  C   UNL     1     -10.358   0.612  14.366  1.00  0.00     0.041 C 
ATOM      8  O   UNL     1      -9.315   0.164  13.817  1.00  0.00    -0.550 OA
ATOM      9  O   UNL     1     -11.606   0.193  13.920  1.00  0.00    -0.550 OA
ENDBRANCH   6   7
ENDBRANCH   5   6
ENDBRANCH   4   5
ENDBRANCH   3   4
ENDBRANCH   2   3
ENDBRANCH   1   2
BRANCH   1  10
ATOM     10  C   UNL     1      -8.784   4.423  18.722  1.00  0.00     0.000 C 
BRANCH  10  11
ATOM     11  C   UNL     1      -7.936   3.153  18.534  1.00  0.00    -0.000 C 
BRANCH  11  12
ATOM     12  C   UNL     1      -8.721   1.860  18.822  1.00  0.00    -0.000 C 
BRANCH  12  13
ATOM     13  C   UNL     1      -9.733   1.949  19.978  1.00  0.00    -0.000 C 
BRANCH  13  14
ATOM     14  C   UNL     1     -10.896   0.952  19.836  1.00  0.00    -0.000 C 
BRANCH  14  15
ATOM     15  C   UNL     1     -10.876  -0.135  20.923  1.00  0.00    -0.000 C 
BRANCH  15  16
ATOM     16  C   UNL     1      -9.688  -1.099  20.775  1.00  0.00    -0.003 C 
ATOM     17  C   UNL     1      -8.767  -1.025  21.991  1.00  0.00     0.004 C 
ENDBRANCH  15  16
ENDBRANCH  14  15
ENDBRANCH  13  14
ENDBRANCH  12  13
ENDBRANCH  11  12
ENDBRANCH  10  11
ENDBRANCH   1  10
TORSDOF 13
ENDMDL
MODEL 9
REMARK VINA RESULT:    -4.050      1.364      2.251
REMARK INTER + INTRA:          -8.907
REMARK INTER:                  -7.058
REMARK INTRA:                  -1.848
REMARK UNBOUND:                -1.779
REMARK SMILES CCCCCCCCCCCCCCC(=O)[O-]
REMARK SMILES IDX 9 1 10 2 11 3 12 4 13 5 14 6 15 7 16 8 17 9 8 10 7 11 6 12
REMARK SMILES IDX 5 13 4 14 3 15 2 16 1 17
REMARK H PARENT
REMARK Flexibility Score: inf
ROOT
ATOM      1  C   UNL     1     -10.673   5.414  18.656  1.00  0.00     0.000 C 
ENDROOT
BRANCH   1   2
ATOM      2  C   UNL     1     -10.716   4.732  17.277  1.00  0.00     0.000 C 
BRANCH   2   3
ATOM      3  C   UNL     1      -9.405   4.002  16.942  1.00  0.00     0.000 C 
BRANCH   3   4
ATOM      4  C   UNL     1      -9.637   2.736  16.097  1.00  0.00     0.000 C 
BRANCH   4   5
ATOM      5  C   UNL     1     -11.100   2.581  15.651  1.00  0.00     0.006 C 
BRANCH   5   6
ATOM      6  C   UNL     1     -11.585   1.127  15.701  1.00  0.00     0.053 C 
BRANCH   6   7
ATOM      7  C   UNL     1     -11.467   0.493  14.350  1.00  0.00     0.041 C 
ATOM      8  O   UNL     1     -10.330   0.257  13.857  1.00  0.00    -0.550 OA
ATOM      9  O   UNL     1     -12.610   0.215  13.610  1.00  0.00    -0.550 OA
ENDBRANCH   6   7
ENDBRANCH   5   6
ENDBRANCH   4   5
ENDBRANCH   3   4
ENDBRANCH   2   3
ENDBRANCH   1   2
BRANCH   1  10
ATOM     10  C   UNL     1     -11.855   5.013  19.553  1.00  0.00     0.000 C 
BRANCH  10  11
ATOM     11  C   UNL     1     -12.368   3.592  19.259  1.00  0.00    -0.000 C 
BRANCH  11  12
ATOM     12  C   UNL     1     -11.639   2.510  20.078  1.00  0.00    -0.000 C 
BRANCH  12  13
ATOM     13  C   UNL     1     -11.044   1.353  19.257  1.00  0.00    -0.000 C 
BRANCH  13  14
ATOM     14  C   UNL     1      -9.535   1.165  19.491  1.00  0.00    -0.000 C 
BRANCH  14  15
ATOM     15  C   UNL     1      -9.066  -0.268  19.190  1.00  0.00    -0.000 C 
BRANCH  15  16
ATOM     16  C   UNL     1      -9.570  -1.286  20.225  1.00  0.00    -0.003 C 
ATOM     17  C   UNL     1      -9.164  -0.877  21.639  1.00  0.00     0.004 C 
ENDBRANCH  15  16
ENDBRANCH  14  15
ENDBRANCH  13  14
ENDBRANCH  12  13
ENDBRANCH  11  12
ENDBRANCH  10  11
ENDBRANCH   1  10
TORSDOF 13
ENDMDL
