MODEL 1
REMARK VINA RESULT:     7.484      0.000      0.000
REMARK INTER + INTRA:           8.162
REMARK INTER:                   8.140
REMARK INTRA:                   0.022
REMARK UNBOUND:                 0.022
REMARK SMILES Cc1ccc(C(C)C)c(O)c1
REMARK SMILES IDX 1 1 2 2 11 3 9 4 5 5 4 6 3 7 10 8 6 10 7 11 8 12
REMARK H PARENT 10 9
REMARK Flexibility Score: inf
ROOT
ATOM      1  C   UNL     1      10.006  41.618  23.511  1.00  0.00     0.044 C 
ATOM      2  C   UNL     1       8.549  41.807  23.818  1.00  0.00    -0.047 A 
ATOM      3  C   UNL     1       7.876  42.951  23.373  1.00  0.00     0.049 A 
ATOM      4  C   UNL     1       6.524  43.155  23.688  1.00  0.00     0.119 A 
ATOM      5  C   UNL     1       5.829  42.204  24.473  1.00  0.00    -0.004 A 
ATOM      6  C   UNL     1       6.524  41.068  24.930  1.00  0.00     0.008 A 
ATOM      7  C   UNL     1       7.870  40.875  24.612  1.00  0.00     0.004 A 
ENDROOT
BRANCH   4   8
ATOM      8  O   UNL     1       5.879  44.300  23.221  1.00  0.00    -0.508 OA
ATOM      9  H   UNL     1       5.050  44.247  22.642  1.00  0.00     0.293 HD
ENDBRANCH   4   8
BRANCH   5  10
ATOM     10  C   UNL     1       4.362  42.368  24.847  1.00  0.00     0.017 C 
ATOM     11  C   UNL     1       3.911  41.310  25.862  1.00  0.00     0.012 C 
ATOM     12  C   UNL     1       3.457  42.383  23.608  1.00  0.00     0.012 C 
ENDBRANCH   5  10
TORSDOF 2
ENDMDL
MODEL 2
REMARK VINA RESULT:     8.229     17.891     19.286
REMARK INTER + INTRA:           8.973
REMARK INTER:                   8.025
REMARK INTRA:                   0.948
REMARK UNBOUND:                 0.022
REMARK SMILES Cc1ccc(C(C)C)c(O)c1
REMARK SMILES IDX 1 1 2 2 11 3 9 4 5 5 4 6 3 7 10 8 6 10 7 11 8 12
REMARK H PARENT 10 9
REMARK Flexibility Score: inf
ROOT
ATOM      1  C   UNL     1      -3.089  56.948  27.704  1.00  0.00     0.044 C 
ATOM      2  C   UNL     1      -3.065  57.562  26.335  1.00  0.00    -0.047 A 
ATOM      3  C   UNL     1      -3.092  58.954  26.185  1.00  0.00     0.049 A 
ATOM      4  C   UNL     1      -3.108  59.537  24.908  1.00  0.00     0.119 A 
ATOM      5  C   UNL     1      -3.109  58.716  23.756  1.00  0.00    -0.004 A 
ATOM      6  C   UNL     1      -3.101  57.318  23.922  1.00  0.00     0.008 A 
ATOM      7  C   UNL     1      -3.086  56.748  25.197  1.00  0.00     0.004 A 
ENDROOT
BRANCH   4   8
ATOM      8  O   UNL     1      -3.125  60.926  24.792  1.00  0.00    -0.508 OA
ATOM      9  H   UNL     1      -2.294  61.485  24.949  1.00  0.00     0.293 HD
ENDBRANCH   4   8
BRANCH   5  10
ATOM     10  C   UNL     1      -3.125  59.288  22.345  1.00  0.00     0.017 C 
ATOM     11  C   UNL     1      -2.035  58.664  21.465  1.00  0.00     0.012 C 
ATOM     12  C   UNL     1      -3.038  60.820  22.350  1.00  0.00     0.012 C 
ENDBRANCH   5  10
TORSDOF 2
ENDMDL
MODEL 3
REMARK VINA RESULT:     8.319      1.787      2.530
REMARK INTER + INTRA:           9.071
REMARK INTER:                   9.077
REMARK INTRA:                  -0.007
REMARK UNBOUND:                 0.022
REMARK SMILES Cc1ccc(C(C)C)c(O)c1
REMARK SMILES IDX 1 1 2 2 11 3 9 4 5 5 4 6 3 7 10 8 6 10 7 11 8 12
REMARK H PARENT 10 9
REMARK Flexibility Score: inf
ROOT
ATOM      1  C   UNL     1      11.142  40.875  23.166  1.00  0.00     0.044 C 
ATOM      2  C   UNL     1       9.795  41.404  23.564  1.00  0.00    -0.047 A 
ATOM      3  C   UNL     1       9.155  40.914  24.710  1.00  0.00     0.049 A 
ATOM      4  C   UNL     1       7.880  41.376  25.070  1.00  0.00     0.119 A 
ATOM      5  C   UNL     1       7.222  42.337  24.266  1.00  0.00    -0.004 A 
ATOM      6  C   UNL     1       7.870  42.807  23.108  1.00  0.00     0.008 A 
ATOM      7  C   UNL     1       9.139  42.341  22.758  1.00  0.00     0.004 A 
ENDROOT
BRANCH   4   8
ATOM      8  O   UNL     1       7.273  40.875  26.221  1.00  0.00    -0.508 OA
ATOM      9  H   UNL     1       6.579  41.407  26.733  1.00  0.00     0.293 HD
ENDBRANCH   4   8
BRANCH   5  10
ATOM     10  C   UNL     1       5.839  42.878  24.605  1.00  0.00     0.017 C 
ATOM     11  C   UNL     1       4.768  41.782  24.539  1.00  0.00     0.012 C 
ATOM     12  C   UNL     1       5.469  44.083  23.731  1.00  0.00     0.012 C 
ENDBRANCH   5  10
TORSDOF 2
ENDMDL
