MODEL 1
REMARK VINA RESULT:     0.000      0.000      0.000
REMARK INTER + INTRA:          -0.925
REMARK INTER:                   0.000
REMARK INTRA:                  -0.925
REMARK UNBOUND:                -0.925
REMARK SMILES CCCCCCCCCO
REMARK SMILES IDX 6 1 5 2 4 3 3 4 2 5 1 6 7 7 8 8 9 9 10 10
REMARK H PARENT 10 11
REMARK Flexibility Score: inf
ROOT
ATOM      1  C   UNL     1      -1.955  18.451 -43.807  1.00  0.00     0.000 C 
ENDROOT
BRANCH   1   2
ATOM      2  C   UNL     1      -3.301  18.112 -44.462  1.00  0.00     0.000 C 
BRANCH   2   3
ATOM      3  C   UNL     1      -4.407  19.115 -44.095  1.00  0.00    -0.000 C 
BRANCH   3   4
ATOM      4  C   UNL     1      -4.608  19.242 -42.575  1.00  0.00    -0.000 C 
BRANCH   4   5
ATOM      5  C   UNL     1      -4.709  20.705 -42.116  1.00  0.00    -0.003 C 
ATOM      6  C   UNL     1      -4.356  21.697 -43.223  1.00  0.00     0.004 C 
ENDBRANCH   4   5
ENDBRANCH   3   4
ENDBRANCH   2   3
ENDBRANCH   1   2
BRANCH   1   7
ATOM      7  C   UNL     1      -1.347  19.717 -44.424  1.00  0.00     0.002 C 
BRANCH   7   8
ATOM      8  C   UNL     1      -0.773  20.637 -43.339  1.00  0.00     0.028 C 
BRANCH   8   9
ATOM      9  C   UNL     1      -0.976  20.040 -41.946  1.00  0.00     0.156 C 
BRANCH   9  10
ATOM     10  O   UNL     1      -1.345  21.054 -41.055  1.00  0.00    -0.396 OA
ATOM     11  H   UNL     1      -0.644  21.071 -40.352  1.00  0.00     0.210 HD
ENDBRANCH   9  10
ENDBRANCH   8   9
ENDBRANCH   7   8
ENDBRANCH   1   7
TORSDOF 8
ENDMDL
MODEL 2
REMARK VINA RESULT:     0.000      9.748     11.136
REMARK INTER + INTRA:          -0.924
REMARK INTER:                   0.000
REMARK INTRA:                  -0.924
REMARK UNBOUND:                -0.925
REMARK SMILES CCCCCCCCCO
REMARK SMILES IDX 6 1 5 2 4 3 3 4 2 5 1 6 7 7 8 8 9 9 10 10
REMARK H PARENT 10 11
REMARK Flexibility Score: inf
ROOT
ATOM      1  C   UNL     1       5.960  17.189 -46.440  1.00  0.00     0.000 C 
ENDROOT
BRANCH   1   2
ATOM      2  C   UNL     1       4.818  17.482 -47.424  1.00  0.00     0.000 C 
BRANCH   2   3
ATOM      3  C   UNL     1       4.553  16.313 -48.387  1.00  0.00    -0.000 C 
BRANCH   3   4
ATOM      4  C   UNL     1       5.806  15.903 -49.179  1.00  0.00    -0.000 C 
BRANCH   4   5
ATOM      5  C   UNL     1       6.015  14.381 -49.204  1.00  0.00    -0.003 C 
ATOM      6  C   UNL     1       5.077  13.642 -48.251  1.00  0.00     0.004 C 
ENDBRANCH   4   5
ENDBRANCH   3   4
ENDBRANCH   2   3
ENDBRANCH   1   2
BRANCH   1   7
ATOM      7  C   UNL     1       5.543  16.124 -45.417  1.00  0.00     0.002 C 
BRANCH   7   8
ATOM      8  C   UNL     1       6.666  15.103 -45.197  1.00  0.00     0.028 C 
BRANCH   8   9
ATOM      9  C   UNL     1       7.881  15.424 -46.067  1.00  0.00     0.156 C 
BRANCH   9  10
ATOM     10  O   UNL     1       8.405  14.237 -46.591  1.00  0.00    -0.396 OA
ATOM     11  H   UNL     1       7.857  14.023 -47.391  1.00  0.00     0.210 HD
ENDBRANCH   9  10
ENDBRANCH   8   9
ENDBRANCH   7   8
ENDBRANCH   1   7
TORSDOF 8
ENDMDL
MODEL 3
REMARK VINA RESULT:     0.000     10.731     12.327
REMARK INTER + INTRA:          -0.924
REMARK INTER:                   0.000
REMARK INTRA:                  -0.924
REMARK UNBOUND:                -0.925
REMARK SMILES CCCCCCCCCO
REMARK SMILES IDX 6 1 5 2 4 3 3 4 2 5 1 6 7 7 8 8 9 9 10 10
REMARK H PARENT 10 11
REMARK Flexibility Score: inf
ROOT
ATOM      1  C   UNL     1       2.959  10.554 -39.300  1.00  0.00     0.000 C 
ENDROOT
BRANCH   1   2
ATOM      2  C   UNL     1       4.353   9.909 -39.294  1.00  0.00     0.000 C 
BRANCH   2   3
ATOM      3  C   UNL     1       4.610   9.048 -40.542  1.00  0.00    -0.000 C 
BRANCH   3   4
ATOM      4  C   UNL     1       3.550   7.949 -40.730  1.00  0.00    -0.000 C 
BRANCH   4   5
ATOM      5  C   UNL     1       3.043   7.864 -42.178  1.00  0.00    -0.003 C 
ATOM      6  C   UNL     1       3.523   9.029 -43.041  1.00  0.00     0.004 C 
ENDBRANCH   4   5
ENDBRANCH   3   4
ENDBRANCH   2   3
ENDBRANCH   1   2
BRANCH   1   7
ATOM      7  C   UNL     1       2.864  11.647 -40.372  1.00  0.00     0.002 C 
BRANCH   7   8
ATOM      8  C   UNL     1       1.536  11.557 -41.133  1.00  0.00     0.028 C 
BRANCH   8   9
ATOM      9  C   UNL     1       0.683  10.397 -40.619  1.00  0.00     0.156 C 
BRANCH   9  10
ATOM     10  O   UNL     1       0.078   9.748 -41.702  1.00  0.00    -0.396 OA
ATOM     11  H   UNL     1       0.635   9.961 -42.496  1.00  0.00     0.210 HD
ENDBRANCH   9  10
ENDBRANCH   8   9
ENDBRANCH   7   8
ENDBRANCH   1   7
TORSDOF 8
ENDMDL
MODEL 4
REMARK VINA RESULT:     0.000     11.045     12.697
REMARK INTER + INTRA:          -0.924
REMARK INTER:                   0.000
REMARK INTRA:                  -0.924
REMARK UNBOUND:                -0.925
REMARK SMILES CCCCCCCCCO
REMARK SMILES IDX 6 1 5 2 4 3 3 4 2 5 1 6 7 7 8 8 9 9 10 10
REMARK H PARENT 10 11
REMARK Flexibility Score: inf
ROOT
ATOM      1  C   UNL     1       5.514  13.093 -42.686  1.00  0.00     0.000 C 
ENDROOT
BRANCH   1   2
ATOM      2  C   UNL     1       5.974  14.521 -42.356  1.00  0.00     0.000 C 
BRANCH   2   3
ATOM      3  C   UNL     1       7.178  14.548 -41.400  1.00  0.00    -0.000 C 
BRANCH   3   4
ATOM      4  C   UNL     1       6.910  13.789 -40.089  1.00  0.00    -0.000 C 
BRANCH   4   5
ATOM      5  C   UNL     1       8.071  12.862 -39.699  1.00  0.00    -0.003 C 
ATOM      6  C   UNL     1       9.115  12.724 -40.806  1.00  0.00     0.004 C 
ENDBRANCH   4   5
ENDBRANCH   3   4
ENDBRANCH   2   3
ENDBRANCH   1   2
BRANCH   1   7
ATOM      7  C   UNL     1       6.539  12.378 -43.575  1.00  0.00     0.002 C 
BRANCH   7   8
ATOM      8  C   UNL     1       6.767  10.936 -43.102  1.00  0.00     0.028 C 
BRANCH   8   9
ATOM      9  C   UNL     1       5.915  10.618 -41.873  1.00  0.00     0.156 C 
BRANCH   9  10
ATOM     10  O   UNL     1       6.670   9.864 -40.967  1.00  0.00    -0.396 OA
ATOM     11  H   UNL     1       6.665  10.373 -40.114  1.00  0.00     0.210 HD
ENDBRANCH   9  10
ENDBRANCH   8   9
ENDBRANCH   7   8
ENDBRANCH   1   7
TORSDOF 8
ENDMDL
MODEL 5
REMARK VINA RESULT:     0.000      8.320      9.759
REMARK INTER + INTRA:          -0.924
REMARK INTER:                   0.000
REMARK INTRA:                  -0.924
REMARK UNBOUND:                -0.925
REMARK SMILES CCCCCCCCCO
REMARK SMILES IDX 6 1 5 2 4 3 3 4 2 5 1 6 7 7 8 8 9 9 10 10
REMARK H PARENT 10 11
REMARK Flexibility Score: inf
ROOT
ATOM      1  C   UNL     1       6.834  14.977 -42.746  1.00  0.00     0.000 C 
ENDROOT
BRANCH   1   2
ATOM      2  C   UNL     1       5.445  14.696 -43.337  1.00  0.00     0.000 C 
BRANCH   2   3
ATOM      3  C   UNL     1       4.522  15.924 -43.286  1.00  0.00    -0.000 C 
BRANCH   3   4
ATOM      4  C   UNL     1       5.131  17.150 -43.988  1.00  0.00    -0.000 C 
BRANCH   4   5
ATOM      5  C   UNL     1       4.992  18.434 -43.155  1.00  0.00    -0.003 C 
ATOM      6  C   UNL     1       4.501  18.164 -41.734  1.00  0.00     0.004 C 
ENDBRANCH   4   5
ENDBRANCH   3   4
ENDBRANCH   2   3
ENDBRANCH   1   2
BRANCH   1   7
ATOM      7  C   UNL     1       6.759  15.154 -41.224  1.00  0.00     0.002 C 
BRANCH   7   8
ATOM      8  C   UNL     1       7.617  16.339 -40.765  1.00  0.00     0.028 C 
BRANCH   8   9
ATOM      9  C   UNL     1       8.302  17.017 -41.951  1.00  0.00     0.156 C 
BRANCH   9  10
ATOM     10  O   UNL     1       8.259  18.405 -41.782  1.00  0.00    -0.396 OA
ATOM     11  H   UNL     1       7.447  18.592 -41.242  1.00  0.00     0.210 HD
ENDBRANCH   9  10
ENDBRANCH   8   9
ENDBRANCH   7   8
ENDBRANCH   1   7
TORSDOF 8
ENDMDL
MODEL 6
REMARK VINA RESULT:     0.000     11.268     12.802
REMARK INTER + INTRA:          -0.924
REMARK INTER:                   0.000
REMARK INTRA:                  -0.924
REMARK UNBOUND:                -0.925
REMARK SMILES CCCCCCCCCO
REMARK SMILES IDX 6 1 5 2 4 3 3 4 2 5 1 6 7 7 8 8 9 9 10 10
REMARK H PARENT 10 11
REMARK Flexibility Score: inf
ROOT
ATOM      1  C   UNL     1       4.299  11.737 -43.962  1.00  0.00     0.000 C 
ENDROOT
BRANCH   1   2
ATOM      2  C   UNL     1       2.923  11.070 -44.100  1.00  0.00     0.000 C 
BRANCH   2   3
ATOM      3  C   UNL     1       3.021   9.596 -44.529  1.00  0.00    -0.000 C 
BRANCH   3   4
ATOM      4  C   UNL     1       3.886   8.759 -43.572  1.00  0.00    -0.000 C 
BRANCH   4   5
ATOM      5  C   UNL     1       4.879   7.854 -44.317  1.00  0.00    -0.003 C 
ATOM      6  C   UNL     1       4.947   8.158 -45.813  1.00  0.00     0.004 C 
ENDBRANCH   4   5
ENDBRANCH   3   4
ENDBRANCH   2   3
ENDBRANCH   1   2
BRANCH   1   7
ATOM      7  C   UNL     1       4.959  11.924 -45.334  1.00  0.00     0.002 C 
BRANCH   7   8
ATOM      8  C   UNL     1       6.444  11.543 -45.287  1.00  0.00     0.028 C 
BRANCH   8   9
ATOM      9  C   UNL     1       6.848  11.071 -43.890  1.00  0.00     0.156 C 
BRANCH   9  10
ATOM     10  O   UNL     1       7.705   9.970 -44.000  1.00  0.00    -0.396 OA
ATOM     11  H   UNL     1       8.026   9.777 -43.080  1.00  0.00     0.210 HD
ENDBRANCH   9  10
ENDBRANCH   8   9
ENDBRANCH   7   8
ENDBRANCH   1   7
TORSDOF 8
ENDMDL
MODEL 7
REMARK VINA RESULT:     0.000      3.379      5.010
REMARK INTER + INTRA:          -0.924
REMARK INTER:                   0.000
REMARK INTRA:                  -0.924
REMARK UNBOUND:                -0.925
REMARK SMILES CCCCCCCCCO
REMARK SMILES IDX 6 1 5 2 4 3 3 4 2 5 1 6 7 7 8 8 9 9 10 10
REMARK H PARENT 10 11
REMARK Flexibility Score: inf
ROOT
ATOM      1  C   UNL     1      -2.029  17.893 -47.601  1.00  0.00     0.000 C 
ENDROOT
BRANCH   1   2
ATOM      2  C   UNL     1      -1.250  16.632 -48.005  1.00  0.00     0.000 C 
BRANCH   2   3
ATOM      3  C   UNL     1      -1.214  15.576 -46.887  1.00  0.00    -0.000 C 
BRANCH   3   4
ATOM      4  C   UNL     1      -2.620  15.172 -46.411  1.00  0.00    -0.000 C 
BRANCH   4   5
ATOM      5  C   UNL     1      -2.732  15.134 -44.879  1.00  0.00    -0.003 C 
ATOM      6  C   UNL     1      -1.511  15.731 -44.182  1.00  0.00     0.004 C 
ENDBRANCH   4   5
ENDBRANCH   3   4
ENDBRANCH   2   3
ENDBRANCH   1   2
BRANCH   1   7
ATOM      7  C   UNL     1      -1.263  18.696 -46.542  1.00  0.00     0.002 C 
BRANCH   7   8
ATOM      8  C   UNL     1      -2.204  19.185 -45.435  1.00  0.00     0.028 C 
BRANCH   8   9
ATOM      9  C   UNL     1      -3.641  18.730 -45.691  1.00  0.00     0.156 C 
BRANCH   9  10
ATOM     10  O   UNL     1      -4.224  18.325 -44.485  1.00  0.00    -0.396 OA
ATOM     11  H   UNL     1      -5.200  18.269 -44.656  1.00  0.00     0.210 HD
ENDBRANCH   9  10
ENDBRANCH   8   9
ENDBRANCH   7   8
ENDBRANCH   1   7
TORSDOF 8
ENDMDL
MODEL 8
REMARK VINA RESULT:     0.001     10.478     11.681
REMARK INTER + INTRA:          -0.924
REMARK INTER:                   0.000
REMARK INTRA:                  -0.924
REMARK UNBOUND:                -0.925
REMARK SMILES CCCCCCCCCO
REMARK SMILES IDX 6 1 5 2 4 3 3 4 2 5 1 6 7 7 8 8 9 9 10 10
REMARK H PARENT 10 11
REMARK Flexibility Score: inf
ROOT
ATOM      1  C   UNL     1       8.346  18.856 -46.389  1.00  0.00     0.000 C 
ENDROOT
BRANCH   1   2
ATOM      2  C   UNL     1       7.760  17.732 -47.254  1.00  0.00     0.000 C 
BRANCH   2   3
ATOM      3  C   UNL     1       7.097  18.259 -48.538  1.00  0.00    -0.000 C 
BRANCH   3   4
ATOM      4  C   UNL     1       5.998  19.297 -48.253  1.00  0.00    -0.000 C 
BRANCH   4   5
ATOM      5  C   UNL     1       6.105  20.531 -49.163  1.00  0.00    -0.003 C 
ATOM      6  C   UNL     1       7.400  20.555 -49.974  1.00  0.00     0.004 C 
ENDBRANCH   4   5
ENDBRANCH   3   4
ENDBRANCH   2   3
ENDBRANCH   1   2
BRANCH   1   7
ATOM      7  C   UNL     1       9.578  19.479 -47.058  1.00  0.00     0.002 C 
BRANCH   7   8
ATOM      8  C   UNL     1       9.550  21.008 -46.949  1.00  0.00     0.028 C 
BRANCH   8   9
ATOM      9  C   UNL     1       8.297  21.486 -46.215  1.00  0.00     0.156 C 
BRANCH   9  10
ATOM     10  O   UNL     1       7.790  22.624 -46.852  1.00  0.00    -0.396 OA
ATOM     11  H   UNL     1       7.231  23.091 -46.177  1.00  0.00     0.210 HD
ENDBRANCH   9  10
ENDBRANCH   8   9
ENDBRANCH   7   8
ENDBRANCH   1   7
TORSDOF 8
ENDMDL
MODEL 9
REMARK VINA RESULT:     0.001      6.811      8.693
REMARK INTER + INTRA:          -0.924
REMARK INTER:                   0.000
REMARK INTRA:                  -0.924
REMARK UNBOUND:                -0.925
REMARK SMILES CCCCCCCCCO
REMARK SMILES IDX 6 1 5 2 4 3 3 4 2 5 1 6 7 7 8 8 9 9 10 10
REMARK H PARENT 10 11
REMARK Flexibility Score: inf
ROOT
ATOM      1  C   UNL     1       4.296  16.295 -43.229  1.00  0.00     0.000 C 
ENDROOT
BRANCH   1   2
ATOM      2  C   UNL     1       5.772  15.869 -43.199  1.00  0.00     0.000 C 
BRANCH   2   3
ATOM      3  C   UNL     1       6.426  16.100 -41.827  1.00  0.00    -0.000 C 
BRANCH   3   4
ATOM      4  C   UNL     1       5.677  15.388 -40.688  1.00  0.00    -0.000 C 
BRANCH   4   5
ATOM      5  C   UNL     1       5.468  16.295 -39.465  1.00  0.00    -0.003 C 
ATOM      6  C   UNL     1       5.834  17.752 -39.742  1.00  0.00     0.004 C 
ENDBRANCH   4   5
ENDBRANCH   3   4
ENDBRANCH   2   3
ENDBRANCH   1   2
BRANCH   1   7
ATOM      7  C   UNL     1       4.164  17.821 -43.150  1.00  0.00     0.002 C 
BRANCH   7   8
ATOM      8  C   UNL     1       3.043  18.227 -42.185  1.00  0.00     0.028 C 
BRANCH   8   9
ATOM      9  C   UNL     1       2.381  16.999 -41.561  1.00  0.00     0.156 C 
BRANCH   9  10
ATOM     10  O   UNL     1       2.134  17.242 -40.205  1.00  0.00    -0.396 OA
ATOM     11  H   UNL     1       1.550  16.501 -39.894  1.00  0.00     0.210 HD
ENDBRANCH   9  10
ENDBRANCH   8   9
ENDBRANCH   7   8
ENDBRANCH   1   7
TORSDOF 8
ENDMDL
