MODEL 1
REMARK VINA RESULT:     5.408      0.000      0.000
REMARK INTER + INTRA:          11.447
REMARK INTER:                   8.253
REMARK INTRA:                   3.194
REMARK UNBOUND:                 3.194
REMARK SMILES OC[C@@H]1O[C@@](CO)(O[C@H]2O[C@@H](CO)[C@@H](O)[C@@H](O)[C@@H]2O)[C@@H](O)[C@@H]1O
REMARK SMILES IDX 8 1 9 2 11 3 14 4 10 5 16 6 18 7 12 8 13 9 15 11 17 13 19 15
REMARK SMILES IDX 5 17 20 18 4 19 22 20 3 21 6 22 7 23 21 25 23 27 2 29 1 30
REMARK H PARENT 13 10 15 12 17 14 19 16 7 24 21 26 23 28 1 31
REMARK Flexibility Score: inf
ROOT
ATOM      1  O   UNL     1     104.412 112.247  96.514  1.00  0.00    -0.313 OA
ENDROOT
BRANCH   1   2
ATOM      2  C   UNL     1     105.775 111.899  96.725  1.00  0.00     0.285 C 
ATOM      3  C   UNL     1     107.168 110.311  97.718  1.00  0.00     0.178 C 
ATOM      4  C   UNL     1     107.973 110.043  96.425  1.00  0.00     0.177 C 
ATOM      5  O   UNL     1     105.829 110.654  97.403  1.00  0.00    -0.341 OA
ATOM      6  C   UNL     1     107.919 111.293  95.532  1.00  0.00     0.179 C 
ATOM      7  C   UNL     1     106.461 111.757  95.346  1.00  0.00     0.202 C 
BRANCH   3   8
ATOM      8  C   UNL     1     107.170 109.105  98.666  1.00  0.00     0.191 C 
BRANCH   8   9
ATOM      9  O   UNL     1     106.184 109.243  99.650  1.00  0.00    -0.394 OA
ATOM     10  H   UNL     1     105.329 109.388  99.167  1.00  0.00     0.210 HD
ENDBRANCH   8   9
ENDBRANCH   3   8
BRANCH   4  11
ATOM     11  O   UNL     1     107.435 108.946  95.727  1.00  0.00    -0.387 OA
ATOM     12  H   UNL     1     106.899 108.421  96.375  1.00  0.00     0.211 HD
ENDBRANCH   4  11
BRANCH   6  13
ATOM     13  O   UNL     1     108.498 111.004  94.285  1.00  0.00    -0.387 OA
ATOM     14  H   UNL     1     107.985 110.248  93.896  1.00  0.00     0.211 HD
ENDBRANCH   6  13
BRANCH   7  15
ATOM     15  O   UNL     1     106.451 112.987  94.671  1.00  0.00    -0.385 OA
ATOM     16  H   UNL     1     106.033 112.826  93.785  1.00  0.00     0.211 HD
ENDBRANCH   7  15
ENDBRANCH   1   2
BRANCH   1  17
ATOM     17  C   UNL     1     103.616 111.216  95.919  1.00  0.00     0.224 C 
ATOM     18  C   UNL     1     103.697 109.876  96.699  1.00  0.00     0.208 C 
ATOM     19  O   UNL     1     102.268 111.650  95.966  1.00  0.00    -0.337 OA
ATOM     20  C   UNL     1     102.284 109.346  96.645  1.00  0.00     0.180 C 
ATOM     21  C   UNL     1     101.468 110.633  96.532  1.00  0.00     0.179 C 
BRANCH  17  22
ATOM     22  C   UNL     1     103.958 111.010  94.417  1.00  0.00     0.225 C 
BRANCH  22  23
ATOM     23  O   UNL     1     102.857 110.489  93.719  1.00  0.00    -0.391 OA
ATOM     24  H   UNL     1     102.041 110.868  94.133  1.00  0.00     0.210 HD
ENDBRANCH  22  23
ENDBRANCH  17  22
BRANCH  18  25
ATOM     25  O   UNL     1     104.099 110.057  98.038  1.00  0.00    -0.385 OA
ATOM     26  H   UNL     1     103.326 110.410  98.553  1.00  0.00     0.211 HD
ENDBRANCH  18  25
BRANCH  20  27
ATOM     27  O   UNL     1     102.111 108.524  95.518  1.00  0.00    -0.387 OA
ATOM     28  H   UNL     1     102.058 107.591  95.854  1.00  0.00     0.211 HD
ENDBRANCH  20  27
BRANCH  21  29
ATOM     29  C   UNL     1     100.174 110.470  95.724  1.00  0.00     0.191 C 
BRANCH  29  30
ATOM     30  O   UNL     1      99.344 109.535  96.354  1.00  0.00    -0.394 OA
ATOM     31  H   UNL     1      99.320 109.789  97.314  1.00  0.00     0.210 HD
ENDBRANCH  29  30
ENDBRANCH  21  29
ENDBRANCH   1  17
TORSDOF 13
ENDMDL
MODEL 2
REMARK VINA RESULT:     5.711      1.378      5.638
REMARK INTER + INTRA:          11.910
REMARK INTER:                   9.200
REMARK INTRA:                   2.710
REMARK UNBOUND:                 3.194
REMARK SMILES OC[C@@H]1O[C@@](CO)(O[C@H]2O[C@@H](CO)[C@@H](O)[C@@H](O)[C@@H]2O)[C@@H](O)[C@@H]1O
REMARK SMILES IDX 8 1 9 2 11 3 14 4 10 5 16 6 18 7 12 8 13 9 15 11 17 13 19 15
REMARK SMILES IDX 5 17 20 18 4 19 22 20 3 21 6 22 7 23 21 25 23 27 2 29 1 30
REMARK H PARENT 13 10 15 12 17 14 19 16 7 24 21 26 23 28 1 31
REMARK Flexibility Score: inf
ROOT
ATOM      1  O   UNL     1     104.667 111.002  97.723  1.00  0.00    -0.313 OA
ENDROOT
BRANCH   1   2
ATOM      2  C   UNL     1     103.823 110.397  96.751  1.00  0.00     0.285 C 
ATOM      3  C   UNL     1     101.635 109.685  96.358  1.00  0.00     0.178 C 
ATOM      4  C   UNL     1     101.491 110.483  95.041  1.00  0.00     0.177 C 
ATOM      5  O   UNL     1     102.497 110.365  97.255  1.00  0.00    -0.341 OA
ATOM      6  C   UNL     1     102.885 110.686  94.422  1.00  0.00     0.179 C 
ATOM      7  C   UNL     1     103.858 111.261  95.469  1.00  0.00     0.202 C 
BRANCH   3   8
ATOM      8  C   UNL     1     100.284 109.443  97.042  1.00  0.00     0.191 C 
BRANCH   8   9
ATOM      9  O   UNL     1      99.701 108.254  96.588  1.00  0.00    -0.394 OA
ATOM     10  H   UNL     1     100.432 107.583  96.556  1.00  0.00     0.210 HD
ENDBRANCH   8   9
ENDBRANCH   3   8
BRANCH   4  11
ATOM     11  O   UNL     1     100.903 111.738  95.285  1.00  0.00    -0.387 OA
ATOM     12  H   UNL     1     101.067 111.957  96.239  1.00  0.00     0.211 HD
ENDBRANCH   4  11
BRANCH   6  13
ATOM     13  O   UNL     1     102.788 111.554  93.321  1.00  0.00    -0.387 OA
ATOM     14  H   UNL     1     103.682 111.575  92.892  1.00  0.00     0.211 HD
ENDBRANCH   6  13
BRANCH   7  15
ATOM     15  O   UNL     1     105.154 111.279  94.932  1.00  0.00    -0.385 OA
ATOM     16  H   UNL     1     105.219 110.508  94.310  1.00  0.00     0.211 HD
ENDBRANCH   7  15
ENDBRANCH   1   2
BRANCH   1  17
ATOM     17  C   UNL     1     106.036 110.587  97.670  1.00  0.00     0.224 C 
ATOM     18  C   UNL     1     106.194 109.115  97.200  1.00  0.00     0.208 C 
ATOM     19  O   UNL     1     106.684 111.406  96.713  1.00  0.00    -0.337 OA
ATOM     20  C   UNL     1     107.415 109.154  96.312  1.00  0.00     0.180 C 
ATOM     21  C   UNL     1     107.387 110.592  95.798  1.00  0.00     0.179 C 
BRANCH  17  22
ATOM     22  C   UNL     1     106.770 110.825  99.020  1.00  0.00     0.225 C 
BRANCH  22  23
ATOM     23  O   UNL     1     106.873 109.631  99.750  1.00  0.00    -0.391 OA
ATOM     24  H   UNL     1     106.162 109.646 100.440  1.00  0.00     0.210 HD
ENDBRANCH  22  23
ENDBRANCH  17  22
BRANCH  18  25
ATOM     25  O   UNL     1     105.076 108.661  96.472  1.00  0.00    -0.385 OA
ATOM     26  H   UNL     1     104.338 109.316  96.587  1.00  0.00     0.211 HD
ENDBRANCH  18  25
BRANCH  20  27
ATOM     27  O   UNL     1     108.575 108.897  97.063  1.00  0.00    -0.387 OA
ATOM     28  H   UNL     1     109.179 108.369  96.478  1.00  0.00     0.211 HD
ENDBRANCH  20  27
BRANCH  21  29
ATOM     29  C   UNL     1     108.780 111.177  95.533  1.00  0.00     0.191 C 
BRANCH  29  30
ATOM     30  O   UNL     1     109.162 110.898  94.216  1.00  0.00    -0.394 OA
ATOM     31  H   UNL     1     109.966 110.318  94.278  1.00  0.00     0.210 HD
ENDBRANCH  29  30
ENDBRANCH  21  29
ENDBRANCH   1  17
TORSDOF 13
ENDMDL
MODEL 3
REMARK VINA RESULT:     5.954      1.530      3.416
REMARK INTER + INTRA:          12.280
REMARK INTER:                  11.940
REMARK INTRA:                   0.340
REMARK UNBOUND:                 3.194
REMARK SMILES OC[C@@H]1O[C@@](CO)(O[C@H]2O[C@@H](CO)[C@@H](O)[C@@H](O)[C@@H]2O)[C@@H](O)[C@@H]1O
REMARK SMILES IDX 8 1 9 2 11 3 14 4 10 5 16 6 18 7 12 8 13 9 15 11 17 13 19 15
REMARK SMILES IDX 5 17 20 18 4 19 22 20 3 21 6 22 7 23 21 25 23 27 2 29 1 30
REMARK H PARENT 13 10 15 12 17 14 19 16 7 24 21 26 23 28 1 31
REMARK Flexibility Score: inf
ROOT
ATOM      1  O   UNL     1     104.061 109.000  95.825  1.00  0.00    -0.313 OA
ENDROOT
BRANCH   1   2
ATOM      2  C   UNL     1     105.395 109.430  96.066  1.00  0.00     0.285 C 
ATOM      3  C   UNL     1     106.813 111.280  95.946  1.00  0.00     0.178 C 
ATOM      4  C   UNL     1     107.273 111.165  97.418  1.00  0.00     0.177 C 
ATOM      5  O   UNL     1     105.479 110.823  95.809  1.00  0.00    -0.341 OA
ATOM      6  C   UNL     1     107.141 109.702  97.873  1.00  0.00     0.179 C 
ATOM      7  C   UNL     1     105.732 109.166  97.551  1.00  0.00     0.202 C 
BRANCH   3   8
ATOM      8  C   UNL     1     106.912 112.716  95.415  1.00  0.00     0.191 C 
BRANCH   8   9
ATOM      9  O   UNL     1     105.838 113.490  95.870  1.00  0.00    -0.394 OA
ATOM     10  H   UNL     1     106.144 114.434  95.838  1.00  0.00     0.210 HD
ENDBRANCH   8   9
ENDBRANCH   3   8
BRANCH   4  11
ATOM     11  O   UNL     1     106.485 111.985  98.247  1.00  0.00    -0.387 OA
ATOM     12  H   UNL     1     105.848 112.468  97.660  1.00  0.00     0.211 HD
ENDBRANCH   4  11
BRANCH   6  13
ATOM     13  O   UNL     1     107.389 109.615  99.253  1.00  0.00    -0.387 OA
ATOM     14  H   UNL     1     108.092 110.285  99.462  1.00  0.00     0.211 HD
ENDBRANCH   6  13
BRANCH   7  15
ATOM     15  O   UNL     1     105.690 107.790  97.821  1.00  0.00    -0.385 OA
ATOM     16  H   UNL     1     106.613 107.516  98.068  1.00  0.00     0.211 HD
ENDBRANCH   7  15
ENDBRANCH   1   2
BRANCH   1  17
ATOM     17  C   UNL     1     103.052 109.953  96.174  1.00  0.00     0.224 C 
ATOM     18  C   UNL     1     102.621 110.834  94.970  1.00  0.00     0.208 C 
ATOM     19  O   UNL     1     101.912 109.221  96.589  1.00  0.00    -0.337 OA
ATOM     20  C   UNL     1     101.128 110.975  95.147  1.00  0.00     0.180 C 
ATOM     21  C   UNL     1     100.775 109.689  95.893  1.00  0.00     0.179 C 
BRANCH  17  22
ATOM     22  C   UNL     1     103.474 110.831  97.386  1.00  0.00     0.225 C 
BRANCH  22  23
ATOM     23  O   UNL     1     103.658 112.166  96.997  1.00  0.00    -0.391 OA
ATOM     24  H   UNL     1     102.997 112.359  96.285  1.00  0.00     0.210 HD
ENDBRANCH  22  23
ENDBRANCH  17  22
BRANCH  18  25
ATOM     25  O   UNL     1     102.911 110.228  93.731  1.00  0.00    -0.385 OA
ATOM     26  H   UNL     1     103.619 109.546  93.872  1.00  0.00     0.211 HD
ENDBRANCH  18  25
BRANCH  20  27
ATOM     27  O   UNL     1     100.830 112.114  95.914  1.00  0.00    -0.387 OA
ATOM     28  H   UNL     1     101.685 112.603  96.037  1.00  0.00     0.211 HD
ENDBRANCH  20  27
BRANCH  21  29
ATOM     29  C   UNL     1      99.592 109.843  96.857  1.00  0.00     0.191 C 
BRANCH  29  30
ATOM     30  O   UNL     1      98.454 109.251  96.299  1.00  0.00    -0.394 OA
ATOM     31  H   UNL     1      97.673 109.695  96.725  1.00  0.00     0.210 HD
ENDBRANCH  29  30
ENDBRANCH  21  29
ENDBRANCH   1  17
TORSDOF 13
ENDMDL
MODEL 4
REMARK VINA RESULT:     6.223      1.363      2.546
REMARK INTER + INTRA:          12.691
REMARK INTER:                  11.887
REMARK INTRA:                   0.804
REMARK UNBOUND:                 3.194
REMARK SMILES OC[C@@H]1O[C@@](CO)(O[C@H]2O[C@@H](CO)[C@@H](O)[C@@H](O)[C@@H]2O)[C@@H](O)[C@@H]1O
REMARK SMILES IDX 8 1 9 2 11 3 14 4 10 5 16 6 18 7 12 8 13 9 15 11 17 13 19 15
REMARK SMILES IDX 5 17 20 18 4 19 22 20 3 21 6 22 7 23 21 25 23 27 2 29 1 30
REMARK H PARENT 13 10 15 12 17 14 19 16 7 24 21 26 23 28 1 31
REMARK Flexibility Score: inf
ROOT
ATOM      1  O   UNL     1     105.416 110.987  95.390  1.00  0.00    -0.313 OA
ENDROOT
BRANCH   1   2
ATOM      2  C   UNL     1     106.264 110.811  96.518  1.00  0.00     0.285 C 
ATOM      3  C   UNL     1     106.292 110.110  98.744  1.00  0.00     0.178 C 
ATOM      4  C   UNL     1     107.450 109.107  98.532  1.00  0.00     0.177 C 
ATOM      5  O   UNL     1     105.512 110.219  97.566  1.00  0.00    -0.341 OA
ATOM      6  C   UNL     1     108.307 109.574  97.344  1.00  0.00     0.179 C 
ATOM      7  C   UNL     1     107.416 109.861  96.120  1.00  0.00     0.202 C 
BRANCH   3   8
ATOM      8  C   UNL     1     105.384 109.711  99.915  1.00  0.00     0.191 C 
BRANCH   8   9
ATOM      9  O   UNL     1     106.077 108.915 100.835  1.00  0.00    -0.394 OA
ATOM     10  H   UNL     1     105.489 108.139 101.026  1.00  0.00     0.210 HD
ENDBRANCH   8   9
ENDBRANCH   3   8
BRANCH   4  11
ATOM     11  O   UNL     1     106.947 107.820  98.267  1.00  0.00    -0.387 OA
ATOM     12  H   UNL     1     105.960 107.900  98.197  1.00  0.00     0.211 HD
ENDBRANCH   4  11
BRANCH   6  13
ATOM     13  O   UNL     1     109.256 108.586  97.033  1.00  0.00    -0.387 OA
ATOM     14  H   UNL     1     109.245 108.476  96.046  1.00  0.00     0.211 HD
ENDBRANCH   6  13
BRANCH   7  15
ATOM     15  O   UNL     1     108.196 110.441  95.108  1.00  0.00    -0.385 OA
ATOM     16  H   UNL     1     108.685 109.702  94.661  1.00  0.00     0.211 HD
ENDBRANCH   7  15
ENDBRANCH   1   2
BRANCH   1  17
ATOM     17  C   UNL     1     104.061 111.323  95.705  1.00  0.00     0.224 C 
ATOM     18  C   UNL     1     103.155 111.387  94.445  1.00  0.00     0.208 C 
ATOM     19  O   UNL     1     103.557 110.291  96.535  1.00  0.00    -0.337 OA
ATOM     20  C   UNL     1     101.855 110.775  94.910  1.00  0.00     0.180 C 
ATOM     21  C   UNL     1     102.327 109.831  96.015  1.00  0.00     0.179 C 
BRANCH  17  22
ATOM     22  C   UNL     1     103.963 112.637  96.531  1.00  0.00     0.225 C 
BRANCH  22  23
ATOM     23  O   UNL     1     105.202 113.294  96.575  1.00  0.00    -0.391 OA
ATOM     24  H   UNL     1     105.166 113.943  97.322  1.00  0.00     0.210 HD
ENDBRANCH  22  23
ENDBRANCH  17  22
BRANCH  18  25
ATOM     25  O   UNL     1     103.682 110.650  93.367  1.00  0.00    -0.385 OA
ATOM     26  H   UNL     1     104.165 109.861  93.731  1.00  0.00     0.211 HD
ENDBRANCH  18  25
BRANCH  20  27
ATOM     27  O   UNL     1     100.997 111.768  95.413  1.00  0.00    -0.387 OA
ATOM     28  H   UNL     1     101.106 111.764  96.399  1.00  0.00     0.211 HD
ENDBRANCH  20  27
BRANCH  21  29
ATOM     29  C   UNL     1     101.309 109.655  97.149  1.00  0.00     0.191 C 
BRANCH  29  30
ATOM     30  O   UNL     1     100.106 109.165  96.626  1.00  0.00    -0.394 OA
ATOM     31  H   UNL     1     100.085 109.445  95.673  1.00  0.00     0.210 HD
ENDBRANCH  29  30
ENDBRANCH  21  29
ENDBRANCH   1  17
TORSDOF 13
ENDMDL
MODEL 5
REMARK VINA RESULT:     7.059      1.379      5.700
REMARK INTER + INTRA:          13.967
REMARK INTER:                  12.056
REMARK INTRA:                   1.911
REMARK UNBOUND:                 3.194
REMARK SMILES OC[C@@H]1O[C@@](CO)(O[C@H]2O[C@@H](CO)[C@@H](O)[C@@H](O)[C@@H]2O)[C@@H](O)[C@@H]1O
REMARK SMILES IDX 8 1 9 2 11 3 14 4 10 5 16 6 18 7 12 8 13 9 15 11 17 13 19 15
REMARK SMILES IDX 5 17 20 18 4 19 22 20 3 21 6 22 7 23 21 25 23 27 2 29 1 30
REMARK H PARENT 13 10 15 12 17 14 19 16 7 24 21 26 23 28 1 31
REMARK Flexibility Score: inf
ROOT
ATOM      1  O   UNL     1     104.208 109.925  97.895  1.00  0.00    -0.313 OA
ENDROOT
BRANCH   1   2
ATOM      2  C   UNL     1     103.567 110.690  96.882  1.00  0.00     0.285 C 
ATOM      3  C   UNL     1     103.765 111.397  94.666  1.00  0.00     0.178 C 
ATOM      4  C   UNL     1     102.364 110.883  94.258  1.00  0.00     0.177 C 
ATOM      5  O   UNL     1     104.315 110.575  95.681  1.00  0.00    -0.341 OA
ATOM      6  C   UNL     1     101.457 110.858  95.500  1.00  0.00     0.179 C 
ATOM      7  C   UNL     1     102.151 110.111  96.655  1.00  0.00     0.202 C 
BRANCH   3   8
ATOM      8  C   UNL     1     104.734 111.448  93.478  1.00  0.00     0.191 C 
BRANCH   8   9
ATOM      9  O   UNL     1     105.951 112.030  93.853  1.00  0.00    -0.394 OA
ATOM     10  H   UNL     1     105.723 112.775  94.468  1.00  0.00     0.210 HD
ENDBRANCH   8   9
ENDBRANCH   3   8
BRANCH   4  11
ATOM     11  O   UNL     1     102.451 109.587  93.718  1.00  0.00    -0.387 OA
ATOM     12  H   UNL     1     102.030 108.969  94.370  1.00  0.00     0.211 HD
ENDBRANCH   4  11
BRANCH   6  13
ATOM     13  O   UNL     1     100.240 110.234  95.180  1.00  0.00    -0.387 OA
ATOM     14  H   UNL     1     100.114 110.332  94.201  1.00  0.00     0.211 HD
ENDBRANCH   6  13
BRANCH   7  15
ATOM     15  O   UNL     1     101.380 110.246  97.820  1.00  0.00    -0.385 OA
ATOM     16  H   UNL     1     101.988 110.582  98.530  1.00  0.00     0.211 HD
ENDBRANCH   7  15
ENDBRANCH   1   2
BRANCH   1  17
ATOM     17  C   UNL     1     105.639 109.950  97.850  1.00  0.00     0.224 C 
ATOM     18  C   UNL     1     106.241 108.616  97.331  1.00  0.00     0.208 C 
ATOM     19  O   UNL     1     106.009 110.965  96.932  1.00  0.00    -0.337 OA
ATOM     20  C   UNL     1     107.396 109.059  96.465  1.00  0.00     0.180 C 
ATOM     21  C   UNL     1     106.932 110.439  96.001  1.00  0.00     0.179 C 
BRANCH  17  22
ATOM     22  C   UNL     1     106.258 110.349  99.218  1.00  0.00     0.225 C 
BRANCH  22  23
ATOM     23  O   UNL     1     106.186 109.285 100.130  1.00  0.00    -0.391 OA
ATOM     24  H   UNL     1     107.115 109.036 100.366  1.00  0.00     0.210 HD
ENDBRANCH  22  23
ENDBRANCH  17  22
BRANCH  18  25
ATOM     25  O   UNL     1     105.319 107.870  96.570  1.00  0.00    -0.385 OA
ATOM     26  H   UNL     1     105.435 108.110  95.613  1.00  0.00     0.211 HD
ENDBRANCH  18  25
BRANCH  20  27
ATOM     27  O   UNL     1     108.576 109.141  97.225  1.00  0.00    -0.387 OA
ATOM     28  H   UNL     1     108.903 110.074  97.139  1.00  0.00     0.211 HD
ENDBRANCH  20  27
BRANCH  21  29
ATOM     29  C   UNL     1     108.081 111.432  95.779  1.00  0.00     0.191 C 
BRANCH  29  30
ATOM     30  O   UNL     1     108.713 111.151  94.563  1.00  0.00    -0.394 OA
ATOM     31  H   UNL     1     109.270 111.946  94.350  1.00  0.00     0.210 HD
ENDBRANCH  29  30
ENDBRANCH  21  29
ENDBRANCH   1  17
TORSDOF 13
ENDMDL
MODEL 6
REMARK VINA RESULT:     7.380      1.491      2.658
REMARK INTER + INTRA:          14.457
REMARK INTER:                  13.219
REMARK INTRA:                   1.238
REMARK UNBOUND:                 3.194
REMARK SMILES OC[C@@H]1O[C@@](CO)(O[C@H]2O[C@@H](CO)[C@@H](O)[C@@H](O)[C@@H]2O)[C@@H](O)[C@@H]1O
REMARK SMILES IDX 8 1 9 2 11 3 14 4 10 5 16 6 18 7 12 8 13 9 15 11 17 13 19 15
REMARK SMILES IDX 5 17 20 18 4 19 22 20 3 21 6 22 7 23 21 25 23 27 2 29 1 30
REMARK H PARENT 13 10 15 12 17 14 19 16 7 24 21 26 23 28 1 31
REMARK Flexibility Score: inf
ROOT
ATOM      1  O   UNL     1     104.672 112.306  96.640  1.00  0.00    -0.313 OA
ENDROOT
BRANCH   1   2
ATOM      2  C   UNL     1     105.724 111.670  97.355  1.00  0.00     0.285 C 
ATOM      3  C   UNL     1     106.166 110.129  99.052  1.00  0.00     0.178 C 
ATOM      4  C   UNL     1     107.113 109.270  98.181  1.00  0.00     0.177 C 
ATOM      5  O   UNL     1     105.160 110.723  98.249  1.00  0.00    -0.341 OA
ATOM      6  C   UNL     1     107.731 110.157  97.087  1.00  0.00     0.179 C 
ATOM      7  C   UNL     1     106.629 110.934  96.340  1.00  0.00     0.202 C 
BRANCH   3   8
ATOM      8  C   UNL     1     105.504 109.313 100.170  1.00  0.00     0.191 C 
BRANCH   8   9
ATOM      9  O   UNL     1     106.457 108.873 101.096  1.00  0.00    -0.394 OA
ATOM     10  H   UNL     1     107.209 108.504 100.564  1.00  0.00     0.210 HD
ENDBRANCH   8   9
ENDBRANCH   3   8
BRANCH   4  11
ATOM     11  O   UNL     1     106.407 108.212  97.579  1.00  0.00    -0.387 OA
ATOM     12  H   UNL     1     107.024 107.437  97.534  1.00  0.00     0.211 HD
ENDBRANCH   4  11
BRANCH   6  13
ATOM     13  O   UNL     1     108.455 109.357  96.187  1.00  0.00    -0.387 OA
ATOM     14  H   UNL     1     108.569 109.888  95.356  1.00  0.00     0.211 HD
ENDBRANCH   6  13
BRANCH   7  15
ATOM     15  O   UNL     1     107.226 111.855  95.466  1.00  0.00    -0.385 OA
ATOM     16  H   UNL     1     106.929 111.617  94.549  1.00  0.00     0.211 HD
ENDBRANCH   7  15
ENDBRANCH   1   2
BRANCH   1  17
ATOM     17  C   UNL     1     103.723 111.412  96.048  1.00  0.00     0.224 C 
ATOM     18  C   UNL     1     103.749 111.459  94.496  1.00  0.00     0.208 C 
ATOM     19  O   UNL     1     104.089 110.099  96.436  1.00  0.00    -0.337 OA
ATOM     20  C   UNL     1     103.566 110.015  94.093  1.00  0.00     0.180 C 
ATOM     21  C   UNL     1     104.158 109.275  95.291  1.00  0.00     0.179 C 
BRANCH  17  22
ATOM     22  C   UNL     1     102.286 111.645  96.591  1.00  0.00     0.225 C 
BRANCH  22  23
ATOM     23  O   UNL     1     101.594 110.430  96.715  1.00  0.00    -0.391 OA
ATOM     24  H   UNL     1     101.050 110.316  95.895  1.00  0.00     0.210 HD
ENDBRANCH  22  23
ENDBRANCH  17  22
BRANCH  18  25
ATOM     25  O   UNL     1     104.968 111.955  93.994  1.00  0.00    -0.385 OA
ATOM     26  H   UNL     1     105.712 111.528  94.495  1.00  0.00     0.211 HD
ENDBRANCH  18  25
BRANCH  20  27
ATOM     27  O   UNL     1     102.202 109.721  93.927  1.00  0.00    -0.387 OA
ATOM     28  H   UNL     1     102.034 108.874  94.418  1.00  0.00     0.211 HD
ENDBRANCH  20  27
BRANCH  21  29
ATOM     29  C   UNL     1     103.486 107.924  95.572  1.00  0.00     0.191 C 
BRANCH  29  30
ATOM     30  O   UNL     1     104.456 106.914  95.588  1.00  0.00    -0.394 OA
ATOM     31  H   UNL     1     104.107 106.206  96.192  1.00  0.00     0.210 HD
ENDBRANCH  29  30
ENDBRANCH  21  29
ENDBRANCH   1  17
TORSDOF 13
ENDMDL
