MODEL 1
REMARK VINA RESULT:    -5.647      0.000      0.000
REMARK INTER + INTRA:         -11.396
REMARK INTER:                  -9.774
REMARK INTRA:                  -1.622
REMARK UNBOUND:                -1.622
REMARK SMILES OC[C@@H]1O[C@@H](O[C@@H]2[C@@H](O)[C@H](O)[C@@H](O[C@H]3[C@@H](O)[C@H](O)[C@@H](O)O[C@H]3CO)O[C@H]2CO)[C@@H](O)[C@H](O)[C@H]1O
REMARK SMILES IDX 7 1 26 2 25 3 12 4 10 5 8 6 6 7 5 8 3 9 33 10 4 11 31 12
REMARK SMILES IDX 29 13 2 14 1 15 34 17 32 19 30 21 27 23 28 24 9 26 11 28
REMARK SMILES IDX 13 30 14 31 22 32 15 33 21 34 17 35 19 36 23 37 24 38 16 40
REMARK SMILES IDX 18 42 20 44
REMARK H PARENT 1 16 34 18 32 20 30 22 28 25 9 27 11 29 24 39 16 41 18 43
REMARK H PARENT 20 45
REMARK Flexibility Score: inf
ROOT
ATOM      1  C   UNL     1      47.350  31.791  16.808  1.00  0.00     0.184 C 
ATOM      2  C   UNL     1      47.768  31.026  15.524  1.00  0.00     0.178 C 
ATOM      3  O   UNL     1      49.178  30.891  15.371  1.00  0.00    -0.341 OA
ATOM      4  C   UNL     1      49.836  30.309  16.487  1.00  0.00     0.282 C 
ATOM      5  C   UNL     1      49.592  31.117  17.777  1.00  0.00     0.202 C 
ATOM      6  C   UNL     1      48.088  31.258  18.055  1.00  0.00     0.180 C 
ENDROOT
BRANCH   1   7
ATOM      7  O   UNL     1      47.676  33.164  16.626  1.00  0.00    -0.341 OA
BRANCH   7   8
ATOM      8  C   UNL     1      47.290  33.696  15.363  1.00  0.00     0.282 C 
ATOM      9  C   UNL     1      48.055  34.708  13.362  1.00  0.00     0.178 C 
ATOM     10  C   UNL     1      46.545  34.890  13.031  1.00  0.00     0.177 C 
ATOM     11  O   UNL     1      48.333  34.430  14.732  1.00  0.00    -0.341 OA
ATOM     12  C   UNL     1      45.819  35.470  14.258  1.00  0.00     0.179 C 
ATOM     13  C   UNL     1      45.996  34.543  15.481  1.00  0.00     0.202 C 
BRANCH   9  14
ATOM     14  C   UNL     1      48.709  33.653  12.460  1.00  0.00     0.191 C 
BRANCH  14  15
ATOM     15  O   UNL     1      47.777  33.192  11.522  1.00  0.00    -0.394 OA
ATOM     16  H   UNL     1      47.683  33.916  10.850  1.00  0.00     0.210 HD
ENDBRANCH  14  15
ENDBRANCH   9  14
BRANCH  10  17
ATOM     17  O   UNL     1      46.409  35.751  11.929  1.00  0.00    -0.387 OA
ATOM     18  H   UNL     1      47.033  35.429  11.228  1.00  0.00     0.211 HD
ENDBRANCH  10  17
BRANCH  12  19
ATOM     19  O   UNL     1      44.449  35.619  13.987  1.00  0.00    -0.387 OA
ATOM     20  H   UNL     1      44.054  36.128  14.740  1.00  0.00     0.211 HD
ENDBRANCH  12  19
BRANCH  13  21
ATOM     21  O   UNL     1      46.025  35.327  16.648  1.00  0.00    -0.385 OA
ATOM     22  H   UNL     1      45.314  34.988  17.254  1.00  0.00     0.211 HD
ENDBRANCH  13  21
ENDBRANCH   7   8
ENDBRANCH   1   7
BRANCH   2  23
ATOM     23  C   UNL     1      47.016  29.696  15.305  1.00  0.00     0.191 C 
BRANCH  23  24
ATOM     24  O   UNL     1      46.617  29.166  16.539  1.00  0.00    -0.394 OA
ATOM     25  H   UNL     1      47.377  29.310  17.162  1.00  0.00     0.210 HD
ENDBRANCH  23  24
ENDBRANCH   2  23
BRANCH   6  26
ATOM     26  O   UNL     1      47.560  30.017  18.453  1.00  0.00    -0.387 OA
ATOM     27  H   UNL     1      47.837  29.353  17.769  1.00  0.00     0.211 HD
ENDBRANCH   6  26
BRANCH   5  28
ATOM     28  O   UNL     1      50.186  32.383  17.643  1.00  0.00    -0.385 OA
ATOM     29  H   UNL     1      51.146  32.278  17.878  1.00  0.00     0.211 HD
ENDBRANCH   5  28
BRANCH   4  30
ATOM     30  O   UNL     1      49.441  28.956  16.640  1.00  0.00    -0.341 OA
BRANCH  30  31
ATOM     31  C   UNL     1      50.155  28.075  15.786  1.00  0.00     0.184 C 
ATOM     32  C   UNL     1      49.393  26.731  15.636  1.00  0.00     0.178 C 
ATOM     33  C   UNL     1      51.572  27.879  16.347  1.00  0.00     0.180 C 
ATOM     34  O   UNL     1      50.148  25.732  14.956  1.00  0.00    -0.342 OA
ATOM     35  C   UNL     1      52.297  26.772  15.574  1.00  0.00     0.201 C 
ATOM     36  C   UNL     1      51.435  25.493  15.511  1.00  0.00     0.279 C 
BRANCH  32  37
ATOM     37  C   UNL     1      48.749  26.208  16.939  1.00  0.00     0.191 C 
BRANCH  37  38
ATOM     38  O   UNL     1      47.376  26.491  16.939  1.00  0.00    -0.394 OA
ATOM     39  H   UNL     1      46.917  25.627  16.769  1.00  0.00     0.210 HD
ENDBRANCH  37  38
ENDBRANCH  32  37
BRANCH  33  40
ATOM     40  O   UNL     1      51.523  27.577  17.718  1.00  0.00    -0.387 OA
ATOM     41  H   UNL     1      50.778  26.931  17.844  1.00  0.00     0.211 HD
ENDBRANCH  33  40
BRANCH  35  42
ATOM     42  O   UNL     1      52.572  27.221  14.271  1.00  0.00    -0.385 OA
ATOM     43  H   UNL     1      53.397  26.755  13.973  1.00  0.00     0.211 HD
ENDBRANCH  35  42
BRANCH  36  44
ATOM     44  O   UNL     1      51.330  24.876  16.768  1.00  0.00    -0.366 OA
ATOM     45  H   UNL     1      51.548  25.564  17.449  1.00  0.00     0.213 HD
ENDBRANCH  36  44
ENDBRANCH  30  31
ENDBRANCH   4  30
TORSDOF 18
ENDMDL
MODEL 2
REMARK VINA RESULT:    -5.058      1.041      2.068
REMARK INTER + INTRA:         -10.376
REMARK INTER:                  -8.810
REMARK INTRA:                  -1.566
REMARK UNBOUND:                -1.622
REMARK SMILES OC[C@@H]1O[C@@H](O[C@@H]2[C@@H](O)[C@H](O)[C@@H](O[C@H]3[C@@H](O)[C@H](O)[C@@H](O)O[C@H]3CO)O[C@H]2CO)[C@@H](O)[C@H](O)[C@H]1O
REMARK SMILES IDX 7 1 26 2 25 3 12 4 10 5 8 6 6 7 5 8 3 9 33 10 4 11 31 12
REMARK SMILES IDX 29 13 2 14 1 15 34 17 32 19 30 21 27 23 28 24 9 26 11 28
REMARK SMILES IDX 13 30 14 31 22 32 15 33 21 34 17 35 19 36 23 37 24 38 16 40
REMARK SMILES IDX 18 42 20 44
REMARK H PARENT 1 16 34 18 32 20 30 22 28 25 9 27 11 29 24 39 16 41 18 43
REMARK H PARENT 20 45
REMARK Flexibility Score: inf
ROOT
ATOM      1  C   UNL     1      47.502  31.850  16.771  1.00  0.00     0.184 C 
ATOM      2  C   UNL     1      47.894  30.878  15.627  1.00  0.00     0.178 C 
ATOM      3  O   UNL     1      49.283  30.562  15.595  1.00  0.00    -0.341 OA
ATOM      4  C   UNL     1      49.799  30.061  16.820  1.00  0.00     0.282 C 
ATOM      5  C   UNL     1      49.583  31.056  17.978  1.00  0.00     0.202 C 
ATOM      6  C   UNL     1      48.095  31.405  18.126  1.00  0.00     0.180 C 
ENDROOT
BRANCH   1   7
ATOM      7  O   UNL     1      48.005  33.139  16.444  1.00  0.00    -0.341 OA
BRANCH   7   8
ATOM      8  C   UNL     1      47.507  33.670  15.220  1.00  0.00     0.282 C 
ATOM      9  C   UNL     1      48.079  34.764  13.197  1.00  0.00     0.178 C 
ATOM     10  C   UNL     1      46.542  34.858  12.966  1.00  0.00     0.177 C 
ATOM     11  O   UNL     1      48.460  34.478  14.540  1.00  0.00    -0.341 OA
ATOM     12  C   UNL     1      45.863  35.369  14.249  1.00  0.00     0.179 C 
ATOM     13  C   UNL     1      46.174  34.432  15.438  1.00  0.00     0.202 C 
BRANCH   9  14
ATOM     14  C   UNL     1      48.736  33.769  12.233  1.00  0.00     0.191 C 
BRANCH  14  15
ATOM     15  O   UNL     1      47.758  33.187  11.417  1.00  0.00    -0.394 OA
ATOM     16  H   UNL     1      47.309  33.937  10.948  1.00  0.00     0.210 HD
ENDBRANCH  14  15
ENDBRANCH   9  14
BRANCH  10  17
ATOM     17  O   UNL     1      46.283  35.730  11.894  1.00  0.00    -0.387 OA
ATOM     18  H   UNL     1      46.309  36.653  12.257  1.00  0.00     0.211 HD
ENDBRANCH  10  17
BRANCH  12  19
ATOM     19  O   UNL     1      44.471  35.438  14.069  1.00  0.00    -0.387 OA
ATOM     20  H   UNL     1      44.182  34.574  13.676  1.00  0.00     0.211 HD
ENDBRANCH  12  19
BRANCH  13  21
ATOM     21  O   UNL     1      46.230  35.194  16.617  1.00  0.00    -0.385 OA
ATOM     22  H   UNL     1      45.739  34.694  17.321  1.00  0.00     0.211 HD
ENDBRANCH  13  21
ENDBRANCH   7   8
ENDBRANCH   1   7
BRANCH   2  23
ATOM     23  C   UNL     1      46.997  29.626  15.522  1.00  0.00     0.191 C 
BRANCH  23  24
ATOM     24  O   UNL     1      47.712  28.577  14.927  1.00  0.00    -0.394 OA
ATOM     25  H   UNL     1      47.033  27.941  14.578  1.00  0.00     0.210 HD
ENDBRANCH  23  24
ENDBRANCH   2  23
BRANCH   6  26
ATOM     26  O   UNL     1      47.395  30.298  18.636  1.00  0.00    -0.387 OA
ATOM     27  H   UNL     1      47.380  30.397  19.624  1.00  0.00     0.211 HD
ENDBRANCH   6  26
BRANCH   5  28
ATOM     28  O   UNL     1      50.336  32.216  17.730  1.00  0.00    -0.385 OA
ATOM     29  H   UNL     1      50.954  32.329  18.500  1.00  0.00     0.211 HD
ENDBRANCH   5  28
BRANCH   4  30
ATOM     30  O   UNL     1      49.231  28.795  17.113  1.00  0.00    -0.341 OA
BRANCH  30  31
ATOM     31  C   UNL     1      50.131  27.934  17.794  1.00  0.00     0.184 C 
ATOM     32  C   UNL     1      51.430  27.744  16.965  1.00  0.00     0.178 C 
ATOM     33  C   UNL     1      49.424  26.600  18.078  1.00  0.00     0.180 C 
ATOM     34  O   UNL     1      52.290  26.739  17.494  1.00  0.00    -0.342 OA
ATOM     35  C   UNL     1      50.428  25.574  18.616  1.00  0.00     0.201 C 
ATOM     36  C   UNL     1      51.662  25.479  17.694  1.00  0.00     0.279 C 
BRANCH  32  37
ATOM     37  C   UNL     1      51.206  27.600  15.444  1.00  0.00     0.191 C 
BRANCH  37  38
ATOM     38  O   UNL     1      52.236  28.247  14.747  1.00  0.00    -0.394 OA
ATOM     39  H   UNL     1      51.868  29.123  14.461  1.00  0.00     0.210 HD
ENDBRANCH  37  38
ENDBRANCH  32  37
BRANCH  33  40
ATOM     40  O   UNL     1      48.797  26.117  16.916  1.00  0.00    -0.387 OA
ATOM     41  H   UNL     1      48.673  25.140  17.040  1.00  0.00     0.211 HD
ENDBRANCH  33  40
BRANCH  35  42
ATOM     42  O   UNL     1      50.832  25.956  19.907  1.00  0.00    -0.385 OA
ATOM     43  H   UNL     1      50.100  25.698  20.527  1.00  0.00     0.211 HD
ENDBRANCH  35  42
BRANCH  36  44
ATOM     44  O   UNL     1      51.345  24.878  16.464  1.00  0.00    -0.366 OA
ATOM     45  H   UNL     1      52.139  24.981  15.877  1.00  0.00     0.213 HD
ENDBRANCH  36  44
ENDBRANCH  30  31
ENDBRANCH   4  30
TORSDOF 18
ENDMDL
MODEL 3
REMARK VINA RESULT:    -5.013      1.088      2.247
REMARK INTER + INTRA:         -10.299
REMARK INTER:                  -8.805
REMARK INTRA:                  -1.494
REMARK UNBOUND:                -1.622
REMARK SMILES OC[C@@H]1O[C@@H](O[C@@H]2[C@@H](O)[C@H](O)[C@@H](O[C@H]3[C@@H](O)[C@H](O)[C@@H](O)O[C@H]3CO)O[C@H]2CO)[C@@H](O)[C@H](O)[C@H]1O
REMARK SMILES IDX 7 1 26 2 25 3 12 4 10 5 8 6 6 7 5 8 3 9 33 10 4 11 31 12
REMARK SMILES IDX 29 13 2 14 1 15 34 17 32 19 30 21 27 23 28 24 9 26 11 28
REMARK SMILES IDX 13 30 14 31 22 32 15 33 21 34 17 35 19 36 23 37 24 38 16 40
REMARK SMILES IDX 18 42 20 44
REMARK H PARENT 1 16 34 18 32 20 30 22 28 25 9 27 11 29 24 39 16 41 18 43
REMARK H PARENT 20 45
REMARK Flexibility Score: inf
ROOT
ATOM      1  C   UNL     1      48.284  32.320  16.177  1.00  0.00     0.184 C 
ATOM      2  C   UNL     1      48.531  31.792  17.615  1.00  0.00     0.178 C 
ATOM      3  O   UNL     1      47.771  30.630  17.936  1.00  0.00    -0.341 OA
ATOM      4  C   UNL     1      47.926  29.556  17.020  1.00  0.00     0.282 C 
ATOM      5  C   UNL     1      47.542  29.971  15.586  1.00  0.00     0.202 C 
ATOM      6  C   UNL     1      48.364  31.187  15.131  1.00  0.00     0.180 C 
ENDROOT
BRANCH   1   7
ATOM      7  O   UNL     1      46.985  32.898  16.139  1.00  0.00    -0.341 OA
BRANCH   7   8
ATOM      8  C   UNL     1      46.708  33.638  14.954  1.00  0.00     0.282 C 
ATOM      9  C   UNL     1      47.655  34.770  13.100  1.00  0.00     0.178 C 
ATOM     10  C   UNL     1      46.195  35.215  12.793  1.00  0.00     0.177 C 
ATOM     11  O   UNL     1      47.860  34.282  14.423  1.00  0.00    -0.341 OA
ATOM     12  C   UNL     1      45.538  35.736  14.082  1.00  0.00     0.179 C 
ATOM     13  C   UNL     1      45.551  34.646  15.177  1.00  0.00     0.202 C 
BRANCH   9  14
ATOM     14  C   UNL     1      48.165  33.752  12.072  1.00  0.00     0.191 C 
BRANCH  14  15
ATOM     15  O   UNL     1      47.236  33.629  11.031  1.00  0.00    -0.394 OA
ATOM     16  H   UNL     1      46.343  33.761  11.441  1.00  0.00     0.210 HD
ENDBRANCH  14  15
ENDBRANCH   9  14
BRANCH  10  17
ATOM     17  O   UNL     1      46.210  36.220  11.810  1.00  0.00    -0.387 OA
ATOM     18  H   UNL     1      47.074  36.701  11.899  1.00  0.00     0.211 HD
ENDBRANCH  10  17
BRANCH  12  19
ATOM     19  O   UNL     1      44.210  36.121  13.831  1.00  0.00    -0.387 OA
ATOM     20  H   UNL     1      43.991  36.854  14.461  1.00  0.00     0.211 HD
ENDBRANCH  12  19
BRANCH  13  21
ATOM     21  O   UNL     1      45.670  35.262  16.435  1.00  0.00    -0.385 OA
ATOM     22  H   UNL     1      46.512  34.939  16.849  1.00  0.00     0.211 HD
ENDBRANCH  13  21
ENDBRANCH   7   8
ENDBRANCH   1   7
BRANCH   2  23
ATOM     23  C   UNL     1      50.021  31.652  17.994  1.00  0.00     0.191 C 
BRANCH  23  24
ATOM     24  O   UNL     1      50.515  32.883  18.445  1.00  0.00    -0.394 OA
ATOM     25  H   UNL     1      49.891  33.575  18.101  1.00  0.00     0.210 HD
ENDBRANCH  23  24
ENDBRANCH   2  23
BRANCH   6  26
ATOM     26  O   UNL     1      49.698  30.803  14.914  1.00  0.00    -0.387 OA
ATOM     27  H   UNL     1      50.267  31.429  15.434  1.00  0.00     0.211 HD
ENDBRANCH   6  26
BRANCH   5  28
ATOM     28  O   UNL     1      46.169  30.267  15.548  1.00  0.00    -0.385 OA
ATOM     29  H   UNL     1      45.767  29.682  14.852  1.00  0.00     0.211 HD
ENDBRANCH   5  28
BRANCH   4  30
ATOM     30  O   UNL     1      49.250  29.049  17.075  1.00  0.00    -0.341 OA
BRANCH  30  31
ATOM     31  C   UNL     1      49.395  27.818  16.383  1.00  0.00     0.184 C 
ATOM     32  C   UNL     1      49.019  26.629  17.308  1.00  0.00     0.178 C 
ATOM     33  C   UNL     1      50.834  27.710  15.856  1.00  0.00     0.180 C 
ATOM     34  O   UNL     1      49.332  25.359  16.743  1.00  0.00    -0.342 OA
ATOM     35  C   UNL     1      51.087  26.307  15.293  1.00  0.00     0.201 C 
ATOM     36  C   UNL     1      50.681  25.226  16.316  1.00  0.00     0.279 C 
BRANCH  32  37
ATOM     37  C   UNL     1      49.507  26.771  18.766  1.00  0.00     0.191 C 
BRANCH  37  38
ATOM     38  O   UNL     1      48.480  26.414  19.650  1.00  0.00    -0.394 OA
ATOM     39  H   UNL     1      48.531  27.055  20.406  1.00  0.00     0.210 HD
ENDBRANCH  37  38
ENDBRANCH  32  37
BRANCH  33  40
ATOM     40  O   UNL     1      51.756  28.011  16.874  1.00  0.00    -0.387 OA
ATOM     41  H   UNL     1      51.239  28.078  17.719  1.00  0.00     0.211 HD
ENDBRANCH  33  40
BRANCH  35  42
ATOM     42  O   UNL     1      50.344  26.142  14.111  1.00  0.00    -0.385 OA
ATOM     43  H   UNL     1      49.399  26.000  14.382  1.00  0.00     0.211 HD
ENDBRANCH  35  42
BRANCH  36  44
ATOM     44  O   UNL     1      51.553  25.200  17.418  1.00  0.00    -0.366 OA
ATOM     45  H   UNL     1      51.514  24.285  17.799  1.00  0.00     0.213 HD
ENDBRANCH  36  44
ENDBRANCH  30  31
ENDBRANCH   4  30
TORSDOF 18
ENDMDL
MODEL 4
REMARK VINA RESULT:    -4.986     13.731     18.210
REMARK INTER + INTRA:         -10.251
REMARK INTER:                  -9.015
REMARK INTRA:                  -1.236
REMARK UNBOUND:                -1.622
REMARK SMILES OC[C@@H]1O[C@@H](O[C@@H]2[C@@H](O)[C@H](O)[C@@H](O[C@H]3[C@@H](O)[C@H](O)[C@@H](O)O[C@H]3CO)O[C@H]2CO)[C@@H](O)[C@H](O)[C@H]1O
REMARK SMILES IDX 7 1 26 2 25 3 12 4 10 5 8 6 6 7 5 8 3 9 33 10 4 11 31 12
REMARK SMILES IDX 29 13 2 14 1 15 34 17 32 19 30 21 27 23 28 24 9 26 11 28
REMARK SMILES IDX 13 30 14 31 22 32 15 33 21 34 17 35 19 36 23 37 24 38 16 40
REMARK SMILES IDX 18 42 20 44
REMARK H PARENT 1 16 34 18 32 20 30 22 28 25 9 27 11 29 24 39 16 41 18 43
REMARK H PARENT 20 45
REMARK Flexibility Score: inf
ROOT
ATOM      1  C   UNL     1      37.466  40.816  24.869  1.00  0.00     0.184 C 
ATOM      2  C   UNL     1      38.589  40.359  25.837  1.00  0.00     0.178 C 
ATOM      3  O   UNL     1      39.863  40.925  25.544  1.00  0.00    -0.341 OA
ATOM      4  C   UNL     1      39.872  42.343  25.467  1.00  0.00     0.282 C 
ATOM      5  C   UNL     1      38.886  42.861  24.402  1.00  0.00     0.202 C 
ATOM      6  C   UNL     1      37.465  42.348  24.678  1.00  0.00     0.180 C 
ENDROOT
BRANCH   1   7
ATOM      7  O   UNL     1      37.691  40.191  23.610  1.00  0.00    -0.341 OA
BRANCH   7   8
ATOM      8  C   UNL     1      38.868  39.391  23.555  1.00  0.00     0.282 C 
ATOM      9  C   UNL     1      40.807  38.867  22.298  1.00  0.00     0.178 C 
ATOM     10  C   UNL     1      41.019  37.733  23.345  1.00  0.00     0.177 C 
ATOM     11  O   UNL     1      39.492  39.416  22.277  1.00  0.00    -0.341 OA
ATOM     12  C   UNL     1      39.696  36.973  23.549  1.00  0.00     0.179 C 
ATOM     13  C   UNL     1      38.583  37.938  24.016  1.00  0.00     0.202 C 
BRANCH   9  14
ATOM     14  C   UNL     1      41.848  39.982  22.455  1.00  0.00     0.191 C 
BRANCH  14  15
ATOM     15  O   UNL     1      41.349  41.173  21.916  1.00  0.00    -0.394 OA
ATOM     16  H   UNL     1      41.076  40.961  20.986  1.00  0.00     0.210 HD
ENDBRANCH  14  15
ENDBRANCH   9  14
BRANCH  10  17
ATOM     17  O   UNL     1      42.020  36.858  22.889  1.00  0.00    -0.387 OA
ATOM     18  H   UNL     1      42.761  36.894  23.548  1.00  0.00     0.211 HD
ENDBRANCH  10  17
BRANCH  12  19
ATOM     19  O   UNL     1      39.860  35.960  24.508  1.00  0.00    -0.387 OA
ATOM     20  H   UNL     1      39.975  35.106  24.018  1.00  0.00     0.211 HD
ENDBRANCH  12  19
BRANCH  13  21
ATOM     21  O   UNL     1      37.350  37.493  23.509  1.00  0.00    -0.385 OA
ATOM     22  H   UNL     1      37.167  36.601  23.906  1.00  0.00     0.211 HD
ENDBRANCH  13  21
ENDBRANCH   7   8
ENDBRANCH   1   7
BRANCH   2  23
ATOM     23  C   UNL     1      38.220  40.467  27.333  1.00  0.00     0.191 C 
BRANCH  23  24
ATOM     24  O   UNL     1      36.881  40.859  27.465  1.00  0.00    -0.394 OA
ATOM     25  H   UNL     1      36.517  40.348  28.236  1.00  0.00     0.210 HD
ENDBRANCH  23  24
ENDBRANCH   2  23
BRANCH   6  26
ATOM     26  O   UNL     1      36.941  42.990  25.813  1.00  0.00    -0.387 OA
ATOM     27  H   UNL     1      36.522  42.287  26.375  1.00  0.00     0.211 HD
ENDBRANCH   6  26
BRANCH   5  28
ATOM     28  O   UNL     1      39.320  42.440  23.133  1.00  0.00    -0.385 OA
ATOM     29  H   UNL     1      38.634  42.738  22.480  1.00  0.00     0.211 HD
ENDBRANCH   5  28
BRANCH   4  30
ATOM     30  O   UNL     1      39.603  42.907  26.740  1.00  0.00    -0.341 OA
BRANCH  30  31
ATOM     31  C   UNL     1      40.677  42.741  27.653  1.00  0.00     0.184 C 
ATOM     32  C   UNL     1      40.157  42.789  29.115  1.00  0.00     0.178 C 
ATOM     33  C   UNL     1      41.735  43.820  27.378  1.00  0.00     0.180 C 
ATOM     34  O   UNL     1      41.204  42.827  30.081  1.00  0.00    -0.342 OA
ATOM     35  C   UNL     1      42.802  43.806  28.478  1.00  0.00     0.201 C 
ATOM     36  C   UNL     1      42.150  43.868  29.875  1.00  0.00     0.279 C 
BRANCH  32  37
ATOM     37  C   UNL     1      39.065  43.850  29.374  1.00  0.00     0.191 C 
BRANCH  37  38
ATOM     38  O   UNL     1      37.876  43.477  28.734  1.00  0.00    -0.394 OA
ATOM     39  H   UNL     1      37.860  42.484  28.738  1.00  0.00     0.210 HD
ENDBRANCH  37  38
ENDBRANCH  32  37
BRANCH  33  40
ATOM     40  O   UNL     1      41.134  45.087  27.286  1.00  0.00    -0.387 OA
ATOM     41  H   UNL     1      40.251  45.021  27.736  1.00  0.00     0.211 HD
ENDBRANCH  33  40
BRANCH  35  42
ATOM     42  O   UNL     1      43.566  42.631  28.365  1.00  0.00    -0.385 OA
ATOM     43  H   UNL     1      44.368  42.753  28.939  1.00  0.00     0.211 HD
ENDBRANCH  35  42
BRANCH  36  44
ATOM     44  O   UNL     1      41.572  45.125  30.122  1.00  0.00    -0.366 OA
ATOM     45  H   UNL     1      41.482  45.215  31.106  1.00  0.00     0.213 HD
ENDBRANCH  36  44
ENDBRANCH  30  31
ENDBRANCH   4  30
TORSDOF 18
ENDMDL
MODEL 5
REMARK VINA RESULT:    -4.855      2.214      8.657
REMARK INTER + INTRA:         -10.025
REMARK INTER:                  -9.124
REMARK INTRA:                  -0.901
REMARK UNBOUND:                -1.622
REMARK SMILES OC[C@@H]1O[C@@H](O[C@@H]2[C@@H](O)[C@H](O)[C@@H](O[C@H]3[C@@H](O)[C@H](O)[C@@H](O)O[C@H]3CO)O[C@H]2CO)[C@@H](O)[C@H](O)[C@H]1O
REMARK SMILES IDX 7 1 26 2 25 3 12 4 10 5 8 6 6 7 5 8 3 9 33 10 4 11 31 12
REMARK SMILES IDX 29 13 2 14 1 15 34 17 32 19 30 21 27 23 28 24 9 26 11 28
REMARK SMILES IDX 13 30 14 31 22 32 15 33 21 34 17 35 19 36 23 37 24 38 16 40
REMARK SMILES IDX 18 42 20 44
REMARK H PARENT 1 16 34 18 32 20 30 22 28 25 9 27 11 29 24 39 16 41 18 43
REMARK H PARENT 20 45
REMARK Flexibility Score: inf
ROOT
ATOM      1  C   UNL     1      50.826  26.106  17.122  1.00  0.00     0.184 C 
ATOM      2  C   UNL     1      51.279  27.457  16.508  1.00  0.00     0.178 C 
ATOM      3  O   UNL     1      50.562  27.820  15.331  1.00  0.00    -0.341 OA
ATOM      4  C   UNL     1      49.151  27.836  15.485  1.00  0.00     0.282 C 
ATOM      5  C   UNL     1      48.612  26.466  15.944  1.00  0.00     0.202 C 
ATOM      6  C   UNL     1      49.289  26.024  17.250  1.00  0.00     0.180 C 
ENDROOT
BRANCH   1   7
ATOM      7  O   UNL     1      51.278  25.062  16.268  1.00  0.00    -0.341 OA
BRANCH   7   8
ATOM      8  C   UNL     1      52.689  25.029  16.079  1.00  0.00     0.282 C 
ATOM      9  C   UNL     1      54.777  25.820  16.871  1.00  0.00     0.178 C 
ATOM     10  C   UNL     1      55.370  25.127  15.608  1.00  0.00     0.177 C 
ATOM     11  O   UNL     1      53.369  26.032  16.825  1.00  0.00    -0.341 OA
ATOM     12  C   UNL     1      54.533  25.510  14.375  1.00  0.00     0.179 C 
ATOM     13  C   UNL     1      53.056  25.099  14.574  1.00  0.00     0.202 C 
BRANCH   9  14
ATOM     14  C   UNL     1      55.163  25.077  18.156  1.00  0.00     0.191 C 
BRANCH  14  15
ATOM     15  O   UNL     1      56.557  24.985  18.247  1.00  0.00    -0.394 OA
ATOM     16  H   UNL     1      56.791  25.250  19.174  1.00  0.00     0.210 HD
ENDBRANCH  14  15
ENDBRANCH   9  14
BRANCH  10  17
ATOM     17  O   UNL     1      56.705  25.531  15.437  1.00  0.00    -0.387 OA
ATOM     18  H   UNL     1      56.761  26.480  15.725  1.00  0.00     0.211 HD
ENDBRANCH  10  17
BRANCH  12  19
ATOM     19  O   UNL     1      55.037  24.875  13.228  1.00  0.00    -0.387 OA
ATOM     20  H   UNL     1      56.011  25.057  13.196  1.00  0.00     0.211 HD
ENDBRANCH  12  19
BRANCH  13  21
ATOM     21  O   UNL     1      52.232  26.022  13.907  1.00  0.00    -0.385 OA
ATOM     22  H   UNL     1      51.695  26.496  14.595  1.00  0.00     0.211 HD
ENDBRANCH  13  21
ENDBRANCH   7   8
ENDBRANCH   1   7
BRANCH   2  23
ATOM     23  C   UNL     1      51.378  28.615  17.524  1.00  0.00     0.191 C 
BRANCH  23  24
ATOM     24  O   UNL     1      52.725  28.922  17.764  1.00  0.00    -0.394 OA
ATOM     25  H   UNL     1      52.942  29.695  17.178  1.00  0.00     0.210 HD
ENDBRANCH  23  24
ENDBRANCH   2  23
BRANCH   6  26
ATOM     26  O   UNL     1      48.835  26.822  18.314  1.00  0.00    -0.387 OA
ATOM     27  H   UNL     1      48.139  26.298  18.791  1.00  0.00     0.211 HD
ENDBRANCH   6  26
BRANCH   5  28
ATOM     28  O   UNL     1      48.842  25.522  14.929  1.00  0.00    -0.385 OA
ATOM     29  H   UNL     1      49.625  25.843  14.408  1.00  0.00     0.211 HD
ENDBRANCH   5  28
BRANCH   4  30
ATOM     30  O   UNL     1      48.764  28.870  16.377  1.00  0.00    -0.341 OA
BRANCH  30  31
ATOM     31  C   UNL     1      48.984  30.166  15.842  1.00  0.00     0.184 C 
ATOM     32  C   UNL     1      49.129  31.205  16.986  1.00  0.00     0.178 C 
ATOM     33  C   UNL     1      47.831  30.512  14.887  1.00  0.00     0.180 C 
ATOM     34  O   UNL     1      49.152  32.552  16.520  1.00  0.00    -0.342 OA
ATOM     35  C   UNL     1      47.922  31.981  14.460  1.00  0.00     0.201 C 
ATOM     36  C   UNL     1      48.051  32.902  15.692  1.00  0.00     0.279 C 
BRANCH  32  37
ATOM     37  C   UNL     1      48.157  30.999  18.169  1.00  0.00     0.191 C 
BRANCH  37  38
ATOM     38  O   UNL     1      48.104  32.161  18.951  1.00  0.00    -0.394 OA
ATOM     39  H   UNL     1      47.190  32.193  19.336  1.00  0.00     0.210 HD
ENDBRANCH  37  38
ENDBRANCH  32  37
BRANCH  33  40
ATOM     40  O   UNL     1      46.592  30.247  15.494  1.00  0.00    -0.387 OA
ATOM     41  H   UNL     1      46.639  29.321  15.852  1.00  0.00     0.211 HD
ENDBRANCH  33  40
BRANCH  35  42
ATOM     42  O   UNL     1      49.038  32.152  13.624  1.00  0.00    -0.385 OA
ATOM     43  H   UNL     1      49.539  32.938  13.967  1.00  0.00     0.211 HD
ENDBRANCH  35  42
BRANCH  36  44
ATOM     44  O   UNL     1      46.860  32.944  16.436  1.00  0.00    -0.366 OA
ATOM     45  H   UNL     1      47.113  32.886  17.394  1.00  0.00     0.213 HD
ENDBRANCH  36  44
ENDBRANCH  30  31
ENDBRANCH   4  30
TORSDOF 18
ENDMDL
MODEL 6
REMARK VINA RESULT:    -4.843      5.607      8.827
REMARK INTER + INTRA:         -10.004
REMARK INTER:                  -8.278
REMARK INTRA:                  -1.726
REMARK UNBOUND:                -1.622
REMARK SMILES OC[C@@H]1O[C@@H](O[C@@H]2[C@@H](O)[C@H](O)[C@@H](O[C@H]3[C@@H](O)[C@H](O)[C@@H](O)O[C@H]3CO)O[C@H]2CO)[C@@H](O)[C@H](O)[C@H]1O
REMARK SMILES IDX 7 1 26 2 25 3 12 4 10 5 8 6 6 7 5 8 3 9 33 10 4 11 31 12
REMARK SMILES IDX 29 13 2 14 1 15 34 17 32 19 30 21 27 23 28 24 9 26 11 28
REMARK SMILES IDX 13 30 14 31 22 32 15 33 21 34 17 35 19 36 23 37 24 38 16 40
REMARK SMILES IDX 18 42 20 44
REMARK H PARENT 1 16 34 18 32 20 30 22 28 25 9 27 11 29 24 39 16 41 18 43
REMARK H PARENT 20 45
REMARK Flexibility Score: inf
ROOT
ATOM      1  C   UNL     1      51.239  26.935  17.409  1.00  0.00     0.184 C 
ATOM      2  C   UNL     1      52.197  25.747  17.127  1.00  0.00     0.178 C 
ATOM      3  O   UNL     1      51.752  24.888  16.083  1.00  0.00    -0.341 OA
ATOM      4  C   UNL     1      51.470  25.549  14.858  1.00  0.00     0.282 C 
ATOM      5  C   UNL     1      50.399  26.644  15.036  1.00  0.00     0.202 C 
ATOM      6  C   UNL     1      50.829  27.658  16.107  1.00  0.00     0.180 C 
ENDROOT
BRANCH   1   7
ATOM      7  O   UNL     1      50.074  26.418  18.041  1.00  0.00    -0.341 OA
BRANCH   7   8
ATOM      8  C   UNL     1      50.223  26.173  19.436  1.00  0.00     0.282 C 
ATOM      9  C   UNL     1      51.338  24.875  21.075  1.00  0.00     0.178 C 
ATOM     10  C   UNL     1      50.376  25.565  22.086  1.00  0.00     0.177 C 
ATOM     11  O   UNL     1      50.934  24.972  19.712  1.00  0.00    -0.341 OA
ATOM     12  C   UNL     1      48.937  25.510  21.543  1.00  0.00     0.179 C 
ATOM     13  C   UNL     1      48.853  26.198  20.162  1.00  0.00     0.202 C 
BRANCH   9  14
ATOM     14  C   UNL     1      52.780  25.369  21.240  1.00  0.00     0.191 C 
BRANCH  14  15
ATOM     15  O   UNL     1      53.267  24.994  22.498  1.00  0.00    -0.394 OA
ATOM     16  H   UNL     1      53.139  24.012  22.560  1.00  0.00     0.210 HD
ENDBRANCH  14  15
ENDBRANCH   9  14
BRANCH  10  17
ATOM     17  O   UNL     1      50.455  24.910  23.328  1.00  0.00    -0.387 OA
ATOM     18  H   UNL     1      50.902  24.039  23.169  1.00  0.00     0.211 HD
ENDBRANCH  10  17
BRANCH  12  19
ATOM     19  O   UNL     1      48.056  26.149  22.431  1.00  0.00    -0.387 OA
ATOM     20  H   UNL     1      47.282  26.466  21.899  1.00  0.00     0.211 HD
ENDBRANCH  12  19
BRANCH  13  21
ATOM     21  O   UNL     1      47.874  25.551  19.388  1.00  0.00    -0.385 OA
ATOM     22  H   UNL     1      48.336  24.886  18.813  1.00  0.00     0.211 HD
ENDBRANCH  13  21
ENDBRANCH   7   8
ENDBRANCH   1   7
BRANCH   2  23
ATOM     23  C   UNL     1      53.680  26.150  16.975  1.00  0.00     0.191 C 
BRANCH  23  24
ATOM     24  O   UNL     1      54.060  26.978  18.040  1.00  0.00    -0.394 OA
ATOM     25  H   UNL     1      54.813  26.518  18.495  1.00  0.00     0.210 HD
ENDBRANCH  23  24
ENDBRANCH   2  23
BRANCH   6  26
ATOM     26  O   UNL     1      51.887  28.444  15.620  1.00  0.00    -0.387 OA
ATOM     27  H   UNL     1      52.574  28.477  16.335  1.00  0.00     0.211 HD
ENDBRANCH   6  26
BRANCH   5  28
ATOM     28  O   UNL     1      49.183  26.039  15.395  1.00  0.00    -0.385 OA
ATOM     29  H   UNL     1      48.998  25.338  14.715  1.00  0.00     0.211 HD
ENDBRANCH   5  28
BRANCH   4  30
ATOM     30  O   UNL     1      52.661  26.077  14.297  1.00  0.00    -0.341 OA
BRANCH  30  31
ATOM     31  C   UNL     1      52.700  25.961  12.883  1.00  0.00     0.184 C 
ATOM     32  C   UNL     1      54.017  25.273  12.433  1.00  0.00     0.178 C 
ATOM     33  C   UNL     1      52.535  27.358  12.265  1.00  0.00     0.180 C 
ATOM     34  O   UNL     1      54.211  25.304  11.021  1.00  0.00    -0.342 OA
ATOM     35  C   UNL     1      52.787  27.300  10.754  1.00  0.00     0.201 C 
ATOM     36  C   UNL     1      54.130  26.603  10.449  1.00  0.00     0.279 C 
BRANCH  32  37
ATOM     37  C   UNL     1      55.273  25.711  13.219  1.00  0.00     0.191 C 
BRANCH  37  38
ATOM     38  O   UNL     1      56.420  25.167  12.625  1.00  0.00    -0.394 OA
ATOM     39  H   UNL     1      56.730  25.836  11.960  1.00  0.00     0.210 HD
ENDBRANCH  37  38
ENDBRANCH  32  37
BRANCH  33  40
ATOM     40  O   UNL     1      53.405  28.275  12.879  1.00  0.00    -0.387 OA
ATOM     41  H   UNL     1      54.277  28.203  12.409  1.00  0.00     0.211 HD
ENDBRANCH  33  40
BRANCH  35  42
ATOM     42  O   UNL     1      51.739  26.596  10.137  1.00  0.00    -0.385 OA
ATOM     43  H   UNL     1      51.951  25.629  10.222  1.00  0.00     0.211 HD
ENDBRANCH  35  42
BRANCH  36  44
ATOM     44  O   UNL     1      55.225  27.392  10.843  1.00  0.00    -0.366 OA
ATOM     45  H   UNL     1      54.914  27.969  11.588  1.00  0.00     0.213 HD
ENDBRANCH  36  44
ENDBRANCH  30  31
ENDBRANCH   4  30
TORSDOF 18
ENDMDL
MODEL 7
REMARK VINA RESULT:    -4.176     13.127     17.685
REMARK INTER + INTRA:          -8.849
REMARK INTER:                 -10.183
REMARK INTRA:                   1.334
REMARK UNBOUND:                -1.622
REMARK SMILES OC[C@@H]1O[C@@H](O[C@@H]2[C@@H](O)[C@H](O)[C@@H](O[C@H]3[C@@H](O)[C@H](O)[C@@H](O)O[C@H]3CO)O[C@H]2CO)[C@@H](O)[C@H](O)[C@H]1O
REMARK SMILES IDX 7 1 26 2 25 3 12 4 10 5 8 6 6 7 5 8 3 9 33 10 4 11 31 12
REMARK SMILES IDX 29 13 2 14 1 15 34 17 32 19 30 21 27 23 28 24 9 26 11 28
REMARK SMILES IDX 13 30 14 31 22 32 15 33 21 34 17 35 19 36 23 37 24 38 16 40
REMARK SMILES IDX 18 42 20 44
REMARK H PARENT 1 16 34 18 32 20 30 22 28 25 9 27 11 29 24 39 16 41 18 43
REMARK H PARENT 20 45
REMARK Flexibility Score: inf
ROOT
ATOM      1  C   UNL     1      37.525  40.850  24.804  1.00  0.00     0.184 C 
ATOM      2  C   UNL     1      38.654  40.465  25.795  1.00  0.00     0.178 C 
ATOM      3  O   UNL     1      39.907  41.075  25.503  1.00  0.00    -0.341 OA
ATOM      4  C   UNL     1      39.859  42.491  25.391  1.00  0.00     0.282 C 
ATOM      5  C   UNL     1      38.864  42.942  24.302  1.00  0.00     0.202 C 
ATOM      6  C   UNL     1      37.463  42.377  24.576  1.00  0.00     0.180 C 
ENDROOT
BRANCH   1   7
ATOM      7  O   UNL     1      37.791  40.206  23.563  1.00  0.00    -0.341 OA
BRANCH   7   8
ATOM      8  C   UNL     1      38.964  39.398  23.563  1.00  0.00     0.282 C 
ATOM      9  C   UNL     1      40.966  38.875  22.408  1.00  0.00     0.178 C 
ATOM     10  C   UNL     1      41.112  37.726  23.448  1.00  0.00     0.177 C 
ATOM     11  O   UNL     1      39.658  39.435  22.321  1.00  0.00    -0.341 OA
ATOM     12  C   UNL     1      39.775  36.974  23.569  1.00  0.00     0.179 C 
ATOM     13  C   UNL     1      38.644  37.941  23.987  1.00  0.00     0.202 C 
BRANCH   9  14
ATOM     14  C   UNL     1      42.004  39.981  22.637  1.00  0.00     0.191 C 
BRANCH  14  15
ATOM     15  O   UNL     1      41.653  41.118  21.900  1.00  0.00    -0.394 OA
ATOM     16  H   UNL     1      40.672  41.065  21.763  1.00  0.00     0.210 HD
ENDBRANCH  14  15
ENDBRANCH   9  14
BRANCH  10  17
ATOM     17  O   UNL     1      42.131  36.850  23.037  1.00  0.00    -0.387 OA
ATOM     18  H   UNL     1      42.870  37.410  22.682  1.00  0.00     0.211 HD
ENDBRANCH  10  17
BRANCH  12  19
ATOM     19  O   UNL     1      39.879  35.947  24.522  1.00  0.00    -0.387 OA
ATOM     20  H   UNL     1      40.619  36.189  25.136  1.00  0.00     0.211 HD
ENDBRANCH  12  19
BRANCH  13  21
ATOM     21  O   UNL     1      37.438  37.512  23.407  1.00  0.00    -0.385 OA
ATOM     22  H   UNL     1      36.803  38.275  23.434  1.00  0.00     0.211 HD
ENDBRANCH  13  21
ENDBRANCH   7   8
ENDBRANCH   1   7
BRANCH   2  23
ATOM     23  C   UNL     1      38.263  40.593  27.283  1.00  0.00     0.191 C 
BRANCH  23  24
ATOM     24  O   UNL     1      36.912  40.260  27.451  1.00  0.00    -0.394 OA
ATOM     25  H   UNL     1      36.577  40.001  26.553  1.00  0.00     0.210 HD
ENDBRANCH  23  24
ENDBRANCH   2  23
BRANCH   6  26
ATOM     26  O   UNL     1      36.899  43.023  25.689  1.00  0.00    -0.387 OA
ATOM     27  H   UNL     1      36.388  42.337  26.193  1.00  0.00     0.211 HD
ENDBRANCH   6  26
BRANCH   5  28
ATOM     28  O   UNL     1      39.331  42.508  23.049  1.00  0.00    -0.385 OA
ATOM     29  H   UNL     1      38.749  41.753  22.770  1.00  0.00     0.211 HD
ENDBRANCH   5  28
BRANCH   4  30
ATOM     30  O   UNL     1      39.550  43.073  26.647  1.00  0.00    -0.341 OA
BRANCH  30  31
ATOM     31  C   UNL     1      40.625  43.833  27.178  1.00  0.00     0.184 C 
ATOM     32  C   UNL     1      41.754  43.983  26.124  1.00  0.00     0.178 C 
ATOM     33  C   UNL     1      41.121  43.159  28.467  1.00  0.00     0.180 C 
ATOM     34  O   UNL     1      42.943  44.562  26.655  1.00  0.00    -0.342 OA
ATOM     35  C   UNL     1      42.414  43.827  28.948  1.00  0.00     0.201 C 
ATOM     36  C   UNL     1      43.450  43.902  27.807  1.00  0.00     0.279 C 
BRANCH  32  37
ATOM     37  C   UNL     1      42.029  42.713  25.290  1.00  0.00     0.191 C 
BRANCH  37  38
ATOM     38  O   UNL     1      42.790  43.039  24.159  1.00  0.00    -0.394 OA
ATOM     39  H   UNL     1      43.349  42.243  23.963  1.00  0.00     0.210 HD
ENDBRANCH  37  38
ENDBRANCH  32  37
BRANCH  33  40
ATOM     40  O   UNL     1      41.321  41.784  28.258  1.00  0.00    -0.387 OA
ATOM     41  H   UNL     1      40.750  41.523  27.488  1.00  0.00     0.211 HD
ENDBRANCH  33  40
BRANCH  35  42
ATOM     42  O   UNL     1      42.121  45.123  29.406  1.00  0.00    -0.385 OA
ATOM     43  H   UNL     1      41.416  45.488  28.810  1.00  0.00     0.211 HD
ENDBRANCH  35  42
BRANCH  36  44
ATOM     44  O   UNL     1      43.949  42.631  27.476  1.00  0.00    -0.366 OA
ATOM     45  H   UNL     1      44.615  42.390  28.171  1.00  0.00     0.213 HD
ENDBRANCH  36  44
ENDBRANCH  30  31
ENDBRANCH   4  30
TORSDOF 18
ENDMDL
MODEL 8
REMARK VINA RESULT:    -4.047     14.532     17.050
REMARK INTER + INTRA:          -8.627
REMARK INTER:                  -6.844
REMARK INTRA:                  -1.783
REMARK UNBOUND:                -1.622
REMARK SMILES OC[C@@H]1O[C@@H](O[C@@H]2[C@@H](O)[C@H](O)[C@@H](O[C@H]3[C@@H](O)[C@H](O)[C@@H](O)O[C@H]3CO)O[C@H]2CO)[C@@H](O)[C@H](O)[C@H]1O
REMARK SMILES IDX 7 1 26 2 25 3 12 4 10 5 8 6 6 7 5 8 3 9 33 10 4 11 31 12
REMARK SMILES IDX 29 13 2 14 1 15 34 17 32 19 30 21 27 23 28 24 9 26 11 28
REMARK SMILES IDX 13 30 14 31 22 32 15 33 21 34 17 35 19 36 23 37 24 38 16 40
REMARK SMILES IDX 18 42 20 44
REMARK H PARENT 1 16 34 18 32 20 30 22 28 25 9 27 11 29 24 39 16 41 18 43
REMARK H PARENT 20 45
REMARK Flexibility Score: inf
ROOT
ATOM      1  C   UNL     1      39.443  39.230  22.889  1.00  0.00     0.184 C 
ATOM      2  C   UNL     1      40.174  40.595  22.982  1.00  0.00     0.178 C 
ATOM      3  O   UNL     1      39.644  41.462  23.980  1.00  0.00    -0.341 OA
ATOM      4  C   UNL     1      39.576  40.889  25.278  1.00  0.00     0.282 C 
ATOM      5  C   UNL     1      38.723  39.605  25.289  1.00  0.00     0.202 C 
ATOM      6  C   UNL     1      39.266  38.582  24.280  1.00  0.00     0.180 C 
ENDROOT
BRANCH   1   7
ATOM      7  O   UNL     1      38.161  39.456  22.315  1.00  0.00    -0.341 OA
BRANCH   7   8
ATOM      8  C   UNL     1      37.981  40.764  21.780  1.00  0.00     0.282 C 
ATOM      9  C   UNL     1      36.960  42.877  22.107  1.00  0.00     0.178 C 
ATOM     10  C   UNL     1      37.474  43.201  20.673  1.00  0.00     0.177 C 
ATOM     11  O   UNL     1      36.947  41.490  22.433  1.00  0.00    -0.341 OA
ATOM     12  C   UNL     1      37.130  42.034  19.732  1.00  0.00     0.179 C 
ATOM     13  C   UNL     1      37.757  40.719  20.246  1.00  0.00     0.202 C 
BRANCH   9  14
ATOM     14  C   UNL     1      37.727  43.668  23.175  1.00  0.00     0.191 C 
BRANCH  14  15
ATOM     15  O   UNL     1      37.455  43.137  24.441  1.00  0.00    -0.394 OA
ATOM     16  H   UNL     1      38.175  42.479  24.625  1.00  0.00     0.210 HD
ENDBRANCH  14  15
ENDBRANCH   9  14
BRANCH  10  17
ATOM     17  O   UNL     1      36.875  44.389  20.220  1.00  0.00    -0.387 OA
ATOM     18  H   UNL     1      37.081  45.092  20.889  1.00  0.00     0.211 HD
ENDBRANCH  10  17
BRANCH  12  19
ATOM     19  O   UNL     1      37.607  42.296  18.437  1.00  0.00    -0.387 OA
ATOM     20  H   UNL     1      38.448  41.784  18.323  1.00  0.00     0.211 HD
ENDBRANCH  12  19
BRANCH  13  21
ATOM     21  O   UNL     1      36.916  39.646  19.902  1.00  0.00    -0.385 OA
ATOM     22  H   UNL     1      36.463  39.342  20.732  1.00  0.00     0.211 HD
ENDBRANCH  13  21
ENDBRANCH   7   8
ENDBRANCH   1   7
BRANCH   2  23
ATOM     23  C   UNL     1      41.713  40.488  23.043  1.00  0.00     0.191 C 
BRANCH  23  24
ATOM     24  O   UNL     1      42.284  41.265  22.025  1.00  0.00    -0.394 OA
ATOM     25  H   UNL     1      43.147  40.830  21.795  1.00  0.00     0.210 HD
ENDBRANCH  23  24
ENDBRANCH   2  23
BRANCH   6  26
ATOM     26  O   UNL     1      40.484  38.057  24.743  1.00  0.00    -0.387 OA
ATOM     27  H   UNL     1      40.771  38.625  25.505  1.00  0.00     0.211 HD
ENDBRANCH   6  26
BRANCH   5  28
ATOM     28  O   UNL     1      37.392  39.936  24.983  1.00  0.00    -0.385 OA
ATOM     29  H   UNL     1      37.050  39.225  24.379  1.00  0.00     0.211 HD
ENDBRANCH   5  28
BRANCH   4  30
ATOM     30  O   UNL     1      40.880  40.649  25.780  1.00  0.00    -0.341 OA
BRANCH  30  31
ATOM     31  C   UNL     1      41.136  41.337  26.996  1.00  0.00     0.184 C 
ATOM     32  C   UNL     1      41.575  42.798  26.709  1.00  0.00     0.178 C 
ATOM     33  C   UNL     1      42.193  40.559  27.794  1.00  0.00     0.180 C 
ATOM     34  O   UNL     1      42.037  43.482  27.870  1.00  0.00    -0.342 OA
ATOM     35  C   UNL     1      42.649  41.380  29.005  1.00  0.00     0.201 C 
ATOM     36  C   UNL     1      43.066  42.803  28.577  1.00  0.00     0.279 C 
BRANCH  32  37
ATOM     37  C   UNL     1      42.527  42.958  25.503  1.00  0.00     0.191 C 
BRANCH  37  38
ATOM     38  O   UNL     1      41.792  43.292  24.357  1.00  0.00    -0.394 OA
ATOM     39  H   UNL     1      41.922  44.267  24.220  1.00  0.00     0.210 HD
ENDBRANCH  37  38
ENDBRANCH  32  37
BRANCH  33  40
ATOM     40  O   UNL     1      43.287  40.232  26.975  1.00  0.00    -0.387 OA
ATOM     41  H   UNL     1      42.925  39.735  26.195  1.00  0.00     0.211 HD
ENDBRANCH  33  40
BRANCH  35  42
ATOM     42  O   UNL     1      41.598  41.456  29.935  1.00  0.00    -0.385 OA
ATOM     43  H   UNL     1      41.995  41.305  30.833  1.00  0.00     0.211 HD
ENDBRANCH  35  42
BRANCH  36  44
ATOM     44  O   UNL     1      44.259  42.792  27.835  1.00  0.00    -0.366 OA
ATOM     45  H   UNL     1      44.430  43.726  27.544  1.00  0.00     0.213 HD
ENDBRANCH  36  44
ENDBRANCH  30  31
ENDBRANCH   4  30
TORSDOF 18
ENDMDL
