MODEL 1
REMARK VINA RESULT:    -4.218      0.000      0.000
REMARK INTER + INTRA:          -5.473
REMARK INTER:                  -5.205
REMARK INTRA:                  -0.269
REMARK UNBOUND:                -0.269
REMARK SMILES C=CCc1ccc(OC)c(OC)c1
REMARK SMILES IDX 7 1 10 2 13 3 4 4 5 5 6 6 8 7 9 8 11 9 12 10 3 11 2 12 1 13
REMARK H PARENT
REMARK Flexibility Score: inf
ROOT
ATOM      1  C   UNL     1     107.230 106.291 102.706  1.00  0.00     0.160 A 
ATOM      2  C   UNL     1     106.971 104.914 102.782  1.00  0.00     0.160 A 
ATOM      3  C   UNL     1     105.724 104.465 103.259  1.00  0.00     0.054 A 
ATOM      4  C   UNL     1     104.743 105.382 103.663  1.00  0.00    -0.040 A 
ATOM      5  C   UNL     1     105.005 106.755 103.574  1.00  0.00     0.008 A 
ATOM      6  C   UNL     1     106.239 107.208 103.104  1.00  0.00     0.051 A 
ENDROOT
BRANCH   1   7
ATOM      7  O   UNL     1     108.482 106.710 102.227  1.00  0.00    -0.493 OA
ATOM      8  C   UNL     1     109.184 107.855 102.699  1.00  0.00     0.278 C 
ENDBRANCH   1   7
BRANCH   2   9
ATOM      9  O   UNL     1     107.976 104.023 102.371  1.00  0.00    -0.493 OA
ATOM     10  C   UNL     1     107.863 102.604 102.410  1.00  0.00     0.278 C 
ENDBRANCH   2   9
BRANCH   4  11
ATOM     11  C   UNL     1     103.400 104.899 104.143  1.00  0.00     0.062 C 
BRANCH  11  12
ATOM     12  C   UNL     1     102.656 104.207 103.036  1.00  0.00    -0.030 C 
ATOM     13  C   UNL     1     102.396 104.817 101.875  1.00  0.00     0.004 C 
ENDBRANCH  11  12
ENDBRANCH   4  11
TORSDOF 4
ENDMDL
MODEL 2
REMARK VINA RESULT:    -4.157      1.813      3.773
REMARK INTER + INTRA:          -5.398
REMARK INTER:                  -5.167
REMARK INTRA:                  -0.231
REMARK UNBOUND:                -0.269
REMARK SMILES C=CCc1ccc(OC)c(OC)c1
REMARK SMILES IDX 7 1 10 2 13 3 4 4 5 5 6 6 8 7 9 8 11 9 12 10 3 11 2 12 1 13
REMARK H PARENT
REMARK Flexibility Score: inf
ROOT
ATOM      1  C   UNL     1     106.154 104.651 102.714  1.00  0.00     0.160 A 
ATOM      2  C   UNL     1     104.794 104.934 102.920  1.00  0.00     0.160 A 
ATOM      3  C   UNL     1     104.413 106.200 103.408  1.00  0.00     0.054 A 
ATOM      4  C   UNL     1     105.379 107.176 103.693  1.00  0.00    -0.040 A 
ATOM      5  C   UNL     1     106.733 106.889 103.474  1.00  0.00     0.008 A 
ATOM      6  C   UNL     1     107.120 105.637 102.992  1.00  0.00     0.051 A 
ENDROOT
BRANCH   1   7
ATOM      7  O   UNL     1     106.505 103.381 102.228  1.00  0.00    -0.493 OA
ATOM      8  C   UNL     1     107.810 102.820 102.307  1.00  0.00     0.278 C 
ENDBRANCH   1   7
BRANCH   2   9
ATOM      9  O   UNL     1     103.853 103.934 102.627  1.00  0.00    -0.493 OA
ATOM     10  C   UNL     1     102.443 104.131 102.614  1.00  0.00     0.278 C 
ENDBRANCH   2   9
BRANCH   4  11
ATOM     11  C   UNL     1     104.966 108.538 104.184  1.00  0.00     0.062 C 
BRANCH  11  12
ATOM     12  C   UNL     1     104.229 109.289 103.111  1.00  0.00    -0.030 C 
ATOM     13  C   UNL     1     104.724 109.415 101.875  1.00  0.00     0.004 C 
ENDBRANCH  11  12
ENDBRANCH   4  11
TORSDOF 4
ENDMDL
MODEL 3
REMARK VINA RESULT:    -4.039      2.135      3.391
REMARK INTER + INTRA:          -5.253
REMARK INTER:                  -4.994
REMARK INTRA:                  -0.258
REMARK UNBOUND:                -0.269
REMARK SMILES C=CCc1ccc(OC)c(OC)c1
REMARK SMILES IDX 7 1 10 2 13 3 4 4 5 5 6 6 8 7 9 8 11 9 12 10 3 11 2 12 1 13
REMARK H PARENT
REMARK Flexibility Score: inf
ROOT
ATOM      1  C   UNL     1     106.199 104.081 104.823  1.00  0.00     0.160 A 
ATOM      2  C   UNL     1     106.578 104.174 103.474  1.00  0.00     0.160 A 
ATOM      3  C   UNL     1     105.916 105.083 102.626  1.00  0.00     0.054 A 
ATOM      4  C   UNL     1     104.878 105.890 103.115  1.00  0.00    -0.040 A 
ATOM      5  C   UNL     1     104.513 105.798 104.465  1.00  0.00     0.008 A 
ATOM      6  C   UNL     1     105.163 104.900 105.312  1.00  0.00     0.051 A 
ENDROOT
BRANCH   1   7
ATOM      7  O   UNL     1     106.876 103.166 105.645  1.00  0.00    -0.493 OA
ATOM      8  C   UNL     1     107.469 103.492 106.897  1.00  0.00     0.278 C 
ENDBRANCH   1   7
BRANCH   2   9
ATOM      9  O   UNL     1     107.619 103.350 103.016  1.00  0.00    -0.493 OA
ATOM     10  C   UNL     1     107.525 102.480 101.894  1.00  0.00     0.278 C 
ENDBRANCH   2   9
BRANCH   4  11
ATOM     11  C   UNL     1     104.193 106.882 102.213  1.00  0.00     0.062 C 
BRANCH  11  12
ATOM     12  C   UNL     1     105.061 108.090 101.996  1.00  0.00    -0.030 C 
ATOM     13  C   UNL     1     104.569 109.331 102.068  1.00  0.00     0.004 C 
ENDBRANCH  11  12
ENDBRANCH   4  11
TORSDOF 4
ENDMDL
MODEL 4
REMARK VINA RESULT:    -4.000      2.107      3.062
REMARK INTER + INTRA:          -5.205
REMARK INTER:                  -4.920
REMARK INTRA:                  -0.284
REMARK UNBOUND:                -0.269
REMARK SMILES C=CCc1ccc(OC)c(OC)c1
REMARK SMILES IDX 7 1 10 2 13 3 4 4 5 5 6 6 8 7 9 8 11 9 12 10 3 11 2 12 1 13
REMARK H PARENT
REMARK Flexibility Score: inf
ROOT
ATOM      1  C   UNL     1     107.843 106.212 105.037  1.00  0.00     0.160 A 
ATOM      2  C   UNL     1     107.915 106.503 103.666  1.00  0.00     0.160 A 
ATOM      3  C   UNL     1     107.104 105.792 102.759  1.00  0.00     0.054 A 
ATOM      4  C   UNL     1     106.232 104.792 103.215  1.00  0.00    -0.040 A 
ATOM      5  C   UNL     1     106.159 104.515 104.586  1.00  0.00     0.008 A 
ATOM      6  C   UNL     1     106.959 105.214 105.491  1.00  0.00     0.051 A 
ENDROOT
BRANCH   1   7
ATOM      7  O   UNL     1     108.663 106.936 105.918  1.00  0.00    -0.493 OA
ATOM      8  C   UNL     1     108.227 107.491 107.153  1.00  0.00     0.278 C 
ENDBRANCH   1   7
BRANCH   2   9
ATOM      9  O   UNL     1     108.801 107.508 103.244  1.00  0.00    -0.493 OA
ATOM     10  C   UNL     1     109.428 107.547 101.966  1.00  0.00     0.278 C 
ENDBRANCH   2   9
BRANCH   4  11
ATOM     11  C   UNL     1     105.345 104.055 102.247  1.00  0.00     0.062 C 
BRANCH  11  12
ATOM     12  C   UNL     1     104.018 104.748 102.108  1.00  0.00    -0.030 C 
ATOM     13  C   UNL     1     102.916 104.281 102.703  1.00  0.00     0.004 C 
ENDBRANCH  11  12
ENDBRANCH   4  11
TORSDOF 4
ENDMDL
MODEL 5
REMARK VINA RESULT:    -3.998      2.248      4.001
REMARK INTER + INTRA:          -5.201
REMARK INTER:                  -4.970
REMARK INTRA:                  -0.231
REMARK UNBOUND:                -0.269
REMARK SMILES C=CCc1ccc(OC)c(OC)c1
REMARK SMILES IDX 7 1 10 2 13 3 4 4 5 5 6 6 8 7 9 8 11 9 12 10 3 11 2 12 1 13
REMARK H PARENT
REMARK Flexibility Score: inf
ROOT
ATOM      1  C   UNL     1     105.349 106.837 102.720  1.00  0.00     0.160 A 
ATOM      2  C   UNL     1     106.733 106.707 102.914  1.00  0.00     0.160 A 
ATOM      3  C   UNL     1     107.239 105.581 103.593  1.00  0.00     0.054 A 
ATOM      4  C   UNL     1     106.370 104.593 104.082  1.00  0.00    -0.040 A 
ATOM      5  C   UNL     1     104.991 104.725 103.874  1.00  0.00     0.008 A 
ATOM      6  C   UNL     1     104.482 105.838 103.203  1.00  0.00     0.051 A 
ENDROOT
BRANCH   1   7
ATOM      7  O   UNL     1     104.873 107.970 102.040  1.00  0.00    -0.493 OA
ATOM      8  C   UNL     1     104.241 109.080 102.667  1.00  0.00     0.278 C 
ENDBRANCH   1   7
BRANCH   2   9
ATOM      9  O   UNL     1     107.573 107.715 102.414  1.00  0.00    -0.493 OA
ATOM     10  C   UNL     1     108.992 107.623 102.345  1.00  0.00     0.278 C 
ENDBRANCH   2   9
BRANCH   4  11
ATOM     11  C   UNL     1     106.916 103.376 104.780  1.00  0.00     0.062 C 
BRANCH  11  12
ATOM     12  C   UNL     1     107.137 103.655 106.240  1.00  0.00    -0.030 C 
ATOM     13  C   UNL     1     107.534 102.699 107.087  1.00  0.00     0.004 C 
ENDBRANCH  11  12
ENDBRANCH   4  11
TORSDOF 4
ENDMDL
MODEL 6
REMARK VINA RESULT:    -3.973      2.599      5.292
REMARK INTER + INTRA:          -5.170
REMARK INTER:                  -4.937
REMARK INTRA:                  -0.233
REMARK UNBOUND:                -0.269
REMARK SMILES C=CCc1ccc(OC)c(OC)c1
REMARK SMILES IDX 7 1 10 2 13 3 4 4 5 5 6 6 8 7 9 8 11 9 12 10 3 11 2 12 1 13
REMARK H PARENT
REMARK Flexibility Score: inf
ROOT
ATOM      1  C   UNL     1     105.195 105.567 102.596  1.00  0.00     0.160 A 
ATOM      2  C   UNL     1     105.365 106.948 102.787  1.00  0.00     0.160 A 
ATOM      3  C   UNL     1     106.481 107.419 103.507  1.00  0.00     0.054 A 
ATOM      4  C   UNL     1     107.418 106.521 104.039  1.00  0.00    -0.040 A 
ATOM      5  C   UNL     1     107.247 105.145 103.834  1.00  0.00     0.008 A 
ATOM      6  C   UNL     1     106.144 104.670 103.123  1.00  0.00     0.051 A 
ENDROOT
BRANCH   1   7
ATOM      7  O   UNL     1     104.074 105.126 101.875  1.00  0.00    -0.493 OA
ATOM      8  C   UNL     1     102.942 104.488 102.456  1.00  0.00     0.278 C 
ENDBRANCH   1   7
BRANCH   2   9
ATOM      9  O   UNL     1     104.407 107.818 102.244  1.00  0.00    -0.493 OA
ATOM     10  C   UNL     1     104.505 109.239 102.260  1.00  0.00     0.278 C 
ENDBRANCH   2   9
BRANCH   4  11
ATOM     11  C   UNL     1     108.625 107.030 104.781  1.00  0.00     0.062 C 
BRANCH  11  12
ATOM     12  C   UNL     1     108.353 107.093 106.258  1.00  0.00    -0.030 C 
ATOM     13  C   UNL     1     109.315 107.394 107.138  1.00  0.00     0.004 C 
ENDBRANCH  11  12
ENDBRANCH   4  11
TORSDOF 4
ENDMDL
MODEL 7
REMARK VINA RESULT:    -3.964      1.768      3.757
REMARK INTER + INTRA:          -5.160
REMARK INTER:                  -4.867
REMARK INTRA:                  -0.292
REMARK UNBOUND:                -0.269
REMARK SMILES C=CCc1ccc(OC)c(OC)c1
REMARK SMILES IDX 7 1 10 2 13 3 4 4 5 5 6 6 8 7 9 8 11 9 12 10 3 11 2 12 1 13
REMARK H PARENT
REMARK Flexibility Score: inf
ROOT
ATOM      1  C   UNL     1     105.700 107.132 102.637  1.00  0.00     0.160 A 
ATOM      2  C   UNL     1     107.079 106.881 102.713  1.00  0.00     0.160 A 
ATOM      3  C   UNL     1     107.536 105.640 103.199  1.00  0.00     0.054 A 
ATOM      4  C   UNL     1     106.624 104.657 103.611  1.00  0.00    -0.040 A 
ATOM      5  C   UNL     1     105.249 104.911 103.522  1.00  0.00     0.008 A 
ATOM      6  C   UNL     1     104.789 106.138 103.043  1.00  0.00     0.051 A 
ENDROOT
BRANCH   1   7
ATOM      7  O   UNL     1     105.274 108.378 102.150  1.00  0.00    -0.493 OA
ATOM      8  C   UNL     1     104.134 109.084 102.627  1.00  0.00     0.278 C 
ENDBRANCH   1   7
BRANCH   2   9
ATOM      9  O   UNL     1     107.964 107.889 102.295  1.00  0.00    -0.493 OA
ATOM     10  C   UNL     1     109.379 107.832 102.440  1.00  0.00     0.278 C 
ENDBRANCH   2   9
BRANCH   4  11
ATOM     11  C   UNL     1     107.115 103.320 104.101  1.00  0.00     0.062 C 
BRANCH  11  12
ATOM     12  C   UNL     1     107.863 102.598 103.015  1.00  0.00    -0.030 C 
ATOM     13  C   UNL     1     107.268 102.232 101.875  1.00  0.00     0.004 C 
ENDBRANCH  11  12
ENDBRANCH   4  11
TORSDOF 4
ENDMDL
MODEL 8
REMARK VINA RESULT:    -3.959      2.614      4.931
REMARK INTER + INTRA:          -5.154
REMARK INTER:                  -4.873
REMARK INTRA:                  -0.281
REMARK UNBOUND:                -0.269
REMARK SMILES C=CCc1ccc(OC)c(OC)c1
REMARK SMILES IDX 7 1 10 2 13 3 4 4 5 5 6 6 8 7 9 8 11 9 12 10 3 11 2 12 1 13
REMARK H PARENT
REMARK Flexibility Score: inf
ROOT
ATOM      1  C   UNL     1     104.210 105.683 104.751  1.00  0.00     0.160 A 
ATOM      2  C   UNL     1     104.214 105.356 103.386  1.00  0.00     0.160 A 
ATOM      3  C   UNL     1     105.081 106.038 102.509  1.00  0.00     0.054 A 
ATOM      4  C   UNL     1     105.935 107.042 102.988  1.00  0.00    -0.040 A 
ATOM      5  C   UNL     1     105.932 107.355 104.354  1.00  0.00     0.008 A 
ATOM      6  C   UNL     1     105.076 106.685 105.229  1.00  0.00     0.051 A 
ENDROOT
BRANCH   1   7
ATOM      7  O   UNL     1     103.335 104.988 105.601  1.00  0.00    -0.493 OA
ATOM      8  C   UNL     1     103.464 104.927 107.017  1.00  0.00     0.278 C 
ENDBRANCH   1   7
BRANCH   2   9
ATOM      9  O   UNL     1     103.345 104.348 102.940  1.00  0.00    -0.493 OA
ATOM     10  C   UNL     1     102.412 104.499 101.875  1.00  0.00     0.278 C 
ENDBRANCH   2   9
BRANCH   4  11
ATOM     11  C   UNL     1     106.882 107.747 102.054  1.00  0.00     0.062 C 
BRANCH  11  12
ATOM     12  C   UNL     1     108.242 107.109 102.094  1.00  0.00    -0.030 C 
ATOM     13  C   UNL     1     109.301 107.740 102.613  1.00  0.00     0.004 C 
ENDBRANCH  11  12
ENDBRANCH   4  11
TORSDOF 4
ENDMDL
MODEL 9
REMARK VINA RESULT:    -3.916      2.252      4.480
REMARK INTER + INTRA:          -5.101
REMARK INTER:                  -4.855
REMARK INTRA:                  -0.245
REMARK UNBOUND:                -0.269
REMARK SMILES C=CCc1ccc(OC)c(OC)c1
REMARK SMILES IDX 7 1 10 2 13 3 4 4 5 5 6 6 8 7 9 8 11 9 12 10 3 11 2 12 1 13
REMARK H PARENT
REMARK Flexibility Score: inf
ROOT
ATOM      1  C   UNL     1     105.171 105.668 102.597  1.00  0.00     0.160 A 
ATOM      2  C   UNL     1     106.349 104.904 102.613  1.00  0.00     0.160 A 
ATOM      3  C   UNL     1     107.471 105.368 103.328  1.00  0.00     0.054 A 
ATOM      4  C   UNL     1     107.421 106.588 104.018  1.00  0.00    -0.040 A 
ATOM      5  C   UNL     1     106.238 107.339 104.006  1.00  0.00     0.008 A 
ATOM      6  C   UNL     1     105.123 106.887 103.299  1.00  0.00     0.051 A 
ENDROOT
BRANCH   1   7
ATOM      7  O   UNL     1     104.069 105.181 101.875  1.00  0.00    -0.493 OA
ATOM      8  C   UNL     1     102.969 104.487 102.453  1.00  0.00     0.278 C 
ENDBRANCH   1   7
BRANCH   2   9
ATOM      9  O   UNL     1     106.365 103.689 101.909  1.00  0.00    -0.493 OA
ATOM     10  C   UNL     1     107.408 102.723 101.989  1.00  0.00     0.278 C 
ENDBRANCH   2   9
BRANCH   4  11
ATOM     11  C   UNL     1     108.612 107.067 104.807  1.00  0.00     0.062 C 
BRANCH  11  12
ATOM     12  C   UNL     1     108.282 107.148 106.271  1.00  0.00    -0.030 C 
ATOM     13  C   UNL     1     109.224 107.374 107.193  1.00  0.00     0.004 C 
ENDBRANCH  11  12
ENDBRANCH   4  11
TORSDOF 4
ENDMDL
