MODEL 1
REMARK VINA RESULT:    -4.053      0.000      0.000
REMARK INTER + INTRA:          -5.554
REMARK INTER:                  -5.357
REMARK INTRA:                  -0.197
REMARK UNBOUND:                -0.197
REMARK SMILES C=CCC[C@@H](O)CCC
REMARK SMILES IDX 4 1 5 2 7 3 8 4 9 5 6 6 3 8 2 9 1 10
REMARK H PARENT 6 7
REMARK Flexibility Score: inf
ROOT
ATOM      1  C   UNL     1      14.171  12.596  36.750  1.00  0.00     0.036 C 
ENDROOT
BRANCH   1   2
ATOM      2  C   UNL     1      14.502  11.726  35.520  1.00  0.00     0.114 C 
BRANCH   2   3
ATOM      3  C   UNL     1      13.675  12.136  34.283  1.00  0.00     0.031 C 
BRANCH   3   4
ATOM      4  C   UNL     1      13.594  13.651  34.012  1.00  0.00    -0.001 C 
ATOM      5  C   UNL     1      12.271  14.080  33.379  1.00  0.00     0.004 C 
ENDBRANCH   3   4
ENDBRANCH   2   3
BRANCH   2   6
ATOM      6  O   UNL     1      14.214  10.380  35.803  1.00  0.00    -0.393 OA
ATOM      7  H   UNL     1      13.388  10.141  35.305  1.00  0.00     0.210 HD
ENDBRANCH   2   6
ENDBRANCH   1   2
BRANCH   1   8
ATOM      8  C   UNL     1      15.434  13.200  37.383  1.00  0.00     0.029 C 
BRANCH   8   9
ATOM      9  C   UNL     1      15.107  13.941  38.651  1.00  0.00    -0.035 C 
ATOM     10  C   UNL     1      15.828  13.782  39.765  1.00  0.00     0.004 C 
ENDBRANCH   8   9
ENDBRANCH   1   8
TORSDOF 6
ENDMDL
MODEL 2
REMARK VINA RESULT:    -3.924      0.684      4.416
REMARK INTER + INTRA:          -5.382
REMARK INTER:                  -5.115
REMARK INTRA:                  -0.267
REMARK UNBOUND:                -0.197
REMARK SMILES C=CCC[C@@H](O)CCC
REMARK SMILES IDX 4 1 5 2 7 3 8 4 9 5 6 6 3 8 2 9 1 10
REMARK H PARENT 6 7
REMARK Flexibility Score: inf
ROOT
ATOM      1  C   UNL     1      13.387  11.949  34.409  1.00  0.00     0.036 C 
ENDROOT
BRANCH   1   2
ATOM      2  C   UNL     1      13.758  11.501  35.837  1.00  0.00     0.114 C 
BRANCH   2   3
ATOM      3  C   UNL     1      14.132  12.696  36.740  1.00  0.00     0.031 C 
BRANCH   3   4
ATOM      4  C   UNL     1      15.548  12.652  37.345  1.00  0.00    -0.001 C 
ATOM      5  C   UNL     1      15.646  13.351  38.700  1.00  0.00     0.004 C 
ENDBRANCH   3   4
ENDBRANCH   2   3
BRANCH   2   6
ATOM      6  O   UNL     1      14.866  10.637  35.787  1.00  0.00    -0.393 OA
ATOM      7  H   UNL     1      15.647  11.133  36.147  1.00  0.00     0.210 HD
ENDBRANCH   2   6
ENDBRANCH   1   2
BRANCH   1   8
ATOM      8  C   UNL     1      14.092  13.256  34.015  1.00  0.00     0.029 C 
BRANCH   8   9
ATOM      9  C   UNL     1      13.216  14.102  33.131  1.00  0.00    -0.035 C 
ATOM     10  C   UNL     1      11.887  14.125  33.272  1.00  0.00     0.004 C 
ENDBRANCH   8   9
ENDBRANCH   1   8
TORSDOF 6
ENDMDL
MODEL 3
REMARK VINA RESULT:    -3.879      1.618      4.941
REMARK INTER + INTRA:          -5.324
REMARK INTER:                  -5.051
REMARK INTRA:                  -0.273
REMARK UNBOUND:                -0.197
REMARK SMILES C=CCC[C@@H](O)CCC
REMARK SMILES IDX 4 1 5 2 7 3 8 4 9 5 6 6 3 8 2 9 1 10
REMARK H PARENT 6 7
REMARK Flexibility Score: inf
ROOT
ATOM      1  C   UNL     1      13.944  12.408  36.919  1.00  0.00     0.036 C 
ENDROOT
BRANCH   1   2
ATOM      2  C   UNL     1      15.061  13.155  37.677  1.00  0.00     0.114 C 
BRANCH   2   3
ATOM      3  C   UNL     1      14.493  14.111  38.747  1.00  0.00     0.031 C 
BRANCH   3   4
ATOM      4  C   UNL     1      15.247  14.124  40.091  1.00  0.00    -0.001 C 
ATOM      5  C   UNL     1      16.372  13.092  40.161  1.00  0.00     0.004 C 
ENDBRANCH   3   4
ENDBRANCH   2   3
BRANCH   2   6
ATOM      6  O   UNL     1      15.814  13.921  36.771  1.00  0.00    -0.393 OA
ATOM      7  H   UNL     1      15.556  14.872  36.898  1.00  0.00     0.210 HD
ENDBRANCH   2   6
ENDBRANCH   1   2
BRANCH   1   8
ATOM      8  C   UNL     1      14.505  11.293  36.023  1.00  0.00     0.029 C 
BRANCH   8   9
ATOM      9  C   UNL     1      14.043  11.454  34.600  1.00  0.00    -0.035 C 
ATOM     10  C   UNL     1      13.469  12.582  34.170  1.00  0.00     0.004 C 
ENDBRANCH   8   9
ENDBRANCH   1   8
TORSDOF 6
ENDMDL
MODEL 4
REMARK VINA RESULT:    -3.844     18.509     20.599
REMARK INTER + INTRA:          -5.276
REMARK INTER:                  -4.888
REMARK INTRA:                  -0.388
REMARK UNBOUND:                -0.197
REMARK SMILES C=CCC[C@@H](O)CCC
REMARK SMILES IDX 4 1 5 2 7 3 8 4 9 5 6 6 3 8 2 9 1 10
REMARK H PARENT 6 7
REMARK Flexibility Score: inf
ROOT
ATOM      1  C   UNL     1       6.620  -2.150  24.956  1.00  0.00     0.036 C 
ENDROOT
BRANCH   1   2
ATOM      2  C   UNL     1       6.754  -0.821  24.186  1.00  0.00     0.114 C 
BRANCH   2   3
ATOM      3  C   UNL     1       8.230  -0.425  23.968  1.00  0.00     0.031 C 
BRANCH   3   4
ATOM      4  C   UNL     1       9.258  -1.553  24.185  1.00  0.00    -0.001 C 
ATOM      5  C   UNL     1      10.364  -1.178  25.171  1.00  0.00     0.004 C 
ENDBRANCH   3   4
ENDBRANCH   2   3
BRANCH   2   6
ATOM      6  O   UNL     1       6.136   0.211  24.914  1.00  0.00    -0.393 OA
ATOM      7  H   UNL     1       6.687   1.029  24.798  1.00  0.00     0.210 HD
ENDBRANCH   2   6
ENDBRANCH   1   2
BRANCH   1   8
ATOM      8  C   UNL     1       5.604  -3.096  24.297  1.00  0.00     0.029 C 
BRANCH   8   9
ATOM      9  C   UNL     1       6.154  -4.492  24.185  1.00  0.00    -0.035 C 
ATOM     10  C   UNL     1       7.434  -4.722  23.875  1.00  0.00     0.004 C 
ENDBRANCH   8   9
ENDBRANCH   1   8
TORSDOF 6
ENDMDL
MODEL 5
REMARK VINA RESULT:    -3.795      1.900      2.598
REMARK INTER + INTRA:          -5.212
REMARK INTER:                  -5.097
REMARK INTRA:                  -0.116
REMARK UNBOUND:                -0.197
REMARK SMILES C=CCC[C@@H](O)CCC
REMARK SMILES IDX 4 1 5 2 7 3 8 4 9 5 6 6 3 8 2 9 1 10
REMARK H PARENT 6 7
REMARK Flexibility Score: inf
ROOT
ATOM      1  C   UNL     1      15.490  13.432  38.185  1.00  0.00     0.036 C 
ENDROOT
BRANCH   1   2
ATOM      2  C   UNL     1      14.499  13.602  37.015  1.00  0.00     0.114 C 
BRANCH   2   3
ATOM      3  C   UNL     1      13.816  12.271  36.636  1.00  0.00     0.031 C 
BRANCH   3   4
ATOM      4  C   UNL     1      14.524  11.451  35.540  1.00  0.00    -0.001 C 
ATOM      5  C   UNL     1      13.755  11.422  34.219  1.00  0.00     0.004 C 
ENDBRANCH   3   4
ENDBRANCH   2   3
BRANCH   2   6
ATOM      6  O   UNL     1      15.185  14.071  35.881  1.00  0.00    -0.393 OA
ATOM      7  H   UNL     1      14.509  14.245  35.175  1.00  0.00     0.210 HD
ENDBRANCH   2   6
ENDBRANCH   1   2
BRANCH   1   8
ATOM      8  C   UNL     1      14.981  14.101  39.470  1.00  0.00     0.029 C 
BRANCH   8   9
ATOM      9  C   UNL     1      16.044  14.115  40.535  1.00  0.00    -0.035 C 
ATOM     10  C   UNL     1      16.876  13.083  40.712  1.00  0.00     0.004 C 
ENDBRANCH   8   9
ENDBRANCH   1   8
TORSDOF 6
ENDMDL
MODEL 6
REMARK VINA RESULT:    -3.720     19.575     21.402
REMARK INTER + INTRA:          -5.112
REMARK INTER:                  -5.027
REMARK INTRA:                  -0.085
REMARK UNBOUND:                -0.197
REMARK SMILES C=CCC[C@@H](O)CCC
REMARK SMILES IDX 4 1 5 2 7 3 8 4 9 5 6 6 3 8 2 9 1 10
REMARK H PARENT 6 7
REMARK Flexibility Score: inf
ROOT
ATOM      1  C   UNL     1       7.011  -2.712  24.481  1.00  0.00     0.036 C 
ENDROOT
BRANCH   1   2
ATOM      2  C   UNL     1       6.415  -4.060  24.026  1.00  0.00     0.114 C 
BRANCH   2   3
ATOM      3  C   UNL     1       5.053  -4.344  24.693  1.00  0.00     0.031 C 
BRANCH   3   4
ATOM      4  C   UNL     1       3.815  -3.924  23.876  1.00  0.00    -0.001 C 
ATOM      5  C   UNL     1       3.533  -2.424  23.940  1.00  0.00     0.004 C 
ENDBRANCH   3   4
ENDBRANCH   2   3
BRANCH   2   6
ATOM      6  O   UNL     1       7.290  -5.104  24.375  1.00  0.00    -0.393 OA
ATOM      7  H   UNL     1       8.125  -4.979  23.852  1.00  0.00     0.210 HD
ENDBRANCH   2   6
ENDBRANCH   1   2
BRANCH   1   8
ATOM      8  C   UNL     1       8.442  -2.511  23.960  1.00  0.00     0.029 C 
BRANCH   8   9
ATOM      9  C   UNL     1       9.024  -1.214  24.452  1.00  0.00    -0.035 C 
ATOM     10  C   UNL     1       8.717  -0.044  23.884  1.00  0.00     0.004 C 
ENDBRANCH   8   9
ENDBRANCH   1   8
TORSDOF 6
ENDMDL
MODEL 7
REMARK VINA RESULT:    -3.460      2.605      5.842
REMARK INTER + INTRA:          -4.769
REMARK INTER:                  -4.653
REMARK INTRA:                  -0.116
REMARK UNBOUND:                -0.197
REMARK SMILES C=CCC[C@@H](O)CCC
REMARK SMILES IDX 4 1 5 2 7 3 8 4 9 5 6 6 3 8 2 9 1 10
REMARK H PARENT 6 7
REMARK Flexibility Score: inf
ROOT
ATOM      1  C   UNL     1      15.521  13.093  37.867  1.00  0.00     0.036 C 
ENDROOT
BRANCH   1   2
ATOM      2  C   UNL     1      15.614  13.902  39.178  1.00  0.00     0.114 C 
BRANCH   2   3
ATOM      3  C   UNL     1      16.427  13.160  40.260  1.00  0.00     0.031 C 
BRANCH   3   4
ATOM      4  C   UNL     1      17.263  14.057  41.192  1.00  0.00    -0.001 C 
ATOM      5  C   UNL     1      18.474  13.342  41.790  1.00  0.00     0.004 C 
ENDBRANCH   3   4
ENDBRANCH   2   3
BRANCH   2   6
ATOM      6  O   UNL     1      14.323  14.125  39.687  1.00  0.00    -0.393 OA
ATOM      7  H   UNL     1      14.111  13.374  40.301  1.00  0.00     0.210 HD
ENDBRANCH   2   6
ENDBRANCH   1   2
BRANCH   1   8
ATOM      8  C   UNL     1      14.146  13.238  37.199  1.00  0.00     0.029 C 
BRANCH   8   9
ATOM      9  C   UNL     1      13.714  11.947  36.558  1.00  0.00    -0.035 C 
ATOM     10  C   UNL     1      14.531  11.246  35.766  1.00  0.00     0.004 C 
ENDBRANCH   8   9
ENDBRANCH   1   8
TORSDOF 6
ENDMDL
MODEL 8
REMARK VINA RESULT:    -3.453     18.785     20.676
REMARK INTER + INTRA:          -4.760
REMARK INTER:                  -4.773
REMARK INTRA:                   0.012
REMARK UNBOUND:                -0.197
REMARK SMILES C=CCC[C@@H](O)CCC
REMARK SMILES IDX 4 1 5 2 7 3 8 4 9 5 6 6 3 8 2 9 1 10
REMARK H PARENT 6 7
REMARK Flexibility Score: inf
ROOT
ATOM      1  C   UNL     1       7.212  -2.094  24.919  1.00  0.00     0.036 C 
ENDROOT
BRANCH   1   2
ATOM      2  C   UNL     1       5.701  -1.790  25.004  1.00  0.00     0.114 C 
BRANCH   2   3
ATOM      3  C   UNL     1       4.882  -2.648  24.017  1.00  0.00     0.031 C 
BRANCH   3   4
ATOM      4  C   UNL     1       4.769  -4.143  24.374  1.00  0.00    -0.001 C 
ATOM      5  C   UNL     1       5.953  -4.971  23.878  1.00  0.00     0.004 C 
ENDBRANCH   3   4
ENDBRANCH   2   3
BRANCH   2   6
ATOM      6  O   UNL     1       5.474  -0.438  24.691  1.00  0.00    -0.393 OA
ATOM      7  H   UNL     1       4.700  -0.133  25.233  1.00  0.00     0.210 HD
ENDBRANCH   2   6
ENDBRANCH   1   2
BRANCH   1   8
ATOM      8  C   UNL     1       7.980  -0.985  24.184  1.00  0.00     0.029 C 
BRANCH   8   9
ATOM      9  C   UNL     1       9.447  -1.308  24.093  1.00  0.00    -0.035 C 
ATOM     10  C   UNL     1      10.284  -1.073  25.109  1.00  0.00     0.004 C 
ENDBRANCH   8   9
ENDBRANCH   1   8
TORSDOF 6
ENDMDL
MODEL 9
REMARK VINA RESULT:    -2.771     19.215     21.304
REMARK INTER + INTRA:          -3.859
REMARK INTER:                  -3.738
REMARK INTRA:                  -0.122
REMARK UNBOUND:                -0.197
REMARK SMILES C=CCC[C@@H](O)CCC
REMARK SMILES IDX 4 1 5 2 7 3 8 4 9 5 6 6 3 8 2 9 1 10
REMARK H PARENT 6 7
REMARK Flexibility Score: inf
ROOT
ATOM      1  C   UNL     1       5.796  -2.522  24.034  1.00  0.00     0.036 C 
ENDROOT
BRANCH   1   2
ATOM      2  C   UNL     1       7.192  -2.452  24.686  1.00  0.00     0.114 C 
BRANCH   2   3
ATOM      3  C   UNL     1       8.032  -1.281  24.132  1.00  0.00     0.031 C 
BRANCH   3   4
ATOM      4  C   UNL     1       9.560  -1.477  24.189  1.00  0.00    -0.001 C 
ATOM      5  C   UNL     1      10.244  -0.582  25.222  1.00  0.00     0.004 C 
ENDBRANCH   3   4
ENDBRANCH   2   3
BRANCH   2   6
ATOM      6  O   UNL     1       7.893  -3.643  24.429  1.00  0.00    -0.393 OA
ATOM      7  H   UNL     1       7.493  -4.055  23.618  1.00  0.00     0.210 HD
ENDBRANCH   2   6
ENDBRANCH   1   2
BRANCH   1   8
ATOM      8  C   UNL     1       5.307  -3.969  23.876  1.00  0.00     0.029 C 
BRANCH   8   9
ATOM      9  C   UNL     1       3.804  -4.039  23.876  1.00  0.00    -0.035 C 
ATOM     10  C   UNL     1       3.048  -2.936  23.875  1.00  0.00     0.004 C 
ENDBRANCH   8   9
ENDBRANCH   1   8
TORSDOF 6
ENDMDL
