MODEL 1
REMARK VINA RESULT:    -2.503      0.000      0.000
REMARK INTER + INTRA:          -2.503
REMARK INTER:                  -2.503
REMARK INTRA:                   0.000
REMARK UNBOUND:                 0.000
REMARK SMILES CC(=O)[O-]
REMARK SMILES IDX 1 1 2 2 3 3 4 4
REMARK H PARENT
REMARK Flexibility Score: inf
ROOT
ATOM      1  C   UNL     1       5.260 -13.274   6.432  1.00  0.00     0.063 C 
ATOM      2  C   UNL     1       5.633 -11.993   7.097  1.00  0.00     0.038 C 
ATOM      3  O   UNL     1       4.773 -11.086   7.247  1.00  0.00    -0.550 OA
ATOM      4  O   UNL     1       6.914 -11.819   7.603  1.00  0.00    -0.550 OA
ENDROOT
TORSDOF 0
ENDMDL
MODEL 2
REMARK VINA RESULT:    -2.489      0.108      1.620
REMARK INTER + INTRA:          -2.489
REMARK INTER:                  -2.489
REMARK INTRA:                   0.000
REMARK UNBOUND:                 0.000
REMARK SMILES CC(=O)[O-]
REMARK SMILES IDX 1 1 2 2 3 3 4 4
REMARK H PARENT
REMARK Flexibility Score: inf
ROOT
ATOM      1  C   UNL     1       5.279 -13.222   6.455  1.00  0.00     0.063 C 
ATOM      2  C   UNL     1       5.692 -11.962   7.137  1.00  0.00     0.038 C 
ATOM      3  O   UNL     1       6.867 -11.834   7.570  1.00  0.00    -0.550 OA
ATOM      4  O   UNL     1       4.798 -10.905   7.247  1.00  0.00    -0.550 OA
ENDROOT
TORSDOF 0
ENDMDL
MODEL 3
REMARK VINA RESULT:    -2.421      1.404      1.776
REMARK INTER + INTRA:          -2.421
REMARK INTER:                  -2.421
REMARK INTRA:                   0.000
REMARK UNBOUND:                 0.000
REMARK SMILES CC(=O)[O-]
REMARK SMILES IDX 1 1 2 2 3 3 4 4
REMARK H PARENT
REMARK Flexibility Score: inf
ROOT
ATOM      1  C   UNL     1       6.796 -11.493   7.639  1.00  0.00     0.063 C 
ATOM      2  C   UNL     1       5.474 -11.959   7.131  1.00  0.00     0.038 C 
ATOM      3  O   UNL     1       4.475 -11.194   7.176  1.00  0.00    -0.550 OA
ATOM      4  O   UNL     1       5.354 -13.217   6.556  1.00  0.00    -0.550 OA
ENDROOT
TORSDOF 0
ENDMDL
MODEL 4
REMARK VINA RESULT:    -2.325      1.409      1.988
REMARK INTER + INTRA:          -2.325
REMARK INTER:                  -2.325
REMARK INTRA:                   0.000
REMARK UNBOUND:                 0.000
REMARK SMILES CC(=O)[O-]
REMARK SMILES IDX 1 1 2 2 3 3 4 4
REMARK H PARENT
REMARK Flexibility Score: inf
ROOT
ATOM      1  C   UNL     1       4.535 -11.198   6.969  1.00  0.00     0.063 C 
ATOM      2  C   UNL     1       5.656 -12.181   6.995  1.00  0.00     0.038 C 
ATOM      3  O   UNL     1       6.775 -11.849   7.468  1.00  0.00    -0.550 OA
ATOM      4  O   UNL     1       5.454 -13.480   6.548  1.00  0.00    -0.550 OA
ENDROOT
TORSDOF 0
ENDMDL
MODEL 5
REMARK VINA RESULT:    -2.056     14.767     14.999
REMARK INTER + INTRA:          -2.056
REMARK INTER:                  -2.056
REMARK INTRA:                   0.000
REMARK UNBOUND:                 0.000
REMARK SMILES CC(=O)[O-]
REMARK SMILES IDX 1 1 2 2 3 3 4 4
REMARK H PARENT
REMARK Flexibility Score: inf
ROOT
ATOM      1  C   UNL     1      12.237  -3.651  16.220  1.00  0.00     0.063 C 
ATOM      2  C   UNL     1      13.351  -2.701  15.938  1.00  0.00     0.038 C 
ATOM      3  O   UNL     1      13.107  -1.478  15.761  1.00  0.00    -0.550 OA
ATOM      4  O   UNL     1      14.664  -3.150  15.926  1.00  0.00    -0.550 OA
ENDROOT
TORSDOF 0
ENDMDL
MODEL 6
REMARK VINA RESULT:    -2.049     14.392     14.939
REMARK INTER + INTRA:          -2.049
REMARK INTER:                  -2.049
REMARK INTRA:                   0.000
REMARK UNBOUND:                 0.000
REMARK SMILES CC(=O)[O-]
REMARK SMILES IDX 1 1 2 2 3 3 4 4
REMARK H PARENT
REMARK Flexibility Score: inf
ROOT
ATOM      1  C   UNL     1      14.441  -3.439  16.238  1.00  0.00     0.063 C 
ATOM      2  C   UNL     1      13.139  -2.770  15.955  1.00  0.00     0.038 C 
ATOM      3  O   UNL     1      13.097  -1.526  15.762  1.00  0.00    -0.550 OA
ATOM      4  O   UNL     1      11.978  -3.523  15.850  1.00  0.00    -0.550 OA
ENDROOT
TORSDOF 0
ENDMDL
MODEL 7
REMARK VINA RESULT:    -2.025      6.473      6.651
REMARK INTER + INTRA:          -2.025
REMARK INTER:                  -2.025
REMARK INTRA:                   0.000
REMARK UNBOUND:                 0.000
REMARK SMILES CC(=O)[O-]
REMARK SMILES IDX 1 1 2 2 3 3 4 4
REMARK H PARENT
REMARK Flexibility Score: inf
ROOT
ATOM      1  C   UNL     1       6.682 -12.213  -0.098  1.00  0.00     0.063 C 
ATOM      2  C   UNL     1       7.171 -13.176   0.930  1.00  0.00     0.038 C 
ATOM      3  O   UNL     1       6.379 -13.630   1.798  1.00  0.00    -0.550 OA
ATOM      4  O   UNL     1       8.487 -13.617   0.901  1.00  0.00    -0.550 OA
ENDROOT
TORSDOF 0
ENDMDL
MODEL 8
REMARK VINA RESULT:    -1.985      2.327      2.572
REMARK INTER + INTRA:          -1.985
REMARK INTER:                  -1.985
REMARK INTRA:                   0.000
REMARK UNBOUND:                 0.000
REMARK SMILES CC(=O)[O-]
REMARK SMILES IDX 1 1 2 2 3 3 4 4
REMARK H PARENT
REMARK Flexibility Score: inf
ROOT
ATOM      1  C   UNL     1       4.729 -11.501   6.923  1.00  0.00     0.063 C 
ATOM      2  C   UNL     1       4.164 -10.123   6.847  1.00  0.00     0.038 C 
ATOM      3  O   UNL     1       2.929  -9.938   7.009  1.00  0.00    -0.550 OA
ATOM      4  O   UNL     1       5.005  -9.036   6.652  1.00  0.00    -0.550 OA
ENDROOT
TORSDOF 0
ENDMDL
MODEL 9
REMARK VINA RESULT:    -1.947      2.652      2.952
REMARK INTER + INTRA:          -1.947
REMARK INTER:                  -1.947
REMARK INTRA:                   0.000
REMARK UNBOUND:                 0.000
REMARK SMILES CC(=O)[O-]
REMARK SMILES IDX 1 1 2 2 3 3 4 4
REMARK H PARENT
REMARK Flexibility Score: inf
ROOT
ATOM      1  C   UNL     1       5.228 -13.373   6.485  1.00  0.00     0.063 C 
ATOM      2  C   UNL     1       4.680 -13.146   5.117  1.00  0.00     0.038 C 
ATOM      3  O   UNL     1       4.091 -12.067   4.844  1.00  0.00    -0.550 OA
ATOM      4  O   UNL     1       4.868 -14.099   4.124  1.00  0.00    -0.550 OA
ENDROOT
TORSDOF 0
ENDMDL
