MODEL 1
REMARK VINA RESULT:    -5.058      0.000      0.000
REMARK INTER + INTRA:          -6.923
REMARK INTER:                  -6.536
REMARK INTRA:                  -0.387
REMARK UNBOUND:                -0.387
REMARK SMILES CCO[C@H]1O[C@H](CO)[C@H](O)[C@@H](O)[C@@H]1O
REMARK SMILES IDX 4 1 13 2 11 3 9 4 6 5 5 6 3 7 2 8 1 9 14 10 12 12 7 14 8 15
REMARK SMILES IDX 10 17
REMARK H PARENT 14 11 12 13 8 16 10 18
REMARK Flexibility Score: inf
ROOT
ATOM      1  C   UNL     1      40.470  39.222  24.615  1.00  0.00     0.281 C 
ATOM      2  C   UNL     1      40.315  40.676  24.107  1.00  0.00     0.202 C 
ATOM      3  C   UNL     1      40.419  40.755  22.567  1.00  0.00     0.179 C 
ATOM      4  C   UNL     1      41.607  39.931  22.035  1.00  0.00     0.177 C 
ATOM      5  C   UNL     1      41.618  38.523  22.686  1.00  0.00     0.178 C 
ATOM      6  O   UNL     1      41.649  38.616  24.101  1.00  0.00    -0.341 OA
ENDROOT
BRANCH   1   7
ATOM      7  O   UNL     1      39.328  38.446  24.272  1.00  0.00    -0.350 OA
BRANCH   7   8
ATOM      8  C   UNL     1      38.171  38.925  24.925  1.00  0.00     0.160 C 
ATOM      9  C   UNL     1      36.939  38.346  24.246  1.00  0.00     0.035 C 
ENDBRANCH   7   8
ENDBRANCH   1   7
BRANCH   2  10
ATOM     10  O   UNL     1      41.296  41.482  24.708  1.00  0.00    -0.385 OA
ATOM     11  H   UNL     1      41.050  41.567  25.666  1.00  0.00     0.211 HD
ENDBRANCH   2  10
BRANCH   3  12
ATOM     12  O   UNL     1      39.232  40.272  21.987  1.00  0.00    -0.387 OA
ATOM     13  H   UNL     1      38.515  40.921  22.210  1.00  0.00     0.211 HD
ENDBRANCH   3  12
BRANCH   5  14
ATOM     14  C   UNL     1      42.797  37.669  22.201  1.00  0.00     0.191 C 
BRANCH  14  15
ATOM     15  O   UNL     1      44.020  38.228  22.598  1.00  0.00    -0.394 OA
ATOM     16  H   UNL     1      44.481  37.532  23.135  1.00  0.00     0.210 HD
ENDBRANCH  14  15
ENDBRANCH   5  14
BRANCH   4  17
ATOM     17  O   UNL     1      42.820  40.622  22.222  1.00  0.00    -0.387 OA
ATOM     18  H   UNL     1      43.361  40.126  22.886  1.00  0.00     0.211 HD
ENDBRANCH   4  17
TORSDOF 7
ENDMDL
MODEL 2
REMARK VINA RESULT:    -4.534     11.266     13.304
REMARK INTER + INTRA:          -6.246
REMARK INTER:                  -6.132
REMARK INTRA:                  -0.114
REMARK UNBOUND:                -0.387
REMARK SMILES CCO[C@H]1O[C@H](CO)[C@H](O)[C@@H](O)[C@@H]1O
REMARK SMILES IDX 4 1 13 2 11 3 9 4 6 5 5 6 3 7 2 8 1 9 14 10 12 12 7 14 8 15
REMARK SMILES IDX 10 17
REMARK H PARENT 14 11 12 13 8 16 10 18
REMARK Flexibility Score: inf
ROOT
ATOM      1  C   UNL     1      48.801  30.621  15.986  1.00  0.00     0.281 C 
ATOM      2  C   UNL     1      49.257  30.678  17.463  1.00  0.00     0.202 C 
ATOM      3  C   UNL     1      48.292  31.524  18.325  1.00  0.00     0.179 C 
ATOM      4  C   UNL     1      47.930  32.852  17.633  1.00  0.00     0.177 C 
ATOM      5  C   UNL     1      47.540  32.597  16.153  1.00  0.00     0.178 C 
ATOM      6  O   UNL     1      48.578  31.923  15.461  1.00  0.00    -0.341 OA
ENDROOT
BRANCH   1   7
ATOM      7  O   UNL     1      47.627  29.828  15.853  1.00  0.00    -0.350 OA
BRANCH   7   8
ATOM      8  C   UNL     1      47.864  28.494  16.253  1.00  0.00     0.160 C 
ATOM      9  C   UNL     1      48.916  27.880  15.343  1.00  0.00     0.035 C 
ENDBRANCH   7   8
ENDBRANCH   1   7
BRANCH   2  10
ATOM     10  O   UNL     1      50.559  31.202  17.526  1.00  0.00    -0.385 OA
ATOM     11  H   UNL     1      50.491  32.086  17.969  1.00  0.00     0.211 HD
ENDBRANCH   2  10
BRANCH   3  12
ATOM     12  O   UNL     1      47.112  30.798  18.565  1.00  0.00    -0.387 OA
ATOM     13  H   UNL     1      47.331  30.102  19.239  1.00  0.00     0.211 HD
ENDBRANCH   3  12
BRANCH   5  14
ATOM     14  C   UNL     1      47.188  33.895  15.414  1.00  0.00     0.191 C 
BRANCH  14  15
ATOM     15  O   UNL     1      45.883  34.309  15.718  1.00  0.00    -0.394 OA
ATOM     16  H   UNL     1      45.566  33.713  16.446  1.00  0.00     0.210 HD
ENDBRANCH  14  15
ENDBRANCH   5  14
BRANCH   4  17
ATOM     17  O   UNL     1      48.975  33.786  17.762  1.00  0.00    -0.387 OA
ATOM     18  H   UNL     1      49.417  33.883  16.881  1.00  0.00     0.211 HD
ENDBRANCH   4  17
TORSDOF 7
ENDMDL
MODEL 3
REMARK VINA RESULT:    -4.526      1.708      3.422
REMARK INTER + INTRA:          -6.236
REMARK INTER:                  -5.787
REMARK INTRA:                  -0.449
REMARK UNBOUND:                -0.387
REMARK SMILES CCO[C@H]1O[C@H](CO)[C@H](O)[C@@H](O)[C@@H]1O
REMARK SMILES IDX 4 1 13 2 11 3 9 4 6 5 5 6 3 7 2 8 1 9 14 10 12 12 7 14 8 15
REMARK SMILES IDX 10 17
REMARK H PARENT 14 11 12 13 8 16 10 18
REMARK Flexibility Score: inf
ROOT
ATOM      1  C   UNL     1      40.247  39.010  23.829  1.00  0.00     0.281 C 
ATOM      2  C   UNL     1      40.471  39.439  22.359  1.00  0.00     0.202 C 
ATOM      3  C   UNL     1      41.655  40.424  22.228  1.00  0.00     0.179 C 
ATOM      4  C   UNL     1      41.593  41.531  23.298  1.00  0.00     0.177 C 
ATOM      5  C   UNL     1      41.323  40.913  24.694  1.00  0.00     0.178 C 
ATOM      6  O   UNL     1      40.134  40.138  24.687  1.00  0.00    -0.341 OA
ENDROOT
BRANCH   1   7
ATOM      7  O   UNL     1      41.299  38.159  24.270  1.00  0.00    -0.350 OA
BRANCH   7   8
ATOM      8  C   UNL     1      41.171  36.864  23.720  1.00  0.00     0.160 C 
ATOM      9  C   UNL     1      39.845  36.264  24.160  1.00  0.00     0.035 C 
ENDBRANCH   7   8
ENDBRANCH   1   7
BRANCH   2  10
ATOM     10  O   UNL     1      39.292  40.017  21.862  1.00  0.00    -0.385 OA
ATOM     11  H   UNL     1      39.316  40.977  22.112  1.00  0.00     0.211 HD
ENDBRANCH   2  10
BRANCH   3  12
ATOM     12  O   UNL     1      42.868  39.727  22.361  1.00  0.00    -0.387 OA
ATOM     13  H   UNL     1      43.006  39.564  23.330  1.00  0.00     0.211 HD
ENDBRANCH   3  12
BRANCH   5  14
ATOM     14  C   UNL     1      41.233  41.980  25.794  1.00  0.00     0.191 C 
BRANCH  14  15
ATOM     15  O   UNL     1      42.060  43.074  25.501  1.00  0.00    -0.394 OA
ATOM     16  H   UNL     1      42.598  43.240  26.318  1.00  0.00     0.210 HD
ENDBRANCH  14  15
ENDBRANCH   5  14
BRANCH   4  17
ATOM     17  O   UNL     1      40.646  42.513  22.949  1.00  0.00    -0.387 OA
ATOM     18  H   UNL     1      40.997  43.024  22.177  1.00  0.00     0.211 HD
ENDBRANCH   4  17
TORSDOF 7
ENDMDL
MODEL 4
REMARK VINA RESULT:    -4.487      1.752      3.664
REMARK INTER + INTRA:          -6.186
REMARK INTER:                  -5.800
REMARK INTRA:                  -0.385
REMARK UNBOUND:                -0.387
REMARK SMILES CCO[C@H]1O[C@H](CO)[C@H](O)[C@@H](O)[C@@H]1O
REMARK SMILES IDX 4 1 13 2 11 3 9 4 6 5 5 6 3 7 2 8 1 9 14 10 12 12 7 14 8 15
REMARK SMILES IDX 10 17
REMARK H PARENT 14 11 12 13 8 16 10 18
REMARK Flexibility Score: inf
ROOT
ATOM      1  C   UNL     1      40.897  39.002  22.731  1.00  0.00     0.281 C 
ATOM      2  C   UNL     1      41.715  40.315  22.697  1.00  0.00     0.202 C 
ATOM      3  C   UNL     1      40.955  41.476  23.380  1.00  0.00     0.179 C 
ATOM      4  C   UNL     1      39.483  41.534  22.930  1.00  0.00     0.177 C 
ATOM      5  C   UNL     1      38.847  40.121  22.994  1.00  0.00     0.178 C 
ATOM      6  O   UNL     1      39.586  39.193  22.216  1.00  0.00    -0.341 OA
ENDROOT
BRANCH   1   7
ATOM      7  O   UNL     1      40.836  38.483  24.054  1.00  0.00    -0.350 OA
BRANCH   7   8
ATOM      8  C   UNL     1      41.133  37.102  24.076  1.00  0.00     0.160 C 
ATOM      9  C   UNL     1      39.837  36.315  24.189  1.00  0.00     0.035 C 
ENDBRANCH   7   8
ENDBRANCH   1   7
BRANCH   2  10
ATOM     10  O   UNL     1      42.012  40.640  21.363  1.00  0.00    -0.385 OA
ATOM     11  H   UNL     1      41.696  39.883  20.806  1.00  0.00     0.211 HD
ENDBRANCH   2  10
BRANCH   3  12
ATOM     12  O   UNL     1      41.000  41.314  24.776  1.00  0.00    -0.387 OA
ATOM     13  H   UNL     1      41.321  40.392  24.952  1.00  0.00     0.211 HD
ENDBRANCH   3  12
BRANCH   5  14
ATOM     14  C   UNL     1      37.382  40.123  22.536  1.00  0.00     0.191 C 
BRANCH  14  15
ATOM     15  O   UNL     1      37.288  39.931  21.150  1.00  0.00    -0.394 OA
ATOM     16  H   UNL     1      37.899  39.178  20.933  1.00  0.00     0.210 HD
ENDBRANCH  14  15
ENDBRANCH   5  14
BRANCH   4  17
ATOM     17  O   UNL     1      39.372  42.119  21.654  1.00  0.00    -0.387 OA
ATOM     18  H   UNL     1      39.426  43.103  21.757  1.00  0.00     0.211 HD
ENDBRANCH   4  17
TORSDOF 7
ENDMDL
MODEL 5
REMARK VINA RESULT:    -4.473      1.708      3.193
REMARK INTER + INTRA:          -6.168
REMARK INTER:                  -5.808
REMARK INTRA:                  -0.359
REMARK UNBOUND:                -0.387
REMARK SMILES CCO[C@H]1O[C@H](CO)[C@H](O)[C@@H](O)[C@@H]1O
REMARK SMILES IDX 4 1 13 2 11 3 9 4 6 5 5 6 3 7 2 8 1 9 14 10 12 12 7 14 8 15
REMARK SMILES IDX 10 17
REMARK H PARENT 14 11 12 13 8 16 10 18
REMARK Flexibility Score: inf
ROOT
ATOM      1  C   UNL     1      40.005  41.269  23.290  1.00  0.00     0.281 C 
ATOM      2  C   UNL     1      41.542  41.342  23.124  1.00  0.00     0.202 C 
ATOM      3  C   UNL     1      42.113  40.028  22.543  1.00  0.00     0.179 C 
ATOM      4  C   UNL     1      41.525  38.792  23.248  1.00  0.00     0.177 C 
ATOM      5  C   UNL     1      39.983  38.920  23.357  1.00  0.00     0.178 C 
ATOM      6  O   UNL     1      39.616  40.116  24.025  1.00  0.00    -0.341 OA
ENDROOT
BRANCH   1   7
ATOM      7  O   UNL     1      39.361  41.285  22.022  1.00  0.00    -0.350 OA
BRANCH   7   8
ATOM      8  C   UNL     1      38.126  41.968  22.085  1.00  0.00     0.160 C 
ATOM      9  C   UNL     1      38.259  43.306  21.375  1.00  0.00     0.035 C 
ENDBRANCH   7   8
ENDBRANCH   1   7
BRANCH   2  10
ATOM     10  O   UNL     1      42.129  41.625  24.368  1.00  0.00    -0.385 OA
ATOM     11  H   UNL     1      42.079  40.792  24.905  1.00  0.00     0.211 HD
ENDBRANCH   2  10
BRANCH   3  12
ATOM     12  O   UNL     1      41.823  39.953  21.169  1.00  0.00    -0.387 OA
ATOM     13  H   UNL     1      41.277  39.135  21.031  1.00  0.00     0.211 HD
ENDBRANCH   3  12
BRANCH   5  14
ATOM     14  C   UNL     1      39.349  37.718  24.071  1.00  0.00     0.191 C 
BRANCH  14  15
ATOM     15  O   UNL     1      40.192  36.598  24.014  1.00  0.00    -0.394 OA
ATOM     16  H   UNL     1      40.186  36.202  24.924  1.00  0.00     0.210 HD
ENDBRANCH  14  15
ENDBRANCH   5  14
BRANCH   4  17
ATOM     17  O   UNL     1      42.139  38.587  24.498  1.00  0.00    -0.387 OA
ATOM     18  H   UNL     1      41.557  38.977  25.198  1.00  0.00     0.211 HD
ENDBRANCH   4  17
TORSDOF 7
ENDMDL
MODEL 6
REMARK VINA RESULT:    -4.336      2.275      4.187
REMARK INTER + INTRA:          -5.990
REMARK INTER:                  -5.703
REMARK INTRA:                  -0.287
REMARK UNBOUND:                -0.387
REMARK SMILES CCO[C@H]1O[C@H](CO)[C@H](O)[C@@H](O)[C@@H]1O
REMARK SMILES IDX 4 1 13 2 11 3 9 4 6 5 5 6 3 7 2 8 1 9 14 10 12 12 7 14 8 15
REMARK SMILES IDX 10 17
REMARK H PARENT 14 11 12 13 8 16 10 18
REMARK Flexibility Score: inf
ROOT
ATOM      1  C   UNL     1      39.366  39.939  23.038  1.00  0.00     0.281 C 
ATOM      2  C   UNL     1      37.819  39.921  23.045  1.00  0.00     0.202 C 
ATOM      3  C   UNL     1      37.265  38.993  24.150  1.00  0.00     0.179 C 
ATOM      4  C   UNL     1      38.000  37.639  24.175  1.00  0.00     0.177 C 
ATOM      5  C   UNL     1      39.534  37.860  24.122  1.00  0.00     0.178 C 
ATOM      6  O   UNL     1      39.900  38.623  22.983  1.00  0.00    -0.341 OA
ENDROOT
BRANCH   1   7
ATOM      7  O   UNL     1      39.865  40.626  24.180  1.00  0.00    -0.350 OA
BRANCH   7   8
ATOM      8  C   UNL     1      40.583  41.784  23.806  1.00  0.00     0.160 C 
ATOM      9  C   UNL     1      41.671  41.398  22.816  1.00  0.00     0.035 C 
ENDBRANCH   7   8
ENDBRANCH   1   7
BRANCH   2  10
ATOM     10  O   UNL     1      37.356  39.513  21.783  1.00  0.00    -0.385 OA
ATOM     11  H   UNL     1      38.014  39.841  21.116  1.00  0.00     0.211 HD
ENDBRANCH   2  10
BRANCH   3  12
ATOM     12  O   UNL     1      37.408  39.613  25.404  1.00  0.00    -0.387 OA
ATOM     13  H   UNL     1      37.184  38.934  26.092  1.00  0.00     0.211 HD
ENDBRANCH   3  12
BRANCH   5  14
ATOM     14  C   UNL     1      40.312  36.537  24.126  1.00  0.00     0.191 C 
BRANCH  14  15
ATOM     15  O   UNL     1      39.482  35.467  24.491  1.00  0.00    -0.394 OA
ATOM     16  H   UNL     1      40.048  34.652  24.452  1.00  0.00     0.210 HD
ENDBRANCH  14  15
ENDBRANCH   5  14
BRANCH   4  17
ATOM     17  O   UNL     1      37.539  36.800  23.143  1.00  0.00    -0.387 OA
ATOM     18  H   UNL     1      36.727  36.331  23.461  1.00  0.00     0.211 HD
ENDBRANCH   4  17
TORSDOF 7
ENDMDL
MODEL 7
REMARK VINA RESULT:    -4.316      1.527      3.096
REMARK INTER + INTRA:          -5.964
REMARK INTER:                  -5.629
REMARK INTRA:                  -0.335
REMARK UNBOUND:                -0.387
REMARK SMILES CCO[C@H]1O[C@H](CO)[C@H](O)[C@@H](O)[C@@H]1O
REMARK SMILES IDX 4 1 13 2 11 3 9 4 6 5 5 6 3 7 2 8 1 9 14 10 12 12 7 14 8 15
REMARK SMILES IDX 10 17
REMARK H PARENT 14 11 12 13 8 16 10 18
REMARK Flexibility Score: inf
ROOT
ATOM      1  C   UNL     1      39.595  40.127  23.047  1.00  0.00     0.281 C 
ATOM      2  C   UNL     1      39.584  39.882  24.575  1.00  0.00     0.202 C 
ATOM      3  C   UNL     1      41.002  39.579  25.113  1.00  0.00     0.179 C 
ATOM      4  C   UNL     1      41.739  38.557  24.227  1.00  0.00     0.177 C 
ATOM      5  C   UNL     1      41.605  38.949  22.732  1.00  0.00     0.178 C 
ATOM      6  O   UNL     1      40.242  39.066  22.356  1.00  0.00    -0.341 OA
ENDROOT
BRANCH   1   7
ATOM      7  O   UNL     1      40.222  41.368  22.742  1.00  0.00    -0.350 OA
BRANCH   7   8
ATOM      8  C   UNL     1      39.368  42.455  23.031  1.00  0.00     0.160 C 
ATOM      9  C   UNL     1      38.595  42.829  21.775  1.00  0.00     0.035 C 
ENDBRANCH   7   8
ENDBRANCH   1   7
BRANCH   2  10
ATOM     10  O   UNL     1      38.711  38.821  24.867  1.00  0.00    -0.385 OA
ATOM     11  H   UNL     1      38.461  38.409  24.000  1.00  0.00     0.211 HD
ENDBRANCH   2  10
BRANCH   3  12
ATOM     12  O   UNL     1      41.753  40.767  25.163  1.00  0.00    -0.387 OA
ATOM     13  H   UNL     1      42.329  40.782  24.355  1.00  0.00     0.211 HD
ENDBRANCH   3  12
BRANCH   5  14
ATOM     14  C   UNL     1      42.309  37.948  21.804  1.00  0.00     0.191 C 
BRANCH  14  15
ATOM     15  O   UNL     1      43.616  37.692  22.242  1.00  0.00    -0.394 OA
ATOM     16  H   UNL     1      43.757  36.715  22.133  1.00  0.00     0.210 HD
ENDBRANCH  14  15
ENDBRANCH   5  14
BRANCH   4  17
ATOM     17  O   UNL     1      41.286  37.250  24.486  1.00  0.00    -0.387 OA
ATOM     18  H   UNL     1      40.300  37.274  24.573  1.00  0.00     0.211 HD
ENDBRANCH   4  17
TORSDOF 7
ENDMDL
MODEL 8
REMARK VINA RESULT:    -4.271      1.574      3.404
REMARK INTER + INTRA:          -5.906
REMARK INTER:                  -5.749
REMARK INTRA:                  -0.157
REMARK UNBOUND:                -0.387
REMARK SMILES CCO[C@H]1O[C@H](CO)[C@H](O)[C@@H](O)[C@@H]1O
REMARK SMILES IDX 4 1 13 2 11 3 9 4 6 5 5 6 3 7 2 8 1 9 14 10 12 12 7 14 8 15
REMARK SMILES IDX 10 17
REMARK H PARENT 14 11 12 13 8 16 10 18
REMARK Flexibility Score: inf
ROOT
ATOM      1  C   UNL     1      39.987  38.611  24.540  1.00  0.00     0.281 C 
ATOM      2  C   UNL     1      38.464  38.879  24.596  1.00  0.00     0.202 C 
ATOM      3  C   UNL     1      38.016  39.852  23.481  1.00  0.00     0.179 C 
ATOM      4  C   UNL     1      38.956  41.067  23.378  1.00  0.00     0.177 C 
ATOM      5  C   UNL     1      40.436  40.603  23.376  1.00  0.00     0.178 C 
ATOM      6  O   UNL     1      40.728  39.824  24.526  1.00  0.00    -0.341 OA
ENDROOT
BRANCH   1   7
ATOM      7  O   UNL     1      40.316  37.819  23.405  1.00  0.00    -0.350 OA
BRANCH   7   8
ATOM      8  C   UNL     1      41.600  37.245  23.538  1.00  0.00     0.160 C 
ATOM      9  C   UNL     1      42.450  37.643  22.342  1.00  0.00     0.035 C 
ENDBRANCH   7   8
ENDBRANCH   1   7
BRANCH   2  10
ATOM     10  O   UNL     1      38.131  39.393  25.860  1.00  0.00    -0.385 OA
ATOM     11  H   UNL     1      37.196  39.718  25.801  1.00  0.00     0.211 HD
ENDBRANCH   2  10
BRANCH   3  12
ATOM     12  O   UNL     1      37.999  39.180  22.246  1.00  0.00    -0.387 OA
ATOM     13  H   UNL     1      38.833  38.644  22.195  1.00  0.00     0.211 HD
ENDBRANCH   3  12
BRANCH   5  14
ATOM     14  C   UNL     1      41.415  41.782  23.292  1.00  0.00     0.191 C 
BRANCH  14  15
ATOM     15  O   UNL     1      42.471  41.498  22.414  1.00  0.00    -0.394 OA
ATOM     16  H   UNL     1      43.238  41.226  22.983  1.00  0.00     0.210 HD
ENDBRANCH  14  15
ENDBRANCH   5  14
BRANCH   4  17
ATOM     17  O   UNL     1      38.684  42.000  24.396  1.00  0.00    -0.387 OA
ATOM     18  H   UNL     1      38.227  41.528  25.137  1.00  0.00     0.211 HD
ENDBRANCH   4  17
TORSDOF 7
ENDMDL
MODEL 9
REMARK VINA RESULT:    -4.200      1.871      3.360
REMARK INTER + INTRA:          -5.815
REMARK INTER:                  -5.381
REMARK INTRA:                  -0.434
REMARK UNBOUND:                -0.387
REMARK SMILES CCO[C@H]1O[C@H](CO)[C@H](O)[C@@H](O)[C@@H]1O
REMARK SMILES IDX 4 1 13 2 11 3 9 4 6 5 5 6 3 7 2 8 1 9 14 10 12 12 7 14 8 15
REMARK SMILES IDX 10 17
REMARK H PARENT 14 11 12 13 8 16 10 18
REMARK Flexibility Score: inf
ROOT
ATOM      1  C   UNL     1      40.819  41.354  24.702  1.00  0.00     0.281 C 
ATOM      2  C   UNL     1      39.274  41.329  24.628  1.00  0.00     0.202 C 
ATOM      3  C   UNL     1      38.745  39.930  24.235  1.00  0.00     0.179 C 
ATOM      4  C   UNL     1      39.531  39.340  23.048  1.00  0.00     0.177 C 
ATOM      5  C   UNL     1      41.056  39.492  23.286  1.00  0.00     0.178 C 
ATOM      6  O   UNL     1      41.404  40.850  23.508  1.00  0.00    -0.341 OA
ENDROOT
BRANCH   1   7
ATOM      7  O   UNL     1      41.280  40.614  25.827  1.00  0.00    -0.350 OA
BRANCH   7   8
ATOM      8  C   UNL     1      41.578  41.468  26.912  1.00  0.00     0.160 C 
ATOM      9  C   UNL     1      42.463  42.604  26.423  1.00  0.00     0.035 C 
ENDBRANCH   7   8
ENDBRANCH   1   7
BRANCH   2  10
ATOM     10  O   UNL     1      38.840  42.296  23.706  1.00  0.00    -0.385 OA
ATOM     11  H   UNL     1      39.208  43.166  24.008  1.00  0.00     0.211 HD
ENDBRANCH   2  10
BRANCH   3  12
ATOM     12  O   UNL     1      38.851  39.059  25.333  1.00  0.00    -0.387 OA
ATOM     13  H   UNL     1      39.012  38.150  24.968  1.00  0.00     0.211 HD
ENDBRANCH   3  12
BRANCH   5  14
ATOM     14  C   UNL     1      41.884  38.934  22.120  1.00  0.00     0.191 C 
BRANCH  14  15
ATOM     15  O   UNL     1      42.038  39.893  21.108  1.00  0.00    -0.394 OA
ATOM     16  H   UNL     1      42.271  39.391  20.284  1.00  0.00     0.210 HD
ENDBRANCH  14  15
ENDBRANCH   5  14
BRANCH   4  17
ATOM     17  O   UNL     1      39.113  39.916  21.834  1.00  0.00    -0.387 OA
ATOM     18  H   UNL     1      38.145  39.740  21.722  1.00  0.00     0.211 HD
ENDBRANCH   4  17
TORSDOF 7
ENDMDL
