MODEL 1
REMARK VINA RESULT:    -0.212      0.000      0.000
REMARK INTER + INTRA:          -0.319
REMARK INTER:                  -0.224
REMARK INTRA:                  -0.094
REMARK UNBOUND:                -0.094
REMARK SMILES C=C(C)[C@H]1CC=C(C)C(=O)C1
REMARK SMILES IDX 8 1 7 2 6 3 5 4 4 5 11 6 9 7 10 8 2 9 1 10 3 11
REMARK H PARENT
REMARK Flexibility Score: inf
ROOT
ATOM      1  C   UNL     1     138.629 136.890 135.467  1.00  0.00     0.048 C 
ATOM      2  C   UNL     1     138.825 137.155 136.934  1.00  0.00    -0.012 C 
ATOM      3  C   UNL     1     138.601 136.176 137.828  1.00  0.00    -0.019 C 
ATOM      4  C   UNL     1     138.765 136.393 139.309  1.00  0.00     0.036 C 
ATOM      5  C   UNL     1     139.886 137.410 139.599  1.00  0.00     0.025 C 
ATOM      6  C   UNL     1     139.623 138.725 138.842  1.00  0.00     0.089 C 
ATOM      7  C   UNL     1     139.383 138.456 137.382  1.00  0.00     0.158 C 
ATOM      8  O   UNL     1     139.627 139.364 136.542  1.00  0.00    -0.295 OA
ENDROOT
BRANCH   5   9
ATOM      9  C   UNL     1     140.046 137.651 141.093  1.00  0.00    -0.077 C 
ATOM     10  C   UNL     1     140.125 136.611 141.938  1.00  0.00     0.008 C 
ATOM     11  C   UNL     1     140.121 139.047 141.661  1.00  0.00     0.039 C 
ENDBRANCH   5   9
TORSDOF 1
ENDMDL
MODEL 2
REMARK VINA RESULT:    -0.181      3.884      4.590
REMARK INTER + INTRA:          -0.286
REMARK INTER:                  -0.188
REMARK INTRA:                  -0.098
REMARK UNBOUND:                -0.094
REMARK SMILES C=C(C)[C@H]1CC=C(C)C(=O)C1
REMARK SMILES IDX 8 1 7 2 6 3 5 4 4 5 11 6 9 7 10 8 2 9 1 10 3 11
REMARK H PARENT
REMARK Flexibility Score: inf
ROOT
ATOM      1  C   UNL     1     133.747 135.242 140.260  1.00  0.00     0.048 C 
ATOM      2  C   UNL     1     135.085 135.706 140.767  1.00  0.00    -0.012 C 
ATOM      3  C   UNL     1     136.207 135.093 140.353  1.00  0.00    -0.019 C 
ATOM      4  C   UNL     1     137.570 135.506 140.843  1.00  0.00     0.036 C 
ATOM      5  C   UNL     1     137.622 137.020 141.125  1.00  0.00     0.025 C 
ATOM      6  C   UNL     1     136.504 137.419 142.106  1.00  0.00     0.089 C 
ATOM      7  C   UNL     1     135.172 136.917 141.622  1.00  0.00     0.158 C 
ATOM      8  O   UNL     1     134.123 137.515 141.982  1.00  0.00    -0.295 OA
ENDROOT
BRANCH   5   9
ATOM      9  C   UNL     1     138.990 137.444 141.639  1.00  0.00    -0.077 C 
ATOM     10  C   UNL     1     139.998 136.558 141.682  1.00  0.00     0.008 C 
ATOM     11  C   UNL     1     139.252 138.855 142.108  1.00  0.00     0.039 C 
ENDBRANCH   5   9
TORSDOF 1
ENDMDL
MODEL 3
REMARK VINA RESULT:    -0.166     21.669     22.940
REMARK INTER + INTRA:          -0.270
REMARK INTER:                  -0.173
REMARK INTRA:                  -0.097
REMARK UNBOUND:                -0.094
REMARK SMILES C=C(C)[C@H]1CC=C(C)C(=O)C1
REMARK SMILES IDX 8 1 7 2 6 3 5 4 4 5 11 6 9 7 10 8 2 9 1 10 3 11
REMARK H PARENT
REMARK Flexibility Score: inf
ROOT
ATOM      1  C   UNL     1     125.695 123.119 139.237  1.00  0.00     0.048 C 
ATOM      2  C   UNL     1     124.375 122.947 139.935  1.00  0.00    -0.012 C 
ATOM      3  C   UNL     1     123.229 123.081 139.245  1.00  0.00    -0.019 C 
ATOM      4  C   UNL     1     121.880 122.935 139.899  1.00  0.00     0.036 C 
ATOM      5  C   UNL     1     121.929 121.911 141.049  1.00  0.00     0.025 C 
ATOM      6  C   UNL     1     123.029 122.291 142.057  1.00  0.00     0.089 C 
ATOM      7  C   UNL     1     124.340 122.507 141.353  1.00  0.00     0.158 C 
ATOM      8  O   UNL     1     125.414 122.346 141.993  1.00  0.00    -0.295 OA
ENDROOT
BRANCH   5   9
ATOM      9  C   UNL     1     120.575 121.772 141.729  1.00  0.00    -0.077 C 
ATOM     10  C   UNL     1     119.876 122.867 142.067  1.00  0.00     0.008 C 
ATOM     11  C   UNL     1     119.986 120.417 142.038  1.00  0.00     0.039 C 
ENDBRANCH   5   9
TORSDOF 1
ENDMDL
MODEL 4
REMARK VINA RESULT:    -0.152      2.083      2.414
REMARK INTER + INTRA:          -0.255
REMARK INTER:                  -0.157
REMARK INTRA:                  -0.099
REMARK UNBOUND:                -0.094
REMARK SMILES C=C(C)[C@H]1CC=C(C)C(=O)C1
REMARK SMILES IDX 8 1 7 2 6 3 5 4 4 5 11 6 9 7 10 8 2 9 1 10 3 11
REMARK H PARENT
REMARK Flexibility Score: inf
ROOT
ATOM      1  C   UNL     1     137.440 135.542 136.400  1.00  0.00     0.048 C 
ATOM      2  C   UNL     1     137.844 136.108 137.733  1.00  0.00    -0.012 C 
ATOM      3  C   UNL     1     139.146 136.236 138.039  1.00  0.00    -0.019 C 
ATOM      4  C   UNL     1     139.605 136.780 139.367  1.00  0.00     0.036 C 
ATOM      5  C   UNL     1     138.617 137.831 139.906  1.00  0.00     0.025 C 
ATOM      6  C   UNL     1     137.196 137.242 139.977  1.00  0.00     0.089 C 
ATOM      7  C   UNL     1     136.808 136.637 138.656  1.00  0.00     0.158 C 
ATOM      8  O   UNL     1     135.587 136.550 138.355  1.00  0.00    -0.295 OA
ENDROOT
BRANCH   5   9
ATOM      9  C   UNL     1     139.062 138.372 141.258  1.00  0.00    -0.077 C 
ATOM     10  C   UNL     1     139.967 137.700 141.987  1.00  0.00     0.008 C 
ATOM     11  C   UNL     1     138.508 139.663 141.809  1.00  0.00     0.039 C 
ENDBRANCH   5   9
TORSDOF 1
ENDMDL
MODEL 5
REMARK VINA RESULT:    -0.131     19.422     21.738
REMARK INTER + INTRA:          -0.234
REMARK INTER:                  -0.135
REMARK INTRA:                  -0.099
REMARK UNBOUND:                -0.094
REMARK SMILES C=C(C)[C@H]1CC=C(C)C(=O)C1
REMARK SMILES IDX 8 1 7 2 6 3 5 4 4 5 11 6 9 7 10 8 2 9 1 10 3 11
REMARK H PARENT
REMARK Flexibility Score: inf
ROOT
ATOM      1  C   UNL     1     138.814 121.166 128.586  1.00  0.00     0.048 C 
ATOM      2  C   UNL     1     138.985 121.076 127.095  1.00  0.00    -0.012 C 
ATOM      3  C   UNL     1     138.442 120.049 126.418  1.00  0.00    -0.019 C 
ATOM      4  C   UNL     1     138.598 119.902 124.928  1.00  0.00     0.036 C 
ATOM      5  C   UNL     1     138.670 121.279 124.240  1.00  0.00     0.025 C 
ATOM      6  C   UNL     1     139.791 122.130 124.863  1.00  0.00     0.089 C 
ATOM      7  C   UNL     1     139.646 122.183 126.359  1.00  0.00     0.158 C 
ATOM      8  O   UNL     1     140.125 123.165 126.988  1.00  0.00    -0.295 OA
ENDROOT
BRANCH   5   9
ATOM      9  C   UNL     1     138.848 121.140 122.734  1.00  0.00    -0.077 C 
ATOM     10  C   UNL     1     139.917 121.682 122.131  1.00  0.00     0.008 C 
ATOM     11  C   UNL     1     137.842 120.400 121.888  1.00  0.00     0.039 C 
ENDBRANCH   5   9
TORSDOF 1
ENDMDL
MODEL 6
REMARK VINA RESULT:    -0.129      1.400      4.406
REMARK INTER + INTRA:          -0.231
REMARK INTER:                  -0.138
REMARK INTRA:                  -0.093
REMARK UNBOUND:                -0.094
REMARK SMILES C=C(C)[C@H]1CC=C(C)C(=O)C1
REMARK SMILES IDX 8 1 7 2 6 3 5 4 4 5 11 6 9 7 10 8 2 9 1 10 3 11
REMARK H PARENT
REMARK Flexibility Score: inf
ROOT
ATOM      1  C   UNL     1     139.434 137.788 141.619  1.00  0.00     0.048 C 
ATOM      2  C   UNL     1     139.473 137.758 140.116  1.00  0.00    -0.012 C 
ATOM      3  C   UNL     1     139.295 136.596 139.465  1.00  0.00    -0.019 C 
ATOM      4  C   UNL     1     139.343 136.507 137.962  1.00  0.00     0.036 C 
ATOM      5  C   UNL     1     138.815 137.801 137.313  1.00  0.00     0.025 C 
ATOM      6  C   UNL     1     139.586 139.021 137.850  1.00  0.00     0.089 C 
ATOM      7  C   UNL     1     139.585 139.027 139.354  1.00  0.00     0.158 C 
ATOM      8  O   UNL     1     139.716 140.123 139.963  1.00  0.00    -0.295 OA
ENDROOT
BRANCH   5   9
ATOM      9  C   UNL     1     138.878 137.728 135.794  1.00  0.00    -0.077 C 
ATOM     10  C   UNL     1     138.205 138.620 135.049  1.00  0.00     0.008 C 
ATOM     11  C   UNL     1     139.687 136.666 135.090  1.00  0.00     0.039 C 
ENDBRANCH   5   9
TORSDOF 1
ENDMDL
MODEL 7
REMARK VINA RESULT:    -0.123      4.171      5.470
REMARK INTER + INTRA:          -0.224
REMARK INTER:                  -0.126
REMARK INTRA:                  -0.099
REMARK UNBOUND:                -0.094
REMARK SMILES C=C(C)[C@H]1CC=C(C)C(=O)C1
REMARK SMILES IDX 8 1 7 2 6 3 5 4 4 5 11 6 9 7 10 8 2 9 1 10 3 11
REMARK H PARENT
REMARK Flexibility Score: inf
ROOT
ATOM      1  C   UNL     1     140.125 138.323 141.171  1.00  0.00     0.048 C 
ATOM      2  C   UNL     1     138.637 138.537 141.145  1.00  0.00    -0.012 C 
ATOM      3  C   UNL     1     138.139 139.741 140.814  1.00  0.00    -0.019 C 
ATOM      4  C   UNL     1     136.658 140.015 140.789  1.00  0.00     0.036 C 
ATOM      5  C   UNL     1     135.869 138.757 140.380  1.00  0.00     0.025 C 
ATOM      6  C   UNL     1     136.229 137.576 141.301  1.00  0.00     0.089 C 
ATOM      7  C   UNL     1     137.720 137.390 141.362  1.00  0.00     0.158 C 
ATOM      8  O   UNL     1     138.186 136.251 141.638  1.00  0.00    -0.295 OA
ENDROOT
BRANCH   5   9
ATOM      9  C   UNL     1     134.370 139.017 140.371  1.00  0.00    -0.077 C 
ATOM     10  C   UNL     1     133.853 140.001 141.126  1.00  0.00     0.008 C 
ATOM     11  C   UNL     1     133.432 138.190 139.526  1.00  0.00     0.039 C 
ENDBRANCH   5   9
TORSDOF 1
ENDMDL
MODEL 8
REMARK VINA RESULT:    -0.114     19.086     21.420
REMARK INTER + INTRA:          -0.215
REMARK INTER:                  -0.117
REMARK INTRA:                  -0.098
REMARK UNBOUND:                -0.094
REMARK SMILES C=C(C)[C@H]1CC=C(C)C(=O)C1
REMARK SMILES IDX 8 1 7 2 6 3 5 4 4 5 11 6 9 7 10 8 2 9 1 10 3 11
REMARK H PARENT
REMARK Flexibility Score: inf
ROOT
ATOM      1  C   UNL     1     137.648 121.734 128.962  1.00  0.00     0.048 C 
ATOM      2  C   UNL     1     138.115 121.438 127.564  1.00  0.00    -0.012 C 
ATOM      3  C   UNL     1     137.551 122.071 126.521  1.00  0.00    -0.019 C 
ATOM      4  C   UNL     1     137.969 121.799 125.099  1.00  0.00     0.036 C 
ATOM      5  C   UNL     1     139.465 121.444 125.020  1.00  0.00     0.025 C 
ATOM      6  C   UNL     1     139.785 120.266 125.958  1.00  0.00     0.089 C 
ATOM      7  C   UNL     1     139.279 120.543 127.347  1.00  0.00     0.158 C 
ATOM      8  O   UNL     1     139.832 119.975 128.327  1.00  0.00    -0.295 OA
ENDROOT
BRANCH   5   9
ATOM      9  C   UNL     1     139.893 121.148 123.590  1.00  0.00    -0.077 C 
ATOM     10  C   UNL     1     140.082 119.879 123.193  1.00  0.00     0.008 C 
ATOM     11  C   UNL     1     140.112 122.255 122.589  1.00  0.00     0.039 C 
ENDBRANCH   5   9
TORSDOF 1
ENDMDL
MODEL 9
REMARK VINA RESULT:    -0.110      3.362      4.099
REMARK INTER + INTRA:          -0.211
REMARK INTER:                  -0.113
REMARK INTRA:                  -0.098
REMARK UNBOUND:                -0.094
REMARK SMILES C=C(C)[C@H]1CC=C(C)C(=O)C1
REMARK SMILES IDX 8 1 7 2 6 3 5 4 4 5 11 6 9 7 10 8 2 9 1 10 3 11
REMARK H PARENT
REMARK Flexibility Score: inf
ROOT
ATOM      1  C   UNL     1     134.465 137.546 138.585  1.00  0.00     0.048 C 
ATOM      2  C   UNL     1     135.698 136.994 139.245  1.00  0.00    -0.012 C 
ATOM      3  C   UNL     1     136.735 137.805 139.512  1.00  0.00    -0.019 C 
ATOM      4  C   UNL     1     138.000 137.300 140.155  1.00  0.00     0.036 C 
ATOM      5  C   UNL     1     137.704 136.143 141.128  1.00  0.00     0.025 C 
ATOM      6  C   UNL     1     136.928 135.025 140.408  1.00  0.00     0.089 C 
ATOM      7  C   UNL     1     135.719 135.584 139.711  1.00  0.00     0.158 C 
ATOM      8  O   UNL     1     134.733 134.830 139.493  1.00  0.00    -0.295 OA
ENDROOT
BRANCH   5   9
ATOM      9  C   UNL     1     138.979 135.613 141.768  1.00  0.00    -0.077 C 
ATOM     10  C   UNL     1     139.104 134.302 142.033  1.00  0.00     0.008 C 
ATOM     11  C   UNL     1     140.124 136.531 142.118  1.00  0.00     0.039 C 
ENDBRANCH   5   9
TORSDOF 1
ENDMDL
