MODEL 1
REMARK VINA RESULT:    -3.113      0.000      0.000
REMARK INTER + INTRA:          -5.083
REMARK INTER:                  -4.569
REMARK INTRA:                  -0.514
REMARK UNBOUND:                -0.514
REMARK SMILES C=C1C=C[C@@H](C(C)C)CCC(C)=CCC1
REMARK SMILES IDX 3 1 4 2 5 3 9 4 10 5 11 6 12 7 13 8 6 10 7 11 8 12 2 13 1 14
REMARK SMILES IDX 15 15 14 16
REMARK H PARENT
REMARK Flexibility Score: 70.00
ROOT
ATOM      1  C   UNL     1      14.249   3.382  17.518  1.00  0.00    -0.001 C 
ATOM      2  C   UNL     1      14.792   4.177  16.582  1.00  0.00    -0.023 C 
ENDROOT
BRANCH   2   3
ATOM      3  C   UNL     1      15.241   5.605  16.829  1.00  0.00     0.014 C 
BRANCH   3   4
ATOM      4  C   UNL     1      14.390   6.597  15.983  1.00  0.00     0.012 C 
BRANCH   4   5
ATOM      5  C   UNL     1      13.527   7.553  16.839  1.00  0.00     0.031 C 
BRANCH   5   6
ATOM      6  C   UNL     1      12.101   7.049  17.007  1.00  0.00    -0.077 C 
ATOM      7  C   UNL     1      11.080   7.377  15.947  1.00  0.00     0.039 C 
ATOM      8  C   UNL     1      11.695   6.331  18.081  1.00  0.00    -0.028 CG0
ATOM      9  G   UNL     1      12.590   5.885  19.212  1.00  0.00     0.000 G0
ENDBRANCH   5   6
ENDBRANCH   4   5
ENDBRANCH   3   4
BRANCH   3  10
ATOM     10  C   UNL     1      16.785   5.746  16.632  1.00  0.00    -0.010 C 
ATOM     11  C   UNL     1      17.416   6.970  17.324  1.00  0.00     0.008 C 
ATOM     12  C   UNL     1      17.535   4.471  17.050  1.00  0.00     0.008 C 
ENDBRANCH   3  10
ENDBRANCH   2   3
BRANCH   1  13
ATOM     13  C   UNL     1      13.990   3.793  18.914  1.00  0.00    -0.055 C 
ATOM     14  C   UNL     1      14.911   3.543  19.847  1.00  0.00     0.012 C 
BRANCH  13  15
ATOM     15  C   UNL     1      12.643   4.348  19.306  1.00  0.00     0.039 C 
BRANCH  15  16
ATOM     16  C   UNL     1      12.591   5.886  19.210  1.00  0.00     0.032 CG0
ATOM     17  G   UNL     1      11.694   6.338  18.083  1.00  0.00     0.000 G0
ENDBRANCH  15  16
ENDBRANCH  13  15
ENDBRANCH   1  13
TORSDOF 1
ENDMDL
MODEL 2
REMARK VINA RESULT:    -3.007      1.717      3.059
REMARK INTER + INTRA:          -4.927
REMARK INTER:                  -4.844
REMARK INTRA:                  -0.082
REMARK UNBOUND:                -0.514
REMARK SMILES C=C1C=C[C@@H](C(C)C)CCC(C)=CCC1
REMARK SMILES IDX 3 1 4 2 5 3 9 4 10 5 11 6 12 7 13 8 6 10 7 11 8 12 2 13 1 14
REMARK SMILES IDX 15 15 14 16
REMARK H PARENT
REMARK Flexibility Score: 70.00
ROOT
ATOM      1  C   UNL     1      13.106   4.497  21.150  1.00  0.00    -0.001 C 
ATOM      2  C   UNL     1      13.285   3.792  20.022  1.00  0.00    -0.023 C 
ENDROOT
BRANCH   2   3
ATOM      3  C   UNL     1      13.151   4.366  18.624  1.00  0.00     0.014 C 
BRANCH   3   4
ATOM      4  C   UNL     1      11.671   4.295  18.146  1.00  0.00     0.012 C 
BRANCH   4   5
ATOM      5  C   UNL     1      10.935   5.653  18.218  1.00  0.00     0.031 C 
BRANCH   5   6
ATOM      6  C   UNL     1      11.689   6.757  17.493  1.00  0.00    -0.077 C 
ATOM      7  C   UNL     1      11.699   6.768  15.985  1.00  0.00     0.039 C 
ATOM      8  C   UNL     1      12.375   7.729  18.140  1.00  0.00    -0.028 CG0
ATOM      9  G   UNL     1      12.440   7.890  19.640  1.00  0.00     0.000 G0
ENDBRANCH   5   6
ENDBRANCH   4   5
ENDBRANCH   3   4
BRANCH   3  10
ATOM     10  C   UNL     1      14.180   3.707  17.650  1.00  0.00    -0.010 C 
ATOM     11  C   UNL     1      14.800   4.668  16.616  1.00  0.00     0.008 C 
ATOM     12  C   UNL     1      15.295   2.969  18.406  1.00  0.00     0.008 C 
ENDBRANCH   3  10
ENDBRANCH   2   3
BRANCH   1  13
ATOM     13  C   UNL     1      12.730   5.926  21.190  1.00  0.00    -0.055 C 
ATOM     14  C   UNL     1      11.680   6.302  21.924  1.00  0.00     0.012 C 
BRANCH  13  15
ATOM     15  C   UNL     1      13.426   6.921  20.295  1.00  0.00     0.039 C 
BRANCH  15  16
ATOM     16  C   UNL     1      12.443   7.920  19.652  1.00  0.00     0.032 CG0
ATOM     17  G   UNL     1      12.387   7.750  18.152  1.00  0.00     0.000 G0
ENDBRANCH  15  16
ENDBRANCH  13  15
ENDBRANCH   1  13
TORSDOF 1
ENDMDL
MODEL 3
REMARK VINA RESULT:    -2.933      2.022      4.049
REMARK INTER + INTRA:          -4.819
REMARK INTER:                  -4.188
REMARK INTRA:                  -0.631
REMARK UNBOUND:                -0.514
REMARK SMILES C=C1C=C[C@@H](C(C)C)CCC(C)=CCC1
REMARK SMILES IDX 3 1 4 2 5 3 9 4 10 5 11 6 12 7 13 8 6 10 7 11 8 12 2 13 1 14
REMARK SMILES IDX 15 15 14 16
REMARK H PARENT
REMARK Flexibility Score: 70.00
ROOT
ATOM      1  C   UNL     1      16.028   4.981  19.165  1.00  0.00    -0.001 C 
ATOM      2  C   UNL     1      14.858   5.095  19.812  1.00  0.00    -0.023 C 
ENDROOT
BRANCH   2   3
ATOM      3  C   UNL     1      13.646   4.220  19.548  1.00  0.00     0.014 C 
BRANCH   3   4
ATOM      4  C   UNL     1      12.482   5.067  18.957  1.00  0.00     0.012 C 
BRANCH   4   5
ATOM      5  C   UNL     1      12.253   4.830  17.446  1.00  0.00     0.031 C 
BRANCH   5   6
ATOM      6  C   UNL     1      12.991   5.845  16.585  1.00  0.00    -0.077 C 
ATOM      7  C   UNL     1      12.413   7.229  16.430  1.00  0.00     0.039 C 
ATOM      8  C   UNL     1      14.141   5.558  15.930  1.00  0.00    -0.028 CG0
ATOM      9  G   UNL     1      14.873   4.240  16.004  1.00  0.00     0.000 G0
ENDBRANCH   5   6
ENDBRANCH   4   5
ENDBRANCH   3   4
BRANCH   3  10
ATOM     10  C   UNL     1      13.268   3.394  20.820  1.00  0.00    -0.010 C 
ATOM     11  C   UNL     1      14.243   2.251  21.163  1.00  0.00     0.008 C 
ATOM     12  C   UNL     1      13.070   4.293  22.050  1.00  0.00     0.008 C 
ENDBRANCH   3  10
ENDBRANCH   2   3
BRANCH   1  13
ATOM     13  C   UNL     1      16.296   4.004  18.089  1.00  0.00    -0.055 C 
ATOM     14  C   UNL     1      16.691   2.771  18.413  1.00  0.00     0.012 C 
BRANCH  13  15
ATOM     15  C   UNL     1      16.272   4.439  16.644  1.00  0.00     0.039 C 
BRANCH  15  16
ATOM     16  C   UNL     1      14.886   4.249  15.997  1.00  0.00     0.032 CG0
ATOM     17  G   UNL     1      14.126   5.552  15.929  1.00  0.00     0.000 G0
ENDBRANCH  15  16
ENDBRANCH  13  15
ENDBRANCH   1  13
TORSDOF 1
ENDMDL
MODEL 4
REMARK VINA RESULT:    -2.924      1.617      4.282
REMARK INTER + INTRA:          -4.806
REMARK INTER:                  -4.404
REMARK INTRA:                  -0.402
REMARK UNBOUND:                -0.514
REMARK SMILES C=C1C=C[C@@H](C(C)C)CCC(C)=CCC1
REMARK SMILES IDX 3 1 4 2 5 3 9 4 10 5 11 6 12 7 13 8 6 10 7 11 8 12 2 13 1 14
REMARK SMILES IDX 15 15 14 16
REMARK H PARENT
REMARK Flexibility Score: 70.00
ROOT
ATOM      1  C   UNL     1      11.889   5.063  18.540  1.00  0.00    -0.001 C 
ATOM      2  C   UNL     1      12.736   4.090  18.910  1.00  0.00    -0.023 C 
ENDROOT
BRANCH   2   3
ATOM      3  C   UNL     1      14.152   4.330  19.400  1.00  0.00     0.014 C 
BRANCH   3   4
ATOM      4  C   UNL     1      15.167   3.503  18.557  1.00  0.00     0.012 C 
BRANCH   4   5
ATOM      5  C   UNL     1      15.004   3.702  17.031  1.00  0.00     0.031 C 
BRANCH   5   6
ATOM      6  C   UNL     1      15.583   5.026  16.557  1.00  0.00    -0.077 C 
ATOM      7  C   UNL     1      17.080   5.175  16.453  1.00  0.00     0.039 C 
ATOM      8  C   UNL     1      14.814   6.095  16.239  1.00  0.00    -0.028 CG0
ATOM      9  G   UNL     1      13.304   6.109  16.252  1.00  0.00     0.000 G0
ENDBRANCH   5   6
ENDBRANCH   4   5
ENDBRANCH   3   4
BRANCH   3  10
ATOM     10  C   UNL     1      14.254   4.102  20.943  1.00  0.00    -0.010 C 
ATOM     11  C   UNL     1      13.640   5.223  21.804  1.00  0.00     0.008 C 
ATOM     12  C   UNL     1      13.667   2.746  21.363  1.00  0.00     0.008 C 
ENDBRANCH   3  10
ENDBRANCH   2   3
BRANCH   1  13
ATOM     13  C   UNL     1      12.223   6.503  18.533  1.00  0.00    -0.055 C 
ATOM     14  C   UNL     1      11.917   7.246  19.599  1.00  0.00     0.012 C 
BRANCH  13  15
ATOM     15  C   UNL     1      12.760   7.153  17.282  1.00  0.00     0.039 C 
BRANCH  15  16
ATOM     16  C   UNL     1      13.297   6.123  16.269  1.00  0.00     0.032 CG0
ATOM     17  G   UNL     1      14.807   6.106  16.246  1.00  0.00     0.000 G0
ENDBRANCH  15  16
ENDBRANCH  13  15
ENDBRANCH   1  13
TORSDOF 1
ENDMDL
MODEL 5
REMARK VINA RESULT:    -2.852      1.605      3.704
REMARK INTER + INTRA:          -4.700
REMARK INTER:                  -4.063
REMARK INTRA:                  -0.637
REMARK UNBOUND:                -0.514
REMARK SMILES C=C1C=C[C@@H](C(C)C)CCC(C)=CCC1
REMARK SMILES IDX 3 1 4 2 5 3 9 4 10 5 11 6 12 7 13 8 6 10 7 11 8 12 2 13 1 14
REMARK SMILES IDX 15 15 14 16
REMARK H PARENT
REMARK Flexibility Score: 70.00
ROOT
ATOM      1  C   UNL     1      16.549   5.926  18.457  1.00  0.00    -0.001 C 
ATOM      2  C   UNL     1      15.989   5.127  19.381  1.00  0.00    -0.023 C 
ENDROOT
BRANCH   2   3
ATOM      3  C   UNL     1      15.177   3.886  19.058  1.00  0.00     0.014 C 
BRANCH   3   4
ATOM      4  C   UNL     1      13.675   4.118  19.394  1.00  0.00     0.012 C 
BRANCH   4   5
ATOM      5  C   UNL     1      12.749   4.046  18.157  1.00  0.00     0.031 C 
BRANCH   5   6
ATOM      6  C   UNL     1      12.312   5.423  17.683  1.00  0.00    -0.077 C 
ATOM      7  C   UNL     1      11.134   6.087  18.350  1.00  0.00     0.039 C 
ATOM      8  C   UNL     1      12.923   6.081  16.668  1.00  0.00    -0.028 CG0
ATOM      9  G   UNL     1      14.134   5.581  15.917  1.00  0.00     0.000 G0
ENDBRANCH   5   6
ENDBRANCH   4   5
ENDBRANCH   3   4
BRANCH   3  10
ATOM     10  C   UNL     1      15.804   2.621  19.727  1.00  0.00    -0.010 C 
ATOM     11  C   UNL     1      17.206   2.243  19.208  1.00  0.00     0.008 C 
ATOM     12  C   UNL     1      15.833   2.736  21.259  1.00  0.00     0.008 C 
ENDBRANCH   3  10
ENDBRANCH   2   3
BRANCH   1  13
ATOM     13  C   UNL     1      16.434   5.723  16.998  1.00  0.00    -0.055 C 
ATOM     14  C   UNL     1      17.353   4.988  16.369  1.00  0.00     0.012 C 
BRANCH  13  15
ATOM     15  C   UNL     1      15.381   6.462  16.209  1.00  0.00     0.039 C 
BRANCH  15  16
ATOM     16  C   UNL     1      14.150   5.584  15.907  1.00  0.00     0.032 CG0
ATOM     17  G   UNL     1      12.924   6.084  16.633  1.00  0.00     0.000 G0
ENDBRANCH  15  16
ENDBRANCH  13  15
ENDBRANCH   1  13
TORSDOF 1
ENDMDL
MODEL 6
REMARK VINA RESULT:    -2.840      2.138      5.084
REMARK INTER + INTRA:          -4.682
REMARK INTER:                  -4.124
REMARK INTRA:                  -0.558
REMARK UNBOUND:                -0.514
REMARK SMILES C=C1C=C[C@@H](C(C)C)CCC(C)=CCC1
REMARK SMILES IDX 3 1 4 2 5 3 9 4 10 5 11 6 12 7 13 8 6 10 7 11 8 12 2 13 1 14
REMARK SMILES IDX 15 15 14 16
REMARK H PARENT
REMARK Flexibility Score: 70.00
ROOT
ATOM      1  C   UNL     1      14.475   4.023  16.570  1.00  0.00    -0.001 C 
ATOM      2  C   UNL     1      13.388   3.940  17.353  1.00  0.00    -0.023 C 
ENDROOT
BRANCH   2   3
ATOM      3  C   UNL     1      13.118   4.848  18.539  1.00  0.00     0.014 C 
BRANCH   3   4
ATOM      4  C   UNL     1      13.209   4.045  19.870  1.00  0.00     0.012 C 
BRANCH   4   5
ATOM      5  C   UNL     1      14.516   4.303  20.656  1.00  0.00     0.031 C 
BRANCH   5   6
ATOM      6  C   UNL     1      15.567   3.235  20.394  1.00  0.00    -0.077 C 
ATOM      7  C   UNL     1      15.411   1.881  21.038  1.00  0.00     0.039 C 
ATOM      8  C   UNL     1      16.657   3.449  19.619  1.00  0.00    -0.028 CG0
ATOM      9  G   UNL     1      16.950   4.728  18.872  1.00  0.00     0.000 G0
ENDBRANCH   5   6
ENDBRANCH   4   5
ENDBRANCH   3   4
BRANCH   3  10
ATOM     10  C   UNL     1      11.781   5.634  18.346  1.00  0.00    -0.010 C 
ATOM     11  C   UNL     1      11.649   6.906  19.206  1.00  0.00     0.008 C 
ATOM     12  C   UNL     1      11.525   5.977  16.870  1.00  0.00     0.008 C 
ENDBRANCH   3  10
ENDBRANCH   2   3
BRANCH   1  13
ATOM     13  C   UNL     1      15.573   4.992  16.765  1.00  0.00    -0.055 C 
ATOM     14  C   UNL     1      15.434   6.235  16.299  1.00  0.00     0.012 C 
BRANCH  13  15
ATOM     15  C   UNL     1      16.891   4.541  17.345  1.00  0.00     0.039 C 
BRANCH  15  16
ATOM     16  C   UNL     1      16.954   4.728  18.874  1.00  0.00     0.032 CG0
ATOM     17  G   UNL     1      16.656   3.438  19.600  1.00  0.00     0.000 G0
ENDBRANCH  15  16
ENDBRANCH  13  15
ENDBRANCH   1  13
TORSDOF 1
ENDMDL
MODEL 7
REMARK VINA RESULT:    -2.822      3.104      6.129
REMARK INTER + INTRA:          -4.655
REMARK INTER:                  -4.167
REMARK INTRA:                  -0.489
REMARK UNBOUND:                -0.514
REMARK SMILES C=C1C=C[C@@H](C(C)C)CCC(C)=CCC1
REMARK SMILES IDX 3 1 4 2 5 3 9 4 10 5 11 6 12 7 13 8 6 10 7 11 8 12 2 13 1 14
REMARK SMILES IDX 15 15 14 16
REMARK H PARENT
REMARK Flexibility Score: 70.00
ROOT
ATOM      1  C   UNL     1      15.515   4.484  16.188  1.00  0.00    -0.001 C 
ATOM      2  C   UNL     1      14.690   3.908  17.077  1.00  0.00    -0.023 C 
ENDROOT
BRANCH   2   3
ATOM      3  C   UNL     1      14.976   3.801  18.564  1.00  0.00     0.014 C 
BRANCH   3   4
ATOM      4  C   UNL     1      15.568   2.402  18.904  1.00  0.00     0.012 C 
BRANCH   4   5
ATOM      5  C   UNL     1      17.006   2.463  19.471  1.00  0.00     0.031 C 
BRANCH   5   6
ATOM      6  C   UNL     1      18.011   1.761  18.571  1.00  0.00    -0.077 C 
ATOM      7  C   UNL     1      18.117   0.258  18.625  1.00  0.00     0.039 C 
ATOM      8  C   UNL     1      18.838   2.427  17.730  1.00  0.00    -0.028 CG0
ATOM      9  G   UNL     1      18.841   3.923  17.524  1.00  0.00     0.000 G0
ENDBRANCH   5   6
ENDBRANCH   4   5
ENDBRANCH   3   4
BRANCH   3  10
ATOM     10  C   UNL     1      13.718   4.195  19.403  1.00  0.00    -0.010 C 
ATOM     11  C   UNL     1      12.429   4.395  18.581  1.00  0.00     0.008 C 
ATOM     12  C   UNL     1      13.456   3.201  20.545  1.00  0.00     0.008 C 
ENDBRANCH   3  10
ENDBRANCH   2   3
BRANCH   1  13
ATOM     13  C   UNL     1      16.827   5.072  16.526  1.00  0.00    -0.055 C 
ATOM     14  C   UNL     1      16.882   6.332  16.963  1.00  0.00     0.012 C 
BRANCH  13  15
ATOM     15  C   UNL     1      18.099   4.314  16.235  1.00  0.00     0.039 C 
BRANCH  15  16
ATOM     16  C   UNL     1      18.854   3.920  17.520  1.00  0.00     0.032 CG0
ATOM     17  G   UNL     1      18.833   2.425  17.736  1.00  0.00     0.000 G0
ENDBRANCH  15  16
ENDBRANCH  13  15
ENDBRANCH   1  13
TORSDOF 1
ENDMDL
MODEL 8
REMARK VINA RESULT:    -2.738      1.986      5.118
REMARK INTER + INTRA:          -4.532
REMARK INTER:                  -4.134
REMARK INTRA:                  -0.399
REMARK UNBOUND:                -0.514
REMARK SMILES C=C1C=C[C@@H](C(C)C)CCC(C)=CCC1
REMARK SMILES IDX 3 1 4 2 5 3 9 4 10 5 11 6 12 7 13 8 6 10 7 11 8 12 2 13 1 14
REMARK SMILES IDX 15 15 14 16
REMARK H PARENT
REMARK Flexibility Score: 70.00
ROOT
ATOM      1  C   UNL     1      14.224   6.615  16.104  1.00  0.00    -0.001 C 
ATOM      2  C   UNL     1      13.338   5.739  16.603  1.00  0.00    -0.023 C 
ENDROOT
BRANCH   2   3
ATOM      3  C   UNL     1      13.122   5.492  18.085  1.00  0.00     0.014 C 
BRANCH   3   4
ATOM      4  C   UNL     1      13.399   4.000  18.433  1.00  0.00     0.012 C 
BRANCH   4   5
ATOM      5  C   UNL     1      14.614   3.407  17.681  1.00  0.00     0.031 C 
BRANCH   5   6
ATOM      6  C   UNL     1      15.919   3.625  18.432  1.00  0.00    -0.077 C 
ATOM      7  C   UNL     1      16.215   2.778  19.644  1.00  0.00     0.039 C 
ATOM      8  C   UNL     1      16.827   4.563  18.074  1.00  0.00    -0.028 CG0
ATOM      9  G   UNL     1      16.708   5.469  16.871  1.00  0.00     0.000 G0
ENDBRANCH   5   6
ENDBRANCH   4   5
ENDBRANCH   3   4
BRANCH   3  10
ATOM     10  C   UNL     1      11.721   6.014  18.538  1.00  0.00    -0.010 C 
ATOM     11  C   UNL     1      11.636   6.435  20.019  1.00  0.00     0.008 C 
ATOM     12  C   UNL     1      11.218   7.159  17.645  1.00  0.00     0.008 C 
ENDBRANCH   3  10
ENDBRANCH   2   3
BRANCH   1  13
ATOM     13  C   UNL     1      15.131   7.444  16.924  1.00  0.00    -0.055 C 
ATOM     14  C   UNL     1      14.766   8.687  17.244  1.00  0.00     0.012 C 
BRANCH  13  15
ATOM     15  C   UNL     1      16.515   6.948  17.265  1.00  0.00     0.039 C 
BRANCH  15  16
ATOM     16  C   UNL     1      16.724   5.473  16.867  1.00  0.00     0.032 CG0
ATOM     17  G   UNL     1      16.830   4.583  18.083  1.00  0.00     0.000 G0
ENDBRANCH  15  16
ENDBRANCH  13  15
ENDBRANCH   1  13
TORSDOF 1
ENDMDL
MODEL 9
REMARK VINA RESULT:    -2.652      2.815      5.737
REMARK INTER + INTRA:          -4.407
REMARK INTER:                  -3.905
REMARK INTRA:                  -0.502
REMARK UNBOUND:                -0.514
REMARK SMILES C=C1C=C[C@@H](C(C)C)CCC(C)=CCC1
REMARK SMILES IDX 3 1 4 2 5 3 9 4 10 5 11 6 12 7 13 8 6 10 7 11 8 12 2 13 1 14
REMARK SMILES IDX 15 15 14 16
REMARK H PARENT
REMARK Flexibility Score: 70.00
ROOT
ATOM      1  C   UNL     1      13.873   3.795  17.779  1.00  0.00    -0.001 C 
ATOM      2  C   UNL     1      12.972   4.279  18.649  1.00  0.00    -0.023 C 
ENDROOT
BRANCH   2   3
ATOM      3  C   UNL     1      13.311   4.786  20.038  1.00  0.00     0.014 C 
BRANCH   3   4
ATOM      4  C   UNL     1      13.114   3.657  21.092  1.00  0.00     0.012 C 
BRANCH   4   5
ATOM      5  C   UNL     1      14.407   3.299  21.861  1.00  0.00     0.031 C 
BRANCH   5   6
ATOM      6  C   UNL     1      14.804   1.842  21.676  1.00  0.00    -0.077 C 
ATOM      7  C   UNL     1      14.121   0.787  22.509  1.00  0.00     0.039 C 
ATOM      8  C   UNL     1      15.763   1.444  20.806  1.00  0.00    -0.028 CG0
ATOM      9  G   UNL     1      16.518   2.359  19.873  1.00  0.00     0.000 G0
ENDBRANCH   5   6
ENDBRANCH   4   5
ENDBRANCH   3   4
BRANCH   3  10
ATOM     10  C   UNL     1      12.541   6.108  20.353  1.00  0.00    -0.010 C 
ATOM     11  C   UNL     1      11.564   6.565  19.251  1.00  0.00     0.008 C 
ATOM     12  C   UNL     1      11.806   6.038  21.700  1.00  0.00     0.008 C 
ENDBRANCH   3  10
ENDBRANCH   2   3
BRANCH   1  13
ATOM     13  C   UNL     1      15.318   3.665  18.060  1.00  0.00    -0.055 C 
ATOM     14  C   UNL     1      16.121   4.708  17.837  1.00  0.00     0.012 C 
BRANCH  13  15
ATOM     15  C   UNL     1      15.900   2.328  18.446  1.00  0.00     0.039 C 
BRANCH  15  16
ATOM     16  C   UNL     1      16.523   2.344  19.856  1.00  0.00     0.032 CG0
ATOM     17  G   UNL     1      15.775   1.434  20.801  1.00  0.00     0.000 G0
ENDBRANCH  15  16
ENDBRANCH  13  15
ENDBRANCH   1  13
TORSDOF 1
ENDMDL
