MODEL 1
REMARK VINA RESULT:    -3.704      0.000      0.000
REMARK INTER + INTRA:          -5.736
REMARK INTER:                  -5.220
REMARK INTRA:                  -0.516
REMARK UNBOUND:                -0.516
REMARK SMILES CCCCCCCCC(=O)[O-]
REMARK SMILES IDX 6 1 7 2 8 3 9 4 10 5 11 6 5 7 4 8 3 9 2 10 1 11
REMARK H PARENT
REMARK Flexibility Score: inf
ROOT
ATOM      1  C   UNL     1       8.509  -8.987  41.404  1.00  0.00     0.000 C 
ENDROOT
BRANCH   1   2
ATOM      2  C   UNL     1       9.083  -7.597  41.733  1.00  0.00     0.006 C 
BRANCH   2   3
ATOM      3  C   UNL     1       8.030  -6.483  41.673  1.00  0.00     0.053 C 
BRANCH   3   4
ATOM      4  C   UNL     1       7.713  -5.990  43.049  1.00  0.00     0.041 C 
ATOM      5  O   UNL     1       7.202  -4.851  43.213  1.00  0.00    -0.550 OA
ATOM      6  O   UNL     1       8.026  -6.769  44.157  1.00  0.00    -0.550 OA
ENDBRANCH   3   4
ENDBRANCH   2   3
ENDBRANCH   1   2
BRANCH   1   7
ATOM      7  C   UNL     1       7.000  -9.022  41.083  1.00  0.00     0.000 C 
BRANCH   7   8
ATOM      8  C   UNL     1       6.334 -10.407  41.217  1.00  0.00    -0.000 C 
BRANCH   8   9
ATOM      9  C   UNL     1       7.011 -11.325  42.260  1.00  0.00    -0.000 C 
BRANCH   9  10
ATOM     10  C   UNL     1       6.437 -11.166  43.678  1.00  0.00    -0.003 C 
ATOM     11  C   UNL     1       7.241 -10.192  44.537  1.00  0.00     0.004 C 
ENDBRANCH   9  10
ENDBRANCH   8   9
ENDBRANCH   7   8
ENDBRANCH   1   7
TORSDOF 7
ENDMDL
MODEL 2
REMARK VINA RESULT:    -3.702      1.075      2.098
REMARK INTER + INTRA:          -5.734
REMARK INTER:                  -5.323
REMARK INTRA:                  -0.411
REMARK UNBOUND:                -0.516
REMARK SMILES CCCCCCCCC(=O)[O-]
REMARK SMILES IDX 6 1 7 2 8 3 9 4 10 5 11 6 5 7 4 8 3 9 2 10 1 11
REMARK H PARENT
REMARK Flexibility Score: inf
ROOT
ATOM      1  C   UNL     1       8.052  -8.834  42.339  1.00  0.00     0.000 C 
ENDROOT
BRANCH   1   2
ATOM      2  C   UNL     1       8.709  -7.552  41.795  1.00  0.00     0.006 C 
BRANCH   2   3
ATOM      3  C   UNL     1       7.704  -6.417  41.562  1.00  0.00     0.053 C 
BRANCH   3   4
ATOM      4  C   UNL     1       7.880  -5.346  42.591  1.00  0.00     0.041 C 
ATOM      5  O   UNL     1       7.024  -5.195  43.502  1.00  0.00    -0.550 OA
ATOM      6  O   UNL     1       8.964  -4.480  42.516  1.00  0.00    -0.550 OA
ENDBRANCH   3   4
ENDBRANCH   2   3
ENDBRANCH   1   2
BRANCH   1   7
ATOM      7  C   UNL     1       8.062  -8.984  43.875  1.00  0.00     0.000 C 
BRANCH   7   8
ATOM      8  C   UNL     1       7.202 -10.140  44.425  1.00  0.00    -0.000 C 
BRANCH   8   9
ATOM      9  C   UNL     1       6.890 -11.236  43.381  1.00  0.00    -0.000 C 
BRANCH   9  10
ATOM     10  C   UNL     1       5.395 -11.347  43.038  1.00  0.00    -0.003 C 
ATOM     11  C   UNL     1       5.118 -11.208  41.543  1.00  0.00     0.004 C 
ENDBRANCH   9  10
ENDBRANCH   8   9
ENDBRANCH   7   8
ENDBRANCH   1   7
TORSDOF 7
ENDMDL
MODEL 3
REMARK VINA RESULT:    -3.690      1.849      2.984
REMARK INTER + INTRA:          -5.717
REMARK INTER:                  -5.211
REMARK INTRA:                  -0.506
REMARK UNBOUND:                -0.516
REMARK SMILES CCCCCCCCC(=O)[O-]
REMARK SMILES IDX 6 1 7 2 8 3 9 4 10 5 11 6 5 7 4 8 3 9 2 10 1 11
REMARK H PARENT
REMARK Flexibility Score: inf
ROOT
ATOM      1  C   UNL     1       7.909  -7.192  44.236  1.00  0.00     0.000 C 
ENDROOT
BRANCH   1   2
ATOM      2  C   UNL     1       7.884  -6.004  43.256  1.00  0.00     0.006 C 
BRANCH   2   3
ATOM      3  C   UNL     1       7.682  -6.434  41.798  1.00  0.00     0.053 C 
BRANCH   3   4
ATOM      4  C   UNL     1       8.555  -5.627  40.890  1.00  0.00     0.041 C 
ATOM      5  O   UNL     1       9.772  -5.920  40.754  1.00  0.00    -0.550 OA
ATOM      6  O   UNL     1       8.037  -4.520  40.230  1.00  0.00    -0.550 OA
ENDBRANCH   3   4
ENDBRANCH   2   3
ENDBRANCH   1   2
BRANCH   1   7
ATOM      7  C   UNL     1       8.263  -8.559  43.611  1.00  0.00     0.000 C 
BRANCH   7   8
ATOM      8  C   UNL     1       7.528  -9.768  44.224  1.00  0.00    -0.000 C 
BRANCH   8   9
ATOM      9  C   UNL     1       6.660 -10.549  43.211  1.00  0.00    -0.000 C 
BRANCH   9  10
ATOM     10  C   UNL     1       6.763 -10.009  41.775  1.00  0.00    -0.003 C 
ATOM     11  C   UNL     1       7.501 -10.960  40.835  1.00  0.00     0.004 C 
ENDBRANCH   9  10
ENDBRANCH   8   9
ENDBRANCH   7   8
ENDBRANCH   1   7
TORSDOF 7
ENDMDL
MODEL 4
REMARK VINA RESULT:    -3.660      2.676      5.741
REMARK INTER + INTRA:          -5.675
REMARK INTER:                  -5.233
REMARK INTRA:                  -0.442
REMARK UNBOUND:                -0.516
REMARK SMILES CCCCCCCCC(=O)[O-]
REMARK SMILES IDX 6 1 7 2 8 3 9 4 10 5 11 6 5 7 4 8 3 9 2 10 1 11
REMARK H PARENT
REMARK Flexibility Score: inf
ROOT
ATOM      1  C   UNL     1       7.510  -6.088  41.601  1.00  0.00     0.000 C 
ENDROOT
BRANCH   1   2
ATOM      2  C   UNL     1       8.378  -7.354  41.717  1.00  0.00     0.006 C 
BRANCH   2   3
ATOM      3  C   UNL     1       7.565  -8.650  41.601  1.00  0.00     0.053 C 
BRANCH   3   4
ATOM      4  C   UNL     1       7.572  -9.389  42.902  1.00  0.00     0.041 C 
ATOM      5  O   UNL     1       7.999  -8.830  43.946  1.00  0.00    -0.550 OA
ATOM      6  O   UNL     1       7.152 -10.712  42.953  1.00  0.00    -0.550 OA
ENDBRANCH   3   4
ENDBRANCH   2   3
ENDBRANCH   1   2
BRANCH   1   7
ATOM      7  C   UNL     1       7.429  -5.221  42.876  1.00  0.00     0.000 C 
BRANCH   7   8
ATOM      8  C   UNL     1       8.079  -3.827  42.761  1.00  0.00    -0.000 C 
BRANCH   8   9
ATOM      9  C   UNL     1       8.786  -3.579  41.409  1.00  0.00    -0.000 C 
BRANCH   9  10
ATOM     10  C   UNL     1       8.203  -2.393  40.624  1.00  0.00    -0.003 C 
ATOM     11  C   UNL     1       7.496  -2.821  39.340  1.00  0.00     0.004 C 
ENDBRANCH   9  10
ENDBRANCH   8   9
ENDBRANCH   7   8
ENDBRANCH   1   7
TORSDOF 7
ENDMDL
MODEL 5
REMARK VINA RESULT:    -3.631      1.894      3.137
REMARK INTER + INTRA:          -5.633
REMARK INTER:                  -5.076
REMARK INTRA:                  -0.557
REMARK UNBOUND:                -0.516
REMARK SMILES CCCCCCCCC(=O)[O-]
REMARK SMILES IDX 6 1 7 2 8 3 9 4 10 5 11 6 5 7 4 8 3 9 2 10 1 11
REMARK H PARENT
REMARK Flexibility Score: inf
ROOT
ATOM      1  C   UNL     1       8.027  -6.434  43.381  1.00  0.00     0.000 C 
ENDROOT
BRANCH   1   2
ATOM      2  C   UNL     1       7.275  -5.178  42.904  1.00  0.00     0.006 C 
BRANCH   2   3
ATOM      3  C   UNL     1       7.779  -4.655  41.553  1.00  0.00     0.053 C 
BRANCH   3   4
ATOM      4  C   UNL     1       8.316  -3.266  41.699  1.00  0.00     0.041 C 
ATOM      5  O   UNL     1       8.481  -2.767  42.843  1.00  0.00    -0.550 OA
ATOM      6  O   UNL     1       8.588  -2.503  40.570  1.00  0.00    -0.550 OA
ENDBRANCH   3   4
ENDBRANCH   2   3
ENDBRANCH   1   2
BRANCH   1   7
ATOM      7  C   UNL     1       9.206  -6.880  42.490  1.00  0.00     0.000 C 
BRANCH   7   8
ATOM      8  C   UNL     1       8.960  -8.165  41.674  1.00  0.00    -0.000 C 
BRANCH   8   9
ATOM      9  C   UNL     1       7.478  -8.604  41.635  1.00  0.00    -0.000 C 
BRANCH   9  10
ATOM     10  C   UNL     1       7.250 -10.031  42.161  1.00  0.00    -0.003 C 
ATOM     11  C   UNL     1       7.205 -10.102  43.685  1.00  0.00     0.004 C 
ENDBRANCH   9  10
ENDBRANCH   8   9
ENDBRANCH   7   8
ENDBRANCH   1   7
TORSDOF 7
ENDMDL
MODEL 6
REMARK VINA RESULT:    -3.567      2.244      5.040
REMARK INTER + INTRA:          -5.543
REMARK INTER:                  -4.995
REMARK INTRA:                  -0.548
REMARK UNBOUND:                -0.516
REMARK SMILES CCCCCCCCC(=O)[O-]
REMARK SMILES IDX 6 1 7 2 8 3 9 4 10 5 11 6 5 7 4 8 3 9 2 10 1 11
REMARK H PARENT
REMARK Flexibility Score: inf
ROOT
ATOM      1  C   UNL     1       8.865  -7.920  41.631  1.00  0.00     0.000 C 
ENDROOT
BRANCH   1   2
ATOM      2  C   UNL     1       7.456  -8.541  41.660  1.00  0.00     0.006 C 
BRANCH   2   3
ATOM      3  C   UNL     1       7.477 -10.075  41.644  1.00  0.00     0.053 C 
BRANCH   3   4
ATOM      4  C   UNL     1       7.147 -10.615  42.999  1.00  0.00     0.041 C 
ATOM      5  O   UNL     1       6.741 -11.800  43.128  1.00  0.00    -0.550 OA
ATOM      6  O   UNL     1       7.242  -9.796  44.117  1.00  0.00    -0.550 OA
ENDBRANCH   3   4
ENDBRANCH   2   3
ENDBRANCH   1   2
BRANCH   1   7
ATOM      7  C   UNL     1       9.187  -6.953  42.790  1.00  0.00     0.000 C 
BRANCH   7   8
ATOM      8  C   UNL     1       7.962  -6.431  43.567  1.00  0.00    -0.000 C 
BRANCH   8   9
ATOM      9  C   UNL     1       7.337  -5.154  42.959  1.00  0.00    -0.000 C 
BRANCH   9  10
ATOM     10  C   UNL     1       8.361  -4.244  42.262  1.00  0.00    -0.003 C 
ATOM     11  C   UNL     1       8.028  -3.994  40.793  1.00  0.00     0.004 C 
ENDBRANCH   9  10
ENDBRANCH   8   9
ENDBRANCH   7   8
ENDBRANCH   1   7
TORSDOF 7
ENDMDL
MODEL 7
REMARK VINA RESULT:    -3.561      3.397      6.281
REMARK INTER + INTRA:          -5.535
REMARK INTER:                  -5.133
REMARK INTRA:                  -0.401
REMARK UNBOUND:                -0.516
REMARK SMILES CCCCCCCCC(=O)[O-]
REMARK SMILES IDX 6 1 7 2 8 3 9 4 10 5 11 6 5 7 4 8 3 9 2 10 1 11
REMARK H PARENT
REMARK Flexibility Score: inf
ROOT
ATOM      1  C   UNL     1       8.255  -3.976  42.617  1.00  0.00     0.000 C 
ENDROOT
BRANCH   1   2
ATOM      2  C   UNL     1       7.365  -5.228  42.721  1.00  0.00     0.006 C 
BRANCH   2   3
ATOM      3  C   UNL     1       8.148  -6.489  43.111  1.00  0.00     0.053 C 
BRANCH   3   4
ATOM      4  C   UNL     1       8.369  -7.357  41.914  1.00  0.00     0.041 C 
ATOM      5  O   UNL     1       7.477  -8.163  41.541  1.00  0.00    -0.550 OA
ATOM      6  O   UNL     1       9.582  -7.313  41.237  1.00  0.00    -0.550 OA
ENDBRANCH   3   4
ENDBRANCH   2   3
ENDBRANCH   1   2
BRANCH   1   7
ATOM      7  C   UNL     1       8.264  -3.282  41.238  1.00  0.00     0.000 C 
BRANCH   7   8
ATOM      8  C   UNL     1       8.180  -4.232  40.027  1.00  0.00    -0.000 C 
BRANCH   8   9
ATOM      9  C   UNL     1       8.084  -3.501  38.667  1.00  0.00    -0.000 C 
BRANCH   9  10
ATOM     10  C   UNL     1       7.233  -2.221  38.721  1.00  0.00    -0.003 C 
ATOM     11  C   UNL     1       5.997  -2.293  37.826  1.00  0.00     0.004 C 
ENDBRANCH   9  10
ENDBRANCH   8   9
ENDBRANCH   7   8
ENDBRANCH   1   7
TORSDOF 7
ENDMDL
MODEL 8
REMARK VINA RESULT:    -3.556      6.103      8.086
REMARK INTER + INTRA:          -5.528
REMARK INTER:                  -5.275
REMARK INTRA:                  -0.253
REMARK UNBOUND:                -0.516
REMARK SMILES CCCCCCCCC(=O)[O-]
REMARK SMILES IDX 6 1 7 2 8 3 9 4 10 5 11 6 5 7 4 8 3 9 2 10 1 11
REMARK H PARENT
REMARK Flexibility Score: inf
ROOT
ATOM      1  C   UNL     1       7.442  -2.129  38.508  1.00  0.00     0.000 C 
ENDROOT
BRANCH   1   2
ATOM      2  C   UNL     1       6.064  -2.284  37.839  1.00  0.00     0.006 C 
BRANCH   2   3
ATOM      3  C   UNL     1       5.598  -1.009  37.124  1.00  0.00     0.053 C 
BRANCH   3   4
ATOM      4  C   UNL     1       6.041  -1.021  35.695  1.00  0.00     0.041 C 
ATOM      5  O   UNL     1       5.858  -2.043  34.982  1.00  0.00    -0.550 OA
ATOM      6  O   UNL     1       6.701   0.079  35.162  1.00  0.00    -0.550 OA
ENDBRANCH   3   4
ENDBRANCH   2   3
ENDBRANCH   1   2
BRANCH   1   7
ATOM      7  C   UNL     1       7.634  -2.914  39.823  1.00  0.00     0.000 C 
BRANCH   7   8
ATOM      8  C   UNL     1       8.297  -2.122  40.967  1.00  0.00    -0.000 C 
BRANCH   8   9
ATOM      9  C   UNL     1       8.333  -2.883  42.313  1.00  0.00    -0.000 C 
BRANCH   9  10
ATOM     10  C   UNL     1       8.477  -4.405  42.150  1.00  0.00    -0.003 C 
ATOM     11  C   UNL     1       7.366  -5.184  42.850  1.00  0.00     0.004 C 
ENDBRANCH   9  10
ENDBRANCH   8   9
ENDBRANCH   7   8
ENDBRANCH   1   7
TORSDOF 7
ENDMDL
MODEL 9
REMARK VINA RESULT:    -3.503      1.526      2.768
REMARK INTER + INTRA:          -5.453
REMARK INTER:                  -4.969
REMARK INTRA:                  -0.484
REMARK UNBOUND:                -0.516
REMARK SMILES CCCCCCCCC(=O)[O-]
REMARK SMILES IDX 6 1 7 2 8 3 9 4 10 5 11 6 5 7 4 8 3 9 2 10 1 11
REMARK H PARENT
REMARK Flexibility Score: inf
ROOT
ATOM      1  C   UNL     1       7.491  -9.951  44.338  1.00  0.00     0.000 C 
ENDROOT
BRANCH   1   2
ATOM      2  C   UNL     1       7.892  -8.983  43.209  1.00  0.00     0.006 C 
BRANCH   2   3
ATOM      3  C   UNL     1       8.777  -7.829  43.696  1.00  0.00     0.053 C 
BRANCH   3   4
ATOM      4  C   UNL     1       8.647  -6.651  42.784  1.00  0.00     0.041 C 
ATOM      5  O   UNL     1       9.529  -5.752  42.779  1.00  0.00    -0.550 OA
ATOM      6  O   UNL     1       7.527  -6.519  41.973  1.00  0.00    -0.550 OA
ENDBRANCH   3   4
ENDBRANCH   2   3
ENDBRANCH   1   2
BRANCH   1   7
ATOM      7  C   UNL     1       6.348 -10.931  43.996  1.00  0.00     0.000 C 
BRANCH   7   8
ATOM      8  C   UNL     1       6.760 -12.140  43.133  1.00  0.00    -0.000 C 
BRANCH   8   9
ATOM      9  C   UNL     1       5.793 -12.427  41.961  1.00  0.00    -0.000 C 
BRANCH   9  10
ATOM     10  C   UNL     1       5.404 -11.169  41.168  1.00  0.00    -0.003 C 
ATOM     11  C   UNL     1       6.515 -10.688  40.237  1.00  0.00     0.004 C 
ENDBRANCH   9  10
ENDBRANCH   8   9
ENDBRANCH   7   8
ENDBRANCH   1   7
TORSDOF 7
ENDMDL
