MODEL 1
REMARK VINA RESULT:    -8.320      0.000      0.000
REMARK INTER + INTRA:         -10.108
REMARK INTER:                 -10.266
REMARK INTRA:                   0.158
REMARK UNBOUND:                 0.158
REMARK SMILES O=c1c(O)c(-c2cc(O)c(O)c(O)c2)oc2cc(O)cc(O)c12
REMARK SMILES IDX 5 1 3 2 2 3 1 4 23 5 21 6 20 7 18 8 17 9 16 10 15 11 6 12
REMARK SMILES IDX 7 13 8 14 14 15 10 16 12 17 9 18 11 20 13 22 4 24 22 26
REMARK SMILES IDX 19 28
REMARK H PARENT 9 19 11 21 13 23 4 25 22 27 19 29
REMARK Flexibility Score: inf
ROOT
ATOM      1  C   UNL     1      15.709  23.224  40.692  1.00  0.00     0.180 A 
ATOM      2  C   UNL     1      15.058  24.403  40.287  1.00  0.00     0.208 A 
ATOM      3  C   UNL     1      14.041  24.932  41.096  1.00  0.00     0.238 A 
ATOM      4  O   UNL     1      13.500  26.017  40.756  1.00  0.00    -0.285 OA
ATOM      5  C   UNL     1      13.674  24.268  42.292  1.00  0.00     0.111 A 
ATOM      6  C   UNL     1      12.630  24.694  43.167  1.00  0.00     0.134 A 
ATOM      7  C   UNL     1      12.443  24.034  44.389  1.00  0.00     0.093 A 
ATOM      8  C   UNL     1      13.217  22.926  44.736  1.00  0.00     0.123 A 
ATOM      9  C   UNL     1      14.199  22.467  43.861  1.00  0.00     0.094 A 
ATOM     10  C   UNL     1      14.435  23.125  42.652  1.00  0.00     0.146 A 
ATOM     11  O   UNL     1      15.388  22.661  41.852  1.00  0.00    -0.452 OA
ENDROOT
BRANCH   1  12
ATOM     12  C   UNL     1      16.774  22.593  39.881  1.00  0.00     0.029 A 
ATOM     13  C   UNL     1      16.875  21.195  39.768  1.00  0.00     0.062 A 
ATOM     14  C   UNL     1      17.904  20.613  39.015  1.00  0.00     0.162 A 
ATOM     15  C   UNL     1      17.737  23.399  39.257  1.00  0.00     0.062 A 
ATOM     16  C   UNL     1      18.851  21.431  38.375  1.00  0.00     0.200 A 
ATOM     17  C   UNL     1      18.768  22.823  38.501  1.00  0.00     0.162 A 
BRANCH  14  18
ATOM     18  O   UNL     1      17.991  19.226  38.904  1.00  0.00    -0.504 OA
ATOM     19  H   UNL     1      18.583  18.784  38.210  1.00  0.00     0.293 HD
ENDBRANCH  14  18
BRANCH  16  20
ATOM     20  O   UNL     1      19.882  20.875  37.617  1.00  0.00    -0.502 OA
ATOM     21  H   UNL     1      20.094  19.885  37.639  1.00  0.00     0.293 HD
ENDBRANCH  16  20
BRANCH  17  22
ATOM     22  O   UNL     1      19.714  23.629  37.871  1.00  0.00    -0.504 OA
ATOM     23  H   UNL     1      19.969  23.487  36.900  1.00  0.00     0.293 HD
ENDBRANCH  17  22
ENDBRANCH   1  12
BRANCH   2  24
ATOM     24  O   UNL     1      15.450  25.053  39.114  1.00  0.00    -0.502 OA
ATOM     25  H   UNL     1      15.479  26.063  39.035  1.00  0.00     0.293 HD
ENDBRANCH   2  24
BRANCH   6  26
ATOM     26  O   UNL     1      11.741  25.731  42.875  1.00  0.00    -0.507 OA
ATOM     27  H   UNL     1      11.567  26.096  41.951  1.00  0.00     0.293 HD
ENDBRANCH   6  26
BRANCH   8  28
ATOM     28  O   UNL     1      13.013  22.265  45.946  1.00  0.00    -0.508 OA
ATOM     29  H   UNL     1      12.701  22.760  46.773  1.00  0.00     0.293 HD
ENDBRANCH   8  28
TORSDOF 7
ENDMDL
MODEL 2
REMARK VINA RESULT:    -8.309      0.258      1.767
REMARK INTER + INTRA:         -10.094
REMARK INTER:                 -10.222
REMARK INTRA:                   0.129
REMARK UNBOUND:                 0.158
REMARK SMILES O=c1c(O)c(-c2cc(O)c(O)c(O)c2)oc2cc(O)cc(O)c12
REMARK SMILES IDX 5 1 3 2 2 3 1 4 23 5 21 6 20 7 18 8 17 9 16 10 15 11 6 12
REMARK SMILES IDX 7 13 8 14 14 15 10 16 12 17 9 18 11 20 13 22 4 24 22 26
REMARK SMILES IDX 19 28
REMARK H PARENT 9 19 11 21 13 23 4 25 22 27 19 29
REMARK Flexibility Score: inf
ROOT
ATOM      1  C   UNL     1      15.542  23.277  40.850  1.00  0.00     0.180 A 
ATOM      2  C   UNL     1      14.891  24.465  40.474  1.00  0.00     0.208 A 
ATOM      3  C   UNL     1      13.868  24.969  41.293  1.00  0.00     0.238 A 
ATOM      4  O   UNL     1      13.326  26.062  40.979  1.00  0.00    -0.285 OA
ATOM      5  C   UNL     1      13.498  24.272  42.468  1.00  0.00     0.111 A 
ATOM      6  C   UNL     1      12.449  24.671  43.350  1.00  0.00     0.134 A 
ATOM      7  C   UNL     1      12.257  23.978  44.552  1.00  0.00     0.093 A 
ATOM      8  C   UNL     1      13.033  22.862  44.872  1.00  0.00     0.123 A 
ATOM      9  C   UNL     1      14.020  22.429  43.990  1.00  0.00     0.094 A 
ATOM     10  C   UNL     1      14.259  23.121  42.800  1.00  0.00     0.146 A 
ATOM     11  O   UNL     1      15.217  22.682  41.992  1.00  0.00    -0.452 OA
ENDROOT
BRANCH   1  12
ATOM     12  C   UNL     1      16.612  22.670  40.026  1.00  0.00     0.029 A 
ATOM     13  C   UNL     1      17.579  23.463  39.385  1.00  0.00     0.062 A 
ATOM     14  C   UNL     1      18.571  22.874  38.589  1.00  0.00     0.162 A 
ATOM     15  C   UNL     1      16.631  21.281  39.833  1.00  0.00     0.062 A 
ATOM     16  C   UNL     1      18.596  21.478  38.420  1.00  0.00     0.200 A 
ATOM     17  C   UNL     1      17.622  20.684  39.040  1.00  0.00     0.162 A 
BRANCH  14  18
ATOM     18  O   UNL     1      19.530  23.668  37.963  1.00  0.00    -0.504 OA
ATOM     19  H   UNL     1      20.153  23.294  37.257  1.00  0.00     0.293 HD
ENDBRANCH  14  18
BRANCH  16  20
ATOM     20  O   UNL     1      19.575  20.868  37.637  1.00  0.00    -0.502 OA
ATOM     21  H   UNL     1      20.563  21.034  37.783  1.00  0.00     0.293 HD
ENDBRANCH  16  20
BRANCH  17  22
ATOM     22  O   UNL     1      17.645  19.303  38.863  1.00  0.00    -0.504 OA
ATOM     23  H   UNL     1      17.196  18.676  39.522  1.00  0.00     0.293 HD
ENDBRANCH  17  22
ENDBRANCH   1  12
BRANCH   2  24
ATOM     24  O   UNL     1      15.286  25.148  39.321  1.00  0.00    -0.502 OA
ATOM     25  H   UNL     1      14.772  25.940  38.954  1.00  0.00     0.293 HD
ENDBRANCH   2  24
BRANCH   6  26
ATOM     26  O   UNL     1      11.558  25.714  43.082  1.00  0.00    -0.507 OA
ATOM     27  H   UNL     1      11.714  26.442  42.401  1.00  0.00     0.293 HD
ENDBRANCH   6  26
BRANCH   8  28
ATOM     28  O   UNL     1      12.824  22.169  46.062  1.00  0.00    -0.508 OA
ATOM     29  H   UNL     1      11.940  22.217  46.555  1.00  0.00     0.293 HD
ENDBRANCH   8  28
TORSDOF 7
ENDMDL
MODEL 3
REMARK VINA RESULT:    -7.928      1.014      6.949
REMARK INTER + INTRA:          -9.624
REMARK INTER:                 -10.058
REMARK INTRA:                   0.433
REMARK UNBOUND:                 0.158
REMARK SMILES O=c1c(O)c(-c2cc(O)c(O)c(O)c2)oc2cc(O)cc(O)c12
REMARK SMILES IDX 5 1 3 2 2 3 1 4 23 5 21 6 20 7 18 8 17 9 16 10 15 11 6 12
REMARK SMILES IDX 7 13 8 14 14 15 10 16 12 17 9 18 11 20 13 22 4 24 22 26
REMARK SMILES IDX 19 28
REMARK H PARENT 9 19 11 21 13 23 4 25 22 27 19 29
REMARK Flexibility Score: inf
ROOT
ATOM      1  C   UNL     1      14.957  23.509  41.482  1.00  0.00     0.180 A 
ATOM      2  C   UNL     1      15.066  24.474  40.465  1.00  0.00     0.208 A 
ATOM      3  C   UNL     1      16.077  24.336  39.502  1.00  0.00     0.238 A 
ATOM      4  O   UNL     1      16.135  25.173  38.562  1.00  0.00    -0.285 OA
ATOM      5  C   UNL     1      16.977  23.247  39.575  1.00  0.00     0.111 A 
ATOM      6  C   UNL     1      18.064  23.031  38.675  1.00  0.00     0.134 A 
ATOM      7  C   UNL     1      18.810  21.849  38.764  1.00  0.00     0.093 A 
ATOM      8  C   UNL     1      18.550  20.906  39.762  1.00  0.00     0.123 A 
ATOM      9  C   UNL     1      17.530  21.136  40.682  1.00  0.00     0.094 A 
ATOM     10  C   UNL     1      16.745  22.289  40.596  1.00  0.00     0.146 A 
ATOM     11  O   UNL     1      15.776  22.463  41.486  1.00  0.00    -0.452 OA
ENDROOT
BRANCH   1  12
ATOM     12  C   UNL     1      13.934  23.599  42.548  1.00  0.00     0.029 A 
ATOM     13  C   UNL     1      12.920  24.572  42.507  1.00  0.00     0.062 A 
ATOM     14  C   UNL     1      11.972  24.658  43.537  1.00  0.00     0.162 A 
ATOM     15  C   UNL     1      14.006  22.735  43.651  1.00  0.00     0.062 A 
ATOM     16  C   UNL     1      12.040  23.773  44.626  1.00  0.00     0.200 A 
ATOM     17  C   UNL     1      13.061  22.814  44.683  1.00  0.00     0.162 A 
BRANCH  14  18
ATOM     18  O   UNL     1      10.967  25.622  43.483  1.00  0.00    -0.504 OA
ATOM     19  H   UNL     1      11.153  26.597  43.691  1.00  0.00     0.293 HD
ENDBRANCH  14  18
BRANCH  16  20
ATOM     20  O   UNL     1      11.106  23.836  45.661  1.00  0.00    -0.502 OA
ATOM     21  H   UNL     1      10.216  23.356  45.614  1.00  0.00     0.293 HD
ENDBRANCH  16  20
BRANCH  17  22
ATOM     22  O   UNL     1      13.129  21.944  45.769  1.00  0.00    -0.504 OA
ATOM     23  H   UNL     1      13.577  22.214  46.637  1.00  0.00     0.293 HD
ENDBRANCH  17  22
ENDBRANCH   1  12
BRANCH   2  24
ATOM     24  O   UNL     1      14.154  25.530  40.399  1.00  0.00    -0.502 OA
ATOM     25  H   UNL     1      13.694  25.800  39.537  1.00  0.00     0.293 HD
ENDBRANCH   2  24
BRANCH   6  26
ATOM     26  O   UNL     1      18.466  23.950  37.702  1.00  0.00    -0.507 OA
ATOM     27  H   UNL     1      19.403  24.311  37.604  1.00  0.00     0.293 HD
ENDBRANCH   6  26
BRANCH   8  28
ATOM     28  O   UNL     1      19.308  19.740  39.853  1.00  0.00    -0.508 OA
ATOM     29  H   UNL     1      20.146  19.697  40.421  1.00  0.00     0.293 HD
ENDBRANCH   8  28
TORSDOF 7
ENDMDL
MODEL 4
REMARK VINA RESULT:    -7.720      1.022      6.819
REMARK INTER + INTRA:          -9.367
REMARK INTER:                  -9.869
REMARK INTRA:                   0.502
REMARK UNBOUND:                 0.158
REMARK SMILES O=c1c(O)c(-c2cc(O)c(O)c(O)c2)oc2cc(O)cc(O)c12
REMARK SMILES IDX 5 1 3 2 2 3 1 4 23 5 21 6 20 7 18 8 17 9 16 10 15 11 6 12
REMARK SMILES IDX 7 13 8 14 14 15 10 16 12 17 9 18 11 20 13 22 4 24 22 26
REMARK SMILES IDX 19 28
REMARK H PARENT 9 19 11 21 13 23 4 25 22 27 19 29
REMARK Flexibility Score: inf
ROOT
ATOM      1  C   UNL     1      14.882  23.490  41.587  1.00  0.00     0.180 A 
ATOM      2  C   UNL     1      14.954  24.467  40.578  1.00  0.00     0.208 A 
ATOM      3  C   UNL     1      15.947  24.357  39.592  1.00  0.00     0.238 A 
ATOM      4  O   UNL     1      15.971  25.204  38.661  1.00  0.00    -0.285 OA
ATOM      5  C   UNL     1      16.866  23.281  39.635  1.00  0.00     0.111 A 
ATOM      6  C   UNL     1      17.937  23.093  38.711  1.00  0.00     0.134 A 
ATOM      7  C   UNL     1      18.704  21.923  38.771  1.00  0.00     0.093 A 
ATOM      8  C   UNL     1      18.481  20.965  39.763  1.00  0.00     0.123 A 
ATOM      9  C   UNL     1      17.476  21.168  40.707  1.00  0.00     0.094 A 
ATOM     10  C   UNL     1      16.671  22.309  40.650  1.00  0.00     0.146 A 
ATOM     11  O   UNL     1      15.717  22.457  41.562  1.00  0.00    -0.452 OA
ENDROOT
BRANCH   1  12
ATOM     12  C   UNL     1      13.880  23.551  42.674  1.00  0.00     0.029 A 
ATOM     13  C   UNL     1      13.896  22.631  43.737  1.00  0.00     0.062 A 
ATOM     14  C   UNL     1      12.925  22.689  44.745  1.00  0.00     0.162 A 
ATOM     15  C   UNL     1      12.856  24.509  42.617  1.00  0.00     0.062 A 
ATOM     16  C   UNL     1      11.917  23.667  44.691  1.00  0.00     0.200 A 
ATOM     17  C   UNL     1      11.882  24.573  43.623  1.00  0.00     0.162 A 
BRANCH  14  18
ATOM     18  O   UNL     1      12.955  21.776  45.798  1.00  0.00    -0.504 OA
ATOM     19  H   UNL     1      13.009  20.777  45.635  1.00  0.00     0.293 HD
ENDBRANCH  14  18
BRANCH  16  20
ATOM     20  O   UNL     1      10.941  23.747  45.685  1.00  0.00    -0.502 OA
ATOM     21  H   UNL     1      10.469  22.926  46.044  1.00  0.00     0.293 HD
ENDBRANCH  16  20
BRANCH  17  22
ATOM     22  O   UNL     1      10.876  25.536  43.569  1.00  0.00    -0.504 OA
ATOM     23  H   UNL     1      10.152  25.507  42.860  1.00  0.00     0.293 HD
ENDBRANCH  17  22
ENDBRANCH   1  12
BRANCH   2  24
ATOM     24  O   UNL     1      14.023  25.508  40.542  1.00  0.00    -0.502 OA
ATOM     25  H   UNL     1      13.998  26.191  39.794  1.00  0.00     0.293 HD
ENDBRANCH   2  24
BRANCH   6  26
ATOM     26  O   UNL     1      18.303  24.029  37.740  1.00  0.00    -0.507 OA
ATOM     27  H   UNL     1      18.761  23.805  36.869  1.00  0.00     0.293 HD
ENDBRANCH   6  26
BRANCH   8  28
ATOM     28  O   UNL     1      19.259  19.812  39.827  1.00  0.00    -0.508 OA
ATOM     29  H   UNL     1      19.841  19.522  39.050  1.00  0.00     0.293 HD
ENDBRANCH   8  28
TORSDOF 7
ENDMDL
MODEL 5
REMARK VINA RESULT:    -7.669      1.790      2.821
REMARK INTER + INTRA:          -9.305
REMARK INTER:                  -9.768
REMARK INTRA:                   0.464
REMARK UNBOUND:                 0.158
REMARK SMILES O=c1c(O)c(-c2cc(O)c(O)c(O)c2)oc2cc(O)cc(O)c12
REMARK SMILES IDX 5 1 3 2 2 3 1 4 23 5 21 6 20 7 18 8 17 9 16 10 15 11 6 12
REMARK SMILES IDX 7 13 8 14 14 15 10 16 12 17 9 18 11 20 13 22 4 24 22 26
REMARK SMILES IDX 19 28
REMARK H PARENT 9 19 11 21 13 23 4 25 22 27 19 29
REMARK Flexibility Score: inf
ROOT
ATOM      1  C   UNL     1      17.708  22.583  39.904  1.00  0.00     0.180 A 
ATOM      2  C   UNL     1      17.531  23.683  39.048  1.00  0.00     0.208 A 
ATOM      3  C   UNL     1      16.421  24.521  39.235  1.00  0.00     0.238 A 
ATOM      4  O   UNL     1      16.298  25.536  38.499  1.00  0.00    -0.285 OA
ATOM      5  C   UNL     1      15.492  24.240  40.265  1.00  0.00     0.111 A 
ATOM      6  C   UNL     1      14.310  24.999  40.519  1.00  0.00     0.134 A 
ATOM      7  C   UNL     1      13.532  24.708  41.647  1.00  0.00     0.093 A 
ATOM      8  C   UNL     1      13.858  23.644  42.492  1.00  0.00     0.123 A 
ATOM      9  C   UNL     1      14.976  22.861  42.218  1.00  0.00     0.094 A 
ATOM     10  C   UNL     1      15.792  23.149  41.121  1.00  0.00     0.146 A 
ATOM     11  O   UNL     1      16.855  22.384  40.903  1.00  0.00    -0.452 OA
ENDROOT
BRANCH   1  12
ATOM     12  C   UNL     1      18.840  21.641  39.755  1.00  0.00     0.029 A 
ATOM     13  C   UNL     1      18.870  20.418  40.448  1.00  0.00     0.062 A 
ATOM     14  C   UNL     1      19.961  19.548  40.313  1.00  0.00     0.162 A 
ATOM     15  C   UNL     1      19.933  21.996  38.951  1.00  0.00     0.062 A 
ATOM     16  C   UNL     1      21.041  19.904  39.487  1.00  0.00     0.200 A 
ATOM     17  C   UNL     1      21.027  21.130  38.810  1.00  0.00     0.162 A 
BRANCH  14  18
ATOM     18  O   UNL     1      19.977  18.335  41.000  1.00  0.00    -0.504 OA
ATOM     19  H   UNL     1      20.248  18.279  41.975  1.00  0.00     0.293 HD
ENDBRANCH  14  18
BRANCH  16  20
ATOM     20  O   UNL     1      22.136  19.053  39.334  1.00  0.00    -0.502 OA
ATOM     21  H   UNL     1      22.988  19.349  38.874  1.00  0.00     0.293 HD
ENDBRANCH  16  20
BRANCH  17  22
ATOM     22  O   UNL     1      22.103  21.481  37.999  1.00  0.00    -0.504 OA
ATOM     23  H   UNL     1      22.067  21.370  36.992  1.00  0.00     0.293 HD
ENDBRANCH  17  22
ENDBRANCH   1  12
BRANCH   2  24
ATOM     24  O   UNL     1      18.472  23.955  38.051  1.00  0.00    -0.502 OA
ATOM     25  H   UNL     1      18.370  24.725  37.401  1.00  0.00     0.293 HD
ENDBRANCH   2  24
BRANCH   6  26
ATOM     26  O   UNL     1      13.845  26.021  39.688  1.00  0.00    -0.507 OA
ATOM     27  H   UNL     1      13.931  26.029  38.683  1.00  0.00     0.293 HD
ENDBRANCH   6  26
BRANCH   8  28
ATOM     28  O   UNL     1      13.069  23.351  43.603  1.00  0.00    -0.508 OA
ATOM     29  H   UNL     1      13.203  23.827  44.487  1.00  0.00     0.293 HD
ENDBRANCH   8  28
TORSDOF 7
ENDMDL
MODEL 6
REMARK VINA RESULT:    -7.325     15.848     16.475
REMARK INTER + INTRA:          -8.879
REMARK INTER:                  -9.334
REMARK INTRA:                   0.455
REMARK UNBOUND:                 0.158
REMARK SMILES O=c1c(O)c(-c2cc(O)c(O)c(O)c2)oc2cc(O)cc(O)c12
REMARK SMILES IDX 5 1 3 2 2 3 1 4 23 5 21 6 20 7 18 8 17 9 16 10 15 11 6 12
REMARK SMILES IDX 7 13 8 14 14 15 10 16 12 17 9 18 11 20 13 22 4 24 22 26
REMARK SMILES IDX 19 28
REMARK H PARENT 9 19 11 21 13 23 4 25 22 27 19 29
REMARK Flexibility Score: inf
ROOT
ATOM      1  C   UNL     1      24.527  11.851  34.907  1.00  0.00     0.180 A 
ATOM      2  C   UNL     1      25.061  12.905  34.144  1.00  0.00     0.208 A 
ATOM      3  C   UNL     1      26.163  13.616  34.644  1.00  0.00     0.238 A 
ATOM      4  O   UNL     1      26.671  14.522  33.932  1.00  0.00    -0.285 OA
ATOM      5  C   UNL     1      26.707  13.278  35.906  1.00  0.00     0.111 A 
ATOM      6  C   UNL     1      27.798  13.957  36.527  1.00  0.00     0.134 A 
ATOM      7  C   UNL     1      28.338  13.453  37.717  1.00  0.00     0.093 A 
ATOM      8  C   UNL     1      27.785  12.333  38.341  1.00  0.00     0.123 A 
ATOM      9  C   UNL     1      26.683  11.698  37.774  1.00  0.00     0.094 A 
ATOM     10  C   UNL     1      26.144  12.156  36.569  1.00  0.00     0.146 A 
ATOM     11  O   UNL     1      25.101  11.515  36.057  1.00  0.00    -0.452 OA
ENDROOT
BRANCH   1  12
ATOM     12  C   UNL     1      23.351  11.071  34.459  1.00  0.00     0.029 A 
ATOM     13  C   UNL     1      22.658  10.222  35.340  1.00  0.00     0.062 A 
ATOM     14  C   UNL     1      21.561   9.473  34.892  1.00  0.00     0.162 A 
ATOM     15  C   UNL     1      22.952  11.132  33.115  1.00  0.00     0.062 A 
ATOM     16  C   UNL     1      21.155   9.559  33.549  1.00  0.00     0.200 A 
ATOM     17  C   UNL     1      21.855  10.387  32.662  1.00  0.00     0.162 A 
BRANCH  14  18
ATOM     18  O   UNL     1      20.877   8.640  35.776  1.00  0.00    -0.504 OA
ATOM     19  H   UNL     1      20.045   8.134  35.494  1.00  0.00     0.293 HD
ENDBRANCH  14  18
BRANCH  16  20
ATOM     20  O   UNL     1      20.065   8.826  33.082  1.00  0.00    -0.502 OA
ATOM     21  H   UNL     1      19.261   8.625  33.664  1.00  0.00     0.293 HD
ENDBRANCH  16  20
BRANCH  17  22
ATOM     22  O   UNL     1      21.454  10.463  31.330  1.00  0.00    -0.504 OA
ATOM     23  H   UNL     1      22.079  10.801  30.606  1.00  0.00     0.293 HD
ENDBRANCH  17  22
ENDBRANCH   1  12
BRANCH   2  24
ATOM     24  O   UNL     1      24.522  13.208  32.892  1.00  0.00    -0.502 OA
ATOM     25  H   UNL     1      24.113  12.504  32.290  1.00  0.00     0.293 HD
ENDBRANCH   2  24
BRANCH   6  26
ATOM     26  O   UNL     1      28.365  15.136  36.035  1.00  0.00    -0.507 OA
ATOM     27  H   UNL     1      28.660  15.277  35.080  1.00  0.00     0.293 HD
ENDBRANCH   6  26
BRANCH   8  28
ATOM     28  O   UNL     1      28.318  11.848  39.534  1.00  0.00    -0.508 OA
ATOM     29  H   UNL     1      28.133  10.904  39.852  1.00  0.00     0.293 HD
ENDBRANCH   8  28
TORSDOF 7
ENDMDL
MODEL 7
REMARK VINA RESULT:    -7.016     17.936     20.321
REMARK INTER + INTRA:          -8.499
REMARK INTER:                  -8.941
REMARK INTRA:                   0.443
REMARK UNBOUND:                 0.158
REMARK SMILES O=c1c(O)c(-c2cc(O)c(O)c(O)c2)oc2cc(O)cc(O)c12
REMARK SMILES IDX 5 1 3 2 2 3 1 4 23 5 21 6 20 7 18 8 17 9 16 10 15 11 6 12
REMARK SMILES IDX 7 13 8 14 14 15 10 16 12 17 9 18 11 20 13 22 4 24 22 26
REMARK SMILES IDX 19 28
REMARK H PARENT 9 19 11 21 13 23 4 25 22 27 19 29
REMARK Flexibility Score: inf
ROOT
ATOM      1  C   UNL     1      30.552  10.713  39.734  1.00  0.00     0.180 A 
ATOM      2  C   UNL     1      30.822   9.549  38.994  1.00  0.00     0.208 A 
ATOM      3  C   UNL     1      30.828   9.620  37.592  1.00  0.00     0.238 A 
ATOM      4  O   UNL     1      31.123   8.586  36.936  1.00  0.00    -0.285 OA
ATOM      5  C   UNL     1      30.548  10.848  36.947  1.00  0.00     0.111 A 
ATOM      6  C   UNL     1      30.488  11.026  35.532  1.00  0.00     0.134 A 
ATOM      7  C   UNL     1      30.333  12.314  35.004  1.00  0.00     0.093 A 
ATOM      8  C   UNL     1      30.171  13.421  35.840  1.00  0.00     0.123 A 
ATOM      9  C   UNL     1      30.168  13.250  37.222  1.00  0.00     0.094 A 
ATOM     10  C   UNL     1      30.357  11.982  37.779  1.00  0.00     0.146 A 
ATOM     11  O   UNL     1      30.359  11.865  39.102  1.00  0.00    -0.452 OA
ENDROOT
BRANCH   1  12
ATOM     12  C   UNL     1      30.504  10.713  41.214  1.00  0.00     0.029 A 
ATOM     13  C   UNL     1      30.849   9.570  41.956  1.00  0.00     0.062 A 
ATOM     14  C   UNL     1      30.774   9.579  43.356  1.00  0.00     0.162 A 
ATOM     15  C   UNL     1      30.052  11.855  41.891  1.00  0.00     0.062 A 
ATOM     16  C   UNL     1      30.341  10.737  44.026  1.00  0.00     0.200 A 
ATOM     17  C   UNL     1      29.977  11.872  43.291  1.00  0.00     0.162 A 
BRANCH  14  18
ATOM     18  O   UNL     1      31.125   8.443  44.083  1.00  0.00    -0.504 OA
ATOM     19  H   UNL     1      31.663   8.504  44.939  1.00  0.00     0.293 HD
ENDBRANCH  14  18
BRANCH  16  20
ATOM     20  O   UNL     1      30.263  10.772  45.418  1.00  0.00    -0.502 OA
ATOM     21  H   UNL     1      29.829  10.030  45.953  1.00  0.00     0.293 HD
ENDBRANCH  16  20
BRANCH  17  22
ATOM     22  O   UNL     1      29.541  13.014  43.959  1.00  0.00    -0.504 OA
ATOM     23  H   UNL     1      29.780  13.185  44.930  1.00  0.00     0.293 HD
ENDBRANCH  17  22
ENDBRANCH   1  12
BRANCH   2  24
ATOM     24  O   UNL     1      31.116   8.351  39.651  1.00  0.00    -0.502 OA
ATOM     25  H   UNL     1      31.152   7.461  39.169  1.00  0.00     0.293 HD
ENDBRANCH   2  24
BRANCH   6  26
ATOM     26  O   UNL     1      30.548   9.977  34.611  1.00  0.00    -0.507 OA
ATOM     27  H   UNL     1      30.460   8.999  34.846  1.00  0.00     0.293 HD
ENDBRANCH   6  26
BRANCH   8  28
ATOM     28  O   UNL     1      30.001  14.696  35.305  1.00  0.00    -0.508 OA
ATOM     29  H   UNL     1      30.757  15.178  34.834  1.00  0.00     0.293 HD
ENDBRANCH   8  28
TORSDOF 7
ENDMDL
MODEL 8
REMARK VINA RESULT:    -6.723     18.134     20.355
REMARK INTER + INTRA:          -8.137
REMARK INTER:                  -8.648
REMARK INTRA:                   0.511
REMARK UNBOUND:                 0.158
REMARK SMILES O=c1c(O)c(-c2cc(O)c(O)c(O)c2)oc2cc(O)cc(O)c12
REMARK SMILES IDX 5 1 3 2 2 3 1 4 23 5 21 6 20 7 18 8 17 9 16 10 15 11 6 12
REMARK SMILES IDX 7 13 8 14 14 15 10 16 12 17 9 18 11 20 13 22 4 24 22 26
REMARK SMILES IDX 19 28
REMARK H PARENT 9 19 11 21 13 23 4 25 22 27 19 29
REMARK Flexibility Score: inf
ROOT
ATOM      1  C   UNL     1      30.726  11.049  40.309  1.00  0.00     0.180 A 
ATOM      2  C   UNL     1      30.521  12.438  40.237  1.00  0.00     0.208 A 
ATOM      3  C   UNL     1      30.449  13.052  38.977  1.00  0.00     0.238 A 
ATOM      4  O   UNL     1      30.211  14.287  38.918  1.00  0.00    -0.285 OA
ATOM      5  C   UNL     1      30.599  12.273  37.805  1.00  0.00     0.111 A 
ATOM      6  C   UNL     1      30.584  12.796  36.477  1.00  0.00     0.134 A 
ATOM      7  C   UNL     1      30.610  11.916  35.388  1.00  0.00     0.093 A 
ATOM      8  C   UNL     1      30.717  10.537  35.578  1.00  0.00     0.123 A 
ATOM      9  C   UNL     1      30.792  10.020  36.869  1.00  0.00     0.094 A 
ATOM     10  C   UNL     1      30.733  10.870  37.977  1.00  0.00     0.146 A 
ATOM     11  O   UNL     1      30.796  10.336  39.190  1.00  0.00    -0.452 OA
ENDROOT
BRANCH   1  12
ATOM     12  C   UNL     1      30.837  10.334  41.601  1.00  0.00     0.029 A 
ATOM     13  C   UNL     1      30.937   8.933  41.654  1.00  0.00     0.062 A 
ATOM     14  C   UNL     1      31.018   8.271  42.887  1.00  0.00     0.162 A 
ATOM     15  C   UNL     1      30.784  11.061  42.800  1.00  0.00     0.062 A 
ATOM     16  C   UNL     1      30.987   9.010  44.082  1.00  0.00     0.200 A 
ATOM     17  C   UNL     1      30.866  10.405  44.036  1.00  0.00     0.162 A 
BRANCH  14  18
ATOM     18  O   UNL     1      31.124   6.882  42.929  1.00  0.00    -0.504 OA
ATOM     19  H   UNL     1      31.999   6.422  43.154  1.00  0.00     0.293 HD
ENDBRANCH  14  18
BRANCH  16  20
ATOM     20  O   UNL     1      31.070   8.374  45.321  1.00  0.00    -0.502 OA
ATOM     21  H   UNL     1      31.191   8.889  46.184  1.00  0.00     0.293 HD
ENDBRANCH  16  20
BRANCH  17  22
ATOM     22  O   UNL     1      30.827  11.133  45.223  1.00  0.00    -0.504 OA
ATOM     23  H   UNL     1      29.961  11.525  45.577  1.00  0.00     0.293 HD
ENDBRANCH  17  22
ENDBRANCH   1  12
BRANCH   2  24
ATOM     24  O   UNL     1      30.354  13.185  41.407  1.00  0.00    -0.502 OA
ATOM     25  H   UNL     1      30.355  12.762  42.327  1.00  0.00     0.293 HD
ENDBRANCH   2  24
BRANCH   6  26
ATOM     26  O   UNL     1      30.571  14.161  36.176  1.00  0.00    -0.507 OA
ATOM     27  H   UNL     1      30.527  14.900  36.861  1.00  0.00     0.293 HD
ENDBRANCH   6  26
BRANCH   8  28
ATOM     28  O   UNL     1      30.759   9.669  34.488  1.00  0.00    -0.508 OA
ATOM     29  H   UNL     1      31.441   8.923  34.432  1.00  0.00     0.293 HD
ENDBRANCH   8  28
TORSDOF 7
ENDMDL
MODEL 9
REMARK VINA RESULT:    -6.686     15.623     18.584
REMARK INTER + INTRA:          -8.092
REMARK INTER:                  -7.856
REMARK INTRA:                  -0.236
REMARK UNBOUND:                 0.158
REMARK SMILES O=c1c(O)c(-c2cc(O)c(O)c(O)c2)oc2cc(O)cc(O)c12
REMARK SMILES IDX 5 1 3 2 2 3 1 4 23 5 21 6 20 7 18 8 17 9 16 10 15 11 6 12
REMARK SMILES IDX 7 13 8 14 14 15 10 16 12 17 9 18 11 20 13 22 4 24 22 26
REMARK SMILES IDX 19 28
REMARK H PARENT 9 19 11 21 13 23 4 25 22 27 19 29
REMARK Flexibility Score: inf
ROOT
ATOM      1  C   UNL     1      28.461  11.833  37.600  1.00  0.00     0.180 A 
ATOM      2  C   UNL     1      28.892  12.570  38.716  1.00  0.00     0.208 A 
ATOM      3  C   UNL     1      29.672  11.933  39.694  1.00  0.00     0.238 A 
ATOM      4  O   UNL     1      30.100  12.613  40.664  1.00  0.00    -0.285 OA
ATOM      5  C   UNL     1      29.998  10.563  39.552  1.00  0.00     0.111 A 
ATOM      6  C   UNL     1      30.749   9.807  40.501  1.00  0.00     0.134 A 
ATOM      7  C   UNL     1      31.124   8.492  40.195  1.00  0.00     0.093 A 
ATOM      8  C   UNL     1      30.720   7.887  39.003  1.00  0.00     0.123 A 
ATOM      9  C   UNL     1      29.937   8.597  38.097  1.00  0.00     0.094 A 
ATOM     10  C   UNL     1      29.577   9.922  38.358  1.00  0.00     0.146 A 
ATOM     11  O   UNL     1      28.839  10.567  37.462  1.00  0.00    -0.452 OA
ENDROOT
BRANCH   1  12
ATOM     12  C   UNL     1      27.615  12.428  36.540  1.00  0.00     0.029 A 
ATOM     13  C   UNL     1      28.120  13.407  35.667  1.00  0.00     0.062 A 
ATOM     14  C   UNL     1      27.298  13.978  34.684  1.00  0.00     0.162 A 
ATOM     15  C   UNL     1      26.267  12.053  36.439  1.00  0.00     0.062 A 
ATOM     16  C   UNL     1      25.955  13.577  34.577  1.00  0.00     0.200 A 
ATOM     17  C   UNL     1      25.441  12.618  35.458  1.00  0.00     0.162 A 
BRANCH  14  18
ATOM     18  O   UNL     1      27.810  14.943  33.819  1.00  0.00    -0.504 OA
ATOM     19  H   UNL     1      27.722  14.855  32.813  1.00  0.00     0.293 HD
ENDBRANCH  14  18
BRANCH  16  20
ATOM     20  O   UNL     1      25.119  14.127  33.605  1.00  0.00    -0.502 OA
ATOM     21  H   UNL     1      25.402  14.913  33.032  1.00  0.00     0.293 HD
ENDBRANCH  16  20
BRANCH  17  22
ATOM     22  O   UNL     1      24.107  12.230  35.352  1.00  0.00    -0.504 OA
ATOM     23  H   UNL     1      23.838  11.252  35.345  1.00  0.00     0.293 HD
ENDBRANCH  17  22
ENDBRANCH   1  12
BRANCH   2  24
ATOM     24  O   UNL     1      28.576  13.927  38.826  1.00  0.00    -0.502 OA
ATOM     25  H   UNL     1      29.191  14.658  38.489  1.00  0.00     0.293 HD
ENDBRANCH   2  24
BRANCH   6  26
ATOM     26  O   UNL     1      31.125  10.285  41.759  1.00  0.00    -0.507 OA
ATOM     27  H   UNL     1      31.021   9.775  42.623  1.00  0.00     0.293 HD
ENDBRANCH   6  26
BRANCH   8  28
ATOM     28  O   UNL     1      31.084   6.573  38.714  1.00  0.00    -0.508 OA
ATOM     29  H   UNL     1      31.889   6.139  39.148  1.00  0.00     0.293 HD
ENDBRANCH   8  28
TORSDOF 7
ENDMDL
