MODEL 1
REMARK VINA RESULT:    -5.268      0.000      0.000
REMARK INTER + INTRA:          -7.653
REMARK INTER:                  -6.500
REMARK INTRA:                  -1.153
REMARK UNBOUND:                -1.153
REMARK SMILES CC(C)=CCC[C@@H](C)c1ccc(C)cc1
REMARK SMILES IDX 6 1 7 2 8 3 9 4 13 5 12 6 11 7 14 8 10 9 15 10 5 11 4 12
REMARK SMILES IDX 2 13 1 14 3 15
REMARK H PARENT
REMARK Flexibility Score: inf
ROOT
ATOM      1  C   UNL     1     172.309 173.557 150.883  1.00  0.00     0.012 C 
ENDROOT
BRANCH   1   2
ATOM      2  C   UNL     1     173.295 173.077 149.792  1.00  0.00     0.016 C 
ATOM      3  C   UNL     1     174.599 173.889 149.766  1.00  0.00     0.013 C 
BRANCH   2   4
ATOM      4  C   UNL     1     173.599 171.600 149.970  1.00  0.00    -0.045 A 
ATOM      5  C   UNL     1     174.437 167.390 150.454  1.00  0.00     0.044 C 
ATOM      6  C   UNL     1     174.138 168.854 150.316  1.00  0.00    -0.051 A 
ATOM      7  C   UNL     1     172.860 169.281 149.931  1.00  0.00     0.004 A 
ATOM      8  C   UNL     1     175.154 169.803 150.504  1.00  0.00     0.004 A 
ATOM      9  C   UNL     1     172.590 170.642 149.766  1.00  0.00     0.004 A 
ATOM     10  C   UNL     1     174.886 171.165 150.340  1.00  0.00     0.004 A 
ENDBRANCH   2   4
ENDBRANCH   1   2
BRANCH   1  11
ATOM     11  C   UNL     1     172.993 174.243 152.082  1.00  0.00     0.028 C 
BRANCH  11  12
ATOM     12  C   UNL     1     173.492 173.253 153.111  1.00  0.00    -0.028 C 
ATOM     13  C   UNL     1     174.754 173.260 153.589  1.00  0.00    -0.080 C 
ATOM     14  C   UNL     1     175.144 172.229 154.615  1.00  0.00     0.039 C 
ATOM     15  C   UNL     1     175.773 174.271 153.117  1.00  0.00     0.039 C 
ENDBRANCH  11  12
ENDBRANCH   1  11
TORSDOF 4
ENDMDL
MODEL 2
REMARK VINA RESULT:    -5.246      0.135      1.257
REMARK INTER + INTRA:          -7.626
REMARK INTER:                  -6.438
REMARK INTRA:                  -1.187
REMARK UNBOUND:                -1.153
REMARK SMILES CC(C)=CCC[C@@H](C)c1ccc(C)cc1
REMARK SMILES IDX 6 1 7 2 8 3 9 4 13 5 12 6 11 7 14 8 10 9 15 10 5 11 4 12
REMARK SMILES IDX 2 13 1 14 3 15
REMARK H PARENT
REMARK Flexibility Score: inf
ROOT
ATOM      1  C   UNL     1     172.319 173.581 150.853  1.00  0.00     0.012 C 
ENDROOT
BRANCH   1   2
ATOM      2  C   UNL     1     173.318 173.070 149.788  1.00  0.00     0.016 C 
ATOM      3  C   UNL     1     174.610 173.899 149.734  1.00  0.00     0.013 C 
BRANCH   2   4
ATOM      4  C   UNL     1     173.642 171.607 150.029  1.00  0.00    -0.045 A 
ATOM      5  C   UNL     1     174.590 167.452 150.737  1.00  0.00     0.044 C 
ATOM      6  C   UNL     1     174.268 168.891 150.461  1.00  0.00    -0.051 A 
ATOM      7  C   UNL     1     175.256 169.876 150.601  1.00  0.00     0.004 A 
ATOM      8  C   UNL     1     172.960 169.270 150.127  1.00  0.00     0.004 A 
ATOM      9  C   UNL     1     174.948 171.221 150.380  1.00  0.00     0.004 A 
ATOM     10  C   UNL     1     172.650 170.616 149.906  1.00  0.00     0.004 A 
ENDBRANCH   2   4
ENDBRANCH   1   2
BRANCH   1  11
ATOM     11  C   UNL     1     172.991 174.278 152.052  1.00  0.00     0.028 C 
BRANCH  11  12
ATOM     12  C   UNL     1     173.476 173.299 153.097  1.00  0.00    -0.028 C 
ATOM     13  C   UNL     1     174.741 173.291 153.570  1.00  0.00    -0.080 C 
ATOM     14  C   UNL     1     175.116 172.271 154.613  1.00  0.00     0.039 C 
ATOM     15  C   UNL     1     175.775 174.274 153.076  1.00  0.00     0.039 C 
ENDBRANCH  11  12
ENDBRANCH   1  11
TORSDOF 4
ENDMDL
MODEL 3
REMARK VINA RESULT:    -5.047      9.912     12.032
REMARK INTER + INTRA:          -7.380
REMARK INTER:                  -6.122
REMARK INTRA:                  -1.257
REMARK UNBOUND:                -1.153
REMARK SMILES CC(C)=CCC[C@@H](C)c1ccc(C)cc1
REMARK SMILES IDX 6 1 7 2 8 3 9 4 13 5 12 6 11 7 14 8 10 9 15 10 5 11 4 12
REMARK SMILES IDX 2 13 1 14 3 15
REMARK H PARENT
REMARK Flexibility Score: inf
ROOT
ATOM      1  C   UNL     1     174.911 162.308 151.185  1.00  0.00     0.012 C 
ENDROOT
BRANCH   1   2
ATOM      2  C   UNL     1     174.914 161.298 150.012  1.00  0.00     0.016 C 
ATOM      3  C   UNL     1     176.124 160.353 150.041  1.00  0.00     0.013 C 
BRANCH   2   4
ATOM      4  C   UNL     1     173.623 160.499 150.002  1.00  0.00    -0.045 A 
ATOM      5  C   UNL     1     169.964 158.202 149.996  1.00  0.00     0.044 C 
ATOM      6  C   UNL     1     171.238 158.994 149.967  1.00  0.00    -0.051 A 
ATOM      7  C   UNL     1     172.465 158.370 150.229  1.00  0.00     0.004 A 
ATOM      8  C   UNL     1     171.204 160.379 149.747  1.00  0.00     0.004 A 
ATOM      9  C   UNL     1     173.648 159.113 150.239  1.00  0.00     0.004 A 
ATOM     10  C   UNL     1     172.386 161.125 149.757  1.00  0.00     0.004 A 
ENDBRANCH   2   4
ENDBRANCH   1   2
BRANCH   1  11
ATOM     11  C   UNL     1     175.533 161.756 152.482  1.00  0.00     0.028 C 
BRANCH  11  12
ATOM     12  C   UNL     1     174.555 160.936 153.292  1.00  0.00    -0.028 C 
ATOM     13  C   UNL     1     174.815 159.678 153.709  1.00  0.00    -0.080 C 
ATOM     14  C   UNL     1     173.768 158.952 154.514  1.00  0.00     0.039 C 
ATOM     15  C   UNL     1     176.121 158.993 153.386  1.00  0.00     0.039 C 
ENDBRANCH  11  12
ENDBRANCH   1  11
TORSDOF 4
ENDMDL
MODEL 4
REMARK VINA RESULT:    -4.970     11.437     12.825
REMARK INTER + INTRA:          -7.285
REMARK INTER:                  -5.812
REMARK INTRA:                  -1.473
REMARK UNBOUND:                -1.153
REMARK SMILES CC(C)=CCC[C@@H](C)c1ccc(C)cc1
REMARK SMILES IDX 6 1 7 2 8 3 9 4 13 5 12 6 11 7 14 8 10 9 15 10 5 11 4 12
REMARK SMILES IDX 2 13 1 14 3 15
REMARK H PARENT
REMARK Flexibility Score: inf
ROOT
ATOM      1  C   UNL     1     175.467 159.982 152.190  1.00  0.00     0.012 C 
ENDROOT
BRANCH   1   2
ATOM      2  C   UNL     1     175.056 160.406 150.759  1.00  0.00     0.016 C 
ATOM      3  C   UNL     1     176.079 159.983 149.694  1.00  0.00     0.013 C 
BRANCH   2   4
ATOM      4  C   UNL     1     173.684 159.853 150.420  1.00  0.00    -0.045 A 
ATOM      5  C   UNL     1     169.771 158.308 149.436  1.00  0.00     0.044 C 
ATOM      6  C   UNL     1     171.122 158.846 149.807  1.00  0.00    -0.051 A 
ATOM      7  C   UNL     1     171.359 160.227 149.803  1.00  0.00     0.004 A 
ATOM      8  C   UNL     1     172.177 157.967 150.096  1.00  0.00     0.004 A 
ATOM      9  C   UNL     1     172.626 160.728 150.114  1.00  0.00     0.004 A 
ATOM     10  C   UNL     1     173.445 158.466 150.406  1.00  0.00     0.004 A 
ENDBRANCH   2   4
ENDBRANCH   1   2
BRANCH   1  11
ATOM     11  C   UNL     1     174.442 160.374 153.273  1.00  0.00     0.028 C 
BRANCH  11  12
ATOM     12  C   UNL     1     174.003 159.195 154.111  1.00  0.00    -0.028 C 
ATOM     13  C   UNL     1     172.713 158.817 154.234  1.00  0.00    -0.080 C 
ATOM     14  C   UNL     1     172.388 157.624 155.094  1.00  0.00     0.039 C 
ATOM     15  C   UNL     1     171.602 159.560 153.531  1.00  0.00     0.039 C 
ENDBRANCH  11  12
ENDBRANCH   1  11
TORSDOF 4
ENDMDL
MODEL 5
REMARK VINA RESULT:    -4.875      1.590      3.075
REMARK INTER + INTRA:          -7.168
REMARK INTER:                  -6.157
REMARK INTRA:                  -1.011
REMARK UNBOUND:                -1.153
REMARK SMILES CC(C)=CCC[C@@H](C)c1ccc(C)cc1
REMARK SMILES IDX 6 1 7 2 8 3 9 4 13 5 12 6 11 7 14 8 10 9 15 10 5 11 4 12
REMARK SMILES IDX 2 13 1 14 3 15
REMARK H PARENT
REMARK Flexibility Score: inf
ROOT
ATOM      1  C   UNL     1     173.367 173.762 150.121  1.00  0.00     0.012 C 
ENDROOT
BRANCH   1   2
ATOM      2  C   UNL     1     174.477 172.795 150.596  1.00  0.00     0.016 C 
ATOM      3  C   UNL     1     174.791 172.935 152.092  1.00  0.00     0.013 C 
BRANCH   2   4
ATOM      4  C   UNL     1     174.100 171.360 150.270  1.00  0.00    -0.045 A 
ATOM      5  C   UNL     1     172.999 167.291 149.324  1.00  0.00     0.044 C 
ATOM      6  C   UNL     1     173.375 168.699 149.683  1.00  0.00    -0.051 A 
ATOM      7  C   UNL     1     172.417 169.721 149.631  1.00  0.00     0.004 A 
ATOM      8  C   UNL     1     174.703 169.015 150.006  1.00  0.00     0.004 A 
ATOM      9  C   UNL     1     172.774 171.039 149.929  1.00  0.00     0.004 A 
ATOM     10  C   UNL     1     175.061 170.333 150.305  1.00  0.00     0.004 A 
ENDBRANCH   2   4
ENDBRANCH   1   2
BRANCH   1  11
ATOM     11  C   UNL     1     172.608 174.452 151.272  1.00  0.00     0.028 C 
BRANCH  11  12
ATOM     12  C   UNL     1     171.129 174.593 150.992  1.00  0.00    -0.028 C 
ATOM     13  C   UNL     1     170.201 173.748 151.490  1.00  0.00    -0.080 C 
ATOM     14  C   UNL     1     168.753 173.984 151.148  1.00  0.00     0.039 C 
ATOM     15  C   UNL     1     170.584 172.584 152.373  1.00  0.00     0.039 C 
ENDBRANCH  11  12
ENDBRANCH   1  11
TORSDOF 4
ENDMDL
MODEL 6
REMARK VINA RESULT:    -4.866      6.898     10.968
REMARK INTER + INTRA:          -7.156
REMARK INTER:                  -6.342
REMARK INTRA:                  -0.814
REMARK UNBOUND:                -1.153
REMARK SMILES CC(C)=CCC[C@@H](C)c1ccc(C)cc1
REMARK SMILES IDX 6 1 7 2 8 3 9 4 13 5 12 6 11 7 14 8 10 9 15 10 5 11 4 12
REMARK SMILES IDX 2 13 1 14 3 15
REMARK H PARENT
REMARK Flexibility Score: inf
ROOT
ATOM      1  C   UNL     1     175.246 161.163 151.891  1.00  0.00     0.012 C 
ENDROOT
BRANCH   1   2
ATOM      2  C   UNL     1     174.977 160.909 150.388  1.00  0.00     0.016 C 
ATOM      3  C   UNL     1     176.060 160.045 149.726  1.00  0.00     0.013 C 
BRANCH   2   4
ATOM      4  C   UNL     1     173.610 160.276 150.197  1.00  0.00    -0.045 A 
ATOM      5  C   UNL     1     169.730 158.450 149.675  1.00  0.00     0.044 C 
ATOM      6  C   UNL     1     171.084 159.080 149.826  1.00  0.00    -0.051 A 
ATOM      7  C   UNL     1     172.188 158.301 150.198  1.00  0.00     0.004 A 
ATOM      8  C   UNL     1     171.241 160.464 149.664  1.00  0.00     0.004 A 
ATOM      9  C   UNL     1     173.442 158.891 150.375  1.00  0.00     0.004 A 
ATOM     10  C   UNL     1     172.494 161.057 149.840  1.00  0.00     0.004 A 
ENDBRANCH   2   4
ENDBRANCH   1   2
BRANCH   1  11
ATOM     11  C   UNL     1     176.088 162.423 152.168  1.00  0.00     0.028 C 
BRANCH  11  12
ATOM     12  C   UNL     1     175.737 163.571 151.249  1.00  0.00    -0.028 C 
ATOM     13  C   UNL     1     174.866 164.546 151.586  1.00  0.00    -0.080 C 
ATOM     14  C   UNL     1     174.590 165.645 150.593  1.00  0.00     0.039 C 
ATOM     15  C   UNL     1     174.169 164.554 152.926  1.00  0.00     0.039 C 
ENDBRANCH  11  12
ENDBRANCH   1  11
TORSDOF 4
ENDMDL
MODEL 7
REMARK VINA RESULT:    -4.862      1.192      4.457
REMARK INTER + INTRA:          -7.151
REMARK INTER:                  -5.638
REMARK INTRA:                  -1.513
REMARK UNBOUND:                -1.153
REMARK SMILES CC(C)=CCC[C@@H](C)c1ccc(C)cc1
REMARK SMILES IDX 6 1 7 2 8 3 9 4 13 5 12 6 11 7 14 8 10 9 15 10 5 11 4 12
REMARK SMILES IDX 2 13 1 14 3 15
REMARK H PARENT
REMARK Flexibility Score: inf
ROOT
ATOM      1  C   UNL     1     174.942 174.065 150.859  1.00  0.00     0.012 C 
ENDROOT
BRANCH   1   2
ATOM      2  C   UNL     1     173.877 174.269 151.964  1.00  0.00     0.016 C 
ATOM      3  C   UNL     1     172.444 174.296 151.414  1.00  0.00     0.013 C 
BRANCH   2   4
ATOM      4  C   UNL     1     174.012 173.196 153.029  1.00  0.00    -0.045 A 
ATOM      5  C   UNL     1     174.423 170.161 156.076  1.00  0.00     0.044 C 
ATOM      6  C   UNL     1     174.289 171.194 154.996  1.00  0.00    -0.051 A 
ATOM      7  C   UNL     1     175.376 172.013 154.662  1.00  0.00     0.004 A 
ATOM      8  C   UNL     1     173.054 171.395 154.361  1.00  0.00     0.004 A 
ATOM      9  C   UNL     1     175.242 173.000 153.682  1.00  0.00     0.004 A 
ATOM     10  C   UNL     1     172.919 172.383 153.380  1.00  0.00     0.004 A 
ENDBRANCH   2   4
ENDBRANCH   1   2
BRANCH   1  11
ATOM     11  C   UNL     1     174.538 173.029 149.791  1.00  0.00     0.028 C 
BRANCH  11  12
ATOM     12  C   UNL     1     174.975 171.626 150.147  1.00  0.00    -0.028 C 
ATOM     13  C   UNL     1     174.112 170.597 150.283  1.00  0.00    -0.080 C 
ATOM     14  C   UNL     1     174.657 169.238 150.638  1.00  0.00     0.039 C 
ATOM     15  C   UNL     1     172.626 170.781 150.087  1.00  0.00     0.039 C 
ENDBRANCH  11  12
ENDBRANCH   1  11
TORSDOF 4
ENDMDL
MODEL 8
REMARK VINA RESULT:    -4.834      1.915      4.442
REMARK INTER + INTRA:          -7.117
REMARK INTER:                  -5.573
REMARK INTRA:                  -1.544
REMARK UNBOUND:                -1.153
REMARK SMILES CC(C)=CCC[C@@H](C)c1ccc(C)cc1
REMARK SMILES IDX 6 1 7 2 8 3 9 4 13 5 12 6 11 7 14 8 10 9 15 10 5 11 4 12
REMARK SMILES IDX 2 13 1 14 3 15
REMARK H PARENT
REMARK Flexibility Score: inf
ROOT
ATOM      1  C   UNL     1     173.739 171.677 150.144  1.00  0.00     0.012 C 
ENDROOT
BRANCH   1   2
ATOM      2  C   UNL     1     174.883 172.510 150.769  1.00  0.00     0.016 C 
ATOM      3  C   UNL     1     175.010 173.910 150.150  1.00  0.00     0.013 C 
BRANCH   2   4
ATOM      4  C   UNL     1     174.696 172.616 152.272  1.00  0.00    -0.045 A 
ATOM      5  C   UNL     1     174.173 172.883 156.552  1.00  0.00     0.044 C 
ATOM      6  C   UNL     1     174.324 172.795 155.062  1.00  0.00    -0.051 A 
ATOM      7  C   UNL     1     174.263 171.551 154.418  1.00  0.00     0.004 A 
ATOM      8  C   UNL     1     174.594 173.947 154.310  1.00  0.00     0.004 A 
ATOM      9  C   UNL     1     174.440 171.462 153.035  1.00  0.00     0.004 A 
ATOM     10  C   UNL     1     174.772 173.860 152.926  1.00  0.00     0.004 A 
ENDBRANCH   2   4
ENDBRANCH   1   2
BRANCH   1  11
ATOM     11  C   UNL     1     172.453 172.484 149.881  1.00  0.00     0.028 C 
BRANCH  11  12
ATOM     12  C   UNL     1     171.483 172.425 151.040  1.00  0.00    -0.028 C 
ATOM     13  C   UNL     1     171.089 173.519 151.727  1.00  0.00    -0.080 C 
ATOM     14  C   UNL     1     170.116 173.346 152.864  1.00  0.00     0.039 C 
ATOM     15  C   UNL     1     171.601 174.897 151.381  1.00  0.00     0.039 C 
ENDBRANCH  11  12
ENDBRANCH   1  11
TORSDOF 4
ENDMDL
MODEL 9
REMARK VINA RESULT:    -4.830      1.549      4.630
REMARK INTER + INTRA:          -7.112
REMARK INTER:                  -5.565
REMARK INTRA:                  -1.546
REMARK UNBOUND:                -1.153
REMARK SMILES CC(C)=CCC[C@@H](C)c1ccc(C)cc1
REMARK SMILES IDX 6 1 7 2 8 3 9 4 13 5 12 6 11 7 14 8 10 9 15 10 5 11 4 12
REMARK SMILES IDX 2 13 1 14 3 15
REMARK H PARENT
REMARK Flexibility Score: inf
ROOT
ATOM      1  C   UNL     1     174.691 172.784 150.083  1.00  0.00     0.012 C 
ENDROOT
BRANCH   1   2
ATOM      2  C   UNL     1     173.912 173.920 150.789  1.00  0.00     0.016 C 
ATOM      3  C   UNL     1     172.452 174.023 150.321  1.00  0.00     0.013 C 
BRANCH   2   4
ATOM      4  C   UNL     1     173.970 173.740 152.295  1.00  0.00    -0.045 A 
ATOM      5  C   UNL     1     174.101 173.222 156.582  1.00  0.00     0.044 C 
ATOM      6  C   UNL     1     174.061 173.433 155.097  1.00  0.00    -0.051 A 
ATOM      7  C   UNL     1     172.849 173.723 154.456  1.00  0.00     0.004 A 
ATOM      8  C   UNL     1     175.225 173.273 154.330  1.00  0.00     0.004 A 
ATOM      9  C   UNL     1     172.804 173.883 153.069  1.00  0.00     0.004 A 
ATOM     10  C   UNL     1     175.181 173.432 152.942  1.00  0.00     0.004 A 
ENDBRANCH   2   4
ENDBRANCH   1   2
BRANCH   1  11
ATOM     11  C   UNL     1     173.982 171.416 150.139  1.00  0.00     0.028 C 
BRANCH  11  12
ATOM     12  C   UNL     1     174.798 170.368 150.862  1.00  0.00    -0.028 C 
ATOM     13  C   UNL     1     174.416 169.814 152.033  1.00  0.00    -0.080 C 
ATOM     14  C   UNL     1     175.305 168.776 152.666  1.00  0.00     0.039 C 
ATOM     15  C   UNL     1     173.127 170.212 152.712  1.00  0.00     0.039 C 
ENDBRANCH  11  12
ENDBRANCH   1  11
TORSDOF 4
ENDMDL
