MODEL 1
REMARK VINA RESULT:    -5.712      0.000      0.000
REMARK INTER + INTRA:          -8.899
REMARK INTER:                  -7.715
REMARK INTRA:                  -1.184
REMARK UNBOUND:                -1.184
REMARK SMILES O=c1c(-c2ccc(O)cc2)coc2c([C@H]3O[C@@H](CO)[C@@H](O)[C@@H](O)[C@@H]3O)c(O)ccc12
REMARK SMILES IDX 3 1 11 2 12 3 13 4 30 5 2 6 1 7 29 8 28 9 26 10 14 11 4 12
REMARK SMILES IDX 5 13 6 14 7 15 10 16 9 17 8 18 15 20 24 21 16 22 22 23 17 24
REMARK SMILES IDX 20 25 25 26 23 28 18 30 19 31 21 33 27 35
REMARK H PARENT 8 19 25 27 23 29 19 32 21 34 27 36
REMARK Flexibility Score: inf
ROOT
ATOM      1  C   UNL     1      -9.681  13.806 -15.602  1.00  0.00     0.065 A 
ATOM      2  C   UNL     1     -10.349  14.020 -16.816  1.00  0.00     0.208 A 
ATOM      3  O   UNL     1      -9.806  13.649 -17.968  1.00  0.00    -0.463 OA
ATOM      4  C   UNL     1      -8.613  13.070 -18.062  1.00  0.00     0.147 A 
ATOM      5  C   UNL     1      -7.854  12.847 -16.887  1.00  0.00     0.066 A 
ATOM      6  C   UNL     1      -8.403  13.220 -15.647  1.00  0.00     0.200 A 
ATOM      7  O   UNL     1      -7.749  13.041 -14.581  1.00  0.00    -0.288 OA
ATOM      8  C   UNL     1      -6.579  12.270 -16.985  1.00  0.00     0.020 A 
ATOM      9  C   UNL     1      -6.060  11.919 -18.228  1.00  0.00     0.047 A 
ATOM     10  C   UNL     1      -6.805  12.123 -19.395  1.00  0.00     0.125 A 
ATOM     11  C   UNL     1      -8.104  12.676 -19.324  1.00  0.00     0.069 A 
ENDROOT
BRANCH   1  12
ATOM     12  C   UNL     1     -10.328  14.189 -14.322  1.00  0.00    -0.011 A 
ATOM     13  C   UNL     1     -11.081  13.252 -13.591  1.00  0.00     0.013 A 
ATOM     14  C   UNL     1     -11.679  13.616 -12.381  1.00  0.00     0.047 A 
ATOM     15  C   UNL     1     -11.552  14.919 -11.897  1.00  0.00     0.115 A 
ATOM     16  C   UNL     1     -10.204  15.499 -13.828  1.00  0.00     0.013 A 
ATOM     17  C   UNL     1     -10.811  15.861 -12.623  1.00  0.00     0.047 A 
BRANCH  15  18
ATOM     18  O   UNL     1     -12.164  15.272 -10.697  1.00  0.00    -0.508 OA
ATOM     19  H   UNL     1     -11.710  15.894 -10.032  1.00  0.00     0.293 HD
ENDBRANCH  15  18
ENDBRANCH   1  12
BRANCH  11  20
ATOM     20  C   UNL     1      -8.898  12.879 -20.612  1.00  0.00     0.188 C 
ATOM     21  C   UNL     1      -9.832  11.656 -20.888  1.00  0.00     0.179 C 
ATOM     22  O   UNL     1      -8.016  13.164 -21.689  1.00  0.00    -0.362 OA
ATOM     23  C   UNL     1      -9.344  10.835 -22.098  1.00  0.00     0.177 C 
ATOM     24  C   UNL     1      -8.718  13.184 -22.916  1.00  0.00     0.176 C 
ATOM     25  C   UNL     1      -9.079  11.733 -23.336  1.00  0.00     0.177 C 
BRANCH  21  26
ATOM     26  O   UNL     1     -11.138  12.119 -21.130  1.00  0.00    -0.387 OA
ATOM     27  H   UNL     1     -11.510  12.412 -20.254  1.00  0.00     0.211 HD
ENDBRANCH  21  26
BRANCH  23  28
ATOM     28  O   UNL     1      -8.173  10.146 -21.730  1.00  0.00    -0.387 OA
ATOM     29  H   UNL     1      -7.803  10.594 -20.927  1.00  0.00     0.211 HD
ENDBRANCH  23  28
BRANCH  24  30
ATOM     30  C   UNL     1      -7.872  13.928 -23.959  1.00  0.00     0.191 C 
BRANCH  30  31
ATOM     31  O   UNL     1      -8.540  13.968 -25.189  1.00  0.00    -0.394 OA
ATOM     32  H   UNL     1      -9.509  13.919 -24.981  1.00  0.00     0.210 HD
ENDBRANCH  30  31
ENDBRANCH  24  30
BRANCH  25  33
ATOM     33  O   UNL     1      -8.061  11.176 -24.128  1.00  0.00    -0.388 OA
ATOM     34  H   UNL     1      -7.223  11.226 -23.598  1.00  0.00     0.211 HD
ENDBRANCH  25  33
ENDBRANCH  11  20
BRANCH  10  35
ATOM     35  O   UNL     1      -6.253  11.780 -20.630  1.00  0.00    -0.507 OA
ATOM     36  H   UNL     1      -5.254  11.830 -20.797  1.00  0.00     0.293 HD
ENDBRANCH  10  35
TORSDOF 9
ENDMDL
MODEL 2
REMARK VINA RESULT:    -5.704      7.332     14.339
REMARK INTER + INTRA:          -8.889
REMARK INTER:                  -7.866
REMARK INTRA:                  -1.023
REMARK UNBOUND:                -1.184
REMARK SMILES O=c1c(-c2ccc(O)cc2)coc2c([C@H]3O[C@@H](CO)[C@@H](O)[C@@H](O)[C@@H]3O)c(O)ccc12
REMARK SMILES IDX 3 1 11 2 12 3 13 4 30 5 2 6 1 7 29 8 28 9 26 10 14 11 4 12
REMARK SMILES IDX 5 13 6 14 7 15 10 16 9 17 8 18 15 20 24 21 16 22 22 23 17 24
REMARK SMILES IDX 20 25 25 26 23 28 18 30 19 31 21 33 27 35
REMARK H PARENT 8 19 25 27 23 29 19 32 21 34 27 36
REMARK Flexibility Score: inf
ROOT
ATOM      1  C   UNL     1     -14.579  14.903 -10.406  1.00  0.00     0.065 A 
ATOM      2  C   UNL     1     -15.810  14.469 -10.917  1.00  0.00     0.208 A 
ATOM      3  O   UNL     1     -16.951  14.814 -10.334  1.00  0.00    -0.463 OA
ATOM      4  C   UNL     1     -17.014  15.570  -9.241  1.00  0.00     0.147 A 
ATOM      5  C   UNL     1     -15.815  16.023  -8.639  1.00  0.00     0.066 A 
ATOM      6  C   UNL     1     -14.588  15.684  -9.236  1.00  0.00     0.200 A 
ATOM      7  O   UNL     1     -13.500  16.066  -8.720  1.00  0.00    -0.288 OA
ATOM      8  C   UNL     1     -15.876  16.790  -7.465  1.00  0.00     0.020 A 
ATOM      9  C   UNL     1     -17.106  17.103  -6.894  1.00  0.00     0.047 A 
ATOM     10  C   UNL     1     -18.298  16.672  -7.486  1.00  0.00     0.125 A 
ATOM     11  C   UNL     1     -18.268  15.922  -8.684  1.00  0.00     0.069 A 
ENDROOT
BRANCH   1  12
ATOM     12  C   UNL     1     -13.318  14.540 -11.102  1.00  0.00    -0.011 A 
ATOM     13  C   UNL     1     -12.537  13.459 -10.654  1.00  0.00     0.013 A 
ATOM     14  C   UNL     1     -11.357  13.116 -11.320  1.00  0.00     0.047 A 
ATOM     15  C   UNL     1     -10.933  13.856 -12.425  1.00  0.00     0.115 A 
ATOM     16  C   UNL     1     -12.885  15.279 -12.216  1.00  0.00     0.013 A 
ATOM     17  C   UNL     1     -11.700  14.938 -12.873  1.00  0.00     0.047 A 
BRANCH  15  18
ATOM     18  O   UNL     1      -9.748  13.510 -13.071  1.00  0.00    -0.508 OA
ATOM     19  H   UNL     1      -8.885  14.025 -12.909  1.00  0.00     0.293 HD
ENDBRANCH  15  18
ENDBRANCH   1  12
BRANCH  11  20
ATOM     20  C   UNL     1     -19.584  15.472  -9.314  1.00  0.00     0.188 C 
ATOM     21  C   UNL     1     -20.122  16.551 -10.309  1.00  0.00     0.179 C 
ATOM     22  O   UNL     1     -20.518  15.132  -8.299  1.00  0.00    -0.362 OA
ATOM     23  C   UNL     1     -21.384  17.245  -9.762  1.00  0.00     0.177 C 
ATOM     24  C   UNL     1     -21.792  14.878  -8.859  1.00  0.00     0.176 C 
ATOM     25  C   UNL     1     -22.449  16.218  -9.290  1.00  0.00     0.177 C 
BRANCH  21  26
ATOM     26  O   UNL     1     -20.419  15.935 -11.539  1.00  0.00    -0.387 OA
ATOM     27  H   UNL     1     -20.884  15.079 -11.331  1.00  0.00     0.211 HD
ENDBRANCH  21  26
BRANCH  23  28
ATOM     28  O   UNL     1     -21.009  18.087  -8.699  1.00  0.00    -0.387 OA
ATOM     29  H   UNL     1     -21.593  17.872  -7.927  1.00  0.00     0.211 HD
ENDBRANCH  23  28
BRANCH  24  30
ATOM     30  C   UNL     1     -22.630  14.086  -7.846  1.00  0.00     0.191 C 
BRANCH  30  31
ATOM     31  O   UNL     1     -23.880  13.767  -8.392  1.00  0.00    -0.394 OA
ATOM     32  H   UNL     1     -24.055  12.821  -8.150  1.00  0.00     0.210 HD
ENDBRANCH  30  31
ENDBRANCH  24  30
BRANCH  25  33
ATOM     33  O   UNL     1     -23.211  16.759  -8.242  1.00  0.00    -0.388 OA
ATOM     34  H   UNL     1     -24.156  16.504  -8.410  1.00  0.00     0.211 HD
ENDBRANCH  25  33
ENDBRANCH  11  20
BRANCH  10  35
ATOM     35  O   UNL     1     -19.517  16.983  -6.881  1.00  0.00    -0.507 OA
ATOM     36  H   UNL     1     -19.853  17.937  -6.825  1.00  0.00     0.293 HD
ENDBRANCH  10  35
TORSDOF 9
ENDMDL
MODEL 3
REMARK VINA RESULT:    -5.398      2.046      8.683
REMARK INTER + INTRA:          -8.476
REMARK INTER:                  -7.247
REMARK INTRA:                  -1.229
REMARK UNBOUND:                -1.184
REMARK SMILES O=c1c(-c2ccc(O)cc2)coc2c([C@H]3O[C@@H](CO)[C@@H](O)[C@@H](O)[C@@H]3O)c(O)ccc12
REMARK SMILES IDX 3 1 11 2 12 3 13 4 30 5 2 6 1 7 29 8 28 9 26 10 14 11 4 12
REMARK SMILES IDX 5 13 6 14 7 15 10 16 9 17 8 18 15 20 24 21 16 22 22 23 17 24
REMARK SMILES IDX 20 25 25 26 23 28 18 30 19 31 21 33 27 35
REMARK H PARENT 8 19 25 27 23 29 19 32 21 34 27 36
REMARK Flexibility Score: inf
ROOT
ATOM      1  C   UNL     1      -9.671  11.932 -19.610  1.00  0.00     0.065 A 
ATOM      2  C   UNL     1     -10.311  13.045 -19.048  1.00  0.00     0.208 A 
ATOM      3  O   UNL     1     -10.302  13.249 -17.738  1.00  0.00    -0.463 OA
ATOM      4  C   UNL     1      -9.708  12.430 -16.874  1.00  0.00     0.147 A 
ATOM      5  C   UNL     1      -9.067  11.262 -17.353  1.00  0.00     0.066 A 
ATOM      6  C   UNL     1      -9.051  11.019 -18.738  1.00  0.00     0.200 A 
ATOM      7  O   UNL     1      -8.493   9.982 -19.197  1.00  0.00    -0.288 OA
ATOM      8  C   UNL     1      -8.472  10.375 -16.442  1.00  0.00     0.020 A 
ATOM      9  C   UNL     1      -8.512  10.639 -15.077  1.00  0.00     0.047 A 
ATOM     10  C   UNL     1      -9.132  11.796 -14.592  1.00  0.00     0.125 A 
ATOM     11  C   UNL     1      -9.715  12.722 -15.488  1.00  0.00     0.069 A 
ENDROOT
BRANCH   1  12
ATOM     12  C   UNL     1      -9.658  11.749 -21.083  1.00  0.00    -0.011 A 
ATOM     13  C   UNL     1     -10.632  10.955 -21.716  1.00  0.00     0.013 A 
ATOM     14  C   UNL     1     -10.621  10.796 -23.105  1.00  0.00     0.047 A 
ATOM     15  C   UNL     1      -9.631  11.407 -23.875  1.00  0.00     0.115 A 
ATOM     16  C   UNL     1      -8.665  12.363 -21.866  1.00  0.00     0.013 A 
ATOM     17  C   UNL     1      -8.652  12.193 -23.253  1.00  0.00     0.047 A 
BRANCH  15  18
ATOM     18  O   UNL     1      -9.624  11.229 -25.256  1.00  0.00    -0.508 OA
ATOM     19  H   UNL     1      -9.793  12.005 -25.892  1.00  0.00     0.293 HD
ENDBRANCH  15  18
ENDBRANCH   1  12
BRANCH  11  20
ATOM     20  C   UNL     1     -10.376  13.980 -14.933  1.00  0.00     0.188 C 
ATOM     21  C   UNL     1      -9.371  15.177 -14.920  1.00  0.00     0.179 C 
ATOM     22  O   UNL     1     -10.942  13.711 -13.657  1.00  0.00    -0.362 OA
ATOM     23  C   UNL     1      -8.963  15.556 -13.483  1.00  0.00     0.177 C 
ATOM     24  C   UNL     1     -11.407  14.903 -13.056  1.00  0.00     0.176 C 
ATOM     25  C   UNL     1     -10.198  15.744 -12.562  1.00  0.00     0.177 C 
BRANCH  21  26
ATOM     26  O   UNL     1      -9.969  16.286 -15.547  1.00  0.00    -0.387 OA
ATOM     27  H   UNL     1     -10.811  16.482 -15.052  1.00  0.00     0.211 HD
ENDBRANCH  21  26
BRANCH  23  28
ATOM     28  O   UNL     1      -8.120  14.550 -12.976  1.00  0.00    -0.387 OA
ATOM     29  H   UNL     1      -8.629  13.699 -12.990  1.00  0.00     0.211 HD
ENDBRANCH  23  28
BRANCH  24  30
ATOM     30  C   UNL     1     -12.396  14.544 -11.940  1.00  0.00     0.191 C 
BRANCH  30  31
ATOM     31  O   UNL     1     -12.022  13.343 -11.324  1.00  0.00    -0.394 OA
ATOM     32  H   UNL     1     -12.369  13.386 -10.396  1.00  0.00     0.210 HD
ENDBRANCH  30  31
ENDBRANCH  24  30
BRANCH  25  33
ATOM     33  O   UNL     1      -9.869  15.412 -11.238  1.00  0.00    -0.388 OA
ATOM     34  H   UNL     1     -10.724  15.260 -10.757  1.00  0.00     0.211 HD
ENDBRANCH  25  33
ENDBRANCH  11  20
BRANCH  10  35
ATOM     35  O   UNL     1      -9.175  12.027 -13.216  1.00  0.00    -0.507 OA
ATOM     36  H   UNL     1     -10.054  12.127 -12.722  1.00  0.00     0.293 HD
ENDBRANCH  10  35
TORSDOF 9
ENDMDL
MODEL 4
REMARK VINA RESULT:    -5.396      2.474     10.127
REMARK INTER + INTRA:          -8.473
REMARK INTER:                  -7.237
REMARK INTRA:                  -1.235
REMARK UNBOUND:                -1.184
REMARK SMILES O=c1c(-c2ccc(O)cc2)coc2c([C@H]3O[C@@H](CO)[C@@H](O)[C@@H](O)[C@@H]3O)c(O)ccc12
REMARK SMILES IDX 3 1 11 2 12 3 13 4 30 5 2 6 1 7 29 8 28 9 26 10 14 11 4 12
REMARK SMILES IDX 5 13 6 14 7 15 10 16 9 17 8 18 15 20 24 21 16 22 22 23 17 24
REMARK SMILES IDX 20 25 25 26 23 28 18 30 19 31 21 33 27 35
REMARK H PARENT 8 19 25 27 23 29 19 32 21 34 27 36
REMARK Flexibility Score: inf
ROOT
ATOM      1  C   UNL     1     -10.154  13.490 -15.896  1.00  0.00     0.065 A 
ATOM      2  C   UNL     1     -11.323  13.204 -15.176  1.00  0.00     0.208 A 
ATOM      3  O   UNL     1     -11.581  13.812 -14.025  1.00  0.00    -0.463 OA
ATOM      4  C   UNL     1     -10.768  14.708 -13.472  1.00  0.00     0.147 A 
ATOM      5  C   UNL     1      -9.548  15.029 -14.116  1.00  0.00     0.066 A 
ATOM      6  C   UNL     1      -9.247  14.411 -15.342  1.00  0.00     0.200 A 
ATOM      7  O   UNL     1      -8.164  14.672 -15.938  1.00  0.00    -0.288 OA
ATOM      8  C   UNL     1      -8.671  15.947 -13.517  1.00  0.00     0.020 A 
ATOM      9  C   UNL     1      -8.994  16.536 -12.299  1.00  0.00     0.047 A 
ATOM     10  C   UNL     1     -10.202  16.235 -11.659  1.00  0.00     0.125 A 
ATOM     11  C   UNL     1     -11.118  15.336 -12.252  1.00  0.00     0.069 A 
ENDROOT
BRANCH   1  12
ATOM     12  C   UNL     1      -9.909  12.830 -17.203  1.00  0.00    -0.011 A 
ATOM     13  C   UNL     1     -10.389  13.402 -18.396  1.00  0.00     0.013 A 
ATOM     14  C   UNL     1     -10.146  12.782 -19.624  1.00  0.00     0.047 A 
ATOM     15  C   UNL     1      -9.443  11.578 -19.678  1.00  0.00     0.115 A 
ATOM     16  C   UNL     1      -9.201  11.618 -17.265  1.00  0.00     0.013 A 
ATOM     17  C   UNL     1      -8.968  10.997 -18.495  1.00  0.00     0.047 A 
BRANCH  15  18
ATOM     18  O   UNL     1      -9.219  10.964 -20.908  1.00  0.00    -0.508 OA
ATOM     19  H   UNL     1      -9.832  11.130 -21.703  1.00  0.00     0.293 HD
ENDBRANCH  15  18
ENDBRANCH   1  12
BRANCH  11  20
ATOM     20  C   UNL     1     -12.432  15.034 -11.537  1.00  0.00     0.188 C 
ATOM     21  C   UNL     1     -13.564  15.996 -12.023  1.00  0.00     0.179 C 
ATOM     22  O   UNL     1     -12.239  15.062 -10.130  1.00  0.00    -0.362 OA
ATOM     23  C   UNL     1     -13.962  17.000 -10.923  1.00  0.00     0.177 C 
ATOM     24  C   UNL     1     -13.476  14.954  -9.454  1.00  0.00     0.176 C 
ATOM     25  C   UNL     1     -14.256  16.292  -9.573  1.00  0.00     0.177 C 
BRANCH  21  26
ATOM     26  O   UNL     1     -14.688  15.234 -12.393  1.00  0.00    -0.387 OA
ATOM     27  H   UNL     1     -14.551  14.953 -13.338  1.00  0.00     0.211 HD
ENDBRANCH  21  26
BRANCH  23  28
ATOM     28  O   UNL     1     -12.922  17.936 -10.772  1.00  0.00    -0.387 OA
ATOM     29  H   UNL     1     -13.296  18.832 -10.971  1.00  0.00     0.211 HD
ENDBRANCH  23  28
BRANCH  24  30
ATOM     30  C   UNL     1     -13.214  14.528  -8.003  1.00  0.00     0.191 C 
BRANCH  30  31
ATOM     31  O   UNL     1     -12.036  15.118  -7.527  1.00  0.00    -0.394 OA
ATOM     32  H   UNL     1     -11.309  14.468  -7.704  1.00  0.00     0.210 HD
ENDBRANCH  30  31
ENDBRANCH  24  30
BRANCH  25  33
ATOM     33  O   UNL     1     -13.945  17.146  -8.502  1.00  0.00    -0.388 OA
ATOM     34  H   UNL     1     -12.962  17.283  -8.519  1.00  0.00     0.211 HD
ENDBRANCH  25  33
ENDBRANCH  11  20
BRANCH  10  35
ATOM     35  O   UNL     1     -10.492  16.825 -10.428  1.00  0.00    -0.507 OA
ATOM     36  H   UNL     1      -9.758  17.141  -9.805  1.00  0.00     0.293 HD
ENDBRANCH  10  35
TORSDOF 9
ENDMDL
MODEL 5
REMARK VINA RESULT:    -5.322      2.412      3.732
REMARK INTER + INTRA:          -8.373
REMARK INTER:                  -7.154
REMARK INTRA:                  -1.219
REMARK UNBOUND:                -1.184
REMARK SMILES O=c1c(-c2ccc(O)cc2)coc2c([C@H]3O[C@@H](CO)[C@@H](O)[C@@H](O)[C@@H]3O)c(O)ccc12
REMARK SMILES IDX 3 1 11 2 12 3 13 4 30 5 2 6 1 7 29 8 28 9 26 10 14 11 4 12
REMARK SMILES IDX 5 13 6 14 7 15 10 16 9 17 8 18 15 20 24 21 16 22 22 23 17 24
REMARK SMILES IDX 20 25 25 26 23 28 18 30 19 31 21 33 27 35
REMARK H PARENT 8 19 25 27 23 29 19 32 21 34 27 36
REMARK Flexibility Score: inf
ROOT
ATOM      1  C   UNL     1      -8.080  14.701 -15.082  1.00  0.00     0.065 A 
ATOM      2  C   UNL     1      -7.161  14.355 -16.082  1.00  0.00     0.208 A 
ATOM      3  O   UNL     1      -7.569  13.841 -17.235  1.00  0.00    -0.463 OA
ATOM      4  C   UNL     1      -8.846  13.610 -17.522  1.00  0.00     0.147 A 
ATOM      5  C   UNL     1      -9.839  13.898 -16.554  1.00  0.00     0.066 A 
ATOM      6  C   UNL     1      -9.443  14.452 -15.324  1.00  0.00     0.200 A 
ATOM      7  O   UNL     1     -10.304  14.714 -14.436  1.00  0.00    -0.288 OA
ATOM      8  C   UNL     1     -11.185  13.620 -16.839  1.00  0.00     0.020 A 
ATOM      9  C   UNL     1     -11.544  13.064 -18.063  1.00  0.00     0.047 A 
ATOM     10  C   UNL     1     -10.574  12.787 -19.032  1.00  0.00     0.125 A 
ATOM     11  C   UNL     1      -9.214  13.082 -18.784  1.00  0.00     0.069 A 
ENDROOT
BRANCH   1  12
ATOM     12  C   UNL     1      -7.603  15.315 -13.817  1.00  0.00    -0.011 A 
ATOM     13  C   UNL     1      -7.569  16.714 -13.668  1.00  0.00     0.013 A 
ATOM     14  C   UNL     1      -7.129  17.287 -12.471  1.00  0.00     0.047 A 
ATOM     15  C   UNL     1      -6.700  16.476 -11.420  1.00  0.00     0.115 A 
ATOM     16  C   UNL     1      -7.170  14.506 -12.753  1.00  0.00     0.013 A 
ATOM     17  C   UNL     1      -6.722  15.083 -11.562  1.00  0.00     0.047 A 
BRANCH  15  18
ATOM     18  O   UNL     1      -6.251  17.060 -10.238  1.00  0.00    -0.508 OA
ATOM     19  H   UNL     1      -6.556  16.720  -9.329  1.00  0.00     0.293 HD
ENDBRANCH  15  18
ENDBRANCH   1  12
BRANCH  11  20
ATOM     20  C   UNL     1      -8.178  12.778 -19.863  1.00  0.00     0.188 C 
ATOM     21  C   UNL     1      -7.848  14.059 -20.695  1.00  0.00     0.179 C 
ATOM     22  O   UNL     1      -8.613  11.687 -20.663  1.00  0.00    -0.362 OA
ATOM     23  C   UNL     1      -8.401  13.959 -22.130  1.00  0.00     0.177 C 
ATOM     24  C   UNL     1      -7.750  11.504 -21.768  1.00  0.00     0.176 C 
ATOM     25  C   UNL     1      -7.994  12.626 -22.814  1.00  0.00     0.177 C 
BRANCH  21  26
ATOM     26  O   UNL     1      -6.452  14.231 -20.741  1.00  0.00    -0.387 OA
ATOM     27  H   UNL     1      -6.284  15.184 -20.975  1.00  0.00     0.211 HD
ENDBRANCH  21  26
BRANCH  23  28
ATOM     28  O   UNL     1      -9.803  14.078 -22.080  1.00  0.00    -0.387 OA
ATOM     29  H   UNL     1     -10.020  14.760 -21.394  1.00  0.00     0.211 HD
ENDBRANCH  23  28
BRANCH  24  30
ATOM     30  C   UNL     1      -7.957  10.091 -22.331  1.00  0.00     0.191 C 
BRANCH  30  31
ATOM     31  O   UNL     1      -9.288   9.689 -22.161  1.00  0.00    -0.394 OA
ATOM     32  H   UNL     1      -9.258   8.836 -21.656  1.00  0.00     0.210 HD
ENDBRANCH  30  31
ENDBRANCH  24  30
BRANCH  25  33
ATOM     33  O   UNL     1      -8.976  12.238 -23.740  1.00  0.00    -0.388 OA
ATOM     34  H   UNL     1      -8.593  12.381 -24.644  1.00  0.00     0.211 HD
ENDBRANCH  25  33
ENDBRANCH  11  20
BRANCH  10  35
ATOM     35  O   UNL     1     -10.960  12.211 -20.244  1.00  0.00    -0.507 OA
ATOM     36  H   UNL     1     -10.295  12.055 -20.993  1.00  0.00     0.293 HD
ENDBRANCH  10  35
TORSDOF 9
ENDMDL
MODEL 6
REMARK VINA RESULT:    -5.188      3.454      5.690
REMARK INTER + INTRA:          -8.192
REMARK INTER:                  -7.225
REMARK INTRA:                  -0.967
REMARK UNBOUND:                -1.184
REMARK SMILES O=c1c(-c2ccc(O)cc2)coc2c([C@H]3O[C@@H](CO)[C@@H](O)[C@@H](O)[C@@H]3O)c(O)ccc12
REMARK SMILES IDX 3 1 11 2 12 3 13 4 30 5 2 6 1 7 29 8 28 9 26 10 14 11 4 12
REMARK SMILES IDX 5 13 6 14 7 15 10 16 9 17 8 18 15 20 24 21 16 22 22 23 17 24
REMARK SMILES IDX 20 25 25 26 23 28 18 30 19 31 21 33 27 35
REMARK H PARENT 8 19 25 27 23 29 19 32 21 34 27 36
REMARK Flexibility Score: inf
ROOT
ATOM      1  C   UNL     1     -11.655  14.876 -12.475  1.00  0.00     0.065 A 
ATOM      2  C   UNL     1     -11.528  13.916 -13.490  1.00  0.00     0.208 A 
ATOM      3  O   UNL     1     -10.397  13.787 -14.170  1.00  0.00    -0.463 OA
ATOM      4  C   UNL     1      -9.325  14.545 -13.957  1.00  0.00     0.147 A 
ATOM      5  C   UNL     1      -9.378  15.563 -12.974  1.00  0.00     0.066 A 
ATOM      6  C   UNL     1     -10.558  15.721 -12.227  1.00  0.00     0.200 A 
ATOM      7  O   UNL     1     -10.640  16.625 -11.347  1.00  0.00    -0.288 OA
ATOM      8  C   UNL     1      -8.261  16.389 -12.772  1.00  0.00     0.020 A 
ATOM      9  C   UNL     1      -7.109  16.213 -13.532  1.00  0.00     0.047 A 
ATOM     10  C   UNL     1      -7.041  15.202 -14.498  1.00  0.00     0.125 A 
ATOM     11  C   UNL     1      -8.139  14.337 -14.705  1.00  0.00     0.069 A 
ENDROOT
BRANCH   1  12
ATOM     12  C   UNL     1     -12.916  14.970 -11.698  1.00  0.00    -0.011 A 
ATOM     13  C   UNL     1     -13.963  15.805 -12.130  1.00  0.00     0.013 A 
ATOM     14  C   UNL     1     -15.152  15.882 -11.399  1.00  0.00     0.047 A 
ATOM     15  C   UNL     1     -15.304  15.146 -10.223  1.00  0.00     0.115 A 
ATOM     16  C   UNL     1     -13.077  14.232 -10.513  1.00  0.00     0.013 A 
ATOM     17  C   UNL     1     -14.264  14.319  -9.781  1.00  0.00     0.047 A 
BRANCH  15  18
ATOM     18  O   UNL     1     -16.489  15.242  -9.498  1.00  0.00    -0.508 OA
ATOM     19  H   UNL     1     -16.985  14.413  -9.178  1.00  0.00     0.293 HD
ENDBRANCH  15  18
ENDBRANCH   1  12
BRANCH  11  20
ATOM     20  C   UNL     1      -8.034  13.238 -15.758  1.00  0.00     0.188 C 
ATOM     21  C   UNL     1      -8.379  13.793 -17.178  1.00  0.00     0.179 C 
ATOM     22  O   UNL     1      -8.835  12.125 -15.383  1.00  0.00    -0.362 OA
ATOM     23  C   UNL     1      -9.723  13.240 -17.689  1.00  0.00     0.177 C 
ATOM     24  C   UNL     1      -8.884  11.172 -16.426  1.00  0.00     0.176 C 
ATOM     25  C   UNL     1      -9.796  11.694 -17.569  1.00  0.00     0.177 C 
BRANCH  21  26
ATOM     26  O   UNL     1      -7.353  13.436 -18.073  1.00  0.00    -0.387 OA
ATOM     27  H   UNL     1      -6.620  13.035 -17.531  1.00  0.00     0.211 HD
ENDBRANCH  21  26
BRANCH  23  28
ATOM     28  O   UNL     1     -10.764  13.840 -16.955  1.00  0.00    -0.387 OA
ATOM     29  H   UNL     1     -10.968  14.711 -17.384  1.00  0.00     0.211 HD
ENDBRANCH  23  28
BRANCH  24  30
ATOM     30  C   UNL     1      -9.342   9.826 -15.847  1.00  0.00     0.191 C 
BRANCH  30  31
ATOM     31  O   UNL     1     -10.382  10.019 -14.929  1.00  0.00    -0.394 OA
ATOM     32  H   UNL     1      -9.982   9.903 -14.028  1.00  0.00     0.210 HD
ENDBRANCH  30  31
ENDBRANCH  24  30
BRANCH  25  33
ATOM     33  O   UNL     1     -11.125  11.286 -17.370  1.00  0.00    -0.388 OA
ATOM     34  H   UNL     1     -11.639  11.582 -18.166  1.00  0.00     0.211 HD
ENDBRANCH  25  33
ENDBRANCH  11  20
BRANCH  10  35
ATOM     35  O   UNL     1      -5.880  15.060 -15.261  1.00  0.00    -0.507 OA
ATOM     36  H   UNL     1      -5.433  15.856 -15.700  1.00  0.00     0.293 HD
ENDBRANCH  10  35
TORSDOF 9
ENDMDL
MODEL 7
REMARK VINA RESULT:    -5.174      2.990      9.844
REMARK INTER + INTRA:          -8.173
REMARK INTER:                  -7.486
REMARK INTRA:                  -0.687
REMARK UNBOUND:                -1.184
REMARK SMILES O=c1c(-c2ccc(O)cc2)coc2c([C@H]3O[C@@H](CO)[C@@H](O)[C@@H](O)[C@@H]3O)c(O)ccc12
REMARK SMILES IDX 3 1 11 2 12 3 13 4 30 5 2 6 1 7 29 8 28 9 26 10 14 11 4 12
REMARK SMILES IDX 5 13 6 14 7 15 10 16 9 17 8 18 15 20 24 21 16 22 22 23 17 24
REMARK SMILES IDX 20 25 25 26 23 28 18 30 19 31 21 33 27 35
REMARK H PARENT 8 19 25 27 23 29 19 32 21 34 27 36
REMARK Flexibility Score: inf
ROOT
ATOM      1  C   UNL     1     -10.258  14.139 -14.808  1.00  0.00     0.065 A 
ATOM      2  C   UNL     1     -11.306  13.853 -13.923  1.00  0.00     0.208 A 
ATOM      3  O   UNL     1     -11.416  14.491 -12.765  1.00  0.00    -0.463 OA
ATOM      4  C   UNL     1     -10.556  15.421 -12.359  1.00  0.00     0.147 A 
ATOM      5  C   UNL     1      -9.448  15.748 -13.177  1.00  0.00     0.066 A 
ATOM      6  C   UNL     1      -9.306  15.097 -14.415  1.00  0.00     0.200 A 
ATOM      7  O   UNL     1      -8.324  15.361 -15.166  1.00  0.00    -0.288 OA
ATOM      8  C   UNL     1      -8.518  16.702 -12.735  1.00  0.00     0.020 A 
ATOM      9  C   UNL     1      -8.682  17.323 -11.501  1.00  0.00     0.047 A 
ATOM     10  C   UNL     1      -9.780  17.018 -10.689  1.00  0.00     0.125 A 
ATOM     11  C   UNL     1     -10.747  16.082 -11.120  1.00  0.00     0.069 A 
ENDROOT
BRANCH   1  12
ATOM     12  C   UNL     1     -10.183  13.443 -16.117  1.00  0.00    -0.011 A 
ATOM     13  C   UNL     1     -10.916  13.913 -17.222  1.00  0.00     0.013 A 
ATOM     14  C   UNL     1     -10.833  13.259 -18.455  1.00  0.00     0.047 A 
ATOM     15  C   UNL     1     -10.037  12.122 -18.596  1.00  0.00     0.115 A 
ATOM     16  C   UNL     1      -9.382  12.298 -16.268  1.00  0.00     0.013 A 
ATOM     17  C   UNL     1      -9.309  11.642 -17.499  1.00  0.00     0.047 A 
BRANCH  15  18
ATOM     18  O   UNL     1      -9.973  11.473 -19.827  1.00  0.00    -0.508 OA
ATOM     19  H   UNL     1      -9.100  11.402 -20.345  1.00  0.00     0.293 HD
ENDBRANCH  15  18
ENDBRANCH   1  12
BRANCH  11  20
ATOM     20  C   UNL     1     -11.940  15.774 -10.219  1.00  0.00     0.188 C 
ATOM     21  C   UNL     1     -11.553  14.733  -9.119  1.00  0.00     0.179 C 
ATOM     22  O   UNL     1     -13.053  15.371 -11.004  1.00  0.00    -0.362 OA
ATOM     23  C   UNL     1     -12.231  13.372  -9.367  1.00  0.00     0.177 C 
ATOM     24  C   UNL     1     -14.109  14.920 -10.179  1.00  0.00     0.176 C 
ATOM     25  C   UNL     1     -13.759  13.522  -9.601  1.00  0.00     0.177 C 
BRANCH  21  26
ATOM     26  O   UNL     1     -11.939  15.228  -7.860  1.00  0.00    -0.387 OA
ATOM     27  H   UNL     1     -12.913  15.050  -7.763  1.00  0.00     0.211 HD
ENDBRANCH  21  26
BRANCH  23  28
ATOM     28  O   UNL     1     -11.622  12.761 -10.479  1.00  0.00    -0.387 OA
ATOM     29  H   UNL     1     -12.293  12.162 -10.896  1.00  0.00     0.211 HD
ENDBRANCH  23  28
BRANCH  24  30
ATOM     30  C   UNL     1     -15.413  14.937 -10.988  1.00  0.00     0.191 C 
BRANCH  30  31
ATOM     31  O   UNL     1     -15.505  16.114 -11.740  1.00  0.00    -0.394 OA
ATOM     32  H   UNL     1     -16.233  15.967 -12.398  1.00  0.00     0.210 HD
ENDBRANCH  30  31
ENDBRANCH  24  30
BRANCH  25  33
ATOM     33  O   UNL     1     -14.221  12.503 -10.450  1.00  0.00    -0.388 OA
ATOM     34  H   UNL     1     -13.685  11.692 -10.245  1.00  0.00     0.211 HD
ENDBRANCH  25  33
ENDBRANCH  11  20
BRANCH  10  35
ATOM     35  O   UNL     1      -9.909  17.641  -9.446  1.00  0.00    -0.507 OA
ATOM     36  H   UNL     1      -9.470  17.263  -8.615  1.00  0.00     0.293 HD
ENDBRANCH  10  35
TORSDOF 9
ENDMDL
MODEL 8
REMARK VINA RESULT:    -5.125      1.821      2.689
REMARK INTER + INTRA:          -8.107
REMARK INTER:                  -7.112
REMARK INTRA:                  -0.995
REMARK UNBOUND:                -1.184
REMARK SMILES O=c1c(-c2ccc(O)cc2)coc2c([C@H]3O[C@@H](CO)[C@@H](O)[C@@H](O)[C@@H]3O)c(O)ccc12
REMARK SMILES IDX 3 1 11 2 12 3 13 4 30 5 2 6 1 7 29 8 28 9 26 10 14 11 4 12
REMARK SMILES IDX 5 13 6 14 7 15 10 16 9 17 8 18 15 20 24 21 16 22 22 23 17 24
REMARK SMILES IDX 20 25 25 26 23 28 18 30 19 31 21 33 27 35
REMARK H PARENT 8 19 25 27 23 29 19 32 21 34 27 36
REMARK Flexibility Score: inf
ROOT
ATOM      1  C   UNL     1     -10.684  14.096 -13.849  1.00  0.00     0.065 A 
ATOM      2  C   UNL     1     -11.137  13.416 -14.988  1.00  0.00     0.208 A 
ATOM      3  O   UNL     1     -10.386  13.334 -16.079  1.00  0.00    -0.463 OA
ATOM      4  C   UNL     1      -9.180  13.885 -16.179  1.00  0.00     0.147 A 
ATOM      5  C   UNL     1      -8.659  14.621 -15.087  1.00  0.00     0.066 A 
ATOM      6  C   UNL     1      -9.424  14.720 -13.912  1.00  0.00     0.200 A 
ATOM      7  O   UNL     1      -8.991  15.375 -12.922  1.00  0.00    -0.288 OA
ATOM      8  C   UNL     1      -7.402  15.235 -15.203  1.00  0.00     0.020 A 
ATOM      9  C   UNL     1      -6.672  15.125 -16.382  1.00  0.00     0.047 A 
ATOM     10  C   UNL     1      -7.171  14.390 -17.464  1.00  0.00     0.125 A 
ATOM     11  C   UNL     1      -8.421  13.738 -17.366  1.00  0.00     0.069 A 
ENDROOT
BRANCH   1  12
ATOM     12  C   UNL     1     -11.524  14.136 -12.626  1.00  0.00    -0.011 A 
ATOM     13  C   UNL     1     -11.340  13.191 -11.600  1.00  0.00     0.013 A 
ATOM     14  C   UNL     1     -12.127  13.241 -10.445  1.00  0.00     0.047 A 
ATOM     15  C   UNL     1     -13.117  14.215 -10.310  1.00  0.00     0.115 A 
ATOM     16  C   UNL     1     -12.522  15.115 -12.481  1.00  0.00     0.013 A 
ATOM     17  C   UNL     1     -13.312  15.155 -11.330  1.00  0.00     0.047 A 
BRANCH  15  18
ATOM     18  O   UNL     1     -13.902  14.244  -9.160  1.00  0.00    -0.508 OA
ATOM     19  H   UNL     1     -13.486  14.306  -8.234  1.00  0.00     0.293 HD
ENDBRANCH  15  18
ENDBRANCH   1  12
BRANCH  11  20
ATOM     20  C   UNL     1      -8.937  12.936 -18.558  1.00  0.00     0.188 C 
ATOM     21  C   UNL     1      -8.519  11.434 -18.441  1.00  0.00     0.179 C 
ATOM     22  O   UNL     1      -8.515  13.541 -19.772  1.00  0.00    -0.362 OA
ATOM     23  C   UNL     1      -7.456  11.060 -19.493  1.00  0.00     0.177 C 
ATOM     24  C   UNL     1      -8.838  12.721 -20.877  1.00  0.00     0.176 C 
ATOM     25  C   UNL     1      -7.877  11.501 -20.921  1.00  0.00     0.177 C 
BRANCH  21  26
ATOM     26  O   UNL     1      -9.657  10.625 -18.615  1.00  0.00    -0.387 OA
ATOM     27  H   UNL     1      -9.469   9.757 -18.166  1.00  0.00     0.211 HD
ENDBRANCH  21  26
BRANCH  23  28
ATOM     28  O   UNL     1      -6.236  11.662 -19.132  1.00  0.00    -0.387 OA
ATOM     29  H   UNL     1      -6.204  11.699 -18.141  1.00  0.00     0.211 HD
ENDBRANCH  23  28
BRANCH  24  30
ATOM     30  C   UNL     1      -8.802  13.571 -22.155  1.00  0.00     0.191 C 
BRANCH  30  31
ATOM     31  O   UNL     1      -9.716  14.628 -22.062  1.00  0.00    -0.394 OA
ATOM     32  H   UNL     1      -9.418  15.186 -21.298  1.00  0.00     0.210 HD
ENDBRANCH  30  31
ENDBRANCH  24  30
BRANCH  25  33
ATOM     33  O   UNL     1      -6.739  11.792 -21.692  1.00  0.00    -0.388 OA
ATOM     34  H   UNL     1      -5.955  11.716 -21.088  1.00  0.00     0.211 HD
ENDBRANCH  25  33
ENDBRANCH  11  20
BRANCH  10  35
ATOM     35  O   UNL     1      -6.427  14.313 -18.642  1.00  0.00    -0.507 OA
ATOM     36  H   UNL     1      -5.489  13.928 -18.653  1.00  0.00     0.293 HD
ENDBRANCH  10  35
TORSDOF 9
ENDMDL
MODEL 9
REMARK VINA RESULT:    -5.096      3.122      5.742
REMARK INTER + INTRA:          -8.067
REMARK INTER:                  -6.917
REMARK INTRA:                  -1.150
REMARK UNBOUND:                -1.184
REMARK SMILES O=c1c(-c2ccc(O)cc2)coc2c([C@H]3O[C@@H](CO)[C@@H](O)[C@@H](O)[C@@H]3O)c(O)ccc12
REMARK SMILES IDX 3 1 11 2 12 3 13 4 30 5 2 6 1 7 29 8 28 9 26 10 14 11 4 12
REMARK SMILES IDX 5 13 6 14 7 15 10 16 9 17 8 18 15 20 24 21 16 22 22 23 17 24
REMARK SMILES IDX 20 25 25 26 23 28 18 30 19 31 21 33 27 35
REMARK H PARENT 8 19 25 27 23 29 19 32 21 34 27 36
REMARK Flexibility Score: inf
ROOT
ATOM      1  C   UNL     1     -12.673  14.619 -11.135  1.00  0.00     0.065 A 
ATOM      2  C   UNL     1     -12.651  14.923 -12.504  1.00  0.00     0.208 A 
ATOM      3  O   UNL     1     -11.769  14.354 -13.315  1.00  0.00    -0.463 OA
ATOM      4  C   UNL     1     -10.853  13.481 -12.903  1.00  0.00     0.147 A 
ATOM      5  C   UNL     1     -10.783  13.144 -11.530  1.00  0.00     0.066 A 
ATOM      6  C   UNL     1     -11.709  13.721 -10.643  1.00  0.00     0.200 A 
ATOM      7  O   UNL     1     -11.669  13.446  -9.411  1.00  0.00    -0.288 OA
ATOM      8  C   UNL     1      -9.794  12.252 -11.086  1.00  0.00     0.020 A 
ATOM      9  C   UNL     1      -8.887  11.703 -11.987  1.00  0.00     0.047 A 
ATOM     10  C   UNL     1      -8.954  12.020 -13.348  1.00  0.00     0.125 A 
ATOM     11  C   UNL     1      -9.956  12.893 -13.829  1.00  0.00     0.069 A 
ENDROOT
BRANCH   1  12
ATOM     12  C   UNL     1     -13.699  15.235 -10.256  1.00  0.00    -0.011 A 
ATOM     13  C   UNL     1     -14.922  14.582 -10.015  1.00  0.00     0.013 A 
ATOM     14  C   UNL     1     -15.879  15.162  -9.177  1.00  0.00     0.047 A 
ATOM     15  C   UNL     1     -15.639  16.404  -8.590  1.00  0.00     0.115 A 
ATOM     16  C   UNL     1     -13.465  16.486  -9.660  1.00  0.00     0.013 A 
ATOM     17  C   UNL     1     -14.428  17.066  -8.831  1.00  0.00     0.047 A 
BRANCH  15  18
ATOM     18  O   UNL     1     -16.608  16.977  -7.768  1.00  0.00    -0.508 OA
ATOM     19  H   UNL     1     -16.473  17.894  -7.348  1.00  0.00     0.293 HD
ENDBRANCH  15  18
ENDBRANCH   1  12
BRANCH  11  20
ATOM     20  C   UNL     1     -10.012  13.214 -15.320  1.00  0.00     0.188 C 
ATOM     21  C   UNL     1     -11.103  12.351 -16.034  1.00  0.00     0.179 C 
ATOM     22  O   UNL     1      -8.721  13.073 -15.897  1.00  0.00    -0.362 OA
ATOM     23  C   UNL     1     -10.470  11.293 -16.959  1.00  0.00     0.177 C 
ATOM     24  C   UNL     1      -8.788  13.199 -17.304  1.00  0.00     0.176 C 
ATOM     25  C   UNL     1      -9.417  11.916 -17.914  1.00  0.00     0.177 C 
BRANCH  21  26
ATOM     26  O   UNL     1     -11.937  13.197 -16.789  1.00  0.00    -0.387 OA
ATOM     27  H   UNL     1     -11.361  13.642 -17.469  1.00  0.00     0.211 HD
ENDBRANCH  21  26
BRANCH  23  28
ATOM     28  O   UNL     1      -9.881  10.294 -16.161  1.00  0.00    -0.387 OA
ATOM     29  H   UNL     1      -9.288   9.757 -16.747  1.00  0.00     0.211 HD
ENDBRANCH  23  28
BRANCH  24  30
ATOM     30  C   UNL     1      -7.383  13.504 -17.842  1.00  0.00     0.191 C 
BRANCH  30  31
ATOM     31  O   UNL     1      -7.394  13.538 -19.242  1.00  0.00    -0.394 OA
ATOM     32  H   UNL     1      -8.199  14.057 -19.500  1.00  0.00     0.210 HD
ENDBRANCH  30  31
ENDBRANCH  24  30
BRANCH  25  33
ATOM     33  O   UNL     1      -8.423  10.972 -18.220  1.00  0.00    -0.388 OA
ATOM     34  H   UNL     1      -8.207  11.083 -19.183  1.00  0.00     0.211 HD
ENDBRANCH  25  33
ENDBRANCH  11  20
BRANCH  10  35
ATOM     35  O   UNL     1      -8.019  11.470 -14.227  1.00  0.00    -0.507 OA
ATOM     36  H   UNL     1      -8.206  10.612 -14.733  1.00  0.00     0.293 HD
ENDBRANCH  10  35
TORSDOF 9
ENDMDL
