MODEL 1
REMARK VINA RESULT:    -7.071      0.000      0.000
REMARK INTER + INTRA:          -8.821
REMARK INTER:                  -8.517
REMARK INTRA:                  -0.304
REMARK UNBOUND:                -0.304
REMARK SMILES O=c1c(O)c(-c2ccc(O)c(O)c2)oc2cc(O)cc(O)c12
REMARK SMILES IDX 5 1 3 2 2 3 1 4 22 5 20 6 19 7 17 8 16 9 15 10 14 11 6 12
REMARK SMILES IDX 7 13 8 14 9 15 13 16 11 17 10 18 12 20 4 22 21 24 18 26
REMARK H PARENT 10 19 12 21 4 23 21 25 18 27
REMARK Flexibility Score: inf
ROOT
ATOM      1  C   UNL     1       9.329  11.558 -15.763  1.00  0.00     0.180 A 
ATOM      2  C   UNL     1       9.976  10.376 -16.177  1.00  0.00     0.208 A 
ATOM      3  C   UNL     1       9.651   9.168 -15.542  1.00  0.00     0.238 A 
ATOM      4  O   UNL     1      10.217   8.102 -15.911  1.00  0.00    -0.285 OA
ATOM      5  C   UNL     1       8.705   9.161 -14.497  1.00  0.00     0.111 A 
ATOM      6  C   UNL     1       8.325   7.986 -13.805  1.00  0.00     0.134 A 
ATOM      7  C   UNL     1       7.382   8.063 -12.768  1.00  0.00     0.093 A 
ATOM      8  C   UNL     1       6.814   9.292 -12.414  1.00  0.00     0.123 A 
ATOM      9  C   UNL     1       7.185  10.453 -13.094  1.00  0.00     0.094 A 
ATOM     10  C   UNL     1       8.121  10.396 -14.130  1.00  0.00     0.146 A 
ATOM     11  O   UNL     1       8.452  11.515 -14.764  1.00  0.00    -0.452 OA
ENDROOT
BRANCH   1  12
ATOM     12  C   UNL     1       9.604  12.867 -16.395  1.00  0.00     0.025 A 
ATOM     13  C   UNL     1      10.521  13.772 -15.836  1.00  0.00     0.016 A 
ATOM     14  C   UNL     1      10.782  14.992 -16.464  1.00  0.00     0.051 A 
ATOM     15  C   UNL     1      10.147  15.327 -17.664  1.00  0.00     0.157 A 
ATOM     16  C   UNL     1       8.983  13.192 -17.611  1.00  0.00     0.062 A 
ATOM     17  C   UNL     1       9.238  14.414 -18.249  1.00  0.00     0.158 A 
BRANCH  15  18
ATOM     18  O   UNL     1      10.448  16.564 -18.239  1.00  0.00    -0.504 OA
ATOM     19  H   UNL     1      10.464  16.736 -19.233  1.00  0.00     0.293 HD
ENDBRANCH  15  18
BRANCH  17  20
ATOM     20  O   UNL     1       8.574  14.673 -19.449  1.00  0.00    -0.504 OA
ATOM     21  H   UNL     1       7.955  14.018 -19.905  1.00  0.00     0.293 HD
ENDBRANCH  17  20
ENDBRANCH   1  12
BRANCH   2  22
ATOM     22  O   UNL     1      10.947  10.419 -17.181  1.00  0.00    -0.502 OA
ATOM     23  H   UNL     1      11.914  10.172 -17.011  1.00  0.00     0.293 HD
ENDBRANCH   2  22
BRANCH   6  24
ATOM     24  O   UNL     1       8.875   6.747 -14.135  1.00  0.00    -0.507 OA
ATOM     25  H   UNL     1       9.740   6.669 -14.656  1.00  0.00     0.293 HD
ENDBRANCH   6  24
BRANCH   8  26
ATOM     26  O   UNL     1       5.878   9.369 -11.384  1.00  0.00    -0.508 OA
ATOM     27  H   UNL     1       5.618  10.256 -10.969  1.00  0.00     0.293 HD
ENDBRANCH   8  26
TORSDOF 6
ENDMDL
MODEL 2
REMARK VINA RESULT:    -6.927      1.740      7.355
REMARK INTER + INTRA:          -8.648
REMARK INTER:                  -8.346
REMARK INTRA:                  -0.303
REMARK UNBOUND:                -0.304
REMARK SMILES O=c1c(O)c(-c2ccc(O)c(O)c2)oc2cc(O)cc(O)c12
REMARK SMILES IDX 5 1 3 2 2 3 1 4 22 5 20 6 19 7 17 8 16 9 15 10 14 11 6 12
REMARK SMILES IDX 7 13 8 14 9 15 13 16 11 17 10 18 12 20 4 22 21 24 18 26
REMARK H PARENT 10 19 12 21 4 23 21 25 18 27
REMARK Flexibility Score: inf
ROOT
ATOM      1  C   UNL     1       9.520  12.401 -16.994  1.00  0.00     0.180 A 
ATOM      2  C   UNL     1      10.197  13.519 -16.466  1.00  0.00     0.208 A 
ATOM      3  C   UNL     1      10.186  14.722 -17.189  1.00  0.00     0.238 A 
ATOM      4  O   UNL     1      10.780  15.731 -16.720  1.00  0.00    -0.285 OA
ATOM      5  C   UNL     1       9.520  14.784 -18.430  1.00  0.00     0.111 A 
ATOM      6  C   UNL     1       9.466  15.956 -19.221  1.00  0.00     0.134 A 
ATOM      7  C   UNL     1       8.791  15.935 -20.451  1.00  0.00     0.093 A 
ATOM      8  C   UNL     1       8.170  14.765 -20.902  1.00  0.00     0.123 A 
ATOM      9  C   UNL     1       8.220  13.606 -20.125  1.00  0.00     0.094 A 
ATOM     10  C   UNL     1       8.887  13.608 -18.896  1.00  0.00     0.146 A 
ATOM     11  O   UNL     1       8.915  12.493 -18.174  1.00  0.00    -0.452 OA
ENDROOT
BRANCH   1  12
ATOM     12  C   UNL     1       9.470  11.104 -16.283  1.00  0.00     0.025 A 
ATOM     13  C   UNL     1      10.365  10.066 -16.589  1.00  0.00     0.016 A 
ATOM     14  C   UNL     1      10.314   8.860 -15.888  1.00  0.00     0.051 A 
ATOM     15  C   UNL     1       9.383   8.669 -14.863  1.00  0.00     0.157 A 
ATOM     16  C   UNL     1       8.549  10.922 -15.239  1.00  0.00     0.062 A 
ATOM     17  C   UNL     1       8.490   9.716 -14.530  1.00  0.00     0.158 A 
BRANCH  15  18
ATOM     18  O   UNL     1       9.381   7.438 -14.203  1.00  0.00    -0.504 OA
ATOM     19  H   UNL     1      10.101   6.739 -14.310  1.00  0.00     0.293 HD
ENDBRANCH  15  18
BRANCH  17  20
ATOM     20  O   UNL     1       7.540   9.603 -13.513  1.00  0.00    -0.504 OA
ATOM     21  H   UNL     1       7.257   8.726 -13.100  1.00  0.00     0.293 HD
ENDBRANCH  17  20
ENDBRANCH   1  12
BRANCH   2  22
ATOM     22  O   UNL     1      10.890  13.416 -15.258  1.00  0.00    -0.502 OA
ATOM     23  H   UNL     1      10.769  14.083 -14.504  1.00  0.00     0.293 HD
ENDBRANCH   2  22
BRANCH   6  24
ATOM     24  O   UNL     1      10.076  17.138 -18.798  1.00  0.00    -0.507 OA
ATOM     25  H   UNL     1      10.696  17.161 -17.998  1.00  0.00     0.293 HD
ENDBRANCH   6  24
BRANCH   8  26
ATOM     26  O   UNL     1       7.500  14.743 -22.124  1.00  0.00    -0.508 OA
ATOM     27  H   UNL     1       6.582  14.326 -22.217  1.00  0.00     0.293 HD
ENDBRANCH   8  26
TORSDOF 6
ENDMDL
MODEL 3
REMARK VINA RESULT:    -6.801      3.513      6.425
REMARK INTER + INTRA:          -8.496
REMARK INTER:                  -8.396
REMARK INTRA:                  -0.101
REMARK UNBOUND:                -0.304
REMARK SMILES O=c1c(O)c(-c2ccc(O)c(O)c2)oc2cc(O)cc(O)c12
REMARK SMILES IDX 5 1 3 2 2 3 1 4 22 5 20 6 19 7 17 8 16 9 15 10 14 11 6 12
REMARK SMILES IDX 7 13 8 14 9 15 13 16 11 17 10 18 12 20 4 22 21 24 18 26
REMARK H PARENT 10 19 12 21 4 23 21 25 18 27
REMARK Flexibility Score: inf
ROOT
ATOM      1  C   UNL     1       7.993  16.144 -18.536  1.00  0.00     0.180 A 
ATOM      2  C   UNL     1       8.075  15.863 -19.915  1.00  0.00     0.208 A 
ATOM      3  C   UNL     1       8.410  14.562 -20.323  1.00  0.00     0.238 A 
ATOM      4  O   UNL     1       8.475  14.297 -21.554  1.00  0.00    -0.285 OA
ATOM      5  C   UNL     1       8.677  13.574 -19.354  1.00  0.00     0.111 A 
ATOM      6  C   UNL     1       9.024  12.242 -19.682  1.00  0.00     0.134 A 
ATOM      7  C   UNL     1       9.284  11.318 -18.659  1.00  0.00     0.093 A 
ATOM      8  C   UNL     1       9.202  11.702 -17.315  1.00  0.00     0.123 A 
ATOM      9  C   UNL     1       8.859  13.014 -16.987  1.00  0.00     0.094 A 
ATOM     10  C   UNL     1       8.595  13.949 -17.992  1.00  0.00     0.146 A 
ATOM     11  O   UNL     1       8.265  15.189 -17.651  1.00  0.00    -0.452 OA
ENDROOT
BRANCH   1  12
ATOM     12  C   UNL     1       7.628  17.484 -18.028  1.00  0.00     0.025 A 
ATOM     13  C   UNL     1       6.517  17.672 -17.190  1.00  0.00     0.016 A 
ATOM     14  C   UNL     1       6.207  18.943 -16.702  1.00  0.00     0.051 A 
ATOM     15  C   UNL     1       7.002  20.046 -17.028  1.00  0.00     0.157 A 
ATOM     16  C   UNL     1       8.440  18.586 -18.337  1.00  0.00     0.062 A 
ATOM     17  C   UNL     1       8.137  19.866 -17.854  1.00  0.00     0.158 A 
BRANCH  15  18
ATOM     18  O   UNL     1       6.635  21.291 -16.512  1.00  0.00    -0.504 OA
ATOM     19  H   UNL     1       7.221  21.848 -15.907  1.00  0.00     0.293 HD
ENDBRANCH  15  18
BRANCH  17  20
ATOM     20  O   UNL     1       8.983  20.916 -18.214  1.00  0.00    -0.504 OA
ATOM     21  H   UNL     1       9.041  21.792 -17.713  1.00  0.00     0.293 HD
ENDBRANCH  17  20
ENDBRANCH   1  12
BRANCH   2  22
ATOM     22  O   UNL     1       7.855  16.873 -20.854  1.00  0.00    -0.502 OA
ATOM     23  H   UNL     1       7.149  16.796 -21.578  1.00  0.00     0.293 HD
ENDBRANCH   2  22
BRANCH   6  24
ATOM     24  O   UNL     1       9.115  11.829 -21.012  1.00  0.00    -0.507 OA
ATOM     25  H   UNL     1       9.677  11.032 -21.286  1.00  0.00     0.293 HD
ENDBRANCH   6  24
BRANCH   8  26
ATOM     26  O   UNL     1       9.461  10.785 -16.299  1.00  0.00    -0.508 OA
ATOM     27  H   UNL     1      10.407  10.515 -16.057  1.00  0.00     0.293 HD
ENDBRANCH   8  26
TORSDOF 6
ENDMDL
MODEL 4
REMARK VINA RESULT:    -6.791      2.044      7.484
REMARK INTER + INTRA:          -8.484
REMARK INTER:                  -8.192
REMARK INTRA:                  -0.292
REMARK UNBOUND:                -0.304
REMARK SMILES O=c1c(O)c(-c2ccc(O)c(O)c2)oc2cc(O)cc(O)c12
REMARK SMILES IDX 5 1 3 2 2 3 1 4 22 5 20 6 19 7 17 8 16 9 15 10 14 11 6 12
REMARK SMILES IDX 7 13 8 14 9 15 13 16 11 17 10 18 12 20 4 22 21 24 18 26
REMARK H PARENT 10 19 12 21 4 23 21 25 18 27
REMARK Flexibility Score: inf
ROOT
ATOM      1  C   UNL     1       9.362  12.456 -17.239  1.00  0.00     0.180 A 
ATOM      2  C   UNL     1       9.984  13.543 -16.593  1.00  0.00     0.208 A 
ATOM      3  C   UNL     1      10.017  14.787 -17.240  1.00  0.00     0.238 A 
ATOM      4  O   UNL     1      10.562  15.770 -16.666  1.00  0.00    -0.285 OA
ATOM      5  C   UNL     1       9.450  14.921 -18.523  1.00  0.00     0.111 A 
ATOM      6  C   UNL     1       9.445  16.140 -19.244  1.00  0.00     0.134 A 
ATOM      7  C   UNL     1       8.869  16.190 -20.522  1.00  0.00     0.093 A 
ATOM      8  C   UNL     1       8.298  15.046 -21.091  1.00  0.00     0.123 A 
ATOM      9  C   UNL     1       8.299  13.843 -20.383  1.00  0.00     0.094 A 
ATOM     10  C   UNL     1       8.868  13.773 -19.108  1.00  0.00     0.146 A 
ATOM     11  O   UNL     1       8.851  12.617 -18.456  1.00  0.00    -0.452 OA
ENDROOT
BRANCH   1  12
ATOM     12  C   UNL     1       9.271  11.117 -16.614  1.00  0.00     0.025 A 
ATOM     13  C   UNL     1       8.080  10.665 -16.024  1.00  0.00     0.016 A 
ATOM     14  C   UNL     1       8.010   9.388 -15.462  1.00  0.00     0.051 A 
ATOM     15  C   UNL     1       9.118   8.535 -15.490  1.00  0.00     0.157 A 
ATOM     16  C   UNL     1      10.376  10.254 -16.663  1.00  0.00     0.062 A 
ATOM     17  C   UNL     1      10.317   8.972 -16.102  1.00  0.00     0.158 A 
BRANCH  15  18
ATOM     18  O   UNL     1       8.985   7.273 -14.907  1.00  0.00    -0.504 OA
ATOM     19  H   UNL     1       8.103   6.801 -14.776  1.00  0.00     0.293 HD
ENDBRANCH  15  18
BRANCH  17  20
ATOM     20  O   UNL     1      11.461   8.174 -16.176  1.00  0.00    -0.504 OA
ATOM     21  H   UNL     1      11.863   7.845 -17.042  1.00  0.00     0.293 HD
ENDBRANCH  17  20
ENDBRANCH   1  12
BRANCH   2  22
ATOM     22  O   UNL     1      10.582  13.370 -15.342  1.00  0.00    -0.502 OA
ATOM     23  H   UNL     1      11.457  12.873 -15.223  1.00  0.00     0.293 HD
ENDBRANCH   2  22
BRANCH   6  24
ATOM     24  O   UNL     1      10.008  17.297 -18.704  1.00  0.00    -0.507 OA
ATOM     25  H   UNL     1       9.805  18.215 -19.081  1.00  0.00     0.293 HD
ENDBRANCH   6  24
BRANCH   8  26
ATOM     26  O   UNL     1       7.726  15.096 -22.360  1.00  0.00    -0.508 OA
ATOM     27  H   UNL     1       6.883  15.627 -22.542  1.00  0.00     0.293 HD
ENDBRANCH   8  26
TORSDOF 6
ENDMDL
MODEL 5
REMARK VINA RESULT:    -6.616      2.095      3.217
REMARK INTER + INTRA:          -8.274
REMARK INTER:                  -8.365
REMARK INTRA:                   0.091
REMARK UNBOUND:                -0.304
REMARK SMILES O=c1c(O)c(-c2ccc(O)c(O)c2)oc2cc(O)cc(O)c12
REMARK SMILES IDX 5 1 3 2 2 3 1 4 22 5 20 6 19 7 17 8 16 9 15 10 14 11 6 12
REMARK SMILES IDX 7 13 8 14 9 15 13 16 11 17 10 18 12 20 4 22 21 24 18 26
REMARK H PARENT 10 19 12 21 4 23 21 25 18 27
REMARK Flexibility Score: inf
ROOT
ATOM      1  C   UNL     1       8.804  12.735 -18.282  1.00  0.00     0.180 A 
ATOM      2  C   UNL     1       9.227  11.444 -18.654  1.00  0.00     0.208 A 
ATOM      3  C   UNL     1       9.282  10.440 -17.675  1.00  0.00     0.238 A 
ATOM      4  O   UNL     1       9.650   9.278 -17.999  1.00  0.00    -0.285 OA
ATOM      5  C   UNL     1       8.935  10.745 -16.343  1.00  0.00     0.111 A 
ATOM      6  C   UNL     1       8.966   9.792 -15.297  1.00  0.00     0.134 A 
ATOM      7  C   UNL     1       8.615  10.176 -13.994  1.00  0.00     0.093 A 
ATOM      8  C   UNL     1       8.232  11.494 -13.720  1.00  0.00     0.123 A 
ATOM      9  C   UNL     1       8.198  12.437 -14.749  1.00  0.00     0.094 A 
ATOM     10  C   UNL     1       8.544  12.073 -16.053  1.00  0.00     0.146 A 
ATOM     11  O   UNL     1       8.497  12.989 -17.014  1.00  0.00    -0.452 OA
ENDROOT
BRANCH   1  12
ATOM     12  C   UNL     1       8.702  13.841 -19.260  1.00  0.00     0.025 A 
ATOM     13  C   UNL     1       8.175  13.636 -20.545  1.00  0.00     0.016 A 
ATOM     14  C   UNL     1       8.066  14.701 -21.442  1.00  0.00     0.051 A 
ATOM     15  C   UNL     1       8.467  15.989 -21.073  1.00  0.00     0.157 A 
ATOM     16  C   UNL     1       9.084  15.137 -18.880  1.00  0.00     0.062 A 
ATOM     17  C   UNL     1       8.979  16.212 -19.773  1.00  0.00     0.158 A 
BRANCH  15  18
ATOM     18  O   UNL     1       8.336  17.009 -22.018  1.00  0.00    -0.504 OA
ATOM     19  H   UNL     1       8.342  16.859 -23.016  1.00  0.00     0.293 HD
ENDBRANCH  15  18
BRANCH  17  20
ATOM     20  O   UNL     1       9.390  17.470 -19.329  1.00  0.00    -0.504 OA
ATOM     21  H   UNL     1      10.153  17.620 -18.684  1.00  0.00     0.293 HD
ENDBRANCH  17  20
ENDBRANCH   1  12
BRANCH   2  22
ATOM     22  O   UNL     1       9.614  11.180 -19.971  1.00  0.00    -0.502 OA
ATOM     23  H   UNL     1       9.276  11.726 -20.754  1.00  0.00     0.293 HD
ENDBRANCH   2  22
BRANCH   6  24
ATOM     24  O   UNL     1       9.345   8.471 -15.539  1.00  0.00    -0.507 OA
ATOM     25  H   UNL     1       9.200   7.740 -14.853  1.00  0.00     0.293 HD
ENDBRANCH   6  24
BRANCH   8  26
ATOM     26  O   UNL     1       7.883  11.876 -12.426  1.00  0.00    -0.508 OA
ATOM     27  H   UNL     1       7.127  11.425 -11.926  1.00  0.00     0.293 HD
ENDBRANCH   8  26
TORSDOF 6
ENDMDL
MODEL 6
REMARK VINA RESULT:    -6.504      1.974      7.252
REMARK INTER + INTRA:          -8.139
REMARK INTER:                  -7.814
REMARK INTRA:                  -0.325
REMARK UNBOUND:                -0.304
REMARK SMILES O=c1c(O)c(-c2ccc(O)c(O)c2)oc2cc(O)cc(O)c12
REMARK SMILES IDX 5 1 3 2 2 3 1 4 22 5 20 6 19 7 17 8 16 9 15 10 14 11 6 12
REMARK SMILES IDX 7 13 8 14 9 15 13 16 11 17 10 18 12 20 4 22 21 24 18 26
REMARK H PARENT 10 19 12 21 4 23 21 25 18 27
REMARK Flexibility Score: inf
ROOT
ATOM      1  C   UNL     1       8.578  11.901 -17.631  1.00  0.00     0.180 A 
ATOM      2  C   UNL     1       7.902  11.606 -18.832  1.00  0.00     0.208 A 
ATOM      3  C   UNL     1       7.767  12.613 -19.800  1.00  0.00     0.238 A 
ATOM      4  O   UNL     1       7.174  12.356 -20.882  1.00  0.00    -0.285 OA
ATOM      5  C   UNL     1       8.288  13.898 -19.546  1.00  0.00     0.111 A 
ATOM      6  C   UNL     1       8.191  14.969 -20.467  1.00  0.00     0.134 A 
ATOM      7  C   UNL     1       8.727  16.222 -20.137  1.00  0.00     0.093 A 
ATOM      8  C   UNL     1       9.358  16.424 -18.904  1.00  0.00     0.123 A 
ATOM      9  C   UNL     1       9.458  15.371 -17.993  1.00  0.00     0.094 A 
ATOM     10  C   UNL     1       8.931  14.114 -18.304  1.00  0.00     0.146 A 
ATOM     11  O   UNL     1       9.044  13.129 -17.421  1.00  0.00    -0.452 OA
ENDROOT
BRANCH   1  12
ATOM     12  C   UNL     1       8.777  10.888 -16.571  1.00  0.00     0.025 A 
ATOM     13  C   UNL     1       7.827  10.694 -15.556  1.00  0.00     0.016 A 
ATOM     14  C   UNL     1       8.025   9.715 -14.581  1.00  0.00     0.051 A 
ATOM     15  C   UNL     1       9.164   8.904 -14.605  1.00  0.00     0.157 A 
ATOM     16  C   UNL     1       9.910  10.060 -16.610  1.00  0.00     0.062 A 
ATOM     17  C   UNL     1      10.119   9.075 -15.636  1.00  0.00     0.158 A 
BRANCH  15  18
ATOM     18  O   UNL     1       9.306   7.946 -13.597  1.00  0.00    -0.504 OA
ATOM     19  H   UNL     1       8.807   7.069 -13.578  1.00  0.00     0.293 HD
ENDBRANCH  15  18
BRANCH  17  20
ATOM     20  O   UNL     1      11.274   8.298 -15.731  1.00  0.00    -0.504 OA
ATOM     21  H   UNL     1      11.274   7.310 -15.943  1.00  0.00     0.293 HD
ENDBRANCH  17  20
ENDBRANCH   1  12
BRANCH   2  22
ATOM     22  O   UNL     1       7.352  10.338 -19.037  1.00  0.00    -0.502 OA
ATOM     23  H   UNL     1       6.582  10.178 -19.676  1.00  0.00     0.293 HD
ENDBRANCH   2  22
BRANCH   6  24
ATOM     24  O   UNL     1       7.566  14.798 -21.704  1.00  0.00    -0.507 OA
ATOM     25  H   UNL     1       7.160  15.577 -22.207  1.00  0.00     0.293 HD
ENDBRANCH   6  24
BRANCH   8  26
ATOM     26  O   UNL     1       9.890  17.669 -18.575  1.00  0.00    -0.508 OA
ATOM     27  H   UNL     1       9.415  18.297 -17.938  1.00  0.00     0.293 HD
ENDBRANCH   8  26
TORSDOF 6
ENDMDL
MODEL 7
REMARK VINA RESULT:    -6.456      2.922      7.385
REMARK INTER + INTRA:          -8.082
REMARK INTER:                  -8.117
REMARK INTRA:                   0.035
REMARK UNBOUND:                -0.304
REMARK SMILES O=c1c(O)c(-c2ccc(O)c(O)c2)oc2cc(O)cc(O)c12
REMARK SMILES IDX 5 1 3 2 2 3 1 4 22 5 20 6 19 7 17 8 16 9 15 10 14 11 6 12
REMARK SMILES IDX 7 13 8 14 9 15 13 16 11 17 10 18 12 20 4 22 21 24 18 26
REMARK H PARENT 10 19 12 21 4 23 21 25 18 27
REMARK Flexibility Score: inf
ROOT
ATOM      1  C   UNL     1       7.185   8.254 -15.014  1.00  0.00     0.180 A 
ATOM      2  C   UNL     1       6.910   8.541 -13.662  1.00  0.00     0.208 A 
ATOM      3  C   UNL     1       7.250   9.805 -13.155  1.00  0.00     0.238 A 
ATOM      4  O   UNL     1       6.999  10.076 -11.949  1.00  0.00    -0.285 OA
ATOM      5  C   UNL     1       7.873  10.749 -13.995  1.00  0.00     0.111 A 
ATOM      6  C   UNL     1       8.250  12.043 -13.561  1.00  0.00     0.134 A 
ATOM      7  C   UNL     1       8.875  12.924 -14.456  1.00  0.00     0.093 A 
ATOM      8  C   UNL     1       9.129  12.534 -15.776  1.00  0.00     0.123 A 
ATOM      9  C   UNL     1       8.758  11.260 -16.210  1.00  0.00     0.094 A 
ATOM     10  C   UNL     1       8.133  10.369 -15.333  1.00  0.00     0.146 A 
ATOM     11  O   UNL     1       7.787   9.165 -15.773  1.00  0.00    -0.452 OA
ENDROOT
BRANCH   1  12
ATOM     12  C   UNL     1       6.840   6.952 -15.627  1.00  0.00     0.025 A 
ATOM     13  C   UNL     1       6.168   6.877 -16.857  1.00  0.00     0.016 A 
ATOM     14  C   UNL     1       5.875   5.637 -17.428  1.00  0.00     0.051 A 
ATOM     15  C   UNL     1       6.257   4.451 -16.792  1.00  0.00     0.157 A 
ATOM     16  C   UNL     1       7.244   5.764 -14.999  1.00  0.00     0.062 A 
ATOM     17  C   UNL     1       6.954   4.514 -15.563  1.00  0.00     0.158 A 
BRANCH  15  18
ATOM     18  O   UNL     1       5.930   3.243 -17.413  1.00  0.00    -0.504 OA
ATOM     19  H   UNL     1       6.203   2.999 -18.354  1.00  0.00     0.293 HD
ENDBRANCH  15  18
BRANCH  17  20
ATOM     20  O   UNL     1       7.376   3.375 -14.874  1.00  0.00    -0.504 OA
ATOM     21  H   UNL     1       7.654   2.514 -15.325  1.00  0.00     0.293 HD
ENDBRANCH  17  20
ENDBRANCH   1  12
BRANCH   2  22
ATOM     22  O   UNL     1       6.338   7.570 -12.837  1.00  0.00    -0.502 OA
ATOM     23  H   UNL     1       6.128   7.742 -11.861  1.00  0.00     0.293 HD
ENDBRANCH   2  22
BRANCH   6  24
ATOM     24  O   UNL     1       8.011  12.459 -12.250  1.00  0.00    -0.507 OA
ATOM     25  H   UNL     1       7.504  13.312 -12.046  1.00  0.00     0.293 HD
ENDBRANCH   6  24
BRANCH   8  26
ATOM     26  O   UNL     1       9.751  13.408 -16.666  1.00  0.00    -0.508 OA
ATOM     27  H   UNL     1       9.856  13.180 -17.647  1.00  0.00     0.293 HD
ENDBRANCH   8  26
TORSDOF 6
ENDMDL
MODEL 8
REMARK VINA RESULT:    -6.245      1.171      2.919
REMARK INTER + INTRA:          -7.827
REMARK INTER:                  -7.495
REMARK INTRA:                  -0.332
REMARK UNBOUND:                -0.304
REMARK SMILES O=c1c(O)c(-c2ccc(O)c(O)c2)oc2cc(O)cc(O)c12
REMARK SMILES IDX 5 1 3 2 2 3 1 4 22 5 20 6 19 7 17 8 16 9 15 10 14 11 6 12
REMARK SMILES IDX 7 13 8 14 9 15 13 16 11 17 10 18 12 20 4 22 21 24 18 26
REMARK H PARENT 10 19 12 21 4 23 21 25 18 27
REMARK Flexibility Score: inf
ROOT
ATOM      1  C   UNL     1       8.445  12.281 -15.311  1.00  0.00     0.180 A 
ATOM      2  C   UNL     1       7.441  12.618 -14.380  1.00  0.00     0.208 A 
ATOM      3  C   UNL     1       6.903  11.609 -13.568  1.00  0.00     0.238 A 
ATOM      4  O   UNL     1       6.012  11.902 -12.724  1.00  0.00    -0.285 OA
ATOM      5  C   UNL     1       7.357  10.282 -13.711  1.00  0.00     0.111 A 
ATOM      6  C   UNL     1       6.863   9.207 -12.934  1.00  0.00     0.134 A 
ATOM      7  C   UNL     1       7.359   7.911 -13.143  1.00  0.00     0.093 A 
ATOM      8  C   UNL     1       8.340   7.673 -14.112  1.00  0.00     0.123 A 
ATOM      9  C   UNL     1       8.831   8.730 -14.880  1.00  0.00     0.094 A 
ATOM     10  C   UNL     1       8.349  10.028 -14.686  1.00  0.00     0.146 A 
ATOM     11  O   UNL     1       8.838  11.016 -15.427  1.00  0.00    -0.452 OA
ENDROOT
BRANCH   1  12
ATOM     12  C   UNL     1       9.075  13.292 -16.189  1.00  0.00     0.025 A 
ATOM     13  C   UNL     1      10.178  14.048 -15.761  1.00  0.00     0.016 A 
ATOM     14  C   UNL     1      10.770  14.978 -16.617  1.00  0.00     0.051 A 
ATOM     15  C   UNL     1      10.286  15.164 -17.916  1.00  0.00     0.157 A 
ATOM     16  C   UNL     1       8.602  13.460 -17.500  1.00  0.00     0.062 A 
ATOM     17  C   UNL     1       9.189  14.391 -18.366  1.00  0.00     0.158 A 
BRANCH  15  18
ATOM     18  O   UNL     1      10.921  16.113 -18.720  1.00  0.00    -0.504 OA
ATOM     19  H   UNL     1      10.453  16.905 -19.135  1.00  0.00     0.293 HD
ENDBRANCH  15  18
BRANCH  17  20
ATOM     20  O   UNL     1       8.657  14.512 -19.651  1.00  0.00    -0.504 OA
ATOM     21  H   UNL     1       8.798  13.834 -20.386  1.00  0.00     0.293 HD
ENDBRANCH  17  20
ENDBRANCH   1  12
BRANCH   2  22
ATOM     22  O   UNL     1       6.974  13.932 -14.293  1.00  0.00    -0.502 OA
ATOM     23  H   UNL     1       6.899  14.424 -13.411  1.00  0.00     0.293 HD
ENDBRANCH   2  22
BRANCH   6  24
ATOM     24  O   UNL     1       5.884   9.413 -11.960  1.00  0.00    -0.507 OA
ATOM     25  H   UNL     1       4.917   9.154 -12.113  1.00  0.00     0.293 HD
ENDBRANCH   6  24
BRANCH   8  26
ATOM     26  O   UNL     1       8.832   6.386 -14.321  1.00  0.00    -0.508 OA
ATOM     27  H   UNL     1       8.257   5.567 -14.169  1.00  0.00     0.293 HD
ENDBRANCH   8  26
TORSDOF 6
ENDMDL
MODEL 9
REMARK VINA RESULT:    -6.182      2.362      7.405
REMARK INTER + INTRA:          -7.751
REMARK INTER:                  -7.426
REMARK INTRA:                  -0.325
REMARK UNBOUND:                -0.304
REMARK SMILES O=c1c(O)c(-c2ccc(O)c(O)c2)oc2cc(O)cc(O)c12
REMARK SMILES IDX 5 1 3 2 2 3 1 4 22 5 20 6 19 7 17 8 16 9 15 10 14 11 6 12
REMARK SMILES IDX 7 13 8 14 9 15 13 16 11 17 10 18 12 20 4 22 21 24 18 26
REMARK H PARENT 10 19 12 21 4 23 21 25 18 27
REMARK Flexibility Score: inf
ROOT
ATOM      1  C   UNL     1       8.746  13.007 -18.048  1.00  0.00     0.180 A 
ATOM      2  C   UNL     1       8.727  12.873 -19.451  1.00  0.00     0.208 A 
ATOM      3  C   UNL     1       8.549  14.021 -20.239  1.00  0.00     0.238 A 
ATOM      4  O   UNL     1       8.541  13.914 -21.495  1.00  0.00    -0.285 OA
ATOM      5  C   UNL     1       8.371  15.273 -19.617  1.00  0.00     0.111 A 
ATOM      6  C   UNL     1       8.182  16.476 -20.339  1.00  0.00     0.134 A 
ATOM      7  C   UNL     1       8.003  17.683 -19.647  1.00  0.00     0.093 A 
ATOM      8  C   UNL     1       8.011  17.709 -18.248  1.00  0.00     0.123 A 
ATOM      9  C   UNL     1       8.199  16.526 -17.531  1.00  0.00     0.094 A 
ATOM     10  C   UNL     1       8.380  15.313 -18.203  1.00  0.00     0.146 A 
ATOM     11  O   UNL     1       8.561  14.204 -17.497  1.00  0.00    -0.452 OA
ENDROOT
BRANCH   1  12
ATOM     12  C   UNL     1       8.948  11.849 -17.150  1.00  0.00     0.025 A 
ATOM     13  C   UNL     1      10.233  11.369 -16.851  1.00  0.00     0.016 A 
ATOM     14  C   UNL     1      10.400  10.290 -15.982  1.00  0.00     0.051 A 
ATOM     15  C   UNL     1       9.294   9.677 -15.384  1.00  0.00     0.157 A 
ATOM     16  C   UNL     1       7.838  11.250 -16.533  1.00  0.00     0.062 A 
ATOM     17  C   UNL     1       7.995  10.166 -15.660  1.00  0.00     0.158 A 
BRANCH  15  18
ATOM     18  O   UNL     1       9.528   8.599 -14.527  1.00  0.00    -0.504 OA
ATOM     19  H   UNL     1      10.096   8.652 -13.695  1.00  0.00     0.293 HD
ENDBRANCH  15  18
BRANCH  17  20
ATOM     20  O   UNL     1       6.844   9.613 -15.094  1.00  0.00    -0.504 OA
ATOM     21  H   UNL     1       6.812   9.195 -14.175  1.00  0.00     0.293 HD
ENDBRANCH  17  20
ENDBRANCH   1  12
BRANCH   2  22
ATOM     22  O   UNL     1       8.856  11.613 -20.040  1.00  0.00    -0.502 OA
ATOM     23  H   UNL     1       8.891  11.486 -21.044  1.00  0.00     0.293 HD
ENDBRANCH   2  22
BRANCH   6  24
ATOM     24  O   UNL     1       8.168  16.482 -21.735  1.00  0.00    -0.507 OA
ATOM     25  H   UNL     1       8.845  17.010 -22.273  1.00  0.00     0.293 HD
ENDBRANCH   6  24
BRANCH   8  26
ATOM     26  O   UNL     1       7.832  18.907 -17.560  1.00  0.00    -0.508 OA
ATOM     27  H   UNL     1       7.136  19.001 -16.830  1.00  0.00     0.293 HD
ENDBRANCH   8  26
TORSDOF 6
ENDMDL
