MODEL 1
REMARK VINA RESULT:    -2.865      0.000      0.000
REMARK INTER + INTRA:          -3.064
REMARK INTER:                  -3.033
REMARK INTRA:                  -0.031
REMARK UNBOUND:                -0.031
REMARK SMILES O=C([O-])[C@@H]1CCC[NH2+]1
REMARK SMILES IDX 4 1 8 2 7 3 5 4 6 5 2 8 1 9 3 10
REMARK H PARENT 8 6 8 7
REMARK Flexibility Score: inf
ROOT
ATOM      1  C   UNL     1      -3.782   4.057   2.089  1.00  0.00     0.229 C 
ATOM      2  N   UNL     1      -5.163   4.397   1.737  1.00  0.00    -0.339 N 
ATOM      3  C   UNL     1      -5.124   5.777   1.243  1.00  0.00     0.261 C 
ATOM      4  C   UNL     1      -3.123   5.350   2.547  1.00  0.00     0.077 C 
ATOM      5  C   UNL     1      -3.847   6.431   1.768  1.00  0.00     0.068 C 
ATOM      6  H   UNL     1      -5.788   4.353   2.576  1.00  0.00     0.346 HD
ATOM      7  H   UNL     1      -5.524   3.751   0.997  1.00  0.00     0.346 HD
ENDROOT
BRANCH   1   8
ATOM      8  C   UNL     1      -3.719   2.980   3.141  1.00  0.00     0.099 C 
ATOM      9  O   UNL     1      -3.975   3.257   4.342  1.00  0.00    -0.544 OA
ATOM     10  O   UNL     1      -3.379   1.677   2.797  1.00  0.00    -0.544 OA
ENDBRANCH   1   8
TORSDOF 1
ENDMDL
MODEL 2
REMARK VINA RESULT:    -2.203      8.336      8.710
REMARK INTER + INTRA:          -2.363
REMARK INTER:                  -2.331
REMARK INTRA:                  -0.032
REMARK UNBOUND:                -0.031
REMARK SMILES O=C([O-])[C@@H]1CCC[NH2+]1
REMARK SMILES IDX 4 1 8 2 7 3 5 4 6 5 2 8 1 9 3 10
REMARK H PARENT 8 6 8 7
REMARK Flexibility Score: inf
ROOT
ATOM      1  C   UNL     1      -4.868  -4.301  -0.291  1.00  0.00     0.229 C 
ATOM      2  N   UNL     1      -5.598  -3.215  -0.948  1.00  0.00    -0.339 N 
ATOM      3  C   UNL     1      -4.883  -2.950  -2.201  1.00  0.00     0.261 C 
ATOM      4  C   UNL     1      -3.408  -4.142  -0.688  1.00  0.00     0.077 C 
ATOM      5  C   UNL     1      -3.465  -3.501  -2.061  1.00  0.00     0.068 C 
ATOM      6  H   UNL     1      -5.591  -2.346  -0.363  1.00  0.00     0.346 HD
ATOM      7  H   UNL     1      -6.587  -3.499  -1.141  1.00  0.00     0.346 HD
ENDROOT
BRANCH   1   8
ATOM      8  C   UNL     1      -5.058  -4.283   1.204  1.00  0.00     0.099 C 
ATOM      9  O   UNL     1      -4.952  -3.201   1.839  1.00  0.00    -0.544 OA
ATOM     10  O   UNL     1      -5.352  -5.453   1.892  1.00  0.00    -0.544 OA
ENDBRANCH   1   8
TORSDOF 1
ENDMDL
MODEL 3
REMARK VINA RESULT:    -2.167      6.992      7.802
REMARK INTER + INTRA:          -2.325
REMARK INTER:                  -2.302
REMARK INTRA:                  -0.023
REMARK UNBOUND:                -0.031
REMARK SMILES O=C([O-])[C@@H]1CCC[NH2+]1
REMARK SMILES IDX 4 1 8 2 7 3 5 4 6 5 2 8 1 9 3 10
REMARK H PARENT 8 6 8 7
REMARK Flexibility Score: inf
ROOT
ATOM      1  C   UNL     1      -1.369   5.791   9.363  1.00  0.00     0.229 C 
ATOM      2  N   UNL     1      -0.541   4.596   9.550  1.00  0.00    -0.339 N 
ATOM      3  C   UNL     1       0.805   5.085   9.867  1.00  0.00     0.261 C 
ATOM      4  C   UNL     1      -0.452   6.868   8.804  1.00  0.00     0.077 C 
ATOM      5  C   UNL     1       0.912   6.528   9.375  1.00  0.00     0.068 C 
ATOM      6  H   UNL     1      -0.498   4.026   8.673  1.00  0.00     0.346 HD
ATOM      7  H   UNL     1      -0.914   4.009  10.332  1.00  0.00     0.346 HD
ENDROOT
BRANCH   1   8
ATOM      8  C   UNL     1      -2.548   5.522   8.465  1.00  0.00     0.099 C 
ATOM      9  O   UNL     1      -2.876   4.338   8.193  1.00  0.00    -0.544 OA
ATOM     10  O   UNL     1      -3.282   6.575   7.931  1.00  0.00    -0.544 OA
ENDBRANCH   1   8
TORSDOF 1
ENDMDL
MODEL 4
REMARK VINA RESULT:    -2.145      6.268      7.206
REMARK INTER + INTRA:          -2.302
REMARK INTER:                  -2.278
REMARK INTRA:                  -0.023
REMARK UNBOUND:                -0.031
REMARK SMILES O=C([O-])[C@@H]1CCC[NH2+]1
REMARK SMILES IDX 4 1 8 2 7 3 5 4 6 5 2 8 1 9 3 10
REMARK H PARENT 8 6 8 7
REMARK Flexibility Score: inf
ROOT
ATOM      1  C   UNL     1      -2.394   6.813   8.439  1.00  0.00     0.229 C 
ATOM      2  N   UNL     1      -2.628   5.367   8.429  1.00  0.00    -0.339 N 
ATOM      3  C   UNL     1      -1.547   4.779   9.226  1.00  0.00     0.261 C 
ATOM      4  C   UNL     1      -0.887   7.006   8.524  1.00  0.00     0.077 C 
ATOM      5  C   UNL     1      -0.400   5.786   9.283  1.00  0.00     0.068 C 
ATOM      6  H   UNL     1      -2.580   4.984   7.455  1.00  0.00     0.346 HD
ATOM      7  H   UNL     1      -3.560   5.142   8.848  1.00  0.00     0.346 HD
ENDROOT
BRANCH   1   8
ATOM      8  C   UNL     1      -2.988   7.488   7.230  1.00  0.00     0.099 C 
ATOM      9  O   UNL     1      -3.762   6.849   6.469  1.00  0.00    -0.544 OA
ATOM     10  O   UNL     1      -2.690   8.815   6.945  1.00  0.00    -0.544 OA
ENDBRANCH   1   8
TORSDOF 1
ENDMDL
MODEL 5
REMARK VINA RESULT:    -2.133      8.373      9.310
REMARK INTER + INTRA:          -2.289
REMARK INTER:                  -2.269
REMARK INTRA:                  -0.020
REMARK UNBOUND:                -0.031
REMARK SMILES O=C([O-])[C@@H]1CCC[NH2+]1
REMARK SMILES IDX 4 1 8 2 7 3 5 4 6 5 2 8 1 9 3 10
REMARK H PARENT 8 6 8 7
REMARK Flexibility Score: inf
ROOT
ATOM      1  C   UNL     1      -6.137  -4.537   0.134  1.00  0.00     0.229 C 
ATOM      2  N   UNL     1      -7.386  -4.084   0.752  1.00  0.00    -0.339 N 
ATOM      3  C   UNL     1      -8.448  -4.404  -0.207  1.00  0.00     0.261 C 
ATOM      4  C   UNL     1      -6.318  -4.381  -1.368  1.00  0.00     0.077 C 
ATOM      5  C   UNL     1      -7.807  -4.570  -1.584  1.00  0.00     0.068 C 
ATOM      6  H   UNL     1      -7.373  -3.050   0.914  1.00  0.00     0.346 HD
ATOM      7  H   UNL     1      -7.547  -4.579   1.660  1.00  0.00     0.346 HD
ENDROOT
BRANCH   1   8
ATOM      8  C   UNL     1      -4.945  -3.771   0.648  1.00  0.00     0.099 C 
ATOM      9  O   UNL     1      -3.948  -3.584  -0.097  1.00  0.00    -0.544 OA
ATOM     10  O   UNL     1      -4.936  -3.266   1.942  1.00  0.00    -0.544 OA
ENDBRANCH   1   8
TORSDOF 1
ENDMDL
MODEL 6
REMARK VINA RESULT:    -2.122      6.523      7.136
REMARK INTER + INTRA:          -2.277
REMARK INTER:                  -2.251
REMARK INTRA:                  -0.026
REMARK UNBOUND:                -0.031
REMARK SMILES O=C([O-])[C@@H]1CCC[NH2+]1
REMARK SMILES IDX 4 1 8 2 7 3 5 4 6 5 2 8 1 9 3 10
REMARK H PARENT 8 6 8 7
REMARK Flexibility Score: inf
ROOT
ATOM      1  C   UNL     1      -3.779   2.921  -4.322  1.00  0.00     0.229 C 
ATOM      2  N   UNL     1      -3.521   1.567  -3.824  1.00  0.00    -0.339 N 
ATOM      3  C   UNL     1      -4.739   0.799  -4.100  1.00  0.00     0.261 C 
ATOM      4  C   UNL     1      -5.271   3.165  -4.154  1.00  0.00     0.077 C 
ATOM      5  C   UNL     1      -5.890   1.787  -4.285  1.00  0.00     0.068 C 
ATOM      6  H   UNL     1      -3.348   1.572  -2.791  1.00  0.00     0.346 HD
ATOM      7  H   UNL     1      -2.699   1.145  -4.316  1.00  0.00     0.346 HD
ENDROOT
BRANCH   1   8
ATOM      8  C   UNL     1      -2.948   3.952  -3.604  1.00  0.00     0.099 C 
ATOM      9  O   UNL     1      -3.478   4.698  -2.739  1.00  0.00    -0.544 OA
ATOM     10  O   UNL     1      -1.594   4.089  -3.887  1.00  0.00    -0.544 OA
ENDBRANCH   1   8
TORSDOF 1
ENDMDL
MODEL 7
REMARK VINA RESULT:    -2.016      3.856      4.502
REMARK INTER + INTRA:          -2.165
REMARK INTER:                  -2.135
REMARK INTRA:                  -0.031
REMARK UNBOUND:                -0.031
REMARK SMILES O=C([O-])[C@@H]1CCC[NH2+]1
REMARK SMILES IDX 4 1 8 2 7 3 5 4 6 5 2 8 1 9 3 10
REMARK H PARENT 8 6 8 7
REMARK Flexibility Score: inf
ROOT
ATOM      1  C   UNL     1      -3.422   7.548   1.833  1.00  0.00     0.229 C 
ATOM      2  N   UNL     1      -3.583   7.594   0.378  1.00  0.00    -0.339 N 
ATOM      3  C   UNL     1      -4.265   6.350   0.009  1.00  0.00     0.261 C 
ATOM      4  C   UNL     1      -3.267   6.081   2.204  1.00  0.00     0.077 C 
ATOM      5  C   UNL     1      -4.058   5.344   1.140  1.00  0.00     0.068 C 
ATOM      6  H   UNL     1      -2.653   7.628  -0.103  1.00  0.00     0.346 HD
ATOM      7  H   UNL     1      -4.153   8.425   0.096  1.00  0.00     0.346 HD
ENDROOT
BRANCH   1   8
ATOM      8  C   UNL     1      -2.255   8.380   2.297  1.00  0.00     0.099 C 
ATOM      9  O   UNL     1      -1.239   8.505   1.563  1.00  0.00    -0.544 OA
ATOM     10  O   UNL     1      -2.288   9.016   3.532  1.00  0.00    -0.544 OA
ENDBRANCH   1   8
TORSDOF 1
ENDMDL
MODEL 8
REMARK VINA RESULT:    -2.003      9.685     10.538
REMARK INTER + INTRA:          -2.152
REMARK INTER:                  -2.124
REMARK INTRA:                  -0.028
REMARK UNBOUND:                -0.031
REMARK SMILES O=C([O-])[C@@H]1CCC[NH2+]1
REMARK SMILES IDX 4 1 8 2 7 3 5 4 6 5 2 8 1 9 3 10
REMARK H PARENT 8 6 8 7
REMARK Flexibility Score: inf
ROOT
ATOM      1  C   UNL     1      -4.052  -5.389   6.459  1.00  0.00     0.229 C 
ATOM      2  N   UNL     1      -2.687  -5.575   6.958  1.00  0.00    -0.339 N 
ATOM      3  C   UNL     1      -2.767  -5.421   8.414  1.00  0.00     0.261 C 
ATOM      4  C   UNL     1      -4.728  -4.408   7.406  1.00  0.00     0.077 C 
ATOM      5  C   UNL     1      -4.045  -4.650   8.739  1.00  0.00     0.068 C 
ATOM      6  H   UNL     1      -2.042  -4.844   6.573  1.00  0.00     0.346 HD
ATOM      7  H   UNL     1      -2.330  -6.526   6.706  1.00  0.00     0.346 HD
ENDROOT
BRANCH   1   8
ATOM      8  C   UNL     1      -4.068  -4.906   5.031  1.00  0.00     0.099 C 
ATOM      9  O   UNL     1      -4.177  -3.677   4.783  1.00  0.00    -0.544 OA
ATOM     10  O   UNL     1      -3.964  -5.809   3.980  1.00  0.00    -0.544 OA
ENDBRANCH   1   8
TORSDOF 1
ENDMDL
MODEL 9
REMARK VINA RESULT:    -1.978      2.215      2.692
REMARK INTER + INTRA:          -2.125
REMARK INTER:                  -2.102
REMARK INTRA:                  -0.023
REMARK UNBOUND:                -0.031
REMARK SMILES O=C([O-])[C@@H]1CCC[NH2+]1
REMARK SMILES IDX 4 1 8 2 7 3 5 4 6 5 2 8 1 9 3 10
REMARK H PARENT 8 6 8 7
REMARK Flexibility Score: inf
ROOT
ATOM      1  C   UNL     1      -3.695   6.041   1.183  1.00  0.00     0.229 C 
ATOM      2  N   UNL     1      -4.452   6.772   0.164  1.00  0.00    -0.339 N 
ATOM      3  C   UNL     1      -3.817   8.088   0.056  1.00  0.00     0.261 C 
ATOM      4  C   UNL     1      -3.190   7.081   2.172  1.00  0.00     0.077 C 
ATOM      5  C   UNL     1      -3.024   8.337   1.338  1.00  0.00     0.068 C 
ATOM      6  H   UNL     1      -5.451   6.899   0.454  1.00  0.00     0.346 HD
ATOM      7  H   UNL     1      -4.416   6.268  -0.753  1.00  0.00     0.346 HD
ENDROOT
BRANCH   1   8
ATOM      8  C   UNL     1      -4.528   4.977   1.849  1.00  0.00     0.099 C 
ATOM      9  O   UNL     1      -3.978   4.112   2.579  1.00  0.00    -0.544 OA
ATOM     10  O   UNL     1      -5.905   4.941   1.664  1.00  0.00    -0.544 OA
ENDBRANCH   1   8
TORSDOF 1
ENDMDL
