MODEL 1
REMARK VINA RESULT:    -2.810      0.000      0.000
REMARK INTER + INTRA:          -5.033
REMARK INTER:                  -4.781
REMARK INTRA:                  -0.253
REMARK UNBOUND:                -0.253
REMARK SMILES CCCCCCCCCCCCCC(=O)[O-]
REMARK SMILES IDX 8 1 9 2 10 3 11 4 12 5 13 6 14 7 15 8 16 9 7 10 6 11 5 12
REMARK SMILES IDX 4 13 3 14 2 15 1 16
REMARK H PARENT
REMARK Flexibility Score: inf
ROOT
ATOM      1  C   UNL     1      36.476 106.437 263.290  1.00  0.00     0.000 C 
ENDROOT
BRANCH   1   2
ATOM      2  C   UNL     1      35.089 105.991 263.784  1.00  0.00     0.000 C 
BRANCH   2   3
ATOM      3  C   UNL     1      35.070 104.520 264.234  1.00  0.00     0.000 C 
BRANCH   3   4
ATOM      4  C   UNL     1      35.786 104.305 265.578  1.00  0.00     0.000 C 
BRANCH   4   5
ATOM      5  C   UNL     1      34.875 103.665 266.642  1.00  0.00     0.006 C 
BRANCH   5   6
ATOM      6  C   UNL     1      35.219 104.057 268.089  1.00  0.00     0.053 C 
BRANCH   6   7
ATOM      7  C   UNL     1      35.078 105.530 268.320  1.00  0.00     0.041 C 
ATOM      8  O   UNL     1      34.968 106.318 267.343  1.00  0.00    -0.550 OA
ATOM      9  O   UNL     1      35.036 106.030 269.615  1.00  0.00    -0.550 OA
ENDBRANCH   6   7
ENDBRANCH   5   6
ENDBRANCH   4   5
ENDBRANCH   3   4
ENDBRANCH   2   3
ENDBRANCH   1   2
BRANCH   1  10
ATOM     10  C   UNL     1      36.703 106.120 261.802  1.00  0.00     0.000 C 
BRANCH  10  11
ATOM     11  C   UNL     1      38.165 105.777 261.483  1.00  0.00    -0.000 C 
BRANCH  11  12
ATOM     12  C   UNL     1      38.381 105.649 259.970  1.00  0.00    -0.000 C 
BRANCH  12  13
ATOM     13  C   UNL     1      37.215 104.906 259.306  1.00  0.00    -0.000 C 
BRANCH  13  14
ATOM     14  C   UNL     1      36.866 105.533 257.949  1.00  0.00    -0.000 C 
BRANCH  14  15
ATOM     15  C   UNL     1      35.479 106.193 257.943  1.00  0.00    -0.003 C 
ATOM     16  C   UNL     1      35.542 107.705 258.166  1.00  0.00     0.004 C 
ENDBRANCH  14  15
ENDBRANCH  13  14
ENDBRANCH  12  13
ENDBRANCH  11  12
ENDBRANCH  10  11
ENDBRANCH   1  10
TORSDOF 12
ENDMDL
MODEL 2
REMARK VINA RESULT:    -2.400      1.568      1.929
REMARK INTER + INTRA:          -4.336
REMARK INTER:                  -3.866
REMARK INTRA:                  -0.471
REMARK UNBOUND:                -0.253
REMARK SMILES CCCCCCCCCCCCCC(=O)[O-]
REMARK SMILES IDX 8 1 9 2 10 3 11 4 12 5 13 6 14 7 15 8 16 9 7 10 6 11 5 12
REMARK SMILES IDX 4 13 3 14 2 15 1 16
REMARK H PARENT
REMARK Flexibility Score: inf
ROOT
ATOM      1  C   UNL     1      37.402 106.604 263.422  1.00  0.00     0.000 C 
ENDROOT
BRANCH   1   2
ATOM      2  C   UNL     1      35.910 106.388 263.117  1.00  0.00     0.000 C 
BRANCH   2   3
ATOM      3  C   UNL     1      34.995 107.198 264.053  1.00  0.00     0.000 C 
BRANCH   3   4
ATOM      4  C   UNL     1      34.875 106.567 265.450  1.00  0.00     0.000 C 
BRANCH   4   5
ATOM      5  C   UNL     1      35.689 107.324 266.517  1.00  0.00     0.006 C 
BRANCH   5   6
ATOM      6  C   UNL     1      34.940 107.555 267.839  1.00  0.00     0.053 C 
BRANCH   6   7
ATOM      7  C   UNL     1      35.258 106.502 268.856  1.00  0.00     0.041 C 
ATOM      8  O   UNL     1      35.262 106.786 270.083  1.00  0.00    -0.550 OA
ATOM      9  O   UNL     1      35.517 105.199 268.450  1.00  0.00    -0.550 OA
ENDBRANCH   6   7
ENDBRANCH   5   6
ENDBRANCH   4   5
ENDBRANCH   3   4
ENDBRANCH   2   3
ENDBRANCH   1   2
BRANCH   1  10
ATOM     10  C   UNL     1      38.302 106.295 262.214  1.00  0.00     0.000 C 
BRANCH  10  11
ATOM     11  C   UNL     1      37.503 106.008 260.935  1.00  0.00    -0.000 C 
BRANCH  11  12
ATOM     12  C   UNL     1      37.966 104.701 260.280  1.00  0.00    -0.000 C 
BRANCH  12  13
ATOM     13  C   UNL     1      37.775 104.748 258.758  1.00  0.00    -0.000 C 
BRANCH  13  14
ATOM     14  C   UNL     1      37.364 106.154 258.300  1.00  0.00    -0.000 C 
BRANCH  14  15
ATOM     15  C   UNL     1      35.868 106.253 257.968  1.00  0.00    -0.003 C 
ATOM     16  C   UNL     1      35.373 107.698 257.890  1.00  0.00     0.004 C 
ENDBRANCH  14  15
ENDBRANCH  13  14
ENDBRANCH  12  13
ENDBRANCH  11  12
ENDBRANCH  10  11
ENDBRANCH   1  10
TORSDOF 12
ENDMDL
MODEL 3
REMARK VINA RESULT:    -1.863      3.648      8.129
REMARK INTER + INTRA:          -3.422
REMARK INTER:                  -4.330
REMARK INTRA:                   0.907
REMARK UNBOUND:                -0.253
REMARK SMILES CCCCCCCCCCCCCC(=O)[O-]
REMARK SMILES IDX 8 1 9 2 10 3 11 4 12 5 13 6 14 7 15 8 16 9 7 10 6 11 5 12
REMARK SMILES IDX 4 13 3 14 2 15 1 16
REMARK H PARENT
REMARK Flexibility Score: inf
ROOT
ATOM      1  C   UNL     1      35.709 107.569 264.962  1.00  0.00     0.000 C 
ENDROOT
BRANCH   1   2
ATOM      2  C   UNL     1      34.900 106.617 264.062  1.00  0.00     0.000 C 
BRANCH   2   3
ATOM      3  C   UNL     1      35.765 105.492 263.469  1.00  0.00     0.000 C 
BRANCH   3   4
ATOM      4  C   UNL     1      36.181 105.773 262.015  1.00  0.00     0.000 C 
BRANCH   4   5
ATOM      5  C   UNL     1      37.687 106.065 261.873  1.00  0.00     0.006 C 
BRANCH   5   6
ATOM      6  C   UNL     1      38.215 105.981 260.431  1.00  0.00     0.053 C 
BRANCH   6   7
ATOM      7  C   UNL     1      37.108 105.811 259.437  1.00  0.00     0.041 C 
ATOM      8  O   UNL     1      36.612 104.672 259.228  1.00  0.00    -0.550 OA
ATOM      9  O   UNL     1      36.600 106.916 258.766  1.00  0.00    -0.550 OA
ENDBRANCH   6   7
ENDBRANCH   5   6
ENDBRANCH   4   5
ENDBRANCH   3   4
ENDBRANCH   2   3
ENDBRANCH   1   2
BRANCH   1  10
ATOM     10  C   UNL     1      34.894 108.081 266.162  1.00  0.00     0.000 C 
BRANCH  10  11
ATOM     11  C   UNL     1      35.003 107.165 267.389  1.00  0.00    -0.000 C 
BRANCH  11  12
ATOM     12  C   UNL     1      34.951 107.980 268.688  1.00  0.00    -0.000 C 
BRANCH  12  13
ATOM     13  C   UNL     1      35.046 107.066 269.917  1.00  0.00    -0.000 C 
BRANCH  13  14
ATOM     14  C   UNL     1      35.806 105.774 269.583  1.00  0.00    -0.000 C 
BRANCH  14  15
ATOM     15  C   UNL     1      34.875 104.647 269.113  1.00  0.00    -0.003 C 
ATOM     16  C   UNL     1      34.887 104.464 267.595  1.00  0.00     0.004 C 
ENDBRANCH  14  15
ENDBRANCH  13  14
ENDBRANCH  12  13
ENDBRANCH  11  12
ENDBRANCH  10  11
ENDBRANCH   1  10
TORSDOF 12
ENDMDL
MODEL 4
REMARK VINA RESULT:    -1.451      1.519      2.527
REMARK INTER + INTRA:          -2.722
REMARK INTER:                  -3.085
REMARK INTRA:                   0.363
REMARK UNBOUND:                -0.253
REMARK SMILES CCCCCCCCCCCCCC(=O)[O-]
REMARK SMILES IDX 8 1 9 2 10 3 11 4 12 5 13 6 14 7 15 8 16 9 7 10 6 11 5 12
REMARK SMILES IDX 4 13 3 14 2 15 1 16
REMARK H PARENT
REMARK Flexibility Score: inf
ROOT
ATOM      1  C   UNL     1      35.811 105.847 264.750  1.00  0.00     0.000 C 
ENDROOT
BRANCH   1   2
ATOM      2  C   UNL     1      34.971 107.085 265.110  1.00  0.00     0.000 C 
BRANCH   2   3
ATOM      3  C   UNL     1      35.542 107.854 266.314  1.00  0.00     0.000 C 
BRANCH   3   4
ATOM      4  C   UNL     1      35.002 107.331 267.656  1.00  0.00     0.000 C 
BRANCH   4   5
ATOM      5  C   UNL     1      34.889 105.796 267.695  1.00  0.00     0.006 C 
BRANCH   5   6
ATOM      6  C   UNL     1      35.665 105.132 268.845  1.00  0.00     0.053 C 
BRANCH   6   7
ATOM      7  C   UNL     1      35.991 106.105 269.936  1.00  0.00     0.041 C 
ATOM      8  O   UNL     1      37.131 106.098 270.472  1.00  0.00    -0.550 OA
ATOM      9  O   UNL     1      35.047 107.042 270.338  1.00  0.00    -0.550 OA
ENDBRANCH   6   7
ENDBRANCH   5   6
ENDBRANCH   4   5
ENDBRANCH   3   4
ENDBRANCH   2   3
ENDBRANCH   1   2
BRANCH   1  10
ATOM     10  C   UNL     1      35.092 104.913 263.763  1.00  0.00     0.000 C 
BRANCH  10  11
ATOM     11  C   UNL     1      35.116 105.438 262.321  1.00  0.00    -0.000 C 
BRANCH  11  12
ATOM     12  C   UNL     1      36.243 104.778 261.515  1.00  0.00    -0.000 C 
BRANCH  12  13
ATOM     13  C   UNL     1      37.218 105.828 260.968  1.00  0.00    -0.000 C 
BRANCH  13  14
ATOM     14  C   UNL     1      37.936 105.311 259.714  1.00  0.00    -0.000 C 
BRANCH  14  15
ATOM     15  C   UNL     1      37.010 105.240 258.491  1.00  0.00    -0.003 C 
ATOM     16  C   UNL     1      36.142 106.489 258.333  1.00  0.00     0.004 C 
ENDBRANCH  14  15
ENDBRANCH  13  14
ENDBRANCH  12  13
ENDBRANCH  11  12
ENDBRANCH  10  11
ENDBRANCH   1  10
TORSDOF 12
ENDMDL
MODEL 5
REMARK VINA RESULT:    -1.387      3.636      7.690
REMARK INTER + INTRA:          -2.613
REMARK INTER:                  -4.324
REMARK INTRA:                   1.711
REMARK UNBOUND:                -0.253
REMARK SMILES CCCCCCCCCCCCCC(=O)[O-]
REMARK SMILES IDX 8 1 9 2 10 3 11 4 12 5 13 6 14 7 15 8 16 9 7 10 6 11 5 12
REMARK SMILES IDX 4 13 3 14 2 15 1 16
REMARK H PARENT
REMARK Flexibility Score: inf
ROOT
ATOM      1  C   UNL     1      36.850 106.483 263.474  1.00  0.00     0.000 C 
ENDROOT
BRANCH   1   2
ATOM      2  C   UNL     1      37.441 106.142 262.096  1.00  0.00     0.000 C 
BRANCH   2   3
ATOM      3  C   UNL     1      36.411 105.488 261.159  1.00  0.00     0.000 C 
BRANCH   3   4
ATOM      4  C   UNL     1      37.023 104.372 260.296  1.00  0.00     0.000 C 
BRANCH   4   5
ATOM      5  C   UNL     1      38.031 104.906 259.260  1.00  0.00     0.006 C 
BRANCH   5   6
ATOM      6  C   UNL     1      37.395 105.384 257.945  1.00  0.00     0.053 C 
BRANCH   6   7
ATOM      7  C   UNL     1      36.209 106.266 258.183  1.00  0.00     0.041 C 
ATOM      8  O   UNL     1      35.047 105.849 257.932  1.00  0.00    -0.550 OA
ATOM      9  O   UNL     1      36.383 107.538 258.715  1.00  0.00    -0.550 OA
ENDBRANCH   6   7
ENDBRANCH   5   6
ENDBRANCH   4   5
ENDBRANCH   3   4
ENDBRANCH   2   3
ENDBRANCH   1   2
BRANCH   1  10
ATOM     10  C   UNL     1      35.333 106.241 263.542  1.00  0.00     0.000 C 
BRANCH  10  11
ATOM     11  C   UNL     1      34.876 105.711 264.909  1.00  0.00    -0.000 C 
BRANCH  11  12
ATOM     12  C   UNL     1      35.538 104.364 265.225  1.00  0.00    -0.000 C 
BRANCH  12  13
ATOM     13  C   UNL     1      34.989 103.771 266.528  1.00  0.00    -0.000 C 
BRANCH  13  14
ATOM     14  C   UNL     1      34.876 104.848 267.617  1.00  0.00    -0.000 C 
BRANCH  14  15
ATOM     15  C   UNL     1      35.005 106.271 267.056  1.00  0.00    -0.003 C 
ATOM     16  C   UNL     1      35.146 107.329 268.151  1.00  0.00     0.004 C 
ENDBRANCH  14  15
ENDBRANCH  13  14
ENDBRANCH  12  13
ENDBRANCH  11  12
ENDBRANCH  10  11
ENDBRANCH   1  10
TORSDOF 12
ENDMDL
MODEL 6
REMARK VINA RESULT:    -1.020      2.297      3.974
REMARK INTER + INTRA:          -1.988
REMARK INTER:                  -1.330
REMARK INTRA:                  -0.658
REMARK UNBOUND:                -0.253
REMARK SMILES CCCCCCCCCCCCCC(=O)[O-]
REMARK SMILES IDX 8 1 9 2 10 3 11 4 12 5 13 6 14 7 15 8 16 9 7 10 6 11 5 12
REMARK SMILES IDX 4 13 3 14 2 15 1 16
REMARK H PARENT
REMARK Flexibility Score: inf
ROOT
ATOM      1  C   UNL     1      35.235 105.637 266.619  1.00  0.00     0.000 C 
ENDROOT
BRANCH   1   2
ATOM      2  C   UNL     1      35.357 107.167 266.509  1.00  0.00     0.000 C 
BRANCH   2   3
ATOM      3  C   UNL     1      35.200 107.869 267.868  1.00  0.00     0.000 C 
BRANCH   3   4
ATOM      4  C   UNL     1      34.880 106.885 269.006  1.00  0.00     0.000 C 
BRANCH   4   5
ATOM      5  C   UNL     1      35.967 106.862 270.097  1.00  0.00     0.006 C 
BRANCH   5   6
ATOM      6  C   UNL     1      36.793 105.566 270.141  1.00  0.00     0.053 C 
BRANCH   6   7
ATOM      7  C   UNL     1      37.997 105.698 271.023  1.00  0.00     0.041 C 
ATOM      8  O   UNL     1      38.336 104.750 271.779  1.00  0.00    -0.550 OA
ATOM      9  O   UNL     1      38.764 106.855 270.984  1.00  0.00    -0.550 OA
ENDBRANCH   6   7
ENDBRANCH   5   6
ENDBRANCH   4   5
ENDBRANCH   3   4
ENDBRANCH   2   3
ENDBRANCH   1   2
BRANCH   1  10
ATOM     10  C   UNL     1      34.897 104.974 265.273  1.00  0.00     0.000 C 
BRANCH  10  11
ATOM     11  C   UNL     1      34.875 105.972 264.107  1.00  0.00    -0.000 C 
BRANCH  11  12
ATOM     12  C   UNL     1      35.423 105.331 262.825  1.00  0.00    -0.000 C 
BRANCH  12  13
ATOM     13  C   UNL     1      36.635 106.107 262.294  1.00  0.00    -0.000 C 
BRANCH  13  14
ATOM     14  C   UNL     1      37.341 105.327 261.177  1.00  0.00    -0.000 C 
BRANCH  14  15
ATOM     15  C   UNL     1      36.732 105.596 259.793  1.00  0.00    -0.003 C 
ATOM     16  C   UNL     1      37.703 105.296 258.650  1.00  0.00     0.004 C 
ENDBRANCH  14  15
ENDBRANCH  13  14
ENDBRANCH  12  13
ENDBRANCH  11  12
ENDBRANCH  10  11
ENDBRANCH   1  10
TORSDOF 12
ENDMDL
