MODEL 1
REMARK VINA RESULT:    -3.694      0.000      0.000
REMARK INTER + INTRA:          -5.752
REMARK INTER:                  -4.989
REMARK INTRA:                  -0.763
REMARK UNBOUND:                -0.763
REMARK SMILES CC(=O)CCC=C(C)CCC=C(C)C
REMARK SMILES IDX 7 1 6 2 8 3 9 4 10 5 11 6 13 7 12 8 14 9 5 10 4 11 2 12 3 13
REMARK SMILES IDX 1 14
REMARK H PARENT
REMARK Flexibility Score: inf
ROOT
ATOM      1  C   UNL     1      26.155  27.818  28.952  1.00  0.00    -0.077 C 
ATOM      2  C   UNL     1      27.265  27.905  28.185  1.00  0.00    -0.028 C 
ATOM      3  C   UNL     1      25.786  28.898  29.944  1.00  0.00     0.039 C 
ENDROOT
BRANCH   1   4
ATOM      4  C   UNL     1      25.275  26.594  28.833  1.00  0.00     0.034 C 
BRANCH   4   5
ATOM      5  C   UNL     1      26.124  25.331  28.643  1.00  0.00     0.032 C 
BRANCH   5   6
ATOM      6  C   UNL     1      26.874  24.978  29.905  1.00  0.00    -0.028 C 
ATOM      7  C   UNL     1      29.037  24.794  28.668  1.00  0.00     0.039 C 
ATOM      8  C   UNL     1      28.202  24.732  29.924  1.00  0.00    -0.080 C 
ATOM      9  C   UNL     1      28.889  24.387  31.220  1.00  0.00     0.039 C 
ENDBRANCH   5   6
ENDBRANCH   4   5
ENDBRANCH   1   4
BRANCH   2  10
ATOM     10  C   UNL     1      28.198  29.093  28.156  1.00  0.00     0.035 C 
BRANCH  10  11
ATOM     11  C   UNL     1      29.123  29.067  26.932  1.00  0.00     0.079 C 
BRANCH  11  12
ATOM     12  C   UNL     1      28.573  29.897  25.798  1.00  0.00     0.130 C 
ATOM     13  O   UNL     1      28.997  31.029  25.620  1.00  0.00    -0.300 OA
ATOM     14  C   UNL     1      27.523  29.357  24.874  1.00  0.00     0.087 C 
ENDBRANCH  11  12
ENDBRANCH  10  11
ENDBRANCH   2  10
TORSDOF 6
ENDMDL
MODEL 2
REMARK VINA RESULT:    -3.673     13.539     16.395
REMARK INTER + INTRA:          -5.723
REMARK INTER:                  -4.665
REMARK INTRA:                  -1.058
REMARK UNBOUND:                -0.763
REMARK SMILES CC(=O)CCC=C(C)CCC=C(C)C
REMARK SMILES IDX 7 1 6 2 8 3 9 4 10 5 11 6 13 7 12 8 14 9 5 10 4 11 2 12 3 13
REMARK SMILES IDX 1 14
REMARK H PARENT
REMARK Flexibility Score: inf
ROOT
ATOM      1  C   UNL     1      26.711  42.333  20.173  1.00  0.00    -0.077 C 
ATOM      2  C   UNL     1      27.296  41.810  19.073  1.00  0.00    -0.028 C 
ATOM      3  C   UNL     1      25.855  41.495  21.095  1.00  0.00     0.039 C 
ENDROOT
BRANCH   1   4
ATOM      4  C   UNL     1      26.896  43.804  20.474  1.00  0.00     0.034 C 
BRANCH   4   5
ATOM      5  C   UNL     1      28.185  44.037  21.271  1.00  0.00     0.032 C 
BRANCH   5   6
ATOM      6  C   UNL     1      27.907  44.118  22.753  1.00  0.00    -0.028 C 
ATOM      7  C   UNL     1      28.944  41.881  23.155  1.00  0.00     0.039 C 
ATOM      8  C   UNL     1      28.251  43.138  23.618  1.00  0.00    -0.080 C 
ATOM      9  C   UNL     1      27.944  43.284  25.086  1.00  0.00     0.039 C 
ENDBRANCH   5   6
ENDBRANCH   4   5
ENDBRANCH   1   4
BRANCH   2  10
ATOM     10  C   UNL     1      27.245  40.351  18.685  1.00  0.00     0.035 C 
BRANCH  10  11
ATOM     11  C   UNL     1      28.537  39.611  19.060  1.00  0.00     0.079 C 
BRANCH  11  12
ATOM     12  C   UNL     1      28.250  38.284  19.718  1.00  0.00     0.130 C 
ATOM     13  O   UNL     1      29.082  37.391  19.660  1.00  0.00    -0.300 OA
ATOM     14  C   UNL     1      26.968  38.041  20.456  1.00  0.00     0.087 C 
ENDBRANCH  11  12
ENDBRANCH  10  11
ENDBRANCH   2  10
TORSDOF 6
ENDMDL
MODEL 3
REMARK VINA RESULT:    -3.522      2.431      5.647
REMARK INTER + INTRA:          -5.520
REMARK INTER:                  -4.569
REMARK INTRA:                  -0.951
REMARK UNBOUND:                -0.763
REMARK SMILES CC(=O)CCC=C(C)CCC=C(C)C
REMARK SMILES IDX 7 1 6 2 8 3 9 4 10 5 11 6 13 7 12 8 14 9 5 10 4 11 2 12 3 13
REMARK SMILES IDX 1 14
REMARK H PARENT
REMARK Flexibility Score: inf
ROOT
ATOM      1  C   UNL     1      28.004  24.956  26.843  1.00  0.00    -0.077 C 
ATOM      2  C   UNL     1      28.090  25.030  28.190  1.00  0.00    -0.028 C 
ATOM      3  C   UNL     1      26.882  24.214  26.156  1.00  0.00     0.039 C 
ENDROOT
BRANCH   1   4
ATOM      4  C   UNL     1      29.077  25.613  26.003  1.00  0.00     0.034 C 
BRANCH   4   5
ATOM      5  C   UNL     1      29.120  27.125  26.262  1.00  0.00     0.032 C 
BRANCH   5   6
ATOM      6  C   UNL     1      28.222  27.871  25.305  1.00  0.00    -0.028 C 
ATOM      7  C   UNL     1      29.065  30.082  26.105  1.00  0.00     0.039 C 
ATOM      8  C   UNL     1      28.191  29.219  25.229  1.00  0.00    -0.080 C 
ATOM      9  C   UNL     1      27.270  29.900  24.249  1.00  0.00     0.039 C 
ENDBRANCH   5   6
ENDBRANCH   4   5
ENDBRANCH   1   4
BRANCH   2  10
ATOM     10  C   UNL     1      27.062  24.474  29.148  1.00  0.00     0.035 C 
BRANCH  10  11
ATOM     11  C   UNL     1      26.328  25.585  29.911  1.00  0.00     0.079 C 
BRANCH  11  12
ATOM     12  C   UNL     1      25.604  26.521  28.975  1.00  0.00     0.130 C 
ATOM     13  O   UNL     1      24.617  26.126  28.372  1.00  0.00    -0.300 OA
ATOM     14  C   UNL     1      26.060  27.936  28.780  1.00  0.00     0.087 C 
ENDBRANCH  11  12
ENDBRANCH  10  11
ENDBRANCH   2  10
TORSDOF 6
ENDMDL
MODEL 4
REMARK VINA RESULT:    -3.517      1.549      3.460
REMARK INTER + INTRA:          -5.513
REMARK INTER:                  -4.563
REMARK INTRA:                  -0.950
REMARK UNBOUND:                -0.763
REMARK SMILES CC(=O)CCC=C(C)CCC=C(C)C
REMARK SMILES IDX 7 1 6 2 8 3 9 4 10 5 11 6 13 7 12 8 14 9 5 10 4 11 2 12 3 13
REMARK SMILES IDX 1 14
REMARK H PARENT
REMARK Flexibility Score: inf
ROOT
ATOM      1  C   UNL     1      27.436  25.512  26.824  1.00  0.00    -0.077 C 
ATOM      2  C   UNL     1      28.189  26.549  27.252  1.00  0.00    -0.028 C 
ATOM      3  C   UNL     1      27.263  25.206  25.354  1.00  0.00     0.039 C 
ENDROOT
BRANCH   1   4
ATOM      4  C   UNL     1      26.727  24.649  27.845  1.00  0.00     0.034 C 
BRANCH   4   5
ATOM      5  C   UNL     1      26.207  25.502  29.009  1.00  0.00     0.032 C 
BRANCH   5   6
ATOM      6  C   UNL     1      24.999  26.311  28.600  1.00  0.00    -0.028 C 
ATOM      7  C   UNL     1      26.014  28.422  29.469  1.00  0.00     0.039 C 
ATOM      8  C   UNL     1      24.905  27.643  28.807  1.00  0.00    -0.080 C 
ATOM      9  C   UNL     1      23.670  28.389  28.372  1.00  0.00     0.039 C 
ENDBRANCH   5   6
ENDBRANCH   4   5
ENDBRANCH   1   4
BRANCH   2  10
ATOM     10  C   UNL     1      28.998  27.452  26.351  1.00  0.00     0.035 C 
BRANCH  10  11
ATOM     11  C   UNL     1      29.016  28.901  26.856  1.00  0.00     0.079 C 
BRANCH  11  12
ATOM     12  C   UNL     1      28.619  29.875  25.775  1.00  0.00     0.130 C 
ATOM     13  O   UNL     1      29.125  30.987  25.750  1.00  0.00    -0.300 OA
ATOM     14  C   UNL     1      27.624  29.502  24.716  1.00  0.00     0.087 C 
ENDBRANCH  11  12
ENDBRANCH  10  11
ENDBRANCH   2  10
TORSDOF 6
ENDMDL
MODEL 5
REMARK VINA RESULT:    -3.372      3.431      5.877
REMARK INTER + INTRA:          -5.317
REMARK INTER:                  -4.486
REMARK INTRA:                  -0.831
REMARK UNBOUND:                -0.763
REMARK SMILES CC(=O)CCC=C(C)CCC=C(C)C
REMARK SMILES IDX 7 1 6 2 8 3 9 4 10 5 11 6 13 7 12 8 14 9 5 10 4 11 2 12 3 13
REMARK SMILES IDX 1 14
REMARK H PARENT
REMARK Flexibility Score: inf
ROOT
ATOM      1  C   UNL     1      26.170  27.614  29.084  1.00  0.00    -0.077 C 
ATOM      2  C   UNL     1      24.947  27.979  28.637  1.00  0.00    -0.028 C 
ATOM      3  C   UNL     1      26.488  26.184  29.456  1.00  0.00     0.039 C 
ENDROOT
BRANCH   1   4
ATOM      4  C   UNL     1      27.239  28.672  29.241  1.00  0.00     0.034 C 
BRANCH   4   5
ATOM      5  C   UNL     1      28.392  28.431  28.258  1.00  0.00     0.032 C 
BRANCH   5   6
ATOM      6  C   UNL     1      28.187  29.196  26.973  1.00  0.00    -0.028 C 
ATOM      7  C   UNL     1      27.647  27.107  25.715  1.00  0.00     0.039 C 
ATOM      8  C   UNL     1      27.847  28.599  25.810  1.00  0.00    -0.080 C 
ATOM      9  C   UNL     1      27.657  29.425  24.565  1.00  0.00     0.039 C 
ENDBRANCH   5   6
ENDBRANCH   4   5
ENDBRANCH   1   4
BRANCH   2  10
ATOM     10  C   UNL     1      23.808  27.022  28.376  1.00  0.00     0.035 C 
BRANCH  10  11
ATOM     11  C   UNL     1      22.512  27.758  28.012  1.00  0.00     0.079 C 
BRANCH  11  12
ATOM     12  C   UNL     1      21.296  26.892  28.232  1.00  0.00     0.130 C 
ATOM     13  O   UNL     1      20.736  26.906  29.318  1.00  0.00    -0.300 OA
ATOM     14  C   UNL     1      20.749  26.023  27.140  1.00  0.00     0.087 C 
ENDBRANCH  11  12
ENDBRANCH  10  11
ENDBRANCH   2  10
TORSDOF 6
ENDMDL
MODEL 6
REMARK VINA RESULT:    -3.270     13.430     15.975
REMARK INTER + INTRA:          -5.180
REMARK INTER:                  -4.287
REMARK INTRA:                  -0.893
REMARK UNBOUND:                -0.763
REMARK SMILES CC(=O)CCC=C(C)CCC=C(C)C
REMARK SMILES IDX 7 1 6 2 8 3 9 4 10 5 11 6 13 7 12 8 14 9 5 10 4 11 2 12 3 13
REMARK SMILES IDX 1 14
REMARK H PARENT
REMARK Flexibility Score: inf
ROOT
ATOM      1  C   UNL     1      26.955  42.224  20.295  1.00  0.00    -0.077 C 
ATOM      2  C   UNL     1      27.584  43.357  20.680  1.00  0.00    -0.028 C 
ATOM      3  C   UNL     1      25.959  41.523  21.189  1.00  0.00     0.039 C 
ENDROOT
BRANCH   1   4
ATOM      4  C   UNL     1      27.279  41.629  18.942  1.00  0.00     0.034 C 
BRANCH   4   5
ATOM      5  C   UNL     1      26.786  40.180  18.854  1.00  0.00     0.032 C 
BRANCH   5   6
ATOM      6  C   UNL     1      27.936  39.204  18.920  1.00  0.00    -0.028 C 
ATOM      7  C   UNL     1      26.788  37.839  20.670  1.00  0.00     0.039 C 
ATOM      8  C   UNL     1      27.944  38.134  19.746  1.00  0.00    -0.080 C 
ATOM      9  C   UNL     1      29.125  37.199  19.760  1.00  0.00     0.039 C 
ENDBRANCH   5   6
ENDBRANCH   4   5
ENDBRANCH   1   4
BRANCH   2  10
ATOM     10  C   UNL     1      27.315  44.092  21.972  1.00  0.00     0.035 C 
BRANCH  10  11
ATOM     11  C   UNL     1      28.506  44.014  22.936  1.00  0.00     0.079 C 
BRANCH  11  12
ATOM     12  C   UNL     1      28.375  42.856  23.894  1.00  0.00     0.130 C 
ATOM     13  O   UNL     1      27.931  43.050  25.016  1.00  0.00    -0.300 OA
ATOM     14  C   UNL     1      28.766  41.465  23.495  1.00  0.00     0.087 C 
ENDBRANCH  11  12
ENDBRANCH  10  11
ENDBRANCH   2  10
TORSDOF 6
ENDMDL
MODEL 7
REMARK VINA RESULT:    -3.245      2.691      5.370
REMARK INTER + INTRA:          -5.145
REMARK INTER:                  -4.110
REMARK INTRA:                  -1.036
REMARK UNBOUND:                -0.763
REMARK SMILES CC(=O)CCC=C(C)CCC=C(C)C
REMARK SMILES IDX 7 1 6 2 8 3 9 4 10 5 11 6 13 7 12 8 14 9 5 10 4 11 2 12 3 13
REMARK SMILES IDX 1 14
REMARK H PARENT
REMARK Flexibility Score: inf
ROOT
ATOM      1  C   UNL     1      26.998  27.694  28.759  1.00  0.00    -0.077 C 
ATOM      2  C   UNL     1      27.612  26.490  28.781  1.00  0.00    -0.028 C 
ATOM      3  C   UNL     1      25.493  27.820  28.715  1.00  0.00     0.039 C 
ENDROOT
BRANCH   1   4
ATOM      4  C   UNL     1      27.844  28.948  28.750  1.00  0.00     0.034 C 
BRANCH   4   5
ATOM      5  C   UNL     1      28.882  28.896  27.623  1.00  0.00     0.032 C 
BRANCH   5   6
ATOM      6  C   UNL     1      28.398  29.632  26.396  1.00  0.00    -0.028 C 
ATOM      7  C   UNL     1      27.663  27.507  25.308  1.00  0.00     0.039 C 
ATOM      8  C   UNL     1      27.841  29.005  25.338  1.00  0.00    -0.080 C 
ATOM      9  C   UNL     1      27.378  29.802  24.146  1.00  0.00     0.039 C 
ENDBRANCH   5   6
ENDBRANCH   4   5
ENDBRANCH   1   4
BRANCH   2  10
ATOM     10  C   UNL     1      26.895  25.162  28.853  1.00  0.00     0.035 C 
BRANCH  10  11
ATOM     11  C   UNL     1      27.285  24.235  27.694  1.00  0.00     0.079 C 
BRANCH  11  12
ATOM     12  C   UNL     1      26.135  24.015  26.743  1.00  0.00     0.130 C 
ATOM     13  O   UNL     1      24.996  23.948  27.180  1.00  0.00    -0.300 OA
ATOM     14  C   UNL     1      26.357  23.892  25.265  1.00  0.00     0.087 C 
ENDBRANCH  11  12
ENDBRANCH  10  11
ENDBRANCH   2  10
TORSDOF 6
ENDMDL
MODEL 8
REMARK VINA RESULT:    -3.225      2.489      5.083
REMARK INTER + INTRA:          -5.119
REMARK INTER:                  -4.210
REMARK INTRA:                  -0.908
REMARK UNBOUND:                -0.763
REMARK SMILES CC(=O)CCC=C(C)CCC=C(C)C
REMARK SMILES IDX 7 1 6 2 8 3 9 4 10 5 11 6 13 7 12 8 14 9 5 10 4 11 2 12 3 13
REMARK SMILES IDX 1 14
REMARK H PARENT
REMARK Flexibility Score: inf
ROOT
ATOM      1  C   UNL     1      27.253  25.467  27.923  1.00  0.00    -0.077 C 
ATOM      2  C   UNL     1      26.098  26.113  27.645  1.00  0.00    -0.028 C 
ATOM      3  C   UNL     1      27.684  25.183  29.344  1.00  0.00     0.039 C 
ENDROOT
BRANCH   1   4
ATOM      4  C   UNL     1      28.148  25.041  26.781  1.00  0.00     0.034 C 
BRANCH   4   5
ATOM      5  C   UNL     1      29.125  26.164  26.409  1.00  0.00     0.032 C 
BRANCH   5   6
ATOM      6  C   UNL     1      28.479  27.171  25.489  1.00  0.00    -0.028 C 
ATOM      7  C   UNL     1      28.717  28.995  27.180  1.00  0.00     0.039 C 
ATOM      8  C   UNL     1      28.290  28.464  25.834  1.00  0.00    -0.080 C 
ATOM      9  C   UNL     1      27.639  29.417  24.865  1.00  0.00     0.039 C 
ENDBRANCH   5   6
ENDBRANCH   4   5
ENDBRANCH   1   4
BRANCH   2  10
ATOM     10  C   UNL     1      25.083  26.540  28.679  1.00  0.00     0.035 C 
BRANCH  10  11
ATOM     11  C   UNL     1      25.100  28.057  28.908  1.00  0.00     0.079 C 
BRANCH  11  12
ATOM     12  C   UNL     1      23.708  28.638  28.907  1.00  0.00     0.130 C 
ATOM     13  O   UNL     1      23.505  29.718  29.441  1.00  0.00    -0.300 OA
ATOM     14  C   UNL     1      22.565  27.924  28.249  1.00  0.00     0.087 C 
ENDBRANCH  11  12
ENDBRANCH  10  11
ENDBRANCH   2  10
TORSDOF 6
ENDMDL
