MODEL 1
REMARK VINA RESULT:    -5.243      0.000      0.000
REMARK INTER + INTRA:          -6.439
REMARK INTER:                  -6.162
REMARK INTRA:                  -0.277
REMARK UNBOUND:                -0.277
REMARK SMILES O=c1cc(-c2ccc(O)c(O)c2)oc2cc(O)cc(O)c12
REMARK SMILES IDX 4 1 3 2 2 3 1 4 21 5 19 6 18 7 16 8 15 9 14 10 13 11 5 12
REMARK SMILES IDX 6 13 7 14 8 15 12 16 10 17 9 18 11 20 20 22 17 24
REMARK H PARENT 9 19 11 21 20 23 17 25
REMARK Flexibility Score: inf
ROOT
ATOM      1  C   UNL     1      34.191  12.115  -1.521  1.00  0.00     0.138 A 
ATOM      2  C   UNL     1      33.388  11.679  -2.584  1.00  0.00     0.100 A 
ATOM      3  C   UNL     1      32.980  10.347  -2.640  1.00  0.00     0.197 A 
ATOM      4  O   UNL     1      32.313   9.971  -3.638  1.00  0.00    -0.289 OA
ATOM      5  C   UNL     1      33.353   9.452  -1.608  1.00  0.00     0.107 A 
ATOM      6  C   UNL     1      32.962   8.082  -1.538  1.00  0.00     0.134 A 
ATOM      7  C   UNL     1      33.487   7.265  -0.530  1.00  0.00     0.093 A 
ATOM      8  C   UNL     1      34.343   7.783   0.445  1.00  0.00     0.123 A 
ATOM      9  C   UNL     1      34.689   9.131   0.418  1.00  0.00     0.094 A 
ATOM     10  C   UNL     1      34.208   9.965  -0.595  1.00  0.00     0.146 A 
ATOM     11  O   UNL     1      34.573  11.243  -0.594  1.00  0.00    -0.456 OA
ENDROOT
BRANCH   1  12
ATOM     12  C   UNL     1      34.652  13.522  -1.412  1.00  0.00     0.021 A 
ATOM     13  C   UNL     1      35.999  13.787  -1.110  1.00  0.00     0.016 A 
ATOM     14  C   UNL     1      36.457  15.102  -0.994  1.00  0.00     0.051 A 
ATOM     15  C   UNL     1      35.578  16.174  -1.168  1.00  0.00     0.157 A 
ATOM     16  C   UNL     1      33.768  14.606  -1.574  1.00  0.00     0.062 A 
ATOM     17  C   UNL     1      34.226  15.927  -1.457  1.00  0.00     0.158 A 
BRANCH  15  18
ATOM     18  O   UNL     1      36.064  17.476  -1.049  1.00  0.00    -0.504 OA
ATOM     19  H   UNL     1      35.738  18.108  -0.329  1.00  0.00     0.293 HD
ENDBRANCH  15  18
BRANCH  17  20
ATOM     20  O   UNL     1      33.342  16.992  -1.620  1.00  0.00    -0.504 OA
ATOM     21  H   UNL     1      33.667  17.949  -1.686  1.00  0.00     0.293 HD
ENDBRANCH  17  20
ENDBRANCH   1  12
BRANCH   6  22
ATOM     22  O   UNL     1      32.047   7.486  -2.412  1.00  0.00    -0.507 OA
ATOM     23  H   UNL     1      31.094   7.787  -2.543  1.00  0.00     0.293 HD
ENDBRANCH   6  22
BRANCH   8  24
ATOM     24  O   UNL     1      34.850   6.964   1.452  1.00  0.00    -0.508 OA
ATOM     25  H   UNL     1      35.620   7.261   2.040  1.00  0.00     0.293 HD
ENDBRANCH   8  24
TORSDOF 5
ENDMDL
MODEL 2
REMARK VINA RESULT:    -5.227      1.586      2.520
REMARK INTER + INTRA:          -6.421
REMARK INTER:                  -6.104
REMARK INTRA:                  -0.317
REMARK UNBOUND:                -0.277
REMARK SMILES O=c1cc(-c2ccc(O)c(O)c2)oc2cc(O)cc(O)c12
REMARK SMILES IDX 4 1 3 2 2 3 1 4 21 5 19 6 18 7 16 8 15 9 14 10 13 11 5 12
REMARK SMILES IDX 6 13 7 14 8 15 12 16 10 17 9 18 11 20 20 22 17 24
REMARK H PARENT 9 19 11 21 20 23 17 25
REMARK Flexibility Score: inf
ROOT
ATOM      1  C   UNL     1      35.576  12.607  -1.051  1.00  0.00     0.138 A 
ATOM      2  C   UNL     1      36.751  11.842  -1.063  1.00  0.00     0.100 A 
ATOM      3  C   UNL     1      36.673  10.456  -0.930  1.00  0.00     0.197 A 
ATOM      4  O   UNL     1      37.746   9.803  -0.881  1.00  0.00    -0.289 OA
ATOM      5  C   UNL     1      35.408   9.830  -0.815  1.00  0.00     0.107 A 
ATOM      6  C   UNL     1      35.204   8.422  -0.716  1.00  0.00     0.134 A 
ATOM      7  C   UNL     1      33.915   7.925  -0.490  1.00  0.00     0.093 A 
ATOM      8  C   UNL     1      32.814   8.782  -0.421  1.00  0.00     0.123 A 
ATOM      9  C   UNL     1      32.995  10.155  -0.571  1.00  0.00     0.094 A 
ATOM     10  C   UNL     1      34.274  10.684  -0.763  1.00  0.00     0.146 A 
ATOM     11  O   UNL     1      34.406  12.001  -0.888  1.00  0.00    -0.456 OA
ENDROOT
BRANCH   1  12
ATOM     12  C   UNL     1      35.602  14.086  -1.191  1.00  0.00     0.021 A 
ATOM     13  C   UNL     1      36.837  14.757  -1.202  1.00  0.00     0.016 A 
ATOM     14  C   UNL     1      36.888  16.148  -1.325  1.00  0.00     0.051 A 
ATOM     15  C   UNL     1      35.711  16.893  -1.429  1.00  0.00     0.157 A 
ATOM     16  C   UNL     1      34.418  14.842  -1.283  1.00  0.00     0.062 A 
ATOM     17  C   UNL     1      34.469  16.239  -1.405  1.00  0.00     0.158 A 
BRANCH  15  18
ATOM     18  O   UNL     1      35.794  18.280  -1.552  1.00  0.00    -0.504 OA
ATOM     19  H   UNL     1      35.792  18.893  -0.747  1.00  0.00     0.293 HD
ENDBRANCH  15  18
BRANCH  17  20
ATOM     20  O   UNL     1      33.290  16.977  -1.497  1.00  0.00    -0.504 OA
ATOM     21  H   UNL     1      32.390  16.529  -1.627  1.00  0.00     0.293 HD
ENDBRANCH  17  20
ENDBRANCH   1  12
BRANCH   6  22
ATOM     22  O   UNL     1      36.223   7.473  -0.854  1.00  0.00    -0.507 OA
ATOM     23  H   UNL     1      36.951   7.307  -0.178  1.00  0.00     0.293 HD
ENDBRANCH   6  22
BRANCH   8  24
ATOM     24  O   UNL     1      31.533   8.278  -0.211  1.00  0.00    -0.508 OA
ATOM     25  H   UNL     1      30.955   8.600   0.557  1.00  0.00     0.293 HD
ENDBRANCH   8  24
TORSDOF 5
ENDMDL
MODEL 3
REMARK VINA RESULT:    -5.040      4.699      7.826
REMARK INTER + INTRA:          -6.201
REMARK INTER:                  -5.926
REMARK INTRA:                  -0.276
REMARK UNBOUND:                -0.277
REMARK SMILES O=c1cc(-c2ccc(O)c(O)c2)oc2cc(O)cc(O)c12
REMARK SMILES IDX 4 1 3 2 2 3 1 4 21 5 19 6 18 7 16 8 15 9 14 10 13 11 5 12
REMARK SMILES IDX 6 13 7 14 8 15 12 16 10 17 9 18 11 20 20 22 17 24
REMARK H PARENT 9 19 11 21 20 23 17 25
REMARK Flexibility Score: inf
ROOT
ATOM      1  C   UNL     1      35.397   6.417   3.024  1.00  0.00     0.138 A 
ATOM      2  C   UNL     1      36.067   5.227   2.707  1.00  0.00     0.100 A 
ATOM      3  C   UNL     1      36.022   4.153   3.595  1.00  0.00     0.197 A 
ATOM      4  O   UNL     1      36.684   3.121   3.314  1.00  0.00    -0.289 OA
ATOM      5  C   UNL     1      35.276   4.261   4.794  1.00  0.00     0.107 A 
ATOM      6  C   UNL     1      35.125   3.217   5.754  1.00  0.00     0.134 A 
ATOM      7  C   UNL     1      34.459   3.478   6.958  1.00  0.00     0.093 A 
ATOM      8  C   UNL     1      33.886   4.727   7.209  1.00  0.00     0.123 A 
ATOM      9  C   UNL     1      33.981   5.737   6.254  1.00  0.00     0.094 A 
ATOM     10  C   UNL     1      34.669   5.518   5.058  1.00  0.00     0.146 A 
ATOM     11  O   UNL     1      34.749   6.512   4.179  1.00  0.00    -0.456 OA
ENDROOT
BRANCH   1  12
ATOM     12  C   UNL     1      35.411   7.591   2.113  1.00  0.00     0.021 A 
ATOM     13  C   UNL     1      36.633   8.212   1.805  1.00  0.00     0.016 A 
ATOM     14  C   UNL     1      36.673   9.322   0.957  1.00  0.00     0.051 A 
ATOM     15  C   UNL     1      35.494   9.836   0.411  1.00  0.00     0.157 A 
ATOM     16  C   UNL     1      34.225   8.120   1.570  1.00  0.00     0.062 A 
ATOM     17  C   UNL     1      34.263   9.236   0.719  1.00  0.00     0.158 A 
BRANCH  15  18
ATOM     18  O   UNL     1      35.565  10.944  -0.434  1.00  0.00    -0.504 OA
ATOM     19  H   UNL     1      35.553  11.892  -0.081  1.00  0.00     0.293 HD
ENDBRANCH  15  18
BRANCH  17  20
ATOM     20  O   UNL     1      33.082   9.751   0.187  1.00  0.00    -0.504 OA
ATOM     21  H   UNL     1      32.177   9.521   0.579  1.00  0.00     0.293 HD
ENDBRANCH  17  20
ENDBRANCH   1  12
BRANCH   6  22
ATOM     22  O   UNL     1      35.586   1.910   5.567  1.00  0.00    -0.507 OA
ATOM     23  H   UNL     1      35.965   1.322   6.293  1.00  0.00     0.293 HD
ENDBRANCH   6  22
BRANCH   8  24
ATOM     24  O   UNL     1      33.213   4.973   8.403  1.00  0.00    -0.508 OA
ATOM     25  H   UNL     1      32.203   4.917   8.464  1.00  0.00     0.293 HD
ENDBRANCH   8  24
TORSDOF 5
ENDMDL
MODEL 4
REMARK VINA RESULT:    -5.019      1.729      7.253
REMARK INTER + INTRA:          -6.176
REMARK INTER:                  -5.864
REMARK INTRA:                  -0.312
REMARK UNBOUND:                -0.277
REMARK SMILES O=c1cc(-c2ccc(O)c(O)c2)oc2cc(O)cc(O)c12
REMARK SMILES IDX 4 1 3 2 2 3 1 4 21 5 19 6 18 7 16 8 15 9 14 10 13 11 5 12
REMARK SMILES IDX 6 13 7 14 8 15 12 16 10 17 9 18 11 20 20 22 17 24
REMARK H PARENT 9 19 11 21 20 23 17 25
REMARK Flexibility Score: inf
ROOT
ATOM      1  C   UNL     1      35.329  11.832  -1.183  1.00  0.00     0.138 A 
ATOM      2  C   UNL     1      36.705  12.091  -1.249  1.00  0.00     0.100 A 
ATOM      3  C   UNL     1      37.152  13.401  -1.424  1.00  0.00     0.197 A 
ATOM      4  O   UNL     1      38.389  13.595  -1.543  1.00  0.00    -0.289 OA
ATOM      5  C   UNL     1      36.216  14.460  -1.501  1.00  0.00     0.107 A 
ATOM      6  C   UNL     1      36.557  15.839  -1.637  1.00  0.00     0.134 A 
ATOM      7  C   UNL     1      35.543  16.786  -1.820  1.00  0.00     0.093 A 
ATOM      8  C   UNL     1      34.197  16.412  -1.810  1.00  0.00     0.123 A 
ATOM      9  C   UNL     1      33.851  15.076  -1.624  1.00  0.00     0.094 A 
ATOM     10  C   UNL     1      34.841  14.102  -1.473  1.00  0.00     0.146 A 
ATOM     11  O   UNL     1      34.469  12.836  -1.312  1.00  0.00    -0.456 OA
ENDROOT
BRANCH   1  12
ATOM     12  C   UNL     1      34.799  10.457  -0.996  1.00  0.00     0.021 A 
ATOM     13  C   UNL     1      35.607   9.355  -1.323  1.00  0.00     0.016 A 
ATOM     14  C   UNL     1      35.130   8.051  -1.164  1.00  0.00     0.051 A 
ATOM     15  C   UNL     1      33.837   7.825  -0.685  1.00  0.00     0.157 A 
ATOM     16  C   UNL     1      33.492  10.225  -0.526  1.00  0.00     0.062 A 
ATOM     17  C   UNL     1      33.011   8.915  -0.367  1.00  0.00     0.158 A 
BRANCH  15  18
ATOM     18  O   UNL     1      33.388   6.513  -0.534  1.00  0.00    -0.504 OA
ATOM     19  H   UNL     1      32.776   6.073  -1.209  1.00  0.00     0.293 HD
ENDBRANCH  15  18
BRANCH  17  20
ATOM     20  O   UNL     1      31.716   8.697   0.101  1.00  0.00    -0.504 OA
ATOM     21  H   UNL     1      31.216   9.402   0.630  1.00  0.00     0.293 HD
ENDBRANCH  17  20
ENDBRANCH   1  12
BRANCH   6  22
ATOM     22  O   UNL     1      37.865  16.329  -1.576  1.00  0.00    -0.507 OA
ATOM     23  H   UNL     1      38.255  16.837  -0.797  1.00  0.00     0.293 HD
ENDBRANCH   6  22
BRANCH   8  24
ATOM     24  O   UNL     1      33.194  17.364  -1.978  1.00  0.00    -0.508 OA
ATOM     25  H   UNL     1      33.362  18.229  -2.477  1.00  0.00     0.293 HD
ENDBRANCH   8  24
TORSDOF 5
ENDMDL
MODEL 5
REMARK VINA RESULT:    -4.951      1.733      6.910
REMARK INTER + INTRA:          -6.096
REMARK INTER:                  -5.795
REMARK INTRA:                  -0.301
REMARK UNBOUND:                -0.277
REMARK SMILES O=c1cc(-c2ccc(O)c(O)c2)oc2cc(O)cc(O)c12
REMARK SMILES IDX 4 1 3 2 2 3 1 4 21 5 19 6 18 7 16 8 15 9 14 10 13 11 5 12
REMARK SMILES IDX 6 13 7 14 8 15 12 16 10 17 9 18 11 20 20 22 17 24
REMARK H PARENT 9 19 11 21 20 23 17 25
REMARK Flexibility Score: inf
ROOT
ATOM      1  C   UNL     1      33.862  11.991  -2.054  1.00  0.00     0.138 A 
ATOM      2  C   UNL     1      33.192  12.474  -3.186  1.00  0.00     0.100 A 
ATOM      3  C   UNL     1      33.425  13.779  -3.620  1.00  0.00     0.197 A 
ATOM      4  O   UNL     1      32.763  14.206  -4.600  1.00  0.00    -0.289 OA
ATOM      5  C   UNL     1      34.358  14.593  -2.934  1.00  0.00     0.107 A 
ATOM      6  C   UNL     1      34.706  15.925  -3.310  1.00  0.00     0.134 A 
ATOM      7  C   UNL     1      35.556  16.675  -2.488  1.00  0.00     0.093 A 
ATOM      8  C   UNL     1      36.118  16.120  -1.336  1.00  0.00     0.123 A 
ATOM      9  C   UNL     1      35.827  14.803  -0.988  1.00  0.00     0.094 A 
ATOM     10  C   UNL     1      34.955  14.040  -1.769  1.00  0.00     0.146 A 
ATOM     11  O   UNL     1      34.692  12.792  -1.396  1.00  0.00    -0.456 OA
ENDROOT
BRANCH   1  12
ATOM     12  C   UNL     1      33.653  10.609  -1.549  1.00  0.00     0.021 A 
ATOM     13  C   UNL     1      33.427   9.567  -2.464  1.00  0.00     0.016 A 
ATOM     14  C   UNL     1      33.220   8.259  -2.016  1.00  0.00     0.051 A 
ATOM     15  C   UNL     1      33.225   7.972  -0.649  1.00  0.00     0.157 A 
ATOM     16  C   UNL     1      33.645  10.317  -0.172  1.00  0.00     0.062 A 
ATOM     17  C   UNL     1      33.436   9.004   0.279  1.00  0.00     0.158 A 
BRANCH  15  18
ATOM     18  O   UNL     1      33.018   6.658  -0.231  1.00  0.00    -0.504 OA
ATOM     19  H   UNL     1      32.283   6.079  -0.618  1.00  0.00     0.293 HD
ENDBRANCH  15  18
BRANCH  17  20
ATOM     20  O   UNL     1      33.431   8.727   1.645  1.00  0.00    -0.504 OA
ATOM     21  H   UNL     1      32.701   8.169   2.073  1.00  0.00     0.293 HD
ENDBRANCH  17  20
ENDBRANCH   1  12
BRANCH   6  22
ATOM     22  O   UNL     1      34.268  16.544  -4.485  1.00  0.00    -0.507 OA
ATOM     23  H   UNL     1      34.374  16.162  -5.412  1.00  0.00     0.293 HD
ENDBRANCH   6  22
BRANCH   8  24
ATOM     24  O   UNL     1      36.974  16.869  -0.531  1.00  0.00    -0.508 OA
ATOM     25  H   UNL     1      36.949  17.882  -0.529  1.00  0.00     0.293 HD
ENDBRANCH   8  24
TORSDOF 5
ENDMDL
MODEL 6
REMARK VINA RESULT:    -4.914      2.944      5.183
REMARK INTER + INTRA:          -6.053
REMARK INTER:                  -5.753
REMARK INTRA:                  -0.300
REMARK UNBOUND:                -0.277
REMARK SMILES O=c1cc(-c2ccc(O)c(O)c2)oc2cc(O)cc(O)c12
REMARK SMILES IDX 4 1 3 2 2 3 1 4 21 5 19 6 18 7 16 8 15 9 14 10 13 11 5 12
REMARK SMILES IDX 6 13 7 14 8 15 12 16 10 17 9 18 11 20 20 22 17 24
REMARK H PARENT 9 19 11 21 20 23 17 25
REMARK Flexibility Score: inf
ROOT
ATOM      1  C   UNL     1      37.171  15.733  -1.621  1.00  0.00     0.138 A 
ATOM      2  C   UNL     1      38.082  14.668  -1.627  1.00  0.00     0.100 A 
ATOM      3  C   UNL     1      37.611  13.358  -1.708  1.00  0.00     0.197 A 
ATOM      4  O   UNL     1      38.448  12.421  -1.647  1.00  0.00    -0.289 OA
ATOM      5  C   UNL     1      36.221  13.115  -1.816  1.00  0.00     0.107 A 
ATOM      6  C   UNL     1      35.629  11.823  -1.946  1.00  0.00     0.134 A 
ATOM      7  C   UNL     1      34.234  11.698  -1.928  1.00  0.00     0.093 A 
ATOM      8  C   UNL     1      33.411  12.823  -1.846  1.00  0.00     0.123 A 
ATOM      9  C   UNL     1      33.978  14.093  -1.773  1.00  0.00     0.094 A 
ATOM     10  C   UNL     1      35.366  14.249  -1.754  1.00  0.00     0.146 A 
ATOM     11  O   UNL     1      35.868  15.476  -1.669  1.00  0.00    -0.456 OA
ENDROOT
BRANCH   1  12
ATOM     12  C   UNL     1      37.618  17.147  -1.538  1.00  0.00     0.021 A 
ATOM     13  C   UNL     1      38.798  17.538  -2.193  1.00  0.00     0.016 A 
ATOM     14  C   UNL     1      39.245  18.860  -2.125  1.00  0.00     0.051 A 
ATOM     15  C   UNL     1      38.528  19.811  -1.395  1.00  0.00     0.157 A 
ATOM     16  C   UNL     1      36.906  18.107  -0.794  1.00  0.00     0.062 A 
ATOM     17  C   UNL     1      37.354  19.435  -0.723  1.00  0.00     0.158 A 
BRANCH  15  18
ATOM     18  O   UNL     1      38.997  21.124  -1.347  1.00  0.00    -0.504 OA
ATOM     19  H   UNL     1      39.498  21.488  -0.546  1.00  0.00     0.293 HD
ENDBRANCH  15  18
BRANCH  17  20
ATOM     20  O   UNL     1      36.640  20.376   0.016  1.00  0.00    -0.504 OA
ATOM     21  H   UNL     1      35.733  20.164   0.414  1.00  0.00     0.293 HD
ENDBRANCH  17  20
ENDBRANCH   1  12
BRANCH   6  22
ATOM     22  O   UNL     1      36.359  10.643  -2.118  1.00  0.00    -0.507 OA
ATOM     23  H   UNL     1      37.336  10.531  -1.894  1.00  0.00     0.293 HD
ENDBRANCH   6  22
BRANCH   8  24
ATOM     24  O   UNL     1      32.024  12.690  -1.844  1.00  0.00    -0.508 OA
ATOM     25  H   UNL     1      31.416  13.475  -1.642  1.00  0.00     0.293 HD
ENDBRANCH   8  24
TORSDOF 5
ENDMDL
MODEL 7
REMARK VINA RESULT:    -4.897      1.538      1.851
REMARK INTER + INTRA:          -6.033
REMARK INTER:                  -5.753
REMARK INTRA:                  -0.281
REMARK UNBOUND:                -0.277
REMARK SMILES O=c1cc(-c2ccc(O)c(O)c2)oc2cc(O)cc(O)c12
REMARK SMILES IDX 4 1 3 2 2 3 1 4 21 5 19 6 18 7 16 8 15 9 14 10 13 11 5 12
REMARK SMILES IDX 6 13 7 14 8 15 12 16 10 17 9 18 11 20 20 22 17 24
REMARK H PARENT 9 19 11 21 20 23 17 25
REMARK Flexibility Score: inf
ROOT
ATOM      1  C   UNL     1      35.244  12.552  -1.058  1.00  0.00     0.138 A 
ATOM      2  C   UNL     1      33.863  12.513  -1.296  1.00  0.00     0.100 A 
ATOM      3  C   UNL     1      33.149  11.345  -1.029  1.00  0.00     0.197 A 
ATOM      4  O   UNL     1      31.924  11.319  -1.312  1.00  0.00    -0.289 OA
ATOM      5  C   UNL     1      33.819  10.219  -0.492  1.00  0.00     0.107 A 
ATOM      6  C   UNL     1      33.187   8.988  -0.142  1.00  0.00     0.134 A 
ATOM      7  C   UNL     1      33.970   7.904   0.274  1.00  0.00     0.093 A 
ATOM      8  C   UNL     1      35.355   8.026   0.410  1.00  0.00     0.123 A 
ATOM      9  C   UNL     1      35.975   9.239   0.122  1.00  0.00     0.094 A 
ATOM     10  C   UNL     1      35.226  10.329  -0.327  1.00  0.00     0.146 A 
ATOM     11  O   UNL     1      35.857  11.465  -0.604  1.00  0.00    -0.456 OA
ENDROOT
BRANCH   1  12
ATOM     12  C   UNL     1      36.050  13.771  -1.323  1.00  0.00     0.021 A 
ATOM     13  C   UNL     1      37.320  13.644  -1.911  1.00  0.00     0.016 A 
ATOM     14  C   UNL     1      38.103  14.773  -2.164  1.00  0.00     0.051 A 
ATOM     15  C   UNL     1      37.636  16.046  -1.826  1.00  0.00     0.157 A 
ATOM     16  C   UNL     1      35.590  15.054  -0.973  1.00  0.00     0.062 A 
ATOM     17  C   UNL     1      36.376  16.189  -1.225  1.00  0.00     0.158 A 
BRANCH  15  18
ATOM     18  O   UNL     1      38.439  17.156  -2.093  1.00  0.00    -0.504 OA
ATOM     19  H   UNL     1      38.416  17.635  -2.984  1.00  0.00     0.293 HD
ENDBRANCH  15  18
BRANCH  17  20
ATOM     20  O   UNL     1      35.909  17.456  -0.875  1.00  0.00    -0.504 OA
ATOM     21  H   UNL     1      35.900  17.772   0.088  1.00  0.00     0.293 HD
ENDBRANCH  17  20
ENDBRANCH   1  12
BRANCH   6  22
ATOM     22  O   UNL     1      31.803   8.787  -0.161  1.00  0.00    -0.507 OA
ATOM     23  H   UNL     1      31.328   8.096  -0.721  1.00  0.00     0.293 HD
ENDBRANCH   6  22
BRANCH   8  24
ATOM     24  O   UNL     1      36.124   6.946   0.838  1.00  0.00    -0.508 OA
ATOM     25  H   UNL     1      36.055   6.587   1.782  1.00  0.00     0.293 HD
ENDBRANCH   8  24
TORSDOF 5
ENDMDL
MODEL 8
REMARK VINA RESULT:    -4.786      2.629      8.097
REMARK INTER + INTRA:          -5.903
REMARK INTER:                  -5.612
REMARK INTRA:                  -0.291
REMARK UNBOUND:                -0.277
REMARK SMILES O=c1cc(-c2ccc(O)c(O)c2)oc2cc(O)cc(O)c12
REMARK SMILES IDX 4 1 3 2 2 3 1 4 21 5 19 6 18 7 16 8 15 9 14 10 13 11 5 12
REMARK SMILES IDX 6 13 7 14 8 15 12 16 10 17 9 18 11 20 20 22 17 24
REMARK H PARENT 9 19 11 21 20 23 17 25
REMARK Flexibility Score: inf
ROOT
ATOM      1  C   UNL     1      36.447  14.621  -1.694  1.00  0.00     0.138 A 
ATOM      2  C   UNL     1      37.670  14.469  -2.362  1.00  0.00     0.100 A 
ATOM      3  C   UNL     1      38.520  15.566  -2.502  1.00  0.00     0.197 A 
ATOM      4  O   UNL     1      39.581  15.415  -3.160  1.00  0.00    -0.289 OA
ATOM      5  C   UNL     1      38.156  16.815  -1.942  1.00  0.00     0.107 A 
ATOM      6  C   UNL     1      38.962  17.991  -1.987  1.00  0.00     0.134 A 
ATOM      7  C   UNL     1      38.448  19.199  -1.500  1.00  0.00     0.093 A 
ATOM      8  C   UNL     1      37.180  19.259  -0.915  1.00  0.00     0.123 A 
ATOM      9  C   UNL     1      36.407  18.105  -0.818  1.00  0.00     0.094 A 
ATOM     10  C   UNL     1      36.878  16.891  -1.325  1.00  0.00     0.146 A 
ATOM     11  O   UNL     1      36.104  15.816  -1.225  1.00  0.00    -0.456 OA
ENDROOT
BRANCH   1  12
ATOM     12  C   UNL     1      35.505  13.486  -1.516  1.00  0.00     0.021 A 
ATOM     13  C   UNL     1      35.995  12.246  -1.072  1.00  0.00     0.016 A 
ATOM     14  C   UNL     1      35.131  11.160  -0.903  1.00  0.00     0.051 A 
ATOM     15  C   UNL     1      33.769  11.291  -1.182  1.00  0.00     0.157 A 
ATOM     16  C   UNL     1      34.133  13.609  -1.808  1.00  0.00     0.062 A 
ATOM     17  C   UNL     1      33.266  12.519  -1.640  1.00  0.00     0.158 A 
BRANCH  15  18
ATOM     18  O   UNL     1      32.930  10.190  -1.002  1.00  0.00    -0.504 OA
ATOM     19  H   UNL     1      33.252   9.334  -0.568  1.00  0.00     0.293 HD
ENDBRANCH  15  18
BRANCH  17  20
ATOM     20  O   UNL     1      31.909  12.653  -1.931  1.00  0.00    -0.504 OA
ATOM     21  H   UNL     1      31.348  11.863  -2.230  1.00  0.00     0.293 HD
ENDBRANCH  17  20
ENDBRANCH   1  12
BRANCH   6  22
ATOM     22  O   UNL     1      40.273  18.022  -2.473  1.00  0.00    -0.507 OA
ATOM     23  H   UNL     1      40.847  18.849  -2.531  1.00  0.00     0.293 HD
ENDBRANCH   6  22
BRANCH   8  24
ATOM     24  O   UNL     1      36.682  20.462  -0.421  1.00  0.00    -0.508 OA
ATOM     25  H   UNL     1      35.739  20.770  -0.625  1.00  0.00     0.293 HD
ENDBRANCH   8  24
TORSDOF 5
ENDMDL
MODEL 9
REMARK VINA RESULT:    -4.764      1.696      6.769
REMARK INTER + INTRA:          -5.877
REMARK INTER:                  -5.604
REMARK INTRA:                  -0.273
REMARK UNBOUND:                -0.277
REMARK SMILES O=c1cc(-c2ccc(O)c(O)c2)oc2cc(O)cc(O)c12
REMARK SMILES IDX 4 1 3 2 2 3 1 4 21 5 19 6 18 7 16 8 15 9 14 10 13 11 5 12
REMARK SMILES IDX 6 13 7 14 8 15 12 16 10 17 9 18 11 20 20 22 17 24
REMARK H PARENT 9 19 11 21 20 23 17 25
REMARK Flexibility Score: inf
ROOT
ATOM      1  C   UNL     1      34.249  11.068  -1.160  1.00  0.00     0.138 A 
ATOM      2  C   UNL     1      33.260  11.303  -2.125  1.00  0.00     0.100 A 
ATOM      3  C   UNL     1      33.146  12.568  -2.703  1.00  0.00     0.197 A 
ATOM      4  O   UNL     1      32.209  12.766  -3.518  1.00  0.00    -0.289 OA
ATOM      5  C   UNL     1      34.049  13.594  -2.334  1.00  0.00     0.107 A 
ATOM      6  C   UNL     1      34.054  14.909  -2.886  1.00  0.00     0.134 A 
ATOM      7  C   UNL     1      34.921  15.875  -2.361  1.00  0.00     0.093 A 
ATOM      8  C   UNL     1      35.824  15.556  -1.344  1.00  0.00     0.123 A 
ATOM      9  C   UNL     1      35.864  14.261  -0.835  1.00  0.00     0.094 A 
ATOM     10  C   UNL     1      34.989  13.283  -1.315  1.00  0.00     0.146 A 
ATOM     11  O   UNL     1      35.049  12.062  -0.792  1.00  0.00    -0.456 OA
ENDROOT
BRANCH   1  12
ATOM     12  C   UNL     1      34.415   9.741  -0.515  1.00  0.00     0.021 A 
ATOM     13  C   UNL     1      34.807   8.639  -1.294  1.00  0.00     0.016 A 
ATOM     14  C   UNL     1      34.964   7.377  -0.713  1.00  0.00     0.051 A 
ATOM     15  C   UNL     1      34.722   7.193   0.651  1.00  0.00     0.157 A 
ATOM     16  C   UNL     1      34.161   9.547   0.856  1.00  0.00     0.062 A 
ATOM     17  C   UNL     1      34.317   8.280   1.440  1.00  0.00     0.158 A 
BRANCH  15  18
ATOM     18  O   UNL     1      34.889   5.922   1.203  1.00  0.00    -0.504 OA
ATOM     19  H   UNL     1      34.102   5.334   1.446  1.00  0.00     0.293 HD
ENDBRANCH  15  18
BRANCH  17  20
ATOM     20  O   UNL     1      34.063   8.100   2.799  1.00  0.00    -0.504 OA
ATOM     21  H   UNL     1      33.120   8.106   3.170  1.00  0.00     0.293 HD
ENDBRANCH  17  20
ENDBRANCH   1  12
BRANCH   6  22
ATOM     22  O   UNL     1      33.252  15.309  -3.960  1.00  0.00    -0.507 OA
ATOM     23  H   UNL     1      32.725  16.167  -3.998  1.00  0.00     0.293 HD
ENDBRANCH   6  22
BRANCH   8  24
ATOM     24  O   UNL     1      36.693  16.520  -0.837  1.00  0.00    -0.508 OA
ATOM     25  H   UNL     1      36.363  17.436  -0.555  1.00  0.00     0.293 HD
ENDBRANCH   8  24
TORSDOF 5
ENDMDL
