MODEL 1
REMARK VINA RESULT:    -7.653      0.000      0.000
REMARK INTER + INTRA:         -23.252
REMARK INTER:                 -18.166
REMARK INTRA:                  -5.085
REMARK UNBOUND:                -5.085
REMARK SMILES O=C(OC[C@H]1O[C@@H](OC(=O)c2cc(O)c(O)c(O)c2)[C@@H](OC(=O)c2cc(O)c(O)c(O)c2)[C@@H](OC(=O)c2cc(O)c(O)c(O)c2)[C@@H]1OC(=O)c1cc(O)c(O)c(O)c1)c1cc(O)c(O)c(O)c1
REMARK SMILES IDX 5 1 46 2 33 3 20 4 7 5 6 6 4 7 3 8 2 9 1 10 59 11 60 12
REMARK SMILES IDX 61 13 67 14 63 15 65 16 62 17 64 19 66 21 47 23 48 24 49 25
REMARK SMILES IDX 50 26 58 27 51 28 56 29 52 30 54 31 57 32 53 34 55 36 34 38
REMARK SMILES IDX 35 39 36 40 37 41 45 42 38 43 43 44 39 45 41 46 44 47 40 49
REMARK SMILES IDX 42 51 8 53 9 54 10 55 11 56 19 57 12 58 17 59 13 60 15 61
REMARK SMILES IDX 18 62 14 64 16 66 21 68 22 69 23 70 24 71 32 72 25 73 30 74
REMARK SMILES IDX 26 75 28 76 31 77 27 79 29 81
REMARK H PARENT 62 18 64 20 66 22 57 33 53 35 55 37 44 48 40 50 42 52 18 63
REMARK H PARENT 14 65 16 67 31 78 27 80 29 82
REMARK Flexibility Score: inf
ROOT
ATOM      1  C   UNL     1      15.204   6.622  16.753  1.00  0.00     0.205 C 
ATOM      2  C   UNL     1      16.581   6.359  17.446  1.00  0.00     0.254 C 
ATOM      3  C   UNL     1      17.517   5.595  16.489  1.00  0.00     0.267 C 
ATOM      4  C   UNL     1      16.786   4.343  15.971  1.00  0.00     0.290 C 
ATOM      5  C   UNL     1      15.392   4.720  15.393  1.00  0.00     0.357 C 
ATOM      6  O   UNL     1      15.178   6.124  15.426  1.00  0.00    -0.329 OA
ENDROOT
BRANCH   1   7
ATOM      7  C   UNL     1      14.876   8.125  16.689  1.00  0.00     0.269 C 
BRANCH   7   8
ATOM      8  O   UNL     1      13.749   8.422  17.517  1.00  0.00    -0.459 OA
BRANCH   8   9
ATOM      9  C   UNL     1      13.134   9.687  17.579  1.00  0.00     0.338 C 
ATOM     10  O   UNL     1      13.637  10.577  18.316  1.00  0.00    -0.246 OA
BRANCH   9  11
ATOM     11  C   UNL     1      11.925  10.004  16.797  1.00  0.00     0.067 A 
ATOM     12  C   UNL     1      10.878  10.732  17.381  1.00  0.00     0.066 A 
ATOM     13  C   UNL     1       9.694  10.960  16.675  1.00  0.00     0.162 A 
ATOM     14  C   UNL     1      11.787   9.516  15.492  1.00  0.00     0.066 A 
ATOM     15  C   UNL     1       9.548  10.460  15.367  1.00  0.00     0.200 A 
ATOM     16  C   UNL     1      10.597   9.729  14.779  1.00  0.00     0.162 A 
BRANCH  13  17
ATOM     17  O   UNL     1       8.670  11.679  17.290  1.00  0.00    -0.504 OA
ATOM     18  H   UNL     1       8.582  11.735  18.300  1.00  0.00     0.293 HD
ENDBRANCH  13  17
BRANCH  15  19
ATOM     19  O   UNL     1       8.363  10.695  14.667  1.00  0.00    -0.502 OA
ATOM     20  H   UNL     1       8.045  10.088  13.924  1.00  0.00     0.293 HD
ENDBRANCH  15  19
BRANCH  16  21
ATOM     21  O   UNL     1      10.455   9.212  13.493  1.00  0.00    -0.504 OA
ATOM     22  H   UNL     1      11.040   8.454  13.160  1.00  0.00     0.293 HD
ENDBRANCH  16  21
ENDBRANCH   9  11
ENDBRANCH   8   9
ENDBRANCH   7   8
ENDBRANCH   1   7
BRANCH   2  23
ATOM     23  O   UNL     1      16.380   5.573  18.623  1.00  0.00    -0.452 OA
BRANCH  23  24
ATOM     24  C   UNL     1      16.374   6.123  19.910  1.00  0.00     0.338 C 
ATOM     25  O   UNL     1      17.354   5.933  20.682  1.00  0.00    -0.246 OA
BRANCH  24  26
ATOM     26  C   UNL     1      15.200   6.891  20.379  1.00  0.00     0.067 A 
ATOM     27  C   UNL     1      13.937   6.284  20.475  1.00  0.00     0.066 A 
ATOM     28  C   UNL     1      15.327   8.257  20.684  1.00  0.00     0.066 A 
ATOM     29  C   UNL     1      12.817   7.024  20.868  1.00  0.00     0.162 A 
ATOM     30  C   UNL     1      14.210   9.008  21.068  1.00  0.00     0.162 A 
ATOM     31  C   UNL     1      12.950   8.392  21.165  1.00  0.00     0.200 A 
BRANCH  29  32
ATOM     32  O   UNL     1      11.582   6.384  20.954  1.00  0.00    -0.504 OA
ATOM     33  H   UNL     1      11.473   5.395  20.768  1.00  0.00     0.293 HD
ENDBRANCH  29  32
BRANCH  30  34
ATOM     34  O   UNL     1      14.345  10.367  21.346  1.00  0.00    -0.504 OA
ATOM     35  H   UNL     1      13.591  10.902  21.761  1.00  0.00     0.293 HD
ENDBRANCH  30  34
BRANCH  31  36
ATOM     36  O   UNL     1      11.824   9.127  21.544  1.00  0.00    -0.502 OA
ATOM     37  H   UNL     1      11.201   8.817  22.279  1.00  0.00     0.293 HD
ENDBRANCH  31  36
ENDBRANCH  24  26
ENDBRANCH  23  24
ENDBRANCH   2  23
BRANCH   3  38
ATOM     38  O   UNL     1      17.850   6.415  15.370  1.00  0.00    -0.450 OA
BRANCH  38  39
ATOM     39  C   UNL     1      18.978   7.236  15.290  1.00  0.00     0.338 C 
ATOM     40  O   UNL     1      20.036   6.822  14.741  1.00  0.00    -0.246 OA
BRANCH  39  41
ATOM     41  C   UNL     1      18.905   8.598  15.855  1.00  0.00     0.067 A 
ATOM     42  C   UNL     1      17.810   9.419  15.536  1.00  0.00     0.066 A 
ATOM     43  C   UNL     1      19.908   9.089  16.708  1.00  0.00     0.066 A 
ATOM     44  C   UNL     1      17.709  10.708  16.071  1.00  0.00     0.162 A 
ATOM     45  C   UNL     1      19.818  10.387  17.232  1.00  0.00     0.162 A 
ATOM     46  C   UNL     1      18.705  11.190  16.926  1.00  0.00     0.200 A 
BRANCH  44  47
ATOM     47  O   UNL     1      16.615  11.516  15.761  1.00  0.00    -0.504 OA
ATOM     48  H   UNL     1      15.830  11.609  16.395  1.00  0.00     0.293 HD
ENDBRANCH  44  47
BRANCH  45  49
ATOM     49  O   UNL     1      20.838  10.893  18.039  1.00  0.00    -0.504 OA
ATOM     50  H   UNL     1      21.330  10.318  18.713  1.00  0.00     0.293 HD
ENDBRANCH  45  49
BRANCH  46  51
ATOM     51  O   UNL     1      18.582  12.477  17.455  1.00  0.00    -0.502 OA
ATOM     52  H   UNL     1      18.804  12.677  18.420  1.00  0.00     0.293 HD
ENDBRANCH  46  51
ENDBRANCH  39  41
ENDBRANCH  38  39
ENDBRANCH   3  38
BRANCH   5  53
ATOM     53  O   UNL     1      15.288   4.295  14.033  1.00  0.00    -0.428 OA
BRANCH  53  54
ATOM     54  C   UNL     1      14.114   3.722  13.529  1.00  0.00     0.340 C 
ATOM     55  O   UNL     1      13.584   4.189  12.483  1.00  0.00    -0.246 OA
BRANCH  54  56
ATOM     56  C   UNL     1      13.539   2.528  14.183  1.00  0.00     0.067 A 
ATOM     57  C   UNL     1      13.741   1.250  13.643  1.00  0.00     0.066 A 
ATOM     58  C   UNL     1      12.844   2.656  15.396  1.00  0.00     0.066 A 
ATOM     59  C   UNL     1      13.272   0.112  14.312  1.00  0.00     0.162 A 
ATOM     60  C   UNL     1      12.363   1.527  16.071  1.00  0.00     0.162 A 
ATOM     61  C   UNL     1      12.576   0.240  15.523  1.00  0.00     0.200 A 
BRANCH  59  62
ATOM     62  O   UNL     1      13.510  -1.156  13.782  1.00  0.00    -0.504 OA
ATOM     63  H   UNL     1      14.346  -1.677  14.015  1.00  0.00     0.293 HD
ENDBRANCH  59  62
BRANCH  60  64
ATOM     64  O   UNL     1      11.695   1.733  17.281  1.00  0.00    -0.504 OA
ATOM     65  H   UNL     1      11.264   1.000  17.824  1.00  0.00     0.293 HD
ENDBRANCH  60  64
BRANCH  61  66
ATOM     66  O   UNL     1      12.123  -0.925  16.144  1.00  0.00    -0.502 OA
ATOM     67  H   UNL     1      12.664  -1.778  16.201  1.00  0.00     0.293 HD
ENDBRANCH  61  66
ENDBRANCH  54  56
ENDBRANCH  53  54
ENDBRANCH   5  53
BRANCH   4  68
ATOM     68  O   UNL     1      17.600   3.697  14.990  1.00  0.00    -0.448 OA
BRANCH  68  69
ATOM     69  C   UNL     1      18.524   2.696  15.312  1.00  0.00     0.339 C 
ATOM     70  O   UNL     1      19.562   2.984  15.971  1.00  0.00    -0.246 OA
BRANCH  69  71
ATOM     71  C   UNL     1      18.296   1.309  14.858  1.00  0.00     0.067 A 
ATOM     72  C   UNL     1      17.341   1.036  13.868  1.00  0.00     0.066 A 
ATOM     73  C   UNL     1      19.060   0.254  15.378  1.00  0.00     0.066 A 
ATOM     74  C   UNL     1      17.155  -0.268  13.387  1.00  0.00     0.162 A 
ATOM     75  C   UNL     1      18.880  -1.054  14.914  1.00  0.00     0.162 A 
ATOM     76  C   UNL     1      17.934  -1.325  13.915  1.00  0.00     0.200 A 
BRANCH  74  77
ATOM     77  O   UNL     1      16.196  -0.462  12.389  1.00  0.00    -0.504 OA
ATOM     78  H   UNL     1      15.689  -1.325  12.254  1.00  0.00     0.293 HD
ENDBRANCH  74  77
BRANCH  75  79
ATOM     79  O   UNL     1      19.644  -2.093  15.442  1.00  0.00    -0.504 OA
ATOM     80  H   UNL     1      20.347  -2.569  14.889  1.00  0.00     0.293 HD
ENDBRANCH  75  79
BRANCH  76  81
ATOM     81  O   UNL     1      17.806  -2.645  13.477  1.00  0.00    -0.502 OA
ATOM     82  H   UNL     1      18.585  -3.270  13.324  1.00  0.00     0.293 HD
ENDBRANCH  76  81
ENDBRANCH  69  71
ENDBRANCH  68  69
ENDBRANCH   4  68
TORSDOF 31
ENDMDL
MODEL 2
REMARK VINA RESULT:    -7.558      0.993      1.764
REMARK INTER + INTRA:         -23.027
REMARK INTER:                 -18.135
REMARK INTRA:                  -4.892
REMARK UNBOUND:                -5.085
REMARK SMILES O=C(OC[C@H]1O[C@@H](OC(=O)c2cc(O)c(O)c(O)c2)[C@@H](OC(=O)c2cc(O)c(O)c(O)c2)[C@@H](OC(=O)c2cc(O)c(O)c(O)c2)[C@@H]1OC(=O)c1cc(O)c(O)c(O)c1)c1cc(O)c(O)c(O)c1
REMARK SMILES IDX 5 1 46 2 33 3 20 4 7 5 6 6 4 7 3 8 2 9 1 10 59 11 60 12
REMARK SMILES IDX 61 13 67 14 63 15 65 16 62 17 64 19 66 21 47 23 48 24 49 25
REMARK SMILES IDX 50 26 58 27 51 28 56 29 52 30 54 31 57 32 53 34 55 36 34 38
REMARK SMILES IDX 35 39 36 40 37 41 45 42 38 43 43 44 39 45 41 46 44 47 40 49
REMARK SMILES IDX 42 51 8 53 9 54 10 55 11 56 19 57 12 58 17 59 13 60 15 61
REMARK SMILES IDX 18 62 14 64 16 66 21 68 22 69 23 70 24 71 32 72 25 73 30 74
REMARK SMILES IDX 26 75 28 76 31 77 27 79 29 81
REMARK H PARENT 62 18 64 20 66 22 57 33 53 35 55 37 44 48 40 50 42 52 18 63
REMARK H PARENT 14 65 16 67 31 78 27 80 29 82
REMARK Flexibility Score: inf
ROOT
ATOM      1  C   UNL     1      15.396   6.137  16.655  1.00  0.00     0.205 C 
ATOM      2  C   UNL     1      16.795   5.954  17.330  1.00  0.00     0.254 C 
ATOM      3  C   UNL     1      17.715   5.114  16.422  1.00  0.00     0.267 C 
ATOM      4  C   UNL     1      16.986   3.812  16.043  1.00  0.00     0.290 C 
ATOM      5  C   UNL     1      15.572   4.119  15.472  1.00  0.00     0.357 C 
ATOM      6  O   UNL     1      15.341   5.518  15.381  1.00  0.00    -0.329 OA
ENDROOT
BRANCH   1   7
ATOM      7  C   UNL     1      15.048   7.624  16.462  1.00  0.00     0.269 C 
BRANCH   7   8
ATOM      8  O   UNL     1      14.151   8.061  17.485  1.00  0.00    -0.459 OA
BRANCH   8   9
ATOM      9  C   UNL     1      13.653   9.374  17.584  1.00  0.00     0.338 C 
ATOM     10  O   UNL     1      14.345  10.248  18.173  1.00  0.00    -0.246 OA
BRANCH   9  11
ATOM     11  C   UNL     1      12.352   9.760  17.008  1.00  0.00     0.067 A 
ATOM     12  C   UNL     1      12.037   9.415  15.685  1.00  0.00     0.066 A 
ATOM     13  C   UNL     1      10.844   9.852  15.105  1.00  0.00     0.162 A 
ATOM     14  C   UNL     1      11.457  10.534  17.755  1.00  0.00     0.066 A 
ATOM     15  C   UNL     1       9.947  10.642  15.850  1.00  0.00     0.200 A 
ATOM     16  C   UNL     1      10.261  10.988  17.178  1.00  0.00     0.162 A 
BRANCH  13  17
ATOM     17  O   UNL     1      10.567   9.500  13.785  1.00  0.00    -0.504 OA
ATOM     18  H   UNL     1      11.254   9.042  13.194  1.00  0.00     0.293 HD
ENDBRANCH  13  17
BRANCH  15  19
ATOM     19  O   UNL     1       8.756  11.072  15.264  1.00  0.00    -0.502 OA
ATOM     20  H   UNL     1       7.953  11.350  15.813  1.00  0.00     0.293 HD
ENDBRANCH  15  19
BRANCH  16  21
ATOM     21  O   UNL     1       9.391  11.786  17.918  1.00  0.00    -0.504 OA
ATOM     22  H   UNL     1       9.733  12.426  18.626  1.00  0.00     0.293 HD
ENDBRANCH  16  21
ENDBRANCH   9  11
ENDBRANCH   8   9
ENDBRANCH   7   8
ENDBRANCH   1   7
BRANCH   2  23
ATOM     23  O   UNL     1      16.636   5.279  18.580  1.00  0.00    -0.452 OA
BRANCH  23  24
ATOM     24  C   UNL     1      16.697   5.940  19.812  1.00  0.00     0.338 C 
ATOM     25  O   UNL     1      17.744   5.871  20.515  1.00  0.00    -0.246 OA
BRANCH  24  26
ATOM     26  C   UNL     1      15.520   6.686  20.308  1.00  0.00     0.067 A 
ATOM     27  C   UNL     1      14.264   6.063  20.404  1.00  0.00     0.066 A 
ATOM     28  C   UNL     1      15.635   8.046  20.641  1.00  0.00     0.066 A 
ATOM     29  C   UNL     1      13.140   6.781  20.823  1.00  0.00     0.162 A 
ATOM     30  C   UNL     1      14.513   8.776  21.051  1.00  0.00     0.162 A 
ATOM     31  C   UNL     1      13.261   8.144  21.148  1.00  0.00     0.200 A 
BRANCH  29  32
ATOM     32  O   UNL     1      11.913   6.127  20.908  1.00  0.00    -0.504 OA
ATOM     33  H   UNL     1      11.688   5.499  21.670  1.00  0.00     0.293 HD
ENDBRANCH  29  32
BRANCH  30  34
ATOM     34  O   UNL     1      14.636  10.131  21.357  1.00  0.00    -0.504 OA
ATOM     35  H   UNL     1      14.204  10.846  20.785  1.00  0.00     0.293 HD
ENDBRANCH  30  34
BRANCH  31  36
ATOM     36  O   UNL     1      12.131   8.859  21.553  1.00  0.00    -0.502 OA
ATOM     37  H   UNL     1      11.998   9.158  22.512  1.00  0.00     0.293 HD
ENDBRANCH  31  36
ENDBRANCH  24  26
ENDBRANCH  23  24
ENDBRANCH   2  23
BRANCH   3  38
ATOM     38  O   UNL     1      18.006   5.830  15.223  1.00  0.00    -0.450 OA
BRANCH  38  39
ATOM     39  C   UNL     1      18.786   6.987  15.154  1.00  0.00     0.338 C 
ATOM     40  O   UNL     1      20.039   6.912  15.037  1.00  0.00    -0.246 OA
BRANCH  39  41
ATOM     41  C   UNL     1      18.113   8.300  15.215  1.00  0.00     0.067 A 
ATOM     42  C   UNL     1      18.098   9.011  16.428  1.00  0.00     0.066 A 
ATOM     43  C   UNL     1      17.490   8.855  14.085  1.00  0.00     0.066 A 
ATOM     44  C   UNL     1      17.481  10.265  16.509  1.00  0.00     0.162 A 
ATOM     45  C   UNL     1      16.856  10.103  14.167  1.00  0.00     0.162 A 
ATOM     46  C   UNL     1      16.869  10.817  15.380  1.00  0.00     0.200 A 
BRANCH  44  47
ATOM     47  O   UNL     1      17.478  10.971  17.711  1.00  0.00    -0.504 OA
ATOM     48  H   UNL     1      18.108  10.729  18.468  1.00  0.00     0.293 HD
ENDBRANCH  44  47
BRANCH  45  49
ATOM     49  O   UNL     1      16.194  10.632  13.059  1.00  0.00    -0.504 OA
ATOM     50  H   UNL     1      15.190  10.773  13.044  1.00  0.00     0.293 HD
ENDBRANCH  45  49
BRANCH  46  51
ATOM     51  O   UNL     1      16.265  12.072  15.479  1.00  0.00    -0.502 OA
ATOM     52  H   UNL     1      16.712  12.839  15.963  1.00  0.00     0.293 HD
ENDBRANCH  46  51
ENDBRANCH  39  41
ENDBRANCH  38  39
ENDBRANCH   3  38
BRANCH   5  53
ATOM     53  O   UNL     1      15.436   3.569  14.161  1.00  0.00    -0.428 OA
BRANCH  53  54
ATOM     54  C   UNL     1      14.192   3.484  13.524  1.00  0.00     0.340 C 
ATOM     55  O   UNL     1      13.955   4.196  12.509  1.00  0.00    -0.246 OA
BRANCH  54  56
ATOM     56  C   UNL     1      13.187   2.509  13.999  1.00  0.00     0.067 A 
ATOM     57  C   UNL     1      12.701   1.509  13.146  1.00  0.00     0.066 A 
ATOM     58  C   UNL     1      12.763   2.532  15.337  1.00  0.00     0.066 A 
ATOM     59  C   UNL     1      11.818   0.533  13.623  1.00  0.00     0.162 A 
ATOM     60  C   UNL     1      11.873   1.568  15.825  1.00  0.00     0.162 A 
ATOM     61  C   UNL     1      11.392   0.557  14.959  1.00  0.00     0.200 A 
BRANCH  59  62
ATOM     62  O   UNL     1      11.370  -0.477  12.772  1.00  0.00    -0.504 OA
ATOM     63  H   UNL     1      12.018  -1.071  12.270  1.00  0.00     0.293 HD
ENDBRANCH  59  62
BRANCH  60  64
ATOM     64  O   UNL     1      11.509   1.645  17.172  1.00  0.00    -0.504 OA
ATOM     65  H   UNL     1      11.598   0.886  17.830  1.00  0.00     0.293 HD
ENDBRANCH  60  64
BRANCH  61  66
ATOM     66  O   UNL     1      10.504  -0.434  15.382  1.00  0.00    -0.502 OA
ATOM     67  H   UNL     1      10.595  -1.411  15.135  1.00  0.00     0.293 HD
ENDBRANCH  61  66
ENDBRANCH  54  56
ENDBRANCH  53  54
ENDBRANCH   5  53
BRANCH   4  68
ATOM     68  O   UNL     1      17.781   3.086  15.103  1.00  0.00    -0.448 OA
BRANCH  68  69
ATOM     69  C   UNL     1      18.397   1.867  15.414  1.00  0.00     0.339 C 
ATOM     70  O   UNL     1      19.340   1.833  16.253  1.00  0.00    -0.246 OA
BRANCH  69  71
ATOM     71  C   UNL     1      17.959   0.627  14.740  1.00  0.00     0.067 A 
ATOM     72  C   UNL     1      16.910   0.660  13.810  1.00  0.00     0.066 A 
ATOM     73  C   UNL     1      18.614  -0.588  14.990  1.00  0.00     0.066 A 
ATOM     74  C   UNL     1      16.523  -0.499  13.122  1.00  0.00     0.162 A 
ATOM     75  C   UNL     1      18.233  -1.754  14.316  1.00  0.00     0.162 A 
ATOM     76  C   UNL     1      17.193  -1.720  13.376  1.00  0.00     0.200 A 
BRANCH  74  77
ATOM     77  O   UNL     1      15.481  -0.388  12.198  1.00  0.00    -0.504 OA
ATOM     78  H   UNL     1      15.496   0.232  11.401  1.00  0.00     0.293 HD
ENDBRANCH  74  77
BRANCH  75  79
ATOM     79  O   UNL     1      18.890  -2.956  14.575  1.00  0.00    -0.504 OA
ATOM     80  H   UNL     1      19.736  -2.990  15.131  1.00  0.00     0.293 HD
ENDBRANCH  75  79
BRANCH  76  81
ATOM     81  O   UNL     1      16.864  -2.909  12.722  1.00  0.00    -0.502 OA
ATOM     82  H   UNL     1      16.442  -3.707  13.175  1.00  0.00     0.293 HD
ENDBRANCH  76  81
ENDBRANCH  69  71
ENDBRANCH  68  69
ENDBRANCH   4  68
TORSDOF 31
ENDMDL
MODEL 3
REMARK VINA RESULT:    -7.547      0.525      2.089
REMARK INTER + INTRA:         -23.002
REMARK INTER:                 -18.319
REMARK INTRA:                  -4.683
REMARK UNBOUND:                -5.085
REMARK SMILES O=C(OC[C@H]1O[C@@H](OC(=O)c2cc(O)c(O)c(O)c2)[C@@H](OC(=O)c2cc(O)c(O)c(O)c2)[C@@H](OC(=O)c2cc(O)c(O)c(O)c2)[C@@H]1OC(=O)c1cc(O)c(O)c(O)c1)c1cc(O)c(O)c(O)c1
REMARK SMILES IDX 5 1 46 2 33 3 20 4 7 5 6 6 4 7 3 8 2 9 1 10 59 11 60 12
REMARK SMILES IDX 61 13 67 14 63 15 65 16 62 17 64 19 66 21 47 23 48 24 49 25
REMARK SMILES IDX 50 26 58 27 51 28 56 29 52 30 54 31 57 32 53 34 55 36 34 38
REMARK SMILES IDX 35 39 36 40 37 41 45 42 38 43 43 44 39 45 41 46 44 47 40 49
REMARK SMILES IDX 42 51 8 53 9 54 10 55 11 56 19 57 12 58 17 59 13 60 15 61
REMARK SMILES IDX 18 62 14 64 16 66 21 68 22 69 23 70 24 71 32 72 25 73 30 74
REMARK SMILES IDX 26 75 28 76 31 77 27 79 29 81
REMARK H PARENT 62 18 64 20 66 22 57 33 53 35 55 37 44 48 40 50 42 52 18 63
REMARK H PARENT 14 65 16 67 31 78 27 80 29 82
REMARK Flexibility Score: inf
ROOT
ATOM      1  C   UNL     1      15.210   6.501  16.707  1.00  0.00     0.205 C 
ATOM      2  C   UNL     1      16.569   6.307  17.455  1.00  0.00     0.254 C 
ATOM      3  C   UNL     1      17.559   5.532  16.563  1.00  0.00     0.267 C 
ATOM      4  C   UNL     1      16.881   4.240  16.074  1.00  0.00     0.290 C 
ATOM      5  C   UNL     1      15.498   4.552  15.434  1.00  0.00     0.357 C 
ATOM      6  O   UNL     1      15.244   5.949  15.401  1.00  0.00    -0.329 OA
ENDROOT
BRANCH   1   7
ATOM      7  C   UNL     1      14.843   7.990  16.569  1.00  0.00     0.269 C 
BRANCH   7   8
ATOM      8  O   UNL     1      13.736   8.308  17.415  1.00  0.00    -0.459 OA
BRANCH   8   9
ATOM      9  C   UNL     1      13.157   9.589  17.501  1.00  0.00     0.338 C 
ATOM     10  O   UNL     1      13.700  10.457  18.236  1.00  0.00    -0.246 OA
BRANCH   9  11
ATOM     11  C   UNL     1      11.943   9.947  16.746  1.00  0.00     0.067 A 
ATOM     12  C   UNL     1      10.920  10.681  17.365  1.00  0.00     0.066 A 
ATOM     13  C   UNL     1       9.729  10.948  16.684  1.00  0.00     0.162 A 
ATOM     14  C   UNL     1      11.774   9.494  15.433  1.00  0.00     0.066 A 
ATOM     15  C   UNL     1       9.552  10.482  15.367  1.00  0.00     0.200 A 
ATOM     16  C   UNL     1      10.577   9.746  14.745  1.00  0.00     0.162 A 
BRANCH  13  17
ATOM     17  O   UNL     1       8.729  11.672  17.332  1.00  0.00    -0.504 OA
ATOM     18  H   UNL     1       8.129  12.325  16.838  1.00  0.00     0.293 HD
ENDBRANCH  13  17
BRANCH  15  19
ATOM     19  O   UNL     1       8.361  10.756  14.693  1.00  0.00    -0.502 OA
ATOM     20  H   UNL     1       7.660  11.383  15.066  1.00  0.00     0.293 HD
ENDBRANCH  15  19
BRANCH  16  21
ATOM     21  O   UNL     1      10.405   9.263  13.450  1.00  0.00    -0.504 OA
ATOM     22  H   UNL     1      10.338   8.269  13.261  1.00  0.00     0.293 HD
ENDBRANCH  16  21
ENDBRANCH   9  11
ENDBRANCH   8   9
ENDBRANCH   7   8
ENDBRANCH   1   7
BRANCH   2  23
ATOM     23  O   UNL     1      16.349   5.565  18.657  1.00  0.00    -0.452 OA
BRANCH  23  24
ATOM     24  C   UNL     1      16.293   6.165  19.920  1.00  0.00     0.338 C 
ATOM     25  O   UNL     1      17.244   6.011  20.735  1.00  0.00    -0.246 OA
BRANCH  24  26
ATOM     26  C   UNL     1      15.100   6.946  20.313  1.00  0.00     0.067 A 
ATOM     27  C   UNL     1      15.210   8.309  20.638  1.00  0.00     0.066 A 
ATOM     28  C   UNL     1      13.847   6.318  20.416  1.00  0.00     0.066 A 
ATOM     29  C   UNL     1      14.092   9.035  21.061  1.00  0.00     0.162 A 
ATOM     30  C   UNL     1      12.725   7.034  20.848  1.00  0.00     0.162 A 
ATOM     31  C   UNL     1      12.842   8.398  21.169  1.00  0.00     0.200 A 
BRANCH  29  32
ATOM     32  O   UNL     1      14.241  10.385  21.372  1.00  0.00    -0.504 OA
ATOM     33  H   UNL     1      14.062  11.117  20.696  1.00  0.00     0.293 HD
ENDBRANCH  29  32
BRANCH  30  34
ATOM     34  O   UNL     1      11.492   6.393  20.968  1.00  0.00    -0.504 OA
ATOM     35  H   UNL     1      11.213   5.657  20.332  1.00  0.00     0.293 HD
ENDBRANCH  30  34
BRANCH  31  36
ATOM     36  O   UNL     1      11.733   9.126  21.604  1.00  0.00    -0.502 OA
ATOM     37  H   UNL     1      10.910   8.677  21.987  1.00  0.00     0.293 HD
ENDBRANCH  31  36
ENDBRANCH  24  26
ENDBRANCH  23  24
ENDBRANCH   2  23
BRANCH   3  38
ATOM     38  O   UNL     1      17.907   6.315  15.423  1.00  0.00    -0.450 OA
BRANCH  38  39
ATOM     39  C   UNL     1      19.003   7.179  15.352  1.00  0.00     0.338 C 
ATOM     40  O   UNL     1      20.090   6.797  14.838  1.00  0.00    -0.246 OA
BRANCH  39  41
ATOM     41  C   UNL     1      18.863   8.548  15.885  1.00  0.00     0.067 A 
ATOM     42  C   UNL     1      19.847   9.055  16.752  1.00  0.00     0.066 A 
ATOM     43  C   UNL     1      17.767   9.358  15.541  1.00  0.00     0.066 A 
ATOM     44  C   UNL     1      19.746  10.355  17.259  1.00  0.00     0.162 A 
ATOM     45  C   UNL     1      17.655  10.655  16.061  1.00  0.00     0.162 A 
ATOM     46  C   UNL     1      18.658  11.160  16.908  1.00  0.00     0.200 A 
BRANCH  44  47
ATOM     47  O   UNL     1      20.730  10.858  18.111  1.00  0.00    -0.504 OA
ATOM     48  H   UNL     1      21.637  10.412  18.191  1.00  0.00     0.293 HD
ENDBRANCH  44  47
BRANCH  45  49
ATOM     49  O   UNL     1      16.541  11.441  15.759  1.00  0.00    -0.504 OA
ATOM     50  H   UNL     1      15.613  11.216  16.097  1.00  0.00     0.293 HD
ENDBRANCH  45  49
BRANCH  46  51
ATOM     51  O   UNL     1      18.579  12.458  17.419  1.00  0.00    -0.502 OA
ATOM     52  H   UNL     1      17.691  12.890  17.635  1.00  0.00     0.293 HD
ENDBRANCH  46  51
ENDBRANCH  39  41
ENDBRANCH  38  39
ENDBRANCH   3  38
BRANCH   5  53
ATOM     53  O   UNL     1      15.453   4.069  14.091  1.00  0.00    -0.428 OA
BRANCH  53  54
ATOM     54  C   UNL     1      14.243   3.744  13.466  1.00  0.00     0.340 C 
ATOM     55  O   UNL     1      13.923   4.306  12.382  1.00  0.00    -0.246 OA
BRANCH  54  56
ATOM     56  C   UNL     1      13.377   2.691  14.040  1.00  0.00     0.067 A 
ATOM     57  C   UNL     1      13.017   2.722  15.394  1.00  0.00     0.066 A 
ATOM     58  C   UNL     1      12.848   1.689  13.214  1.00  0.00     0.066 A 
ATOM     59  C   UNL     1      12.125   1.776  15.915  1.00  0.00     0.162 A 
ATOM     60  C   UNL     1      11.962   0.731  13.723  1.00  0.00     0.162 A 
ATOM     61  C   UNL     1      11.597   0.773  15.090  1.00  0.00     0.200 A 
BRANCH  59  62
ATOM     62  O   UNL     1      11.747   1.839  17.256  1.00  0.00    -0.504 OA
ATOM     63  H   UNL     1      11.252   2.640  17.629  1.00  0.00     0.293 HD
ENDBRANCH  59  62
BRANCH  60  64
ATOM     64  O   UNL     1      11.464  -0.226  12.836  1.00  0.00    -0.504 OA
ATOM     65  H   UNL     1      10.483  -0.413  12.693  1.00  0.00     0.293 HD
ENDBRANCH  60  64
BRANCH  61  66
ATOM     66  O   UNL     1      10.720  -0.151  15.660  1.00  0.00    -0.502 OA
ATOM     67  H   UNL     1      10.223  -0.855  15.130  1.00  0.00     0.293 HD
ENDBRANCH  61  66
ENDBRANCH  54  56
ENDBRANCH  53  54
ENDBRANCH   5  53
BRANCH   4  68
ATOM     68  O   UNL     1      17.746   3.578  15.149  1.00  0.00    -0.448 OA
BRANCH  68  69
ATOM     69  C   UNL     1      18.457   2.416  15.474  1.00  0.00     0.339 C 
ATOM     70  O   UNL     1      19.405   2.469  16.305  1.00  0.00    -0.246 OA
BRANCH  69  71
ATOM     71  C   UNL     1      18.113   1.135  14.823  1.00  0.00     0.067 A 
ATOM     72  C   UNL     1      18.814  -0.035  15.148  1.00  0.00     0.066 A 
ATOM     73  C   UNL     1      17.053   1.064  13.907  1.00  0.00     0.066 A 
ATOM     74  C   UNL     1      18.459  -1.267  14.581  1.00  0.00     0.162 A 
ATOM     75  C   UNL     1      16.693  -0.157  13.328  1.00  0.00     0.162 A 
ATOM     76  C   UNL     1      17.385  -1.330  13.662  1.00  0.00     0.200 A 
BRANCH  74  77
ATOM     77  O   UNL     1      19.192  -2.393  14.964  1.00  0.00    -0.504 OA
ATOM     78  H   UNL     1      19.327  -3.205  14.378  1.00  0.00     0.293 HD
ENDBRANCH  74  77
BRANCH  75  79
ATOM     79  O   UNL     1      15.639  -0.214  12.416  1.00  0.00    -0.504 OA
ATOM     80  H   UNL     1      15.025   0.577  12.264  1.00  0.00     0.293 HD
ENDBRANCH  75  79
BRANCH  76  81
ATOM     81  O   UNL     1      16.975  -2.524  13.065  1.00  0.00    -0.502 OA
ATOM     82  H   UNL     1      17.076  -3.435  13.492  1.00  0.00     0.293 HD
ENDBRANCH  76  81
ENDBRANCH  69  71
ENDBRANCH  68  69
ENDBRANCH   4  68
TORSDOF 31
ENDMDL
MODEL 4
REMARK VINA RESULT:    -7.150      1.992      4.009
REMARK INTER + INTRA:         -22.058
REMARK INTER:                 -16.832
REMARK INTRA:                  -5.227
REMARK UNBOUND:                -5.085
REMARK SMILES O=C(OC[C@H]1O[C@@H](OC(=O)c2cc(O)c(O)c(O)c2)[C@@H](OC(=O)c2cc(O)c(O)c(O)c2)[C@@H](OC(=O)c2cc(O)c(O)c(O)c2)[C@@H]1OC(=O)c1cc(O)c(O)c(O)c1)c1cc(O)c(O)c(O)c1
REMARK SMILES IDX 5 1 46 2 33 3 20 4 7 5 6 6 4 7 3 8 2 9 1 10 59 11 60 12
REMARK SMILES IDX 61 13 67 14 63 15 65 16 62 17 64 19 66 21 47 23 48 24 49 25
REMARK SMILES IDX 50 26 58 27 51 28 56 29 52 30 54 31 57 32 53 34 55 36 34 38
REMARK SMILES IDX 35 39 36 40 37 41 45 42 38 43 43 44 39 45 41 46 44 47 40 49
REMARK SMILES IDX 42 51 8 53 9 54 10 55 11 56 19 57 12 58 17 59 13 60 15 61
REMARK SMILES IDX 18 62 14 64 16 66 21 68 22 69 23 70 24 71 32 72 25 73 30 74
REMARK SMILES IDX 26 75 28 76 31 77 27 79 29 81
REMARK H PARENT 62 18 64 20 66 22 57 33 53 35 55 37 44 48 40 50 42 52 18 63
REMARK H PARENT 14 65 16 67 31 78 27 80 29 82
REMARK Flexibility Score: inf
ROOT
ATOM      1  C   UNL     1      15.644   6.533  18.618  1.00  0.00     0.205 C 
ATOM      2  C   UNL     1      17.147   6.415  18.204  1.00  0.00     0.254 C 
ATOM      3  C   UNL     1      17.271   5.647  16.873  1.00  0.00     0.267 C 
ATOM      4  C   UNL     1      16.511   4.315  16.995  1.00  0.00     0.290 C 
ATOM      5  C   UNL     1      15.060   4.553  17.503  1.00  0.00     0.357 C 
ATOM      6  O   UNL     1      14.785   5.938  17.659  1.00  0.00    -0.329 OA
ENDROOT
BRANCH   1   7
ATOM      7  C   UNL     1      15.210   8.002  18.777  1.00  0.00     0.269 C 
BRANCH   7   8
ATOM      8  O   UNL     1      14.080   8.278  17.947  1.00  0.00    -0.459 OA
BRANCH   8   9
ATOM      9  C   UNL     1      13.487   9.549  17.826  1.00  0.00     0.338 C 
ATOM     10  O   UNL     1      14.088  10.552  18.298  1.00  0.00    -0.246 OA
BRANCH   9  11
ATOM     11  C   UNL     1      12.190   9.743  17.152  1.00  0.00     0.067 A 
ATOM     12  C   UNL     1      11.944   9.139  15.911  1.00  0.00     0.066 A 
ATOM     13  C   UNL     1      10.752   9.389  15.226  1.00  0.00     0.162 A 
ATOM     14  C   UNL     1      11.228  10.590  17.715  1.00  0.00     0.066 A 
ATOM     15  C   UNL     1       9.788  10.251  15.783  1.00  0.00     0.200 A 
ATOM     16  C   UNL     1      10.033  10.858  17.029  1.00  0.00     0.162 A 
BRANCH  13  17
ATOM     17  O   UNL     1      10.544   8.780  13.989  1.00  0.00    -0.504 OA
ATOM     18  H   UNL     1      11.297   8.333  13.475  1.00  0.00     0.293 HD
ENDBRANCH  13  17
BRANCH  15  19
ATOM     19  O   UNL     1       8.599  10.493  15.094  1.00  0.00    -0.502 OA
ATOM     20  H   UNL     1       7.982  11.259  15.333  1.00  0.00     0.293 HD
ENDBRANCH  15  19
BRANCH  16  21
ATOM     21  O   UNL     1       9.095  11.728  17.581  1.00  0.00    -0.504 OA
ATOM     22  H   UNL     1       8.139  11.437  17.750  1.00  0.00     0.293 HD
ENDBRANCH  16  21
ENDBRANCH   9  11
ENDBRANCH   8   9
ENDBRANCH   7   8
ENDBRANCH   1   7
BRANCH   2  23
ATOM     23  O   UNL     1      17.865   5.707  19.217  1.00  0.00    -0.452 OA
BRANCH  23  24
ATOM     24  C   UNL     1      19.191   5.288  19.054  1.00  0.00     0.338 C 
ATOM     25  O   UNL     1      20.064   6.101  18.641  1.00  0.00    -0.246 OA
BRANCH  24  26
ATOM     26  C   UNL     1      19.559   3.882  19.328  1.00  0.00     0.067 A 
ATOM     27  C   UNL     1      20.151   3.088  18.331  1.00  0.00     0.066 A 
ATOM     28  C   UNL     1      19.272   3.308  20.578  1.00  0.00     0.066 A 
ATOM     29  C   UNL     1      20.451   1.744  18.574  1.00  0.00     0.162 A 
ATOM     30  C   UNL     1      19.559   1.961  20.826  1.00  0.00     0.162 A 
ATOM     31  C   UNL     1      20.155   1.174  19.825  1.00  0.00     0.200 A 
BRANCH  29  32
ATOM     32  O   UNL     1      21.040   0.991  17.560  1.00  0.00    -0.504 OA
ATOM     33  H   UNL     1      21.762   1.367  16.958  1.00  0.00     0.293 HD
ENDBRANCH  29  32
BRANCH  30  34
ATOM     34  O   UNL     1      19.249   1.398  22.063  1.00  0.00    -0.504 OA
ATOM     35  H   UNL     1      18.954   1.967  22.847  1.00  0.00     0.293 HD
ENDBRANCH  30  34
BRANCH  31  36
ATOM     36  O   UNL     1      20.445  -0.173  20.054  1.00  0.00    -0.502 OA
ATOM     37  H   UNL     1      19.761  -0.904  19.905  1.00  0.00     0.293 HD
ENDBRANCH  31  36
ENDBRANCH  24  26
ENDBRANCH  23  24
ENDBRANCH   2  23
BRANCH   3  38
ATOM     38  O   UNL     1      16.685   6.403  15.815  1.00  0.00    -0.450 OA
BRANCH  38  39
ATOM     39  C   UNL     1      17.373   7.313  15.008  1.00  0.00     0.338 C 
ATOM     40  O   UNL     1      17.683   7.015  13.823  1.00  0.00    -0.246 OA
BRANCH  39  41
ATOM     41  C   UNL     1      17.725   8.633  15.569  1.00  0.00     0.067 A 
ATOM     42  C   UNL     1      16.713   9.588  15.772  1.00  0.00     0.066 A 
ATOM     43  C   UNL     1      19.051   8.953  15.908  1.00  0.00     0.066 A 
ATOM     44  C   UNL     1      17.017  10.840  16.317  1.00  0.00     0.162 A 
ATOM     45  C   UNL     1      19.360  10.213  16.439  1.00  0.00     0.162 A 
ATOM     46  C   UNL     1      18.336  11.152  16.660  1.00  0.00     0.200 A 
BRANCH  44  47
ATOM     47  O   UNL     1      16.009  11.781  16.526  1.00  0.00    -0.504 OA
ATOM     48  H   UNL     1      15.117  11.715  16.047  1.00  0.00     0.293 HD
ENDBRANCH  44  47
BRANCH  45  49
ATOM     49  O   UNL     1      20.683  10.550  16.729  1.00  0.00    -0.504 OA
ATOM     50  H   UNL     1      21.068  10.475  17.664  1.00  0.00     0.293 HD
ENDBRANCH  45  49
BRANCH  46  51
ATOM     51  O   UNL     1      18.618  12.405  17.210  1.00  0.00    -0.502 OA
ATOM     52  H   UNL     1      18.315  12.656  18.141  1.00  0.00     0.293 HD
ENDBRANCH  46  51
ENDBRANCH  39  41
ENDBRANCH  38  39
ENDBRANCH   3  38
BRANCH   5  53
ATOM     53  O   UNL     1      14.115   4.023  16.573  1.00  0.00    -0.428 OA
BRANCH  53  54
ATOM     54  C   UNL     1      13.212   3.016  16.935  1.00  0.00     0.340 C 
ATOM     55  O   UNL     1      12.692   3.020  18.085  1.00  0.00    -0.246 OA
BRANCH  54  56
ATOM     56  C   UNL     1      12.815   1.993  15.944  1.00  0.00     0.067 A 
ATOM     57  C   UNL     1      11.718   1.155  16.183  1.00  0.00     0.066 A 
ATOM     58  C   UNL     1      13.493   1.900  14.719  1.00  0.00     0.066 A 
ATOM     59  C   UNL     1      11.288   0.248  15.206  1.00  0.00     0.162 A 
ATOM     60  C   UNL     1      13.080   0.992  13.737  1.00  0.00     0.162 A 
ATOM     61  C   UNL     1      11.967   0.154  13.982  1.00  0.00     0.200 A 
BRANCH  59  62
ATOM     62  O   UNL     1      10.173  -0.556  15.442  1.00  0.00    -0.504 OA
ATOM     63  H   UNL     1       9.650  -0.493  16.307  1.00  0.00     0.293 HD
ENDBRANCH  59  62
BRANCH  60  64
ATOM     64  O   UNL     1      13.794   0.969  12.536  1.00  0.00    -0.504 OA
ATOM     65  H   UNL     1      14.217   0.142  12.142  1.00  0.00     0.293 HD
ENDBRANCH  60  64
BRANCH  61  66
ATOM     66  O   UNL     1      11.505  -0.773  13.046  1.00  0.00    -0.502 OA
ATOM     67  H   UNL     1      10.575  -0.752  12.648  1.00  0.00     0.293 HD
ENDBRANCH  61  66
ENDBRANCH  54  56
ENDBRANCH  53  54
ENDBRANCH   5  53
BRANCH   4  68
ATOM     68  O   UNL     1      16.517   3.654  15.728  1.00  0.00    -0.448 OA
BRANCH  68  69
ATOM     69  C   UNL     1      17.678   3.117  15.159  1.00  0.00     0.339 C 
ATOM     70  O   UNL     1      18.663   3.867  14.909  1.00  0.00    -0.246 OA
BRANCH  69  71
ATOM     71  C   UNL     1      17.740   1.678  14.828  1.00  0.00     0.067 A 
ATOM     72  C   UNL     1      16.910   1.145  13.831  1.00  0.00     0.066 A 
ATOM     73  C   UNL     1      18.657   0.838  15.475  1.00  0.00     0.066 A 
ATOM     74  C   UNL     1      17.000  -0.207  13.468  1.00  0.00     0.162 A 
ATOM     75  C   UNL     1      18.752  -0.515  15.129  1.00  0.00     0.162 A 
ATOM     76  C   UNL     1      17.932  -1.046  14.123  1.00  0.00     0.200 A 
BRANCH  74  77
ATOM     77  O   UNL     1      16.153  -0.664  12.455  1.00  0.00    -0.504 OA
ATOM     78  H   UNL     1      15.261  -1.107  12.623  1.00  0.00     0.293 HD
ENDBRANCH  74  77
BRANCH  75  79
ATOM     79  O   UNL     1      19.666  -1.340  15.782  1.00  0.00    -0.504 OA
ATOM     80  H   UNL     1      19.621  -2.349  15.704  1.00  0.00     0.293 HD
ENDBRANCH  75  79
BRANCH  76  81
ATOM     81  O   UNL     1      18.078  -2.399  13.807  1.00  0.00    -0.502 OA
ATOM     82  H   UNL     1      18.729  -2.753  13.120  1.00  0.00     0.293 HD
ENDBRANCH  76  81
ENDBRANCH  69  71
ENDBRANCH  68  69
ENDBRANCH   4  68
TORSDOF 31
ENDMDL
MODEL 5
REMARK VINA RESULT:    -7.110      2.190      9.172
REMARK INTER + INTRA:         -21.964
REMARK INTER:                 -15.204
REMARK INTRA:                  -6.760
REMARK UNBOUND:                -5.085
REMARK SMILES O=C(OC[C@H]1O[C@@H](OC(=O)c2cc(O)c(O)c(O)c2)[C@@H](OC(=O)c2cc(O)c(O)c(O)c2)[C@@H](OC(=O)c2cc(O)c(O)c(O)c2)[C@@H]1OC(=O)c1cc(O)c(O)c(O)c1)c1cc(O)c(O)c(O)c1
REMARK SMILES IDX 5 1 46 2 33 3 20 4 7 5 6 6 4 7 3 8 2 9 1 10 59 11 60 12
REMARK SMILES IDX 61 13 67 14 63 15 65 16 62 17 64 19 66 21 47 23 48 24 49 25
REMARK SMILES IDX 50 26 58 27 51 28 56 29 52 30 54 31 57 32 53 34 55 36 34 38
REMARK SMILES IDX 35 39 36 40 37 41 45 42 38 43 43 44 39 45 41 46 44 47 40 49
REMARK SMILES IDX 42 51 8 53 9 54 10 55 11 56 19 57 12 58 17 59 13 60 15 61
REMARK SMILES IDX 18 62 14 64 16 66 21 68 22 69 23 70 24 71 32 72 25 73 30 74
REMARK SMILES IDX 26 75 28 76 31 77 27 79 29 81
REMARK H PARENT 62 18 64 20 66 22 57 33 53 35 55 37 44 48 40 50 42 52 18 63
REMARK H PARENT 14 65 16 67 31 78 27 80 29 82
REMARK Flexibility Score: inf
ROOT
ATOM      1  C   UNL     1      16.135   4.046  13.945  1.00  0.00     0.205 C 
ATOM      2  C   UNL     1      16.041   3.468  15.394  1.00  0.00     0.254 C 
ATOM      3  C   UNL     1      16.783   4.391  16.381  1.00  0.00     0.267 C 
ATOM      4  C   UNL     1      18.209   4.636  15.857  1.00  0.00     0.290 C 
ATOM      5  C   UNL     1      18.177   5.117  14.378  1.00  0.00     0.357 C 
ATOM      6  O   UNL     1      16.844   5.273  13.912  1.00  0.00    -0.329 OA
ENDROOT
BRANCH   1   7
ATOM      7  C   UNL     1      14.742   4.301  13.342  1.00  0.00     0.269 C 
BRANCH   7   8
ATOM      8  O   UNL     1      13.735   3.666  14.134  1.00  0.00    -0.459 OA
BRANCH   8   9
ATOM      9  C   UNL     1      12.547   3.126  13.607  1.00  0.00     0.338 C 
ATOM     10  O   UNL     1      11.772   3.875  12.953  1.00  0.00    -0.246 OA
BRANCH   9  11
ATOM     11  C   UNL     1      12.189   1.707  13.786  1.00  0.00     0.067 A 
ATOM     12  C   UNL     1      12.577   0.756  12.831  1.00  0.00     0.066 A 
ATOM     13  C   UNL     1      12.167  -0.574  12.949  1.00  0.00     0.162 A 
ATOM     14  C   UNL     1      11.397   1.316  14.872  1.00  0.00     0.066 A 
ATOM     15  C   UNL     1      11.360  -0.968  14.034  1.00  0.00     0.200 A 
ATOM     16  C   UNL     1      10.969  -0.015  14.994  1.00  0.00     0.162 A 
BRANCH  13  17
ATOM     17  O   UNL     1      12.563  -1.491  11.977  1.00  0.00    -0.504 OA
ATOM     18  H   UNL     1      13.102  -1.214  11.163  1.00  0.00     0.293 HD
ENDBRANCH  13  17
BRANCH  15  19
ATOM     19  O   UNL     1      10.957  -2.299  14.147  1.00  0.00    -0.502 OA
ATOM     20  H   UNL     1      10.869  -2.764  15.041  1.00  0.00     0.293 HD
ENDBRANCH  15  19
BRANCH  16  21
ATOM     21  O   UNL     1      10.154  -0.388  16.060  1.00  0.00    -0.504 OA
ATOM     22  H   UNL     1      10.340  -1.226  16.599  1.00  0.00     0.293 HD
ENDBRANCH  16  21
ENDBRANCH   9  11
ENDBRANCH   8   9
ENDBRANCH   7   8
ENDBRANCH   1   7
BRANCH   2  23
ATOM     23  O   UNL     1      16.642   2.172  15.430  1.00  0.00    -0.452 OA
BRANCH  23  24
ATOM     24  C   UNL     1      15.961   1.008  15.053  1.00  0.00     0.338 C 
ATOM     25  O   UNL     1      14.868   0.709  15.608  1.00  0.00    -0.246 OA
BRANCH  24  26
ATOM     26  C   UNL     1      16.544   0.110  14.033  1.00  0.00     0.067 A 
ATOM     27  C   UNL     1      15.743  -0.829  13.362  1.00  0.00     0.066 A 
ATOM     28  C   UNL     1      17.922   0.152  13.760  1.00  0.00     0.066 A 
ATOM     29  C   UNL     1      16.304  -1.714  12.435  1.00  0.00     0.162 A 
ATOM     30  C   UNL     1      18.494  -0.737  12.842  1.00  0.00     0.162 A 
ATOM     31  C   UNL     1      17.685  -1.671  12.172  1.00  0.00     0.200 A 
BRANCH  29  32
ATOM     32  O   UNL     1      15.475  -2.629  11.789  1.00  0.00    -0.504 OA
ATOM     33  H   UNL     1      15.680  -3.621  11.767  1.00  0.00     0.293 HD
ENDBRANCH  29  32
BRANCH  30  34
ATOM     34  O   UNL     1      19.866  -0.700  12.597  1.00  0.00    -0.504 OA
ATOM     35  H   UNL     1      20.504  -1.343  13.050  1.00  0.00     0.293 HD
ENDBRANCH  30  34
BRANCH  31  36
ATOM     36  O   UNL     1      18.240  -2.567  11.256  1.00  0.00    -0.502 OA
ATOM     37  H   UNL     1      17.805  -2.762  10.362  1.00  0.00     0.293 HD
ENDBRANCH  31  36
ENDBRANCH  24  26
ENDBRANCH  23  24
ENDBRANCH   2  23
BRANCH   3  38
ATOM     38  O   UNL     1      16.116   5.648  16.472  1.00  0.00    -0.450 OA
BRANCH  38  39
ATOM     39  C   UNL     1      15.220   6.005  17.484  1.00  0.00     0.338 C 
ATOM     40  O   UNL     1      14.857   5.160  18.347  1.00  0.00    -0.246 OA
BRANCH  39  41
ATOM     41  C   UNL     1      14.712   7.390  17.524  1.00  0.00     0.067 A 
ATOM     42  C   UNL     1      13.928   7.869  16.459  1.00  0.00     0.066 A 
ATOM     43  C   UNL     1      14.992   8.240  18.608  1.00  0.00     0.066 A 
ATOM     44  C   UNL     1      13.421   9.173  16.481  1.00  0.00     0.162 A 
ATOM     45  C   UNL     1      14.498   9.552  18.624  1.00  0.00     0.162 A 
ATOM     46  C   UNL     1      13.695  10.012  17.565  1.00  0.00     0.200 A 
BRANCH  44  47
ATOM     47  O   UNL     1      12.636   9.640  15.427  1.00  0.00    -0.504 OA
ATOM     48  H   UNL     1      12.824   9.370  14.468  1.00  0.00     0.293 HD
ENDBRANCH  44  47
BRANCH  45  49
ATOM     49  O   UNL     1      14.817  10.412  19.676  1.00  0.00    -0.504 OA
ATOM     50  H   UNL     1      15.243  11.319  19.523  1.00  0.00     0.293 HD
ENDBRANCH  45  49
BRANCH  46  51
ATOM     51  O   UNL     1      13.173  11.308  17.570  1.00  0.00    -0.502 OA
ATOM     52  H   UNL     1      13.434  11.988  16.870  1.00  0.00     0.293 HD
ENDBRANCH  46  51
ENDBRANCH  39  41
ENDBRANCH  38  39
ENDBRANCH   3  38
BRANCH   5  53
ATOM     53  O   UNL     1      18.833   6.379  14.252  1.00  0.00    -0.428 OA
BRANCH  53  54
ATOM     54  C   UNL     1      18.127   7.549  13.951  1.00  0.00     0.340 C 
ATOM     55  O   UNL     1      17.424   7.609  12.904  1.00  0.00    -0.246 OA
BRANCH  54  56
ATOM     56  C   UNL     1      18.149   8.686  14.897  1.00  0.00     0.067 A 
ATOM     57  C   UNL     1      19.300   8.972  15.644  1.00  0.00     0.066 A 
ATOM     58  C   UNL     1      17.038   9.536  15.001  1.00  0.00     0.066 A 
ATOM     59  C   UNL     1      19.350  10.102  16.470  1.00  0.00     0.162 A 
ATOM     60  C   UNL     1      17.070  10.664  15.830  1.00  0.00     0.162 A 
ATOM     61  C   UNL     1      18.238  10.950  16.576  1.00  0.00     0.200 A 
BRANCH  59  62
ATOM     62  O   UNL     1      20.514  10.395  17.181  1.00  0.00    -0.504 OA
ATOM     63  H   UNL     1      20.719   9.947  18.065  1.00  0.00     0.293 HD
ENDBRANCH  59  62
BRANCH  60  64
ATOM     64  O   UNL     1      15.931  11.472  15.869  1.00  0.00    -0.504 OA
ATOM     65  H   UNL     1      15.012  11.173  15.581  1.00  0.00     0.293 HD
ENDBRANCH  60  64
BRANCH  61  66
ATOM     66  O   UNL     1      18.336  12.057  17.420  1.00  0.00    -0.502 OA
ATOM     67  H   UNL     1      17.592  12.363  18.033  1.00  0.00     0.293 HD
ENDBRANCH  61  66
ENDBRANCH  54  56
ENDBRANCH  53  54
ENDBRANCH   5  53
BRANCH   4  68
ATOM     68  O   UNL     1      18.862   5.587  16.700  1.00  0.00    -0.448 OA
BRANCH  68  69
ATOM     69  C   UNL     1      19.140   5.339  18.050  1.00  0.00     0.339 C 
ATOM     70  O   UNL     1      19.810   4.320  18.378  1.00  0.00    -0.246 OA
BRANCH  69  71
ATOM     71  C   UNL     1      18.628   6.256  19.089  1.00  0.00     0.067 A 
ATOM     72  C   UNL     1      18.908   7.629  19.022  1.00  0.00     0.066 A 
ATOM     73  C   UNL     1      17.820   5.773  20.129  1.00  0.00     0.066 A 
ATOM     74  C   UNL     1      18.380   8.517  19.969  1.00  0.00     0.162 A 
ATOM     75  C   UNL     1      17.293   6.647  21.086  1.00  0.00     0.162 A 
ATOM     76  C   UNL     1      17.562   8.021  21.013  1.00  0.00     0.200 A 
BRANCH  74  77
ATOM     77  O   UNL     1      18.687   9.873  19.830  1.00  0.00    -0.504 OA
ATOM     78  H   UNL     1      18.753  10.349  18.942  1.00  0.00     0.293 HD
ENDBRANCH  74  77
BRANCH  75  79
ATOM     79  O   UNL     1      16.495   6.155  22.117  1.00  0.00    -0.504 OA
ATOM     80  H   UNL     1      16.739   5.312  22.622  1.00  0.00     0.293 HD
ENDBRANCH  75  79
BRANCH  76  81
ATOM     81  O   UNL     1      16.998   8.851  21.985  1.00  0.00    -0.502 OA
ATOM     82  H   UNL     1      16.192   8.604  22.542  1.00  0.00     0.293 HD
ENDBRANCH  76  81
ENDBRANCH  69  71
ENDBRANCH  68  69
ENDBRANCH   4  68
TORSDOF 31
ENDMDL
MODEL 6
REMARK VINA RESULT:    -7.054      1.402      6.368
REMARK INTER + INTRA:         -21.831
REMARK INTER:                 -15.638
REMARK INTRA:                  -6.193
REMARK UNBOUND:                -5.085
REMARK SMILES O=C(OC[C@H]1O[C@@H](OC(=O)c2cc(O)c(O)c(O)c2)[C@@H](OC(=O)c2cc(O)c(O)c(O)c2)[C@@H](OC(=O)c2cc(O)c(O)c(O)c2)[C@@H]1OC(=O)c1cc(O)c(O)c(O)c1)c1cc(O)c(O)c(O)c1
REMARK SMILES IDX 5 1 46 2 33 3 20 4 7 5 6 6 4 7 3 8 2 9 1 10 59 11 60 12
REMARK SMILES IDX 61 13 67 14 63 15 65 16 62 17 64 19 66 21 47 23 48 24 49 25
REMARK SMILES IDX 50 26 58 27 51 28 56 29 52 30 54 31 57 32 53 34 55 36 34 38
REMARK SMILES IDX 35 39 36 40 37 41 45 42 38 43 43 44 39 45 41 46 44 47 40 49
REMARK SMILES IDX 42 51 8 53 9 54 10 55 11 56 19 57 12 58 17 59 13 60 15 61
REMARK SMILES IDX 18 62 14 64 16 66 21 68 22 69 23 70 24 71 32 72 25 73 30 74
REMARK SMILES IDX 26 75 28 76 31 77 27 79 29 81
REMARK H PARENT 62 18 64 20 66 22 57 33 53 35 55 37 44 48 40 50 42 52 18 63
REMARK H PARENT 14 65 16 67 31 78 27 80 29 82
REMARK Flexibility Score: inf
ROOT
ATOM      1  C   UNL     1      14.891   6.258  15.757  1.00  0.00     0.205 C 
ATOM      2  C   UNL     1      15.093   4.915  16.531  1.00  0.00     0.254 C 
ATOM      3  C   UNL     1      16.581   4.514  16.517  1.00  0.00     0.267 C 
ATOM      4  C   UNL     1      17.086   4.523  15.064  1.00  0.00     0.290 C 
ATOM      5  C   UNL     1      16.745   5.873  14.371  1.00  0.00     0.357 C 
ATOM      6  O   UNL     1      16.119   6.776  15.272  1.00  0.00    -0.329 OA
ENDROOT
BRANCH   1   7
ATOM      7  C   UNL     1      14.253   7.339  16.648  1.00  0.00     0.269 C 
BRANCH   7   8
ATOM      8  O   UNL     1      14.831   8.616  16.369  1.00  0.00    -0.459 OA
BRANCH   8   9
ATOM      9  C   UNL     1      14.285   9.837  16.808  1.00  0.00     0.338 C 
ATOM     10  O   UNL     1      15.062  10.756  17.183  1.00  0.00    -0.246 OA
BRANCH   9  11
ATOM     11  C   UNL     1      12.830  10.076  16.830  1.00  0.00     0.067 A 
ATOM     12  C   UNL     1      12.048   9.764  15.708  1.00  0.00     0.066 A 
ATOM     13  C   UNL     1      10.685  10.070  15.689  1.00  0.00     0.162 A 
ATOM     14  C   UNL     1      12.237  10.684  17.942  1.00  0.00     0.066 A 
ATOM     15  C   UNL     1      10.087  10.692  16.802  1.00  0.00     0.200 A 
ATOM     16  C   UNL     1      10.871  11.006  17.928  1.00  0.00     0.162 A 
BRANCH  13  17
ATOM     17  O   UNL     1       9.939   9.755  14.554  1.00  0.00    -0.504 OA
ATOM     18  H   UNL     1      10.069   8.884  14.048  1.00  0.00     0.293 HD
ENDBRANCH  13  17
BRANCH  15  19
ATOM     19  O   UNL     1       8.724  10.991  16.776  1.00  0.00    -0.502 OA
ATOM     20  H   UNL     1       8.259  11.321  15.941  1.00  0.00     0.293 HD
ENDBRANCH  15  19
BRANCH  16  21
ATOM     21  O   UNL     1      10.295  11.640  19.027  1.00  0.00    -0.504 OA
ATOM     22  H   UNL     1      10.465  12.620  19.221  1.00  0.00     0.293 HD
ENDBRANCH  16  21
ENDBRANCH   9  11
ENDBRANCH   8   9
ENDBRANCH   7   8
ENDBRANCH   1   7
BRANCH   2  23
ATOM     23  O   UNL     1      14.330   3.883  15.901  1.00  0.00    -0.452 OA
BRANCH  23  24
ATOM     24  C   UNL     1      13.544   2.974  16.620  1.00  0.00     0.338 C 
ATOM     25  O   UNL     1      13.289   3.185  17.838  1.00  0.00    -0.246 OA
BRANCH  24  26
ATOM     26  C   UNL     1      13.049   1.746  15.962  1.00  0.00     0.067 A 
ATOM     27  C   UNL     1      11.748   1.274  16.209  1.00  0.00     0.066 A 
ATOM     28  C   UNL     1      13.895   1.006  15.119  1.00  0.00     0.066 A 
ATOM     29  C   UNL     1      11.297   0.085  15.628  1.00  0.00     0.162 A 
ATOM     30  C   UNL     1      13.456  -0.191  14.542  1.00  0.00     0.162 A 
ATOM     31  C   UNL     1      12.152  -0.655  14.791  1.00  0.00     0.200 A 
BRANCH  29  32
ATOM     32  O   UNL     1      10.000  -0.348  15.896  1.00  0.00    -0.504 OA
ATOM     33  H   UNL     1       9.190   0.234  15.721  1.00  0.00     0.293 HD
ENDBRANCH  29  32
BRANCH  30  34
ATOM     34  O   UNL     1      14.313  -0.928  13.725  1.00  0.00    -0.504 OA
ATOM     35  H   UNL     1      14.254  -1.937  13.666  1.00  0.00     0.293 HD
ENDBRANCH  30  34
BRANCH  31  36
ATOM     36  O   UNL     1      11.699  -1.848  14.225  1.00  0.00    -0.502 OA
ATOM     37  H   UNL     1      10.868  -1.890  13.648  1.00  0.00     0.293 HD
ENDBRANCH  31  36
ENDBRANCH  24  26
ENDBRANCH  23  24
ENDBRANCH   2  23
BRANCH   3  38
ATOM     38  O   UNL     1      17.349   5.457  17.265  1.00  0.00    -0.450 OA
BRANCH  38  39
ATOM     39  C   UNL     1      17.372   5.540  18.659  1.00  0.00     0.338 C 
ATOM     40  O   UNL     1      18.056   4.729  19.341  1.00  0.00    -0.246 OA
BRANCH  39  41
ATOM     41  C   UNL     1      16.584   6.601  19.319  1.00  0.00     0.067 A 
ATOM     42  C   UNL     1      16.976   7.943  19.174  1.00  0.00     0.066 A 
ATOM     43  C   UNL     1      15.446   6.296  20.085  1.00  0.00     0.066 A 
ATOM     44  C   UNL     1      16.238   8.968  19.775  1.00  0.00     0.162 A 
ATOM     45  C   UNL     1      14.714   7.320  20.703  1.00  0.00     0.162 A 
ATOM     46  C   UNL     1      15.103   8.661  20.531  1.00  0.00     0.200 A 
BRANCH  44  47
ATOM     47  O   UNL     1      16.626  10.299  19.621  1.00  0.00    -0.504 OA
ATOM     48  H   UNL     1      17.603  10.568  19.625  1.00  0.00     0.293 HD
ENDBRANCH  44  47
BRANCH  45  49
ATOM     49  O   UNL     1      13.614   7.014  21.505  1.00  0.00    -0.504 OA
ATOM     50  H   UNL     1      13.681   6.389  22.299  1.00  0.00     0.293 HD
ENDBRANCH  45  49
BRANCH  46  51
ATOM     51  O   UNL     1      14.375   9.699  21.117  1.00  0.00    -0.502 OA
ATOM     52  H   UNL     1      13.652   9.521  21.801  1.00  0.00     0.293 HD
ENDBRANCH  46  51
ENDBRANCH  39  41
ENDBRANCH  38  39
ENDBRANCH   3  38
BRANCH   5  53
ATOM     53  O   UNL     1      17.934   6.497  13.885  1.00  0.00    -0.428 OA
BRANCH  53  54
ATOM     54  C   UNL     1      18.091   7.888  13.891  1.00  0.00     0.340 C 
ATOM     55  O   UNL     1      17.728   8.567  12.891  1.00  0.00    -0.246 OA
BRANCH  54  56
ATOM     56  C   UNL     1      18.615   8.564  15.097  1.00  0.00     0.067 A 
ATOM     57  C   UNL     1      18.080   9.789  15.519  1.00  0.00     0.066 A 
ATOM     58  C   UNL     1      19.607   7.947  15.874  1.00  0.00     0.066 A 
ATOM     59  C   UNL     1      18.515  10.383  16.710  1.00  0.00     0.162 A 
ATOM     60  C   UNL     1      20.058   8.534  17.063  1.00  0.00     0.162 A 
ATOM     61  C   UNL     1      19.508   9.768  17.486  1.00  0.00     0.200 A 
BRANCH  59  62
ATOM     62  O   UNL     1      17.950  11.585  17.137  1.00  0.00    -0.504 OA
ATOM     63  H   UNL     1      17.053  11.900  16.789  1.00  0.00     0.293 HD
ENDBRANCH  59  62
BRANCH  60  64
ATOM     64  O   UNL     1      21.036   7.853  17.791  1.00  0.00    -0.504 OA
ATOM     65  H   UNL     1      21.344   8.116  18.715  1.00  0.00     0.293 HD
ENDBRANCH  60  64
BRANCH  61  66
ATOM     66  O   UNL     1      19.913  10.406  18.660  1.00  0.00    -0.502 OA
ATOM     67  H   UNL     1      20.190   9.914  19.499  1.00  0.00     0.293 HD
ENDBRANCH  61  66
ENDBRANCH  54  56
ENDBRANCH  53  54
ENDBRANCH   5  53
BRANCH   4  68
ATOM     68  O   UNL     1      18.493   4.274  15.054  1.00  0.00    -0.448 OA
BRANCH  68  69
ATOM     69  C   UNL     1      19.077   3.197  15.731  1.00  0.00     0.339 C 
ATOM     70  O   UNL     1      19.869   3.410  16.692  1.00  0.00    -0.246 OA
BRANCH  69  71
ATOM     71  C   UNL     1      18.785   1.813  15.305  1.00  0.00     0.067 A 
ATOM     72  C   UNL     1      17.839   1.567  14.300  1.00  0.00     0.066 A 
ATOM     73  C   UNL     1      19.481   0.733  15.868  1.00  0.00     0.066 A 
ATOM     74  C   UNL     1      17.595   0.262  13.846  1.00  0.00     0.162 A 
ATOM     75  C   UNL     1      19.241  -0.574  15.431  1.00  0.00     0.162 A 
ATOM     76  C   UNL     1      18.305  -0.820  14.417  1.00  0.00     0.200 A 
BRANCH  74  77
ATOM     77  O   UNL     1      16.650   0.094  12.831  1.00  0.00    -0.504 OA
ATOM     78  H   UNL     1      16.630   0.641  11.982  1.00  0.00     0.293 HD
ENDBRANCH  74  77
BRANCH  75  79
ATOM     79  O   UNL     1      19.937  -1.640  16.001  1.00  0.00    -0.504 OA
ATOM     80  H   UNL     1      19.496  -2.537  16.162  1.00  0.00     0.293 HD
ENDBRANCH  75  79
BRANCH  76  81
ATOM     81  O   UNL     1      18.116  -2.143  14.008  1.00  0.00    -0.502 OA
ATOM     82  H   UNL     1      17.720  -2.865  14.592  1.00  0.00     0.293 HD
ENDBRANCH  76  81
ENDBRANCH  69  71
ENDBRANCH  68  69
ENDBRANCH   4  68
TORSDOF 31
ENDMDL
MODEL 7
REMARK VINA RESULT:    -7.042      1.378      2.922
REMARK INTER + INTRA:         -21.802
REMARK INTER:                 -16.373
REMARK INTRA:                  -5.428
REMARK UNBOUND:                -5.085
REMARK SMILES O=C(OC[C@H]1O[C@@H](OC(=O)c2cc(O)c(O)c(O)c2)[C@@H](OC(=O)c2cc(O)c(O)c(O)c2)[C@@H](OC(=O)c2cc(O)c(O)c(O)c2)[C@@H]1OC(=O)c1cc(O)c(O)c(O)c1)c1cc(O)c(O)c(O)c1
REMARK SMILES IDX 5 1 46 2 33 3 20 4 7 5 6 6 4 7 3 8 2 9 1 10 59 11 60 12
REMARK SMILES IDX 61 13 67 14 63 15 65 16 62 17 64 19 66 21 47 23 48 24 49 25
REMARK SMILES IDX 50 26 58 27 51 28 56 29 52 30 54 31 57 32 53 34 55 36 34 38
REMARK SMILES IDX 35 39 36 40 37 41 45 42 38 43 43 44 39 45 41 46 44 47 40 49
REMARK SMILES IDX 42 51 8 53 9 54 10 55 11 56 19 57 12 58 17 59 13 60 15 61
REMARK SMILES IDX 18 62 14 64 16 66 21 68 22 69 23 70 24 71 32 72 25 73 30 74
REMARK SMILES IDX 26 75 28 76 31 77 27 79 29 81
REMARK H PARENT 62 18 64 20 66 22 57 33 53 35 55 37 44 48 40 50 42 52 18 63
REMARK H PARENT 14 65 16 67 31 78 27 80 29 82
REMARK Flexibility Score: inf
ROOT
ATOM      1  C   UNL     1      14.684   6.537  17.056  1.00  0.00     0.205 C 
ATOM      2  C   UNL     1      16.183   6.376  17.468  1.00  0.00     0.254 C 
ATOM      3  C   UNL     1      16.922   5.491  16.444  1.00  0.00     0.267 C 
ATOM      4  C   UNL     1      16.139   4.178  16.266  1.00  0.00     0.290 C 
ATOM      5  C   UNL     1      14.643   4.467  15.952  1.00  0.00     0.357 C 
ATOM      6  O   UNL     1      14.396   5.862  15.843  1.00  0.00    -0.329 OA
ENDROOT
BRANCH   1   7
ATOM      7  C   UNL     1      14.302   8.016  16.863  1.00  0.00     0.269 C 
BRANCH   7   8
ATOM      8  O   UNL     1      13.426   8.442  17.908  1.00  0.00    -0.459 OA
BRANCH   8   9
ATOM      9  C   UNL     1      12.747   9.676  17.908  1.00  0.00     0.338 C 
ATOM     10  O   UNL     1      13.166  10.605  18.649  1.00  0.00    -0.246 OA
BRANCH   9  11
ATOM     11  C   UNL     1      11.567   9.915  17.057  1.00  0.00     0.067 A 
ATOM     12  C   UNL     1      11.362   9.144  15.904  1.00  0.00     0.066 A 
ATOM     13  C   UNL     1      10.295   9.423  15.046  1.00  0.00     0.162 A 
ATOM     14  C   UNL     1      10.686  10.960  17.358  1.00  0.00     0.066 A 
ATOM     15  C   UNL     1       9.415  10.483  15.340  1.00  0.00     0.200 A 
ATOM     16  C   UNL     1       9.619  11.257  16.497  1.00  0.00     0.162 A 
BRANCH  13  17
ATOM     17  O   UNL     1      10.127   8.644  13.902  1.00  0.00    -0.504 OA
ATOM     18  H   UNL     1      10.843   8.578  13.185  1.00  0.00     0.293 HD
ENDBRANCH  13  17
BRANCH  15  19
ATOM     19  O   UNL     1       8.350  10.753  14.479  1.00  0.00    -0.502 OA
ATOM     20  H   UNL     1       7.648  10.061  14.254  1.00  0.00     0.293 HD
ENDBRANCH  15  19
BRANCH  16  21
ATOM     21  O   UNL     1       8.766  12.320  16.787  1.00  0.00    -0.504 OA
ATOM     22  H   UNL     1       8.016  12.583  16.159  1.00  0.00     0.293 HD
ENDBRANCH  16  21
ENDBRANCH   9  11
ENDBRANCH   8   9
ENDBRANCH   7   8
ENDBRANCH   1   7
BRANCH   2  23
ATOM     23  O   UNL     1      16.260   5.759  18.755  1.00  0.00    -0.452 OA
BRANCH  23  24
ATOM     24  C   UNL     1      16.232   6.488  19.949  1.00  0.00     0.338 C 
ATOM     25  O   UNL     1      15.640   6.020  20.961  1.00  0.00    -0.246 OA
BRANCH  24  26
ATOM     26  C   UNL     1      16.863   7.825  20.012  1.00  0.00     0.067 A 
ATOM     27  C   UNL     1      16.080   8.990  19.961  1.00  0.00     0.066 A 
ATOM     28  C   UNL     1      18.262   7.943  20.072  1.00  0.00     0.066 A 
ATOM     29  C   UNL     1      16.679  10.254  19.967  1.00  0.00     0.162 A 
ATOM     30  C   UNL     1      18.870   9.204  20.069  1.00  0.00     0.162 A 
ATOM     31  C   UNL     1      18.080  10.365  20.020  1.00  0.00     0.200 A 
BRANCH  29  32
ATOM     32  O   UNL     1      15.868  11.386  19.917  1.00  0.00    -0.504 OA
ATOM     33  H   UNL     1      16.242  12.322  20.007  1.00  0.00     0.293 HD
ENDBRANCH  29  32
BRANCH  30  34
ATOM     34  O   UNL     1      20.260   9.307  20.106  1.00  0.00    -0.504 OA
ATOM     35  H   UNL     1      20.822   9.228  19.267  1.00  0.00     0.293 HD
ENDBRANCH  30  34
BRANCH  31  36
ATOM     36  O   UNL     1      18.671  11.630  20.013  1.00  0.00    -0.502 OA
ATOM     37  H   UNL     1      19.676  11.755  20.007  1.00  0.00     0.293 HD
ENDBRANCH  31  36
ENDBRANCH  24  26
ENDBRANCH  23  24
ENDBRANCH   2  23
BRANCH   3  38
ATOM     38  O   UNL     1      16.985   6.150  15.181  1.00  0.00    -0.450 OA
BRANCH  38  39
ATOM     39  C   UNL     1      18.038   6.966  14.759  1.00  0.00     0.338 C 
ATOM     40  O   UNL     1      18.855   6.561  13.887  1.00  0.00    -0.246 OA
BRANCH  39  41
ATOM     41  C   UNL     1      18.173   8.313  15.349  1.00  0.00     0.067 A 
ATOM     42  C   UNL     1      19.355   8.653  16.029  1.00  0.00     0.066 A 
ATOM     43  C   UNL     1      17.144   9.264  15.240  1.00  0.00     0.066 A 
ATOM     44  C   UNL     1      19.515   9.927  16.583  1.00  0.00     0.162 A 
ATOM     45  C   UNL     1      17.295  10.537  15.809  1.00  0.00     0.162 A 
ATOM     46  C   UNL     1      18.492  10.873  16.466  1.00  0.00     0.200 A 
BRANCH  44  47
ATOM     47  O   UNL     1      20.693  10.264  17.248  1.00  0.00    -0.504 OA
ATOM     48  H   UNL     1      21.365   9.556  17.523  1.00  0.00     0.293 HD
ENDBRANCH  44  47
BRANCH  45  49
ATOM     49  O   UNL     1      16.254  11.465  15.745  1.00  0.00    -0.504 OA
ATOM     50  H   UNL     1      16.099  12.048  14.931  1.00  0.00     0.293 HD
ENDBRANCH  45  49
BRANCH  46  51
ATOM     51  O   UNL     1      18.673  12.143  17.020  1.00  0.00    -0.502 OA
ATOM     52  H   UNL     1      17.898  12.776  17.162  1.00  0.00     0.293 HD
ENDBRANCH  46  51
ENDBRANCH  39  41
ENDBRANCH  38  39
ENDBRANCH   3  38
BRANCH   5  53
ATOM     53  O   UNL     1      14.268   3.860  14.716  1.00  0.00    -0.428 OA
BRANCH  53  54
ATOM     54  C   UNL     1      12.947   3.477  14.454  1.00  0.00     0.340 C 
ATOM     55  O   UNL     1      12.067   4.357  14.243  1.00  0.00    -0.246 OA
BRANCH  54  56
ATOM     56  C   UNL     1      12.602   2.043  14.355  1.00  0.00     0.067 A 
ATOM     57  C   UNL     1      11.555   1.505  15.116  1.00  0.00     0.066 A 
ATOM     58  C   UNL     1      13.275   1.220  13.440  1.00  0.00     0.066 A 
ATOM     59  C   UNL     1      11.171   0.168  14.954  1.00  0.00     0.162 A 
ATOM     60  C   UNL     1      12.908  -0.122  13.274  1.00  0.00     0.162 A 
ATOM     61  C   UNL     1      11.845  -0.655  14.042  1.00  0.00     0.200 A 
BRANCH  59  62
ATOM     62  O   UNL     1      10.105  -0.345  15.693  1.00  0.00    -0.504 OA
ATOM     63  H   UNL     1      10.251  -1.022  16.431  1.00  0.00     0.293 HD
ENDBRANCH  59  62
BRANCH  60  64
ATOM     64  O   UNL     1      13.613  -0.875  12.332  1.00  0.00    -0.504 OA
ATOM     65  H   UNL     1      14.460  -1.386  12.531  1.00  0.00     0.293 HD
ENDBRANCH  60  64
BRANCH  61  66
ATOM     66  O   UNL     1      11.429  -1.983  13.925  1.00  0.00    -0.502 OA
ATOM     67  H   UNL     1      12.065  -2.767  13.859  1.00  0.00     0.293 HD
ENDBRANCH  61  66
ENDBRANCH  54  56
ENDBRANCH  53  54
ENDBRANCH   5  53
BRANCH   4  68
ATOM     68  O   UNL     1      16.748   3.405  15.229  1.00  0.00    -0.448 OA
BRANCH  68  69
ATOM     69  C   UNL     1      17.911   2.652  15.430  1.00  0.00     0.339 C 
ATOM     70  O   UNL     1      18.896   3.161  16.033  1.00  0.00    -0.246 OA
BRANCH  69  71
ATOM     71  C   UNL     1      17.992   1.270  14.913  1.00  0.00     0.067 A 
ATOM     72  C   UNL     1      18.900   0.358  15.470  1.00  0.00     0.066 A 
ATOM     73  C   UNL     1      17.134   0.841  13.890  1.00  0.00     0.066 A 
ATOM     74  C   UNL     1      18.947  -0.972  15.027  1.00  0.00     0.162 A 
ATOM     75  C   UNL     1      17.175  -0.481  13.433  1.00  0.00     0.162 A 
ATOM     76  C   UNL     1      18.073  -1.397  13.998  1.00  0.00     0.200 A 
BRANCH  74  77
ATOM     77  O   UNL     1      19.865  -1.828  15.640  1.00  0.00    -0.504 OA
ATOM     78  H   UNL     1      19.674  -2.795  15.862  1.00  0.00     0.293 HD
ENDBRANCH  74  77
BRANCH  75  79
ATOM     79  O   UNL     1      16.319  -0.894  12.413  1.00  0.00    -0.504 OA
ATOM     80  H   UNL     1      15.350  -0.601  12.381  1.00  0.00     0.293 HD
ENDBRANCH  75  79
BRANCH  76  81
ATOM     81  O   UNL     1      18.062  -2.707  13.515  1.00  0.00    -0.502 OA
ATOM     82  H   UNL     1      17.460  -3.032  12.772  1.00  0.00     0.293 HD
ENDBRANCH  76  81
ENDBRANCH  69  71
ENDBRANCH  68  69
ENDBRANCH   4  68
TORSDOF 31
ENDMDL
MODEL 8
REMARK VINA RESULT:    -7.014      1.857      6.400
REMARK INTER + INTRA:         -21.735
REMARK INTER:                 -15.285
REMARK INTRA:                  -6.449
REMARK UNBOUND:                -5.085
REMARK SMILES O=C(OC[C@H]1O[C@@H](OC(=O)c2cc(O)c(O)c(O)c2)[C@@H](OC(=O)c2cc(O)c(O)c(O)c2)[C@@H](OC(=O)c2cc(O)c(O)c(O)c2)[C@@H]1OC(=O)c1cc(O)c(O)c(O)c1)c1cc(O)c(O)c(O)c1
REMARK SMILES IDX 5 1 46 2 33 3 20 4 7 5 6 6 4 7 3 8 2 9 1 10 59 11 60 12
REMARK SMILES IDX 61 13 67 14 63 15 65 16 62 17 64 19 66 21 47 23 48 24 49 25
REMARK SMILES IDX 50 26 58 27 51 28 56 29 52 30 54 31 57 32 53 34 55 36 34 38
REMARK SMILES IDX 35 39 36 40 37 41 45 42 38 43 43 44 39 45 41 46 44 47 40 49
REMARK SMILES IDX 42 51 8 53 9 54 10 55 11 56 19 57 12 58 17 59 13 60 15 61
REMARK SMILES IDX 18 62 14 64 16 66 21 68 22 69 23 70 24 71 32 72 25 73 30 74
REMARK SMILES IDX 26 75 28 76 31 77 27 79 29 81
REMARK H PARENT 62 18 64 20 66 22 57 33 53 35 55 37 44 48 40 50 42 52 18 63
REMARK H PARENT 14 65 16 67 31 78 27 80 29 82
REMARK Flexibility Score: inf
ROOT
ATOM      1  C   UNL     1      18.480   5.942  16.444  1.00  0.00     0.205 C 
ATOM      2  C   UNL     1      17.197   6.831  16.530  1.00  0.00     0.254 C 
ATOM      3  C   UNL     1      15.940   5.942  16.599  1.00  0.00     0.267 C 
ATOM      4  C   UNL     1      15.974   4.939  15.432  1.00  0.00     0.290 C 
ATOM      5  C   UNL     1      17.333   4.184  15.395  1.00  0.00     0.357 C 
ATOM      6  O   UNL     1      18.166   4.560  16.483  1.00  0.00    -0.329 OA
ENDROOT
BRANCH   1   7
ATOM      7  C   UNL     1      19.449   6.228  17.605  1.00  0.00     0.269 C 
BRANCH   7   8
ATOM      8  O   UNL     1      19.706   7.631  17.702  1.00  0.00    -0.459 OA
BRANCH   8   9
ATOM      9  C   UNL     1      19.460   8.395  18.859  1.00  0.00     0.338 C 
ATOM     10  O   UNL     1      19.595   7.854  19.990  1.00  0.00    -0.246 OA
BRANCH   9  11
ATOM     11  C   UNL     1      19.063   9.813  18.786  1.00  0.00     0.067 A 
ATOM     12  C   UNL     1      19.685  10.673  17.869  1.00  0.00     0.066 A 
ATOM     13  C   UNL     1      19.376  12.035  17.855  1.00  0.00     0.162 A 
ATOM     14  C   UNL     1      18.116  10.322  19.682  1.00  0.00     0.066 A 
ATOM     15  C   UNL     1      18.433  12.552  18.764  1.00  0.00     0.200 A 
ATOM     16  C   UNL     1      17.808  11.691  19.685  1.00  0.00     0.162 A 
BRANCH  13  17
ATOM     17  O   UNL     1      20.019  12.863  16.937  1.00  0.00    -0.504 OA
ATOM     18  H   UNL     1      19.708  12.946  15.974  1.00  0.00     0.293 HD
ENDBRANCH  13  17
BRANCH  15  19
ATOM     19  O   UNL     1      18.127  13.914  18.741  1.00  0.00    -0.502 OA
ATOM     20  H   UNL     1      18.395  14.541  19.489  1.00  0.00     0.293 HD
ENDBRANCH  15  19
BRANCH  16  21
ATOM     21  O   UNL     1      16.888  12.195  20.602  1.00  0.00    -0.504 OA
ATOM     22  H   UNL     1      17.165  12.450  21.543  1.00  0.00     0.293 HD
ENDBRANCH  16  21
ENDBRANCH   9  11
ENDBRANCH   8   9
ENDBRANCH   7   8
ENDBRANCH   1   7
BRANCH   2  23
ATOM     23  O   UNL     1      17.114   7.661  15.369  1.00  0.00    -0.452 OA
BRANCH  23  24
ATOM     24  C   UNL     1      17.020   9.056  15.438  1.00  0.00     0.338 C 
ATOM     25  O   UNL     1      17.922   9.776  14.927  1.00  0.00    -0.246 OA
BRANCH  24  26
ATOM     26  C   UNL     1      15.883   9.684  16.146  1.00  0.00     0.067 A 
ATOM     27  C   UNL     1      16.009  10.966  16.708  1.00  0.00     0.066 A 
ATOM     28  C   UNL     1      14.678   8.981  16.309  1.00  0.00     0.066 A 
ATOM     29  C   UNL     1      14.952  11.539  17.423  1.00  0.00     0.162 A 
ATOM     30  C   UNL     1      13.618   9.543  17.031  1.00  0.00     0.162 A 
ATOM     31  C   UNL     1      13.750  10.827  17.588  1.00  0.00     0.200 A 
BRANCH  29  32
ATOM     32  O   UNL     1      15.115  12.813  17.963  1.00  0.00    -0.504 OA
ATOM     33  H   UNL     1      14.529  13.593  17.691  1.00  0.00     0.293 HD
ENDBRANCH  29  32
BRANCH  30  34
ATOM     34  O   UNL     1      12.435   8.826  17.204  1.00  0.00    -0.504 OA
ATOM     35  H   UNL     1      12.439   7.831  17.392  1.00  0.00     0.293 HD
ENDBRANCH  30  34
BRANCH  31  36
ATOM     36  O   UNL     1      12.704  11.400  18.314  1.00  0.00    -0.502 OA
ATOM     37  H   UNL     1      12.093  12.103  17.916  1.00  0.00     0.293 HD
ENDBRANCH  31  36
ENDBRANCH  24  26
ENDBRANCH  23  24
ENDBRANCH   2  23
BRANCH   3  38
ATOM     38  O   UNL     1      15.926   5.207  17.821  1.00  0.00    -0.450 OA
BRANCH  38  39
ATOM     39  C   UNL     1      16.136   5.759  19.087  1.00  0.00     0.338 C 
ATOM     40  O   UNL     1      17.215   5.551  19.708  1.00  0.00    -0.246 OA
BRANCH  39  41
ATOM     41  C   UNL     1      15.075   6.596  19.681  1.00  0.00     0.067 A 
ATOM     42  C   UNL     1      15.324   7.959  19.921  1.00  0.00     0.066 A 
ATOM     43  C   UNL     1      13.819   6.058  20.009  1.00  0.00     0.066 A 
ATOM     44  C   UNL     1      14.330   8.777  20.468  1.00  0.00     0.162 A 
ATOM     45  C   UNL     1      12.826   6.872  20.573  1.00  0.00     0.162 A 
ATOM     46  C   UNL     1      13.079   8.240  20.786  1.00  0.00     0.200 A 
BRANCH  44  47
ATOM     47  O   UNL     1      14.578  10.131  20.695  1.00  0.00    -0.504 OA
ATOM     48  H   UNL     1      13.872  10.737  21.099  1.00  0.00     0.293 HD
ENDBRANCH  44  47
BRANCH  45  49
ATOM     49  O   UNL     1      11.596   6.328  20.945  1.00  0.00    -0.504 OA
ATOM     50  H   UNL     1      11.514   5.404  21.354  1.00  0.00     0.293 HD
ENDBRANCH  45  49
BRANCH  46  51
ATOM     51  O   UNL     1      12.097   9.075  21.325  1.00  0.00    -0.502 OA
ATOM     52  H   UNL     1      11.114   8.848  21.261  1.00  0.00     0.293 HD
ENDBRANCH  46  51
ENDBRANCH  39  41
ENDBRANCH  38  39
ENDBRANCH   3  38
BRANCH   5  53
ATOM     53  O   UNL     1      17.120   2.774  15.475  1.00  0.00    -0.428 OA
BRANCH  53  54
ATOM     54  C   UNL     1      18.031   1.860  14.933  1.00  0.00     0.340 C 
ATOM     55  O   UNL     1      19.272   2.078  15.023  1.00  0.00    -0.246 OA
BRANCH  54  56
ATOM     56  C   UNL     1      17.540   0.608  14.319  1.00  0.00     0.067 A 
ATOM     57  C   UNL     1      16.379   0.604  13.535  1.00  0.00     0.066 A 
ATOM     58  C   UNL     1      18.277  -0.578  14.458  1.00  0.00     0.066 A 
ATOM     59  C   UNL     1      15.966  -0.564  12.881  1.00  0.00     0.162 A 
ATOM     60  C   UNL     1      17.870  -1.755  13.817  1.00  0.00     0.162 A 
ATOM     61  C   UNL     1      16.700  -1.750  13.021  1.00  0.00     0.200 A 
BRANCH  59  62
ATOM     62  O   UNL     1      14.828  -0.546  12.075  1.00  0.00    -0.504 OA
ATOM     63  H   UNL     1      14.257  -1.373  11.948  1.00  0.00     0.293 HD
ENDBRANCH  59  62
BRANCH  60  64
ATOM     64  O   UNL     1      18.663  -2.893  13.989  1.00  0.00    -0.504 OA
ATOM     65  H   UNL     1      19.343  -3.218  13.318  1.00  0.00     0.293 HD
ENDBRANCH  60  64
BRANCH  61  66
ATOM     66  O   UNL     1      16.241  -2.888  12.356  1.00  0.00    -0.502 OA
ATOM     67  H   UNL     1      16.574  -3.824  12.548  1.00  0.00     0.293 HD
ENDBRANCH  61  66
ENDBRANCH  54  56
ENDBRANCH  53  54
ENDBRANCH   5  53
BRANCH   4  68
ATOM     68  O   UNL     1      14.877   4.032  15.559  1.00  0.00    -0.448 OA
BRANCH  68  69
ATOM     69  C   UNL     1      14.077   3.653  14.475  1.00  0.00     0.339 C 
ATOM     70  O   UNL     1      14.200   4.241  13.364  1.00  0.00    -0.246 OA
BRANCH  69  71
ATOM     71  C   UNL     1      13.072   2.583  14.639  1.00  0.00     0.067 A 
ATOM     72  C   UNL     1      12.835   1.669  13.602  1.00  0.00     0.066 A 
ATOM     73  C   UNL     1      12.374   2.442  15.847  1.00  0.00     0.066 A 
ATOM     74  C   UNL     1      11.926   0.614  13.767  1.00  0.00     0.162 A 
ATOM     75  C   UNL     1      11.457   1.399  16.023  1.00  0.00     0.162 A 
ATOM     76  C   UNL     1      11.230   0.477  14.991  1.00  0.00     0.200 A 
BRANCH  74  77
ATOM     77  O   UNL     1      11.753  -0.267  12.697  1.00  0.00    -0.504 OA
ATOM     78  H   UNL     1      12.250  -1.142  12.600  1.00  0.00     0.293 HD
ENDBRANCH  74  77
BRANCH  75  79
ATOM     79  O   UNL     1      10.768   1.271  17.227  1.00  0.00    -0.504 OA
ATOM     80  H   UNL     1       9.923   0.716  17.300  1.00  0.00     0.293 HD
ENDBRANCH  75  79
BRANCH  76  81
ATOM     81  O   UNL     1      10.316  -0.554  15.225  1.00  0.00    -0.502 OA
ATOM     82  H   UNL     1       9.658  -0.564  15.991  1.00  0.00     0.293 HD
ENDBRANCH  76  81
ENDBRANCH  69  71
ENDBRANCH  68  69
ENDBRANCH   4  68
TORSDOF 31
ENDMDL
MODEL 9
REMARK VINA RESULT:    -6.997      2.747      9.347
REMARK INTER + INTRA:         -21.695
REMARK INTER:                 -15.175
REMARK INTRA:                  -6.520
REMARK UNBOUND:                -5.085
REMARK SMILES O=C(OC[C@H]1O[C@@H](OC(=O)c2cc(O)c(O)c(O)c2)[C@@H](OC(=O)c2cc(O)c(O)c(O)c2)[C@@H](OC(=O)c2cc(O)c(O)c(O)c2)[C@@H]1OC(=O)c1cc(O)c(O)c(O)c1)c1cc(O)c(O)c(O)c1
REMARK SMILES IDX 5 1 46 2 33 3 20 4 7 5 6 6 4 7 3 8 2 9 1 10 59 11 60 12
REMARK SMILES IDX 61 13 67 14 63 15 65 16 62 17 64 19 66 21 47 23 48 24 49 25
REMARK SMILES IDX 50 26 58 27 51 28 56 29 52 30 54 31 57 32 53 34 55 36 34 38
REMARK SMILES IDX 35 39 36 40 37 41 45 42 38 43 43 44 39 45 41 46 44 47 40 49
REMARK SMILES IDX 42 51 8 53 9 54 10 55 11 56 19 57 12 58 17 59 13 60 15 61
REMARK SMILES IDX 18 62 14 64 16 66 21 68 22 69 23 70 24 71 32 72 25 73 30 74
REMARK SMILES IDX 26 75 28 76 31 77 27 79 29 81
REMARK H PARENT 62 18 64 20 66 22 57 33 53 35 55 37 44 48 40 50 42 52 18 63
REMARK H PARENT 14 65 16 67 31 78 27 80 29 82
REMARK Flexibility Score: inf
ROOT
ATOM      1  C   UNL     1      16.225   4.198  13.872  1.00  0.00     0.205 C 
ATOM      2  C   UNL     1      16.321   3.346  15.180  1.00  0.00     0.254 C 
ATOM      3  C   UNL     1      17.136   4.104  16.246  1.00  0.00     0.267 C 
ATOM      4  C   UNL     1      18.482   4.530  15.633  1.00  0.00     0.290 C 
ATOM      5  C   UNL     1      18.261   5.284  14.291  1.00  0.00     0.357 C 
ATOM      6  O   UNL     1      16.879   5.448  14.009  1.00  0.00    -0.329 OA
ENDROOT
BRANCH   1   7
ATOM      7  C   UNL     1      14.763   4.481  13.482  1.00  0.00     0.269 C 
BRANCH   7   8
ATOM      8  O   UNL     1      14.056   3.255  13.284  1.00  0.00    -0.459 OA
BRANCH   8   9
ATOM      9  C   UNL     1      12.852   2.929  13.938  1.00  0.00     0.338 C 
ATOM     10  O   UNL     1      12.221   3.835  14.545  1.00  0.00    -0.246 OA
BRANCH   9  11
ATOM     11  C   UNL     1      12.303   1.561  13.922  1.00  0.00     0.067 A 
ATOM     12  C   UNL     1      11.472   1.123  14.964  1.00  0.00     0.066 A 
ATOM     13  C   UNL     1      11.019  -0.198  15.001  1.00  0.00     0.162 A 
ATOM     14  C   UNL     1      12.669   0.670  12.906  1.00  0.00     0.066 A 
ATOM     15  C   UNL     1      11.396  -1.100  13.987  1.00  0.00     0.200 A 
ATOM     16  C   UNL     1      12.230  -0.662  12.941  1.00  0.00     0.162 A 
BRANCH  13  17
ATOM     17  O   UNL     1      10.202  -0.602  16.055  1.00  0.00    -0.504 OA
ATOM     18  H   UNL     1       9.916   0.037  16.791  1.00  0.00     0.293 HD
ENDBRANCH  13  17
BRANCH  15  19
ATOM     19  O   UNL     1      10.938  -2.417  14.029  1.00  0.00    -0.502 OA
ATOM     20  H   UNL     1      11.537  -3.190  14.289  1.00  0.00     0.293 HD
ENDBRANCH  15  19
BRANCH  16  21
ATOM     21  O   UNL     1      12.626  -1.551  11.943  1.00  0.00    -0.504 OA
ATOM     22  H   UNL     1      13.097  -1.229  11.105  1.00  0.00     0.293 HD
ENDBRANCH  16  21
ENDBRANCH   9  11
ENDBRANCH   8   9
ENDBRANCH   7   8
ENDBRANCH   1   7
BRANCH   2  23
ATOM     23  O   UNL     1      16.970   2.106  14.894  1.00  0.00    -0.452 OA
BRANCH  23  24
ATOM     24  C   UNL     1      16.274   0.899  14.752  1.00  0.00     0.338 C 
ATOM     25  O   UNL     1      15.239   0.683  15.443  1.00  0.00    -0.246 OA
BRANCH  24  26
ATOM     26  C   UNL     1      16.775  -0.137  13.824  1.00  0.00     0.067 A 
ATOM     27  C   UNL     1      18.125  -0.162  13.437  1.00  0.00     0.066 A 
ATOM     28  C   UNL     1      15.889  -1.081  13.276  1.00  0.00     0.066 A 
ATOM     29  C   UNL     1      18.588  -1.109  12.518  1.00  0.00     0.162 A 
ATOM     30  C   UNL     1      16.341  -2.026  12.348  1.00  0.00     0.162 A 
ATOM     31  C   UNL     1      17.695  -2.047  11.968  1.00  0.00     0.200 A 
BRANCH  29  32
ATOM     32  O   UNL     1      19.935  -1.103  12.162  1.00  0.00    -0.504 OA
ATOM     33  H   UNL     1      20.249  -1.362  11.235  1.00  0.00     0.293 HD
ENDBRANCH  29  32
BRANCH  30  34
ATOM     34  O   UNL     1      15.448  -2.943  11.794  1.00  0.00    -0.504 OA
ATOM     35  H   UNL     1      15.676  -3.468  10.959  1.00  0.00     0.293 HD
ENDBRANCH  30  34
BRANCH  31  36
ATOM     36  O   UNL     1      18.161  -2.981  11.041  1.00  0.00    -0.502 OA
ATOM     37  H   UNL     1      18.935  -3.602  11.245  1.00  0.00     0.293 HD
ENDBRANCH  31  36
ENDBRANCH  24  26
ENDBRANCH  23  24
ENDBRANCH   2  23
BRANCH   3  38
ATOM     38  O   UNL     1      16.438   5.278  16.655  1.00  0.00    -0.450 OA
BRANCH  38  39
ATOM     39  C   UNL     1      15.226   5.284  17.350  1.00  0.00     0.338 C 
ATOM     40  O   UNL     1      14.359   4.392  17.138  1.00  0.00    -0.246 OA
BRANCH  39  41
ATOM     41  C   UNL     1      14.981   6.352  18.340  1.00  0.00     0.067 A 
ATOM     42  C   UNL     1      14.316   6.041  19.539  1.00  0.00     0.066 A 
ATOM     43  C   UNL     1      15.403   7.673  18.109  1.00  0.00     0.066 A 
ATOM     44  C   UNL     1      14.087   7.031  20.501  1.00  0.00     0.162 A 
ATOM     45  C   UNL     1      15.159   8.670  19.064  1.00  0.00     0.162 A 
ATOM     46  C   UNL     1      14.515   8.342  20.271  1.00  0.00     0.200 A 
BRANCH  44  47
ATOM     47  O   UNL     1      13.436   6.716  21.694  1.00  0.00    -0.504 OA
ATOM     48  H   UNL     1      13.591   5.831  22.163  1.00  0.00     0.293 HD
ENDBRANCH  44  47
BRANCH  45  49
ATOM     49  O   UNL     1      15.533   9.991  18.815  1.00  0.00    -0.504 OA
ATOM     50  H   UNL     1      16.261  10.456  19.344  1.00  0.00     0.293 HD
ENDBRANCH  45  49
BRANCH  46  51
ATOM     51  O   UNL     1      14.282   9.314  21.247  1.00  0.00    -0.502 OA
ATOM     52  H   UNL     1      14.660  10.248  21.166  1.00  0.00     0.293 HD
ENDBRANCH  46  51
ENDBRANCH  39  41
ENDBRANCH  38  39
ENDBRANCH   3  38
BRANCH   5  53
ATOM     53  O   UNL     1      18.852   6.584  14.349  1.00  0.00    -0.428 OA
BRANCH  53  54
ATOM     54  C   UNL     1      18.125   7.737  14.031  1.00  0.00     0.340 C 
ATOM     55  O   UNL     1      17.391   7.755  13.004  1.00  0.00    -0.246 OA
BRANCH  54  56
ATOM     56  C   UNL     1      18.164   8.905  14.936  1.00  0.00     0.067 A 
ATOM     57  C   UNL     1      17.046   9.738  15.077  1.00  0.00     0.066 A 
ATOM     58  C   UNL     1      19.301   9.148  15.721  1.00  0.00     0.066 A 
ATOM     59  C   UNL     1      17.053  10.790  16.001  1.00  0.00     0.162 A 
ATOM     60  C   UNL     1      19.326  10.202  16.643  1.00  0.00     0.162 A 
ATOM     61  C   UNL     1      18.190  11.035  16.784  1.00  0.00     0.200 A 
BRANCH  59  62
ATOM     62  O   UNL     1      15.921  11.590  16.157  1.00  0.00    -0.504 OA
ATOM     63  H   UNL     1      15.316  11.807  15.374  1.00  0.00     0.293 HD
ENDBRANCH  59  62
BRANCH  60  64
ATOM     64  O   UNL     1      20.487  10.372  17.401  1.00  0.00    -0.504 OA
ATOM     65  H   UNL     1      20.696   9.860  18.244  1.00  0.00     0.293 HD
ENDBRANCH  60  64
BRANCH  61  66
ATOM     66  O   UNL     1      18.150  12.101  17.684  1.00  0.00    -0.502 OA
ATOM     67  H   UNL     1      17.425  12.221  18.380  1.00  0.00     0.293 HD
ENDBRANCH  61  66
ENDBRANCH  54  56
ENDBRANCH  53  54
ENDBRANCH   5  53
BRANCH   4  68
ATOM     68  O   UNL     1      19.192   5.337  16.575  1.00  0.00    -0.448 OA
BRANCH  68  69
ATOM     69  C   UNL     1      19.344   4.978  17.919  1.00  0.00     0.339 C 
ATOM     70  O   UNL     1      19.890   3.880  18.220  1.00  0.00    -0.246 OA
BRANCH  69  71
ATOM     71  C   UNL     1      18.842   5.872  18.983  1.00  0.00     0.067 A 
ATOM     72  C   UNL     1      18.088   5.354  20.046  1.00  0.00     0.066 A 
ATOM     73  C   UNL     1      19.150   7.240  18.966  1.00  0.00     0.066 A 
ATOM     74  C   UNL     1      17.656   6.183  21.091  1.00  0.00     0.162 A 
ATOM     75  C   UNL     1      18.718   8.081  19.998  1.00  0.00     0.162 A 
ATOM     76  C   UNL     1      17.975   7.561  21.068  1.00  0.00     0.200 A 
BRANCH  74  77
ATOM     77  O   UNL     1      16.922   5.595  22.125  1.00  0.00    -0.504 OA
ATOM     78  H   UNL     1      15.924   5.696  22.237  1.00  0.00     0.293 HD
ENDBRANCH  74  77
BRANCH  75  79
ATOM     79  O   UNL     1      19.028   9.439  19.968  1.00  0.00    -0.504 OA
ATOM     80  H   UNL     1      19.509   9.858  19.181  1.00  0.00     0.293 HD
ENDBRANCH  75  79
BRANCH  76  81
ATOM     81  O   UNL     1      17.582   8.441  22.079  1.00  0.00    -0.502 OA
ATOM     82  H   UNL     1      16.692   8.920  22.100  1.00  0.00     0.293 HD
ENDBRANCH  76  81
ENDBRANCH  69  71
ENDBRANCH  68  69
ENDBRANCH   4  68
TORSDOF 31
ENDMDL
