MODEL 1
REMARK VINA RESULT:    -5.593      0.000      0.000
REMARK INTER + INTRA:          -7.664
REMARK INTER:                  -7.064
REMARK INTRA:                  -0.600
REMARK UNBOUND:                -0.600
REMARK SMILES O=C(C=Cc1ccc(O)cc1)c1ccc(O)cc1O
REMARK SMILES IDX 4 1 3 2 5 3 6 4 7 5 8 6 11 7 10 8 9 9 2 11 1 12 12 13 18 14
REMARK SMILES IDX 13 15 17 16 14 17 15 18 19 19 16 21
REMARK H PARENT 9 10 19 20 16 22
REMARK Flexibility Score: inf
ROOT
ATOM      1  C   UNL     1      21.653 -46.174   7.106  1.00  0.00     0.012 C 
ATOM      2  C   UNL     1      22.292 -46.991   6.256  1.00  0.00     0.053 C 
ENDROOT
BRANCH   1   3
ATOM      3  C   UNL     1      22.236 -44.915   7.632  1.00  0.00    -0.025 A 
ATOM      4  C   UNL     1      23.625 -44.670   7.645  1.00  0.00     0.012 A 
ATOM      5  C   UNL     1      24.125 -43.461   8.139  1.00  0.00     0.047 A 
ATOM      6  C   UNL     1      23.249 -42.479   8.617  1.00  0.00     0.115 A 
ATOM      7  C   UNL     1      21.367 -43.915   8.099  1.00  0.00     0.012 A 
ATOM      8  C   UNL     1      21.871 -42.708   8.594  1.00  0.00     0.047 A 
BRANCH   6   9
ATOM      9  O   UNL     1      23.738 -41.271   9.113  1.00  0.00    -0.508 OA
ATOM     10  H   UNL     1      24.687 -40.967   8.926  1.00  0.00     0.293 HD
ENDBRANCH   6   9
ENDBRANCH   1   3
BRANCH   2  11
ATOM     11  C   UNL     1      21.685 -48.246   5.764  1.00  0.00     0.189 C 
ATOM     12  O   UNL     1      22.180 -48.842   4.768  1.00  0.00    -0.289 OA
BRANCH  11  13
ATOM     13  C   UNL     1      20.513 -48.830   6.452  1.00  0.00     0.064 A 
ATOM     14  C   UNL     1      19.187 -48.572   6.024  1.00  0.00     0.130 A 
ATOM     15  C   UNL     1      20.722 -49.699   7.539  1.00  0.00     0.020 A 
ATOM     16  C   UNL     1      18.115 -49.208   6.663  1.00  0.00     0.093 A 
ATOM     17  C   UNL     1      19.642 -50.314   8.177  1.00  0.00     0.047 A 
ATOM     18  C   UNL     1      18.338 -50.076   7.738  1.00  0.00     0.119 A 
BRANCH  14  19
ATOM     19  O   UNL     1      18.897 -47.675   4.994  1.00  0.00    -0.507 OA
ATOM     20  H   UNL     1      19.240 -46.724   4.974  1.00  0.00     0.293 HD
ENDBRANCH  14  19
BRANCH  18  21
ATOM     21  O   UNL     1      17.272 -50.703   8.380  1.00  0.00    -0.508 OA
ATOM     22  H   UNL     1      16.726 -50.226   9.088  1.00  0.00     0.293 HD
ENDBRANCH  18  21
ENDBRANCH  11  13
ENDBRANCH   2  11
TORSDOF 6
ENDMDL
MODEL 2
REMARK VINA RESULT:    -5.000      3.167      5.771
REMARK INTER + INTRA:          -6.915
REMARK INTER:                  -6.212
REMARK INTRA:                  -0.703
REMARK UNBOUND:                -0.600
REMARK SMILES O=C(C=Cc1ccc(O)cc1)c1ccc(O)cc1O
REMARK SMILES IDX 4 1 3 2 5 3 6 4 7 5 8 6 11 7 10 8 9 9 2 11 1 12 12 13 18 14
REMARK SMILES IDX 13 15 17 16 14 17 15 18 19 19 16 21
REMARK H PARENT 9 10 19 20 16 22
REMARK Flexibility Score: inf
ROOT
ATOM      1  C   UNL     1      21.774 -46.939   6.068  1.00  0.00     0.012 C 
ATOM      2  C   UNL     1      22.206 -46.726   7.320  1.00  0.00     0.053 C 
ENDROOT
BRANCH   1   3
ATOM      3  C   UNL     1      22.408 -47.898   5.130  1.00  0.00    -0.025 A 
ATOM      4  C   UNL     1      23.552 -47.573   4.372  1.00  0.00     0.012 A 
ATOM      5  C   UNL     1      24.120 -48.517   3.510  1.00  0.00     0.047 A 
ATOM      6  C   UNL     1      23.564 -49.797   3.402  1.00  0.00     0.115 A 
ATOM      7  C   UNL     1      21.869 -49.191   5.025  1.00  0.00     0.012 A 
ATOM      8  C   UNL     1      22.440 -50.131   4.162  1.00  0.00     0.047 A 
BRANCH   6   9
ATOM      9  O   UNL     1      24.122 -50.744   2.545  1.00  0.00    -0.508 OA
ATOM     10  H   UNL     1      24.828 -50.491   1.863  1.00  0.00     0.293 HD
ENDBRANCH   6   9
ENDBRANCH   1   3
BRANCH   2  11
ATOM     11  C   UNL     1      21.558 -45.751   8.223  1.00  0.00     0.189 C 
ATOM     12  O   UNL     1      22.254 -45.065   9.020  1.00  0.00    -0.289 OA
BRANCH  11  13
ATOM     13  C   UNL     1      20.093 -45.550   8.178  1.00  0.00     0.064 A 
ATOM     14  C   UNL     1      19.519 -44.312   7.795  1.00  0.00     0.130 A 
ATOM     15  C   UNL     1      19.245 -46.630   8.485  1.00  0.00     0.020 A 
ATOM     16  C   UNL     1      18.126 -44.194   7.697  1.00  0.00     0.093 A 
ATOM     17  C   UNL     1      17.858 -46.492   8.397  1.00  0.00     0.047 A 
ATOM     18  C   UNL     1      17.295 -45.279   7.998  1.00  0.00     0.119 A 
BRANCH  14  19
ATOM     19  O   UNL     1      20.292 -43.179   7.536  1.00  0.00    -0.507 OA
ATOM     20  H   UNL     1      19.957 -42.390   6.998  1.00  0.00     0.293 HD
ENDBRANCH  14  19
BRANCH  18  21
ATOM     21  O   UNL     1      15.910 -45.160   7.908  1.00  0.00    -0.508 OA
ATOM     22  H   UNL     1      15.477 -44.432   7.351  1.00  0.00     0.293 HD
ENDBRANCH  18  21
ENDBRANCH  11  13
ENDBRANCH   2  11
TORSDOF 6
ENDMDL
MODEL 3
REMARK VINA RESULT:    -4.945      3.554      5.423
REMARK INTER + INTRA:          -6.846
REMARK INTER:                  -6.286
REMARK INTRA:                  -0.560
REMARK UNBOUND:                -0.600
REMARK SMILES O=C(C=Cc1ccc(O)cc1)c1ccc(O)cc1O
REMARK SMILES IDX 4 1 3 2 5 3 6 4 7 5 8 6 11 7 10 8 9 9 2 11 1 12 12 13 18 14
REMARK SMILES IDX 13 15 17 16 14 17 15 18 19 19 16 21
REMARK H PARENT 9 10 19 20 16 22
REMARK Flexibility Score: inf
ROOT
ATOM      1  C   UNL     1      21.159 -46.744   6.768  1.00  0.00     0.012 C 
ATOM      2  C   UNL     1      21.681 -47.935   7.096  1.00  0.00     0.053 C 
ENDROOT
BRANCH   1   3
ATOM      3  C   UNL     1      19.800 -46.303   7.169  1.00  0.00    -0.025 A 
ATOM      4  C   UNL     1      18.830 -47.196   7.669  1.00  0.00     0.012 A 
ATOM      5  C   UNL     1      17.567 -46.728   8.045  1.00  0.00     0.047 A 
ATOM      6  C   UNL     1      17.258 -45.367   7.938  1.00  0.00     0.115 A 
ATOM      7  C   UNL     1      19.484 -44.937   7.081  1.00  0.00     0.012 A 
ATOM      8  C   UNL     1      18.220 -44.474   7.458  1.00  0.00     0.047 A 
BRANCH   6   9
ATOM      9  O   UNL     1      16.001 -44.892   8.309  1.00  0.00    -0.508 OA
ATOM     10  H   UNL     1      15.495 -44.228   7.734  1.00  0.00     0.293 HD
ENDBRANCH   6   9
ENDBRANCH   1   3
BRANCH   2  11
ATOM     11  C   UNL     1      23.035 -48.347   6.667  1.00  0.00     0.189 C 
ATOM     12  O   UNL     1      23.989 -48.351   7.493  1.00  0.00    -0.289 OA
BRANCH  11  13
ATOM     13  C   UNL     1      23.276 -48.789   5.276  1.00  0.00     0.064 A 
ATOM     14  C   UNL     1      23.847 -47.928   4.305  1.00  0.00     0.130 A 
ATOM     15  C   UNL     1      22.967 -50.113   4.915  1.00  0.00     0.020 A 
ATOM     16  C   UNL     1      24.124 -48.415   3.022  1.00  0.00     0.093 A 
ATOM     17  C   UNL     1      23.235 -50.581   3.627  1.00  0.00     0.047 A 
ATOM     18  C   UNL     1      23.818 -49.737   2.680  1.00  0.00     0.119 A 
BRANCH  14  19
ATOM     19  O   UNL     1      24.123 -46.585   4.569  1.00  0.00    -0.507 OA
ATOM     20  H   UNL     1      23.605 -46.033   5.240  1.00  0.00     0.293 HD
ENDBRANCH  14  19
BRANCH  18  21
ATOM     21  O   UNL     1      24.086 -50.222   1.401  1.00  0.00    -0.508 OA
ATOM     22  H   UNL     1      23.843 -51.169   1.133  1.00  0.00     0.293 HD
ENDBRANCH  18  21
ENDBRANCH  11  13
ENDBRANCH   2  11
TORSDOF 6
ENDMDL
MODEL 4
REMARK VINA RESULT:    -4.935      2.596      6.925
REMARK INTER + INTRA:          -6.834
REMARK INTER:                  -6.564
REMARK INTRA:                  -0.269
REMARK UNBOUND:                -0.600
REMARK SMILES O=C(C=Cc1ccc(O)cc1)c1ccc(O)cc1O
REMARK SMILES IDX 4 1 3 2 5 3 6 4 7 5 8 6 11 7 10 8 9 9 2 11 1 12 12 13 18 14
REMARK SMILES IDX 13 15 17 16 14 17 15 18 19 19 16 21
REMARK H PARENT 9 10 19 20 16 22
REMARK Flexibility Score: inf
ROOT
ATOM      1  C   UNL     1      22.159 -47.320   6.058  1.00  0.00     0.012 C 
ATOM      2  C   UNL     1      20.903 -46.848   6.096  1.00  0.00     0.053 C 
ENDROOT
BRANCH   1   3
ATOM      3  C   UNL     1      22.654 -48.257   5.020  1.00  0.00    -0.025 A 
ATOM      4  C   UNL     1      22.180 -49.581   4.906  1.00  0.00     0.012 A 
ATOM      5  C   UNL     1      22.670 -50.422   3.902  1.00  0.00     0.047 A 
ATOM      6  C   UNL     1      23.628 -49.954   2.994  1.00  0.00     0.115 A 
ATOM      7  C   UNL     1      23.603 -47.795   4.094  1.00  0.00     0.012 A 
ATOM      8  C   UNL     1      24.090 -48.639   3.092  1.00  0.00     0.047 A 
BRANCH   6   9
ATOM      9  O   UNL     1      24.123 -50.786   1.991  1.00  0.00    -0.508 OA
ATOM     10  H   UNL     1      24.236 -50.457   1.039  1.00  0.00     0.293 HD
ENDBRANCH   6   9
ENDBRANCH   1   3
BRANCH   2  11
ATOM     11  C   UNL     1      20.440 -45.925   7.155  1.00  0.00     0.189 C 
ATOM     12  O   UNL     1      19.350 -46.141   7.752  1.00  0.00    -0.289 OA
BRANCH  11  13
ATOM     13  C   UNL     1      21.265 -44.761   7.544  1.00  0.00     0.064 A 
ATOM     14  C   UNL     1      20.738 -43.445   7.571  1.00  0.00     0.130 A 
ATOM     15  C   UNL     1      22.599 -44.969   7.938  1.00  0.00     0.020 A 
ATOM     16  C   UNL     1      21.538 -42.386   8.019  1.00  0.00     0.093 A 
ATOM     17  C   UNL     1      23.390 -43.901   8.367  1.00  0.00     0.047 A 
ATOM     18  C   UNL     1      22.861 -42.609   8.414  1.00  0.00     0.119 A 
BRANCH  14  19
ATOM     19  O   UNL     1      19.444 -43.151   7.138  1.00  0.00    -0.507 OA
ATOM     20  H   UNL     1      18.721 -43.851   7.034  1.00  0.00     0.293 HD
ENDBRANCH  14  19
BRANCH  18  21
ATOM     21  O   UNL     1      23.661 -41.555   8.853  1.00  0.00    -0.508 OA
ATOM     22  H   UNL     1      24.468 -41.248   8.322  1.00  0.00     0.293 HD
ENDBRANCH  18  21
ENDBRANCH  11  13
ENDBRANCH   2  11
TORSDOF 6
ENDMDL
MODEL 5
REMARK VINA RESULT:    -4.714      3.371      5.387
REMARK INTER + INTRA:          -6.554
REMARK INTER:                  -6.057
REMARK INTRA:                  -0.497
REMARK UNBOUND:                -0.600
REMARK SMILES O=C(C=Cc1ccc(O)cc1)c1ccc(O)cc1O
REMARK SMILES IDX 4 1 3 2 5 3 6 4 7 5 8 6 11 7 10 8 9 9 2 11 1 12 12 13 18 14
REMARK SMILES IDX 13 15 17 16 14 17 15 18 19 19 16 21
REMARK H PARENT 9 10 19 20 16 22
REMARK Flexibility Score: inf
ROOT
ATOM      1  C   UNL     1      20.952 -47.218   7.420  1.00  0.00     0.012 C 
ATOM      2  C   UNL     1      21.756 -46.968   6.375  1.00  0.00     0.053 C 
ENDROOT
BRANCH   1   3
ATOM      3  C   UNL     1      19.655 -46.532   7.642  1.00  0.00    -0.025 A 
ATOM      4  C   UNL     1      19.513 -45.131   7.555  1.00  0.00     0.012 A 
ATOM      5  C   UNL     1      18.266 -44.533   7.761  1.00  0.00     0.047 A 
ATOM      6  C   UNL     1      17.145 -45.321   8.046  1.00  0.00     0.115 A 
ATOM      7  C   UNL     1      18.519 -47.313   7.913  1.00  0.00     0.012 A 
ATOM      8  C   UNL     1      17.274 -46.710   8.119  1.00  0.00     0.047 A 
BRANCH   6   9
ATOM      9  O   UNL     1      15.898 -44.734   8.254  1.00  0.00    -0.508 OA
ATOM     10  H   UNL     1      15.077 -45.292   8.458  1.00  0.00     0.293 HD
ENDBRANCH   6   9
ENDBRANCH   1   3
BRANCH   2  11
ATOM     11  C   UNL     1      23.049 -47.662   6.193  1.00  0.00     0.189 C 
ATOM     12  O   UNL     1      23.967 -47.526   7.047  1.00  0.00    -0.289 OA
BRANCH  11  13
ATOM     13  C   UNL     1      23.266 -48.544   5.026  1.00  0.00     0.064 A 
ATOM     14  C   UNL     1      22.768 -49.871   4.988  1.00  0.00     0.130 A 
ATOM     15  C   UNL     1      23.951 -48.040   3.905  1.00  0.00     0.020 A 
ATOM     16  C   UNL     1      22.936 -50.642   3.830  1.00  0.00     0.093 A 
ATOM     17  C   UNL     1      24.124 -48.826   2.764  1.00  0.00     0.047 A 
ATOM     18  C   UNL     1      23.613 -50.124   2.720  1.00  0.00     0.119 A 
BRANCH  14  19
ATOM     19  O   UNL     1      22.133 -50.462   6.081  1.00  0.00    -0.507 OA
ATOM     20  H   UNL     1      22.124 -51.460   6.245  1.00  0.00     0.293 HD
ENDBRANCH  14  19
BRANCH  18  21
ATOM     21  O   UNL     1      23.787 -50.892   1.571  1.00  0.00    -0.508 OA
ATOM     22  H   UNL     1      24.695 -51.261   1.314  1.00  0.00     0.293 HD
ENDBRANCH  18  21
ENDBRANCH  11  13
ENDBRANCH   2  11
TORSDOF 6
ENDMDL
MODEL 6
REMARK VINA RESULT:    -4.473      2.050      3.509
REMARK INTER + INTRA:          -6.249
REMARK INTER:                  -5.694
REMARK INTRA:                  -0.555
REMARK UNBOUND:                -0.600
REMARK SMILES O=C(C=Cc1ccc(O)cc1)c1ccc(O)cc1O
REMARK SMILES IDX 4 1 3 2 5 3 6 4 7 5 8 6 11 7 10 8 9 9 2 11 1 12 12 13 18 14
REMARK SMILES IDX 13 15 17 16 14 17 15 18 19 19 16 21
REMARK H PARENT 9 10 19 20 16 22
REMARK Flexibility Score: inf
ROOT
ATOM      1  C   UNL     1      21.499 -45.504   7.432  1.00  0.00     0.012 C 
ATOM      2  C   UNL     1      21.770 -46.699   7.979  1.00  0.00     0.053 C 
ENDROOT
BRANCH   1   3
ATOM      3  C   UNL     1      22.124 -44.235   7.880  1.00  0.00    -0.025 A 
ATOM      4  C   UNL     1      21.406 -43.241   8.577  1.00  0.00     0.012 A 
ATOM      5  C   UNL     1      22.044 -42.066   8.989  1.00  0.00     0.047 A 
ATOM      6  C   UNL     1      23.404 -41.871   8.720  1.00  0.00     0.115 A 
ATOM      7  C   UNL     1      23.491 -44.034   7.630  1.00  0.00     0.012 A 
ATOM      8  C   UNL     1      24.125 -42.858   8.043  1.00  0.00     0.047 A 
BRANCH   6   9
ATOM      9  O   UNL     1      24.048 -40.703   9.125  1.00  0.00    -0.508 OA
ATOM     10  H   UNL     1      24.876 -40.730   9.708  1.00  0.00     0.293 HD
ENDBRANCH   6   9
ENDBRANCH   1   3
BRANCH   2  11
ATOM     11  C   UNL     1      21.117 -47.943   7.517  1.00  0.00     0.189 C 
ATOM     12  O   UNL     1      20.046 -48.336   8.057  1.00  0.00    -0.289 OA
BRANCH  11  13
ATOM     13  C   UNL     1      21.695 -48.720   6.399  1.00  0.00     0.064 A 
ATOM     14  C   UNL     1      21.601 -50.133   6.341  1.00  0.00     0.130 A 
ATOM     15  C   UNL     1      22.322 -48.034   5.342  1.00  0.00     0.020 A 
ATOM     16  C   UNL     1      22.100 -50.816   5.225  1.00  0.00     0.093 A 
ATOM     17  C   UNL     1      22.829 -48.730   4.243  1.00  0.00     0.047 A 
ATOM     18  C   UNL     1      22.714 -50.120   4.177  1.00  0.00     0.119 A 
BRANCH  14  19
ATOM     19  O   UNL     1      21.049 -50.887   7.378  1.00  0.00    -0.507 OA
ATOM     20  H   UNL     1      20.362 -51.615   7.230  1.00  0.00     0.293 HD
ENDBRANCH  14  19
BRANCH  18  21
ATOM     21  O   UNL     1      23.217 -50.800   3.070  1.00  0.00    -0.508 OA
ATOM     22  H   UNL     1      24.094 -50.531   2.638  1.00  0.00     0.293 HD
ENDBRANCH  18  21
ENDBRANCH  11  13
ENDBRANCH   2  11
TORSDOF 6
ENDMDL
MODEL 7
REMARK VINA RESULT:    -4.115      3.141      6.061
REMARK INTER + INTRA:          -5.797
REMARK INTER:                  -5.831
REMARK INTRA:                   0.033
REMARK UNBOUND:                -0.600
REMARK SMILES O=C(C=Cc1ccc(O)cc1)c1ccc(O)cc1O
REMARK SMILES IDX 4 1 3 2 5 3 6 4 7 5 8 6 11 7 10 8 9 9 2 11 1 12 12 13 18 14
REMARK SMILES IDX 13 15 17 16 14 17 15 18 19 19 16 21
REMARK H PARENT 9 10 19 20 16 22
REMARK Flexibility Score: inf
ROOT
ATOM      1  C   UNL     1      22.664 -47.655   5.770  1.00  0.00     0.012 C 
ATOM      2  C   UNL     1      21.561 -47.767   6.525  1.00  0.00     0.053 C 
ENDROOT
BRANCH   1   3
ATOM      3  C   UNL     1      23.001 -48.583   4.663  1.00  0.00    -0.025 A 
ATOM      4  C   UNL     1      22.529 -49.911   4.617  1.00  0.00     0.012 A 
ATOM      5  C   UNL     1      22.866 -50.744   3.544  1.00  0.00     0.047 A 
ATOM      6  C   UNL     1      23.666 -50.262   2.502  1.00  0.00     0.115 A 
ATOM      7  C   UNL     1      23.790 -48.107   3.603  1.00  0.00     0.012 A 
ATOM      8  C   UNL     1      24.125 -48.943   2.533  1.00  0.00     0.047 A 
BRANCH   6   9
ATOM      9  O   UNL     1      24.008 -51.085   1.429  1.00  0.00    -0.508 OA
ATOM     10  H   UNL     1      24.955 -51.423   1.302  1.00  0.00     0.293 HD
ENDBRANCH   6   9
ENDBRANCH   1   3
BRANCH   2  11
ATOM     11  C   UNL     1      21.263 -46.831   7.630  1.00  0.00     0.189 C 
ATOM     12  O   UNL     1      22.174 -46.489   8.434  1.00  0.00    -0.289 OA
BRANCH  11  13
ATOM     13  C   UNL     1      19.906 -46.264   7.784  1.00  0.00     0.064 A 
ATOM     14  C   UNL     1      18.741 -47.039   7.564  1.00  0.00     0.130 A 
ATOM     15  C   UNL     1      19.768 -44.927   8.200  1.00  0.00     0.020 A 
ATOM     16  C   UNL     1      17.479 -46.477   7.795  1.00  0.00     0.093 A 
ATOM     17  C   UNL     1      18.502 -44.374   8.411  1.00  0.00     0.047 A 
ATOM     18  C   UNL     1      17.356 -45.147   8.216  1.00  0.00     0.119 A 
BRANCH  14  19
ATOM     19  O   UNL     1      18.796 -48.352   7.092  1.00  0.00    -0.507 OA
ATOM     20  H   UNL     1      18.356 -49.130   7.565  1.00  0.00     0.293 HD
ENDBRANCH  14  19
BRANCH  18  21
ATOM     21  O   UNL     1      16.102 -44.584   8.439  1.00  0.00    -0.508 OA
ATOM     22  H   UNL     1      15.554 -44.821   9.259  1.00  0.00     0.293 HD
ENDBRANCH  18  21
ENDBRANCH  11  13
ENDBRANCH   2  11
TORSDOF 6
ENDMDL
MODEL 8
REMARK VINA RESULT:    -4.083      5.888      8.172
REMARK INTER + INTRA:          -5.757
REMARK INTER:                  -5.115
REMARK INTRA:                  -0.642
REMARK UNBOUND:                -0.600
REMARK SMILES O=C(C=Cc1ccc(O)cc1)c1ccc(O)cc1O
REMARK SMILES IDX 4 1 3 2 5 3 6 4 7 5 8 6 11 7 10 8 9 9 2 11 1 12 12 13 18 14
REMARK SMILES IDX 13 15 17 16 14 17 15 18 19 19 16 21
REMARK H PARENT 9 10 19 20 16 22
REMARK Flexibility Score: inf
ROOT
ATOM      1  C   UNL     1      15.136 -44.812   7.989  1.00  0.00     0.012 C 
ATOM      2  C   UNL     1      16.299 -44.717   8.651  1.00  0.00     0.053 C 
ENDROOT
BRANCH   1   3
ATOM      3  C   UNL     1      13.938 -43.997   8.310  1.00  0.00    -0.025 A 
ATOM      4  C   UNL     1      14.027 -42.697   8.848  1.00  0.00     0.012 A 
ATOM      5  C   UNL     1      12.868 -41.964   9.122  1.00  0.00     0.047 A 
ATOM      6  C   UNL     1      11.608 -42.512   8.854  1.00  0.00     0.115 A 
ATOM      7  C   UNL     1      12.668 -44.530   8.031  1.00  0.00     0.012 A 
ATOM      8  C   UNL     1      11.512 -43.794   8.307  1.00  0.00     0.047 A 
BRANCH   6   9
ATOM      9  O   UNL     1      10.447 -41.790   9.125  1.00  0.00    -0.508 OA
ATOM     10  H   UNL     1      10.296 -40.865   8.738  1.00  0.00     0.293 HD
ENDBRANCH   6   9
ENDBRANCH   1   3
BRANCH   2  11
ATOM     11  C   UNL     1      17.469 -45.556   8.312  1.00  0.00     0.189 C 
ATOM     12  O   UNL     1      17.323 -46.791   8.098  1.00  0.00    -0.289 OA
BRANCH  11  13
ATOM     13  C   UNL     1      18.813 -44.950   8.191  1.00  0.00     0.064 A 
ATOM     14  C   UNL     1      19.990 -45.667   8.522  1.00  0.00     0.130 A 
ATOM     15  C   UNL     1      18.930 -43.639   7.695  1.00  0.00     0.020 A 
ATOM     16  C   UNL     1      21.243 -45.075   8.320  1.00  0.00     0.093 A 
ATOM     17  C   UNL     1      20.186 -43.056   7.513  1.00  0.00     0.047 A 
ATOM     18  C   UNL     1      21.344 -43.772   7.819  1.00  0.00     0.119 A 
BRANCH  14  19
ATOM     19  O   UNL     1      19.952 -46.947   9.077  1.00  0.00    -0.507 OA
ATOM     20  H   UNL     1      20.711 -47.612   8.991  1.00  0.00     0.293 HD
ENDBRANCH  14  19
BRANCH  18  21
ATOM     21  O   UNL     1      22.590 -43.180   7.623  1.00  0.00    -0.508 OA
ATOM     22  H   UNL     1      23.115 -42.786   8.396  1.00  0.00     0.293 HD
ENDBRANCH  18  21
ENDBRANCH  11  13
ENDBRANCH   2  11
TORSDOF 6
ENDMDL
MODEL 9
REMARK VINA RESULT:    -3.875      1.987      3.240
REMARK INTER + INTRA:          -5.495
REMARK INTER:                  -4.827
REMARK INTRA:                  -0.668
REMARK UNBOUND:                -0.600
REMARK SMILES O=C(C=Cc1ccc(O)cc1)c1ccc(O)cc1O
REMARK SMILES IDX 4 1 3 2 5 3 6 4 7 5 8 6 11 7 10 8 9 9 2 11 1 12 12 13 18 14
REMARK SMILES IDX 13 15 17 16 14 17 15 18 19 19 16 21
REMARK H PARENT 9 10 19 20 16 22
REMARK Flexibility Score: inf
ROOT
ATOM      1  C   UNL     1      21.944 -45.898   7.667  1.00  0.00     0.012 C 
ATOM      2  C   UNL     1      22.147 -47.018   8.377  1.00  0.00     0.053 C 
ENDROOT
BRANCH   1   3
ATOM      3  C   UNL     1      22.449 -44.563   8.074  1.00  0.00    -0.025 A 
ATOM      4  C   UNL     1      23.688 -44.386   8.723  1.00  0.00     0.012 A 
ATOM      5  C   UNL     1      24.125 -43.105   9.075  1.00  0.00     0.047 A 
ATOM      6  C   UNL     1      23.339 -41.985   8.777  1.00  0.00     0.115 A 
ATOM      7  C   UNL     1      21.677 -43.430   7.765  1.00  0.00     0.012 A 
ATOM      8  C   UNL     1      22.117 -42.151   8.120  1.00  0.00     0.047 A 
BRANCH   6   9
ATOM      9  O   UNL     1      23.765 -40.705   9.125  1.00  0.00    -0.508 OA
ATOM     10  H   UNL     1      23.161 -39.898   9.017  1.00  0.00     0.293 HD
ENDBRANCH   6   9
ENDBRANCH   1   3
BRANCH   2  11
ATOM     11  C   UNL     1      21.617 -48.330   7.948  1.00  0.00     0.189 C 
ATOM     12  O   UNL     1      20.689 -48.882   8.599  1.00  0.00    -0.289 OA
BRANCH  11  13
ATOM     13  C   UNL     1      22.148 -48.990   6.735  1.00  0.00     0.064 A 
ATOM     14  C   UNL     1      21.437 -48.986   5.509  1.00  0.00     0.130 A 
ATOM     15  C   UNL     1      23.412 -49.604   6.789  1.00  0.00     0.020 A 
ATOM     16  C   UNL     1      22.016 -49.562   4.370  1.00  0.00     0.093 A 
ATOM     17  C   UNL     1      23.970 -50.187   5.649  1.00  0.00     0.047 A 
ATOM     18  C   UNL     1      23.278 -50.163   4.437  1.00  0.00     0.119 A 
BRANCH  14  19
ATOM     19  O   UNL     1      20.153 -48.452   5.392  1.00  0.00    -0.507 OA
ATOM     20  H   UNL     1      19.345 -48.842   5.858  1.00  0.00     0.293 HD
ENDBRANCH  14  19
BRANCH  18  21
ATOM     21  O   UNL     1      23.851 -50.741   3.307  1.00  0.00    -0.508 OA
ATOM     22  H   UNL     1      23.988 -51.744   3.237  1.00  0.00     0.293 HD
ENDBRANCH  18  21
ENDBRANCH  11  13
ENDBRANCH   2  11
TORSDOF 6
ENDMDL
