MODEL 1
REMARK VINA RESULT:    -5.211      0.000      0.000
REMARK INTER + INTRA:          -6.124
REMARK INTER:                  -5.973
REMARK INTRA:                  -0.151
REMARK UNBOUND:                -0.151
REMARK SMILES O=C([O-])C=Cc1ccc(O)cc1
REMARK SMILES IDX 6 1 7 2 12 3 8 4 11 5 9 6 5 7 4 8 2 9 1 10 3 11 10 12
REMARK H PARENT 10 13
REMARK Flexibility Score: inf
ROOT
ATOM      1  C   UNL     1     -24.581  61.363  30.348  1.00  0.00    -0.025 A 
ATOM      2  C   UNL     1     -25.379  62.192  31.163  1.00  0.00     0.012 A 
ATOM      3  C   UNL     1     -24.885  59.993  30.272  1.00  0.00     0.012 A 
ATOM      4  C   UNL     1     -26.437  61.651  31.901  1.00  0.00     0.047 A 
ATOM      5  C   UNL     1     -25.943  59.457  31.012  1.00  0.00     0.047 A 
ATOM      6  C   UNL     1     -26.720  60.282  31.829  1.00  0.00     0.115 A 
ENDROOT
BRANCH   1   7
ATOM      7  C   UNL     1     -23.454  61.886  29.536  1.00  0.00     0.010 C 
ATOM      8  C   UNL     1     -22.639  61.111  28.806  1.00  0.00     0.025 C 
BRANCH   8   9
ATOM      9  C   UNL     1     -21.537  61.667  28.002  1.00  0.00     0.064 C 
ATOM     10  O   UNL     1     -21.742  62.137  26.852  1.00  0.00    -0.545 OA
ATOM     11  O   UNL     1     -20.250  61.675  28.523  1.00  0.00    -0.545 OA
ENDBRANCH   8   9
ENDBRANCH   1   7
BRANCH   6  12
ATOM     12  O   UNL     1     -27.771  59.734  32.561  1.00  0.00    -0.508 OA
ATOM     13  H   UNL     1     -27.613  59.268  33.446  1.00  0.00     0.293 HD
ENDBRANCH   6  12
TORSDOF 3
ENDMDL
MODEL 2
REMARK VINA RESULT:    -5.096      4.538      7.021
REMARK INTER + INTRA:          -5.992
REMARK INTER:                  -5.843
REMARK INTRA:                  -0.149
REMARK UNBOUND:                -0.151
REMARK SMILES O=C([O-])C=Cc1ccc(O)cc1
REMARK SMILES IDX 6 1 7 2 12 3 8 4 11 5 9 6 5 7 4 8 2 9 1 10 3 11 10 12
REMARK H PARENT 10 13
REMARK Flexibility Score: inf
ROOT
ATOM      1  C   UNL     1     -23.280  61.115  34.280  1.00  0.00    -0.025 A 
ATOM      2  C   UNL     1     -22.261  61.439  33.361  1.00  0.00     0.012 A 
ATOM      3  C   UNL     1     -23.030  61.274  35.653  1.00  0.00     0.012 A 
ATOM      4  C   UNL     1     -21.016  61.888  33.815  1.00  0.00     0.047 A 
ATOM      5  C   UNL     1     -21.785  61.722  36.103  1.00  0.00     0.047 A 
ATOM      6  C   UNL     1     -20.775  62.028  35.187  1.00  0.00     0.115 A 
ENDROOT
BRANCH   1   7
ATOM      7  C   UNL     1     -24.622  60.646  33.852  1.00  0.00     0.010 C 
ATOM      8  C   UNL     1     -25.751  60.901  34.529  1.00  0.00     0.025 C 
BRANCH   8   9
ATOM      9  C   UNL     1     -27.068  60.429  34.068  1.00  0.00     0.064 C 
ATOM     10  O   UNL     1     -28.030  60.293  34.870  1.00  0.00    -0.545 OA
ATOM     11  O   UNL     1     -27.253  60.130  32.725  1.00  0.00    -0.545 OA
ENDBRANCH   8   9
ENDBRANCH   1   7
BRANCH   6  12
ATOM     12  O   UNL     1     -19.538  62.473  35.649  1.00  0.00    -0.508 OA
ATOM     13  H   UNL     1     -18.689  61.946  35.481  1.00  0.00     0.293 HD
ENDBRANCH   6  12
TORSDOF 3
ENDMDL
MODEL 3
REMARK VINA RESULT:    -5.095     18.878     20.296
REMARK INTER + INTRA:          -5.991
REMARK INTER:                  -5.838
REMARK INTRA:                  -0.153
REMARK UNBOUND:                -0.151
REMARK SMILES O=C([O-])C=Cc1ccc(O)cc1
REMARK SMILES IDX 6 1 7 2 12 3 8 4 11 5 9 6 5 7 4 8 2 9 1 10 3 11 10 12
REMARK H PARENT 10 13
REMARK Flexibility Score: inf
ROOT
ATOM      1  C   UNL     1     -14.108  45.129  24.008  1.00  0.00    -0.025 A 
ATOM      2  C   UNL     1     -15.213  44.772  24.808  1.00  0.00     0.012 A 
ATOM      3  C   UNL     1     -13.378  46.284  24.337  1.00  0.00     0.012 A 
ATOM      4  C   UNL     1     -15.586  45.571  25.894  1.00  0.00     0.047 A 
ATOM      5  C   UNL     1     -13.755  47.079  25.423  1.00  0.00     0.047 A 
ATOM      6  C   UNL     1     -14.860  46.727  26.202  1.00  0.00     0.115 A 
ENDROOT
BRANCH   1   7
ATOM      7  C   UNL     1     -13.661  44.312  22.852  1.00  0.00     0.010 C 
ATOM      8  C   UNL     1     -12.526  44.538  22.175  1.00  0.00     0.025 C 
BRANCH   8   9
ATOM      9  C   UNL     1     -12.109  43.699  21.038  1.00  0.00     0.064 C 
ATOM     10  O   UNL     1     -12.952  43.245  20.219  1.00  0.00    -0.545 OA
ATOM     11  O   UNL     1     -10.763  43.405  20.865  1.00  0.00    -0.545 OA
ENDBRANCH   8   9
ENDBRANCH   1   7
BRANCH   6  12
ATOM     12  O   UNL     1     -15.225  47.529  27.281  1.00  0.00    -0.508 OA
ATOM     13  H   UNL     1     -16.024  47.304  27.862  1.00  0.00     0.293 HD
ENDBRANCH   6  12
TORSDOF 3
ENDMDL
MODEL 4
REMARK VINA RESULT:    -5.048     18.619     20.421
REMARK INTER + INTRA:          -5.937
REMARK INTER:                  -5.784
REMARK INTRA:                  -0.153
REMARK UNBOUND:                -0.151
REMARK SMILES O=C([O-])C=Cc1ccc(O)cc1
REMARK SMILES IDX 6 1 7 2 12 3 8 4 11 5 9 6 5 7 4 8 2 9 1 10 3 11 10 12
REMARK H PARENT 10 13
REMARK Flexibility Score: inf
ROOT
ATOM      1  C   UNL     1     -14.167  45.138  24.455  1.00  0.00    -0.025 A 
ATOM      2  C   UNL     1     -12.980  45.763  24.022  1.00  0.00     0.012 A 
ATOM      3  C   UNL     1     -14.738  44.137  23.652  1.00  0.00     0.012 A 
ATOM      4  C   UNL     1     -12.398  45.406  22.801  1.00  0.00     0.047 A 
ATOM      5  C   UNL     1     -14.153  43.783  22.433  1.00  0.00     0.047 A 
ATOM      6  C   UNL     1     -12.985  44.417  22.003  1.00  0.00     0.115 A 
ENDROOT
BRANCH   1   7
ATOM      7  C   UNL     1     -14.820  45.471  25.747  1.00  0.00     0.010 C 
ATOM      8  C   UNL     1     -15.855  44.787  26.255  1.00  0.00     0.025 C 
BRANCH   8   9
ATOM      9  C   UNL     1     -16.471  45.139  27.546  1.00  0.00     0.064 C 
ATOM     10  O   UNL     1     -17.233  44.335  28.147  1.00  0.00    -0.545 OA
ATOM     11  O   UNL     1     -16.205  46.378  28.114  1.00  0.00    -0.545 OA
ENDBRANCH   8   9
ENDBRANCH   1   7
BRANCH   6  12
ATOM     12  O   UNL     1     -12.413  44.055  20.785  1.00  0.00    -0.508 OA
ATOM     13  H   UNL     1     -12.822  44.339  19.903  1.00  0.00     0.293 HD
ENDBRANCH   6  12
TORSDOF 3
ENDMDL
MODEL 5
REMARK VINA RESULT:    -5.035      2.646      3.675
REMARK INTER + INTRA:          -5.922
REMARK INTER:                  -5.785
REMARK INTRA:                  -0.137
REMARK UNBOUND:                -0.151
REMARK SMILES O=C([O-])C=Cc1ccc(O)cc1
REMARK SMILES IDX 6 1 7 2 12 3 8 4 11 5 9 6 5 7 4 8 2 9 1 10 3 11 10 12
REMARK H PARENT 10 13
REMARK Flexibility Score: inf
ROOT
ATOM      1  C   UNL     1     -26.349  61.288  32.644  1.00  0.00    -0.025 A 
ATOM      2  C   UNL     1     -25.744  60.909  33.860  1.00  0.00     0.012 A 
ATOM      3  C   UNL     1     -27.537  62.036  32.682  1.00  0.00     0.012 A 
ATOM      4  C   UNL     1     -26.336  61.252  35.081  1.00  0.00     0.047 A 
ATOM      5  C   UNL     1     -28.125  62.377  33.905  1.00  0.00     0.047 A 
ATOM      6  C   UNL     1     -27.528  61.985  35.105  1.00  0.00     0.115 A 
ENDROOT
BRANCH   1   7
ATOM      7  C   UNL     1     -25.758  60.960  31.322  1.00  0.00     0.010 C 
ATOM      8  C   UNL     1     -25.021  61.818  30.602  1.00  0.00     0.025 C 
BRANCH   8   9
ATOM      9  C   UNL     1     -24.441  61.453  29.298  1.00  0.00     0.064 C 
ATOM     10  O   UNL     1     -23.383  61.995  28.880  1.00  0.00    -0.545 OA
ATOM     11  O   UNL     1     -25.070  60.493  28.516  1.00  0.00    -0.545 OA
ENDBRANCH   8   9
ENDBRANCH   1   7
BRANCH   6  12
ATOM     12  O   UNL     1     -28.125  62.331  36.316  1.00  0.00    -0.508 OA
ATOM     13  H   UNL     1     -28.979  62.875  36.348  1.00  0.00     0.293 HD
ENDBRANCH   6  12
TORSDOF 3
ENDMDL
MODEL 6
REMARK VINA RESULT:    -4.996      4.117      6.063
REMARK INTER + INTRA:          -5.877
REMARK INTER:                  -5.740
REMARK INTRA:                  -0.137
REMARK UNBOUND:                -0.151
REMARK SMILES O=C([O-])C=Cc1ccc(O)cc1
REMARK SMILES IDX 6 1 7 2 12 3 8 4 11 5 9 6 5 7 4 8 2 9 1 10 3 11 10 12
REMARK H PARENT 10 13
REMARK Flexibility Score: inf
ROOT
ATOM      1  C   UNL     1     -22.898  61.274  33.356  1.00  0.00    -0.025 A 
ATOM      2  C   UNL     1     -22.982  61.275  34.763  1.00  0.00     0.012 A 
ATOM      3  C   UNL     1     -21.698  61.676  32.748  1.00  0.00     0.012 A 
ATOM      4  C   UNL     1     -21.894  61.694  35.536  1.00  0.00     0.047 A 
ATOM      5  C   UNL     1     -20.612  62.094  33.525  1.00  0.00     0.047 A 
ATOM      6  C   UNL     1     -20.708  62.107  34.918  1.00  0.00     0.115 A 
ENDROOT
BRANCH   1   7
ATOM      7  C   UNL     1     -24.019  60.829  32.489  1.00  0.00     0.010 C 
ATOM      8  C   UNL     1     -25.311  61.044  32.773  1.00  0.00     0.025 C 
BRANCH   8   9
ATOM      9  C   UNL     1     -26.396  60.598  31.882  1.00  0.00     0.064 C 
ATOM     10  O   UNL     1     -26.174  60.315  30.674  1.00  0.00    -0.545 OA
ATOM     11  O   UNL     1     -27.686  60.484  32.383  1.00  0.00    -0.545 OA
ENDBRANCH   8   9
ENDBRANCH   1   7
BRANCH   6  12
ATOM     12  O   UNL     1     -19.619  62.527  35.679  1.00  0.00    -0.508 OA
ATOM     13  H   UNL     1     -18.716  62.073  35.606  1.00  0.00     0.293 HD
ENDBRANCH   6  12
TORSDOF 3
ENDMDL
MODEL 7
REMARK VINA RESULT:    -4.936      1.307      5.808
REMARK INTER + INTRA:          -5.808
REMARK INTER:                  -5.671
REMARK INTRA:                  -0.137
REMARK UNBOUND:                -0.151
REMARK SMILES O=C([O-])C=Cc1ccc(O)cc1
REMARK SMILES IDX 6 1 7 2 12 3 8 4 11 5 9 6 5 7 4 8 2 9 1 10 3 11 10 12
REMARK H PARENT 10 13
REMARK Flexibility Score: inf
ROOT
ATOM      1  C   UNL     1     -24.152  61.897  30.434  1.00  0.00    -0.025 A 
ATOM      2  C   UNL     1     -22.933  61.899  31.143  1.00  0.00     0.012 A 
ATOM      3  C   UNL     1     -24.123  61.744  29.037  1.00  0.00     0.012 A 
ATOM      4  C   UNL     1     -21.718  61.775  30.461  1.00  0.00     0.047 A 
ATOM      5  C   UNL     1     -22.906  61.621  28.360  1.00  0.00     0.047 A 
ATOM      6  C   UNL     1     -21.702  61.638  29.068  1.00  0.00     0.115 A 
ENDROOT
BRANCH   1   7
ATOM      7  C   UNL     1     -25.469  62.014  31.108  1.00  0.00     0.010 C 
ATOM      8  C   UNL     1     -25.846  61.250  32.144  1.00  0.00     0.025 C 
BRANCH   8   9
ATOM      9  C   UNL     1     -27.158  61.403  32.796  1.00  0.00     0.064 C 
ATOM     10  O   UNL     1     -27.420  62.409  33.508  1.00  0.00    -0.545 OA
ATOM     11  O   UNL     1     -28.125  60.422  32.621  1.00  0.00    -0.545 OA
ENDBRANCH   8   9
ENDBRANCH   1   7
BRANCH   6  12
ATOM     12  O   UNL     1     -20.497  61.515  28.380  1.00  0.00    -0.508 OA
ATOM     13  H   UNL     1     -20.441  61.029  27.493  1.00  0.00     0.293 HD
ENDBRANCH   6  12
TORSDOF 3
ENDMDL
MODEL 8
REMARK VINA RESULT:    -3.344     18.444     20.072
REMARK INTER + INTRA:          -3.984
REMARK INTER:                  -3.847
REMARK INTRA:                  -0.137
REMARK UNBOUND:                -0.151
REMARK SMILES O=C([O-])C=Cc1ccc(O)cc1
REMARK SMILES IDX 6 1 7 2 12 3 8 4 11 5 9 6 5 7 4 8 2 9 1 10 3 11 10 12
REMARK H PARENT 10 13
REMARK Flexibility Score: inf
ROOT
ATOM      1  C   UNL     1     -14.825  45.162  25.413  1.00  0.00    -0.025 A 
ATOM      2  C   UNL     1     -15.010  44.381  24.253  1.00  0.00     0.012 A 
ATOM      3  C   UNL     1     -13.752  46.066  25.457  1.00  0.00     0.012 A 
ATOM      4  C   UNL     1     -14.121  44.491  23.178  1.00  0.00     0.047 A 
ATOM      5  C   UNL     1     -12.866  46.173  24.380  1.00  0.00     0.047 A 
ATOM      6  C   UNL     1     -13.047  45.386  23.241  1.00  0.00     0.115 A 
ENDROOT
BRANCH   1   7
ATOM      7  C   UNL     1     -15.744  45.093  26.577  1.00  0.00     0.010 C 
ATOM      8  C   UNL     1     -16.399  43.982  26.944  1.00  0.00     0.025 C 
BRANCH   8   9
ATOM      9  C   UNL     1     -17.294  43.947  28.114  1.00  0.00     0.064 C 
ATOM     10  O   UNL     1     -17.842  42.875  28.484  1.00  0.00    -0.545 OA
ATOM     11  O   UNL     1     -17.535  45.116  28.823  1.00  0.00    -0.545 OA
ENDBRANCH   8   9
ENDBRANCH   1   7
BRANCH   6  12
ATOM     12  O   UNL     1     -12.156  45.502  22.176  1.00  0.00    -0.508 OA
ATOM     13  H   UNL     1     -11.229  45.892  22.300  1.00  0.00     0.293 HD
ENDBRANCH   6  12
TORSDOF 3
ENDMDL
