MODEL 1
REMARK VINA RESULT:    -3.684      0.000      0.000
REMARK INTER + INTRA:          -5.332
REMARK INTER:                  -5.192
REMARK INTRA:                  -0.139
REMARK UNBOUND:                -0.139
REMARK SMILES CC1=CCC(=C(C)C)C(=O)CC(C)=CCC1
REMARK SMILES IDX 12 1 14 2 13 3 15 4 16 5 2 6 1 7 3 8 11 10 9 11 10 12 5 13
REMARK SMILES IDX 6 14 7 15 8 16 4 17
REMARK H PARENT
REMARK Flexibility Score: 60.00
ROOT
ATOM      1  C   UNL     1     127.239 121.297 100.399  1.00  0.00    -0.070 C 
ATOM      2  C   UNL     1     127.761 120.076 100.655  1.00  0.00    -0.027 C 
ATOM      3  C   UNL     1     126.035 121.736 101.193  1.00  0.00     0.039 C 
ENDROOT
BRANCH   2   4
ATOM      4  C   UNL     1     128.864 119.423  99.862  1.00  0.00     0.032 C 
BRANCH   4   5
ATOM      5  C   UNL     1     130.220 119.717 100.515  1.00  0.00     0.034 C 
BRANCH   5   6
ATOM      6  C   UNL     1     131.316 119.953  99.495  1.00  0.00    -0.077 C 
ATOM      7  C   UNL     1     131.857 118.771  98.731  1.00  0.00     0.039 C 
ATOM      8  C   UNL     1     131.790 121.183  99.175  1.00  0.00    -0.023 CG0
ATOM      9  G   UNL     1     131.446 122.505  99.837  1.00  0.00     0.000 G0
ENDBRANCH   5   6
ENDBRANCH   4   5
ENDBRANCH   2   4
BRANCH   1  10
ATOM     10  C   UNL     1     127.814 122.250  99.370  1.00  0.00     0.111 C 
BRANCH  10  11
ATOM     11  C   UNL     1     128.924 123.098  99.943  1.00  0.00     0.163 C 
ATOM     12  O   UNL     1     128.705 123.653 101.055  1.00  0.00    -0.294 OA
BRANCH  11  13
ATOM     13  C   UNL     1     130.256 123.291  99.279  1.00  0.00    -0.002 C 
ATOM     14  C   UNL     1     130.420 124.247  98.313  1.00  0.00    -0.069 C 
ATOM     15  C   UNL     1     131.785 124.630  97.788  1.00  0.00     0.039 C 
ATOM     16  C   UNL     1     129.234 124.939  97.679  1.00  0.00     0.039 C 
BRANCH  13  17
ATOM     17  C   UNL     1     131.447 122.523  99.839  1.00  0.00     0.066 CG0
ATOM     18  G   UNL     1     131.768 121.194  99.178  1.00  0.00     0.000 G0
ENDBRANCH  13  17
ENDBRANCH  11  13
ENDBRANCH  10  11
ENDBRANCH   1  10
TORSDOF 0
ENDMDL
MODEL 2
REMARK VINA RESULT:    -3.616     13.572     15.987
REMARK INTER + INTRA:          -5.235
REMARK INTER:                  -5.039
REMARK INTRA:                  -0.196
REMARK UNBOUND:                -0.139
REMARK SMILES CC1=CCC(=C(C)C)C(=O)CC(C)=CCC1
REMARK SMILES IDX 12 1 14 2 13 3 15 4 16 5 2 6 1 7 3 8 11 10 9 11 10 12 5 13
REMARK SMILES IDX 6 14 7 15 8 16 4 17
REMARK H PARENT
REMARK Flexibility Score: 60.00
ROOT
ATOM      1  C   UNL     1     116.309 123.706 106.733  1.00  0.00    -0.070 C 
ATOM      2  C   UNL     1     117.577 123.522 106.300  1.00  0.00    -0.027 C 
ATOM      3  C   UNL     1     115.394 122.508 106.784  1.00  0.00     0.039 C 
ENDROOT
BRANCH   2   4
ATOM      4  C   UNL     1     118.573 124.624 106.047  1.00  0.00     0.032 C 
BRANCH   4   5
ATOM      5  C   UNL     1     119.501 124.774 107.258  1.00  0.00     0.034 C 
BRANCH   5   6
ATOM      6  C   UNL     1     119.731 126.224 107.635  1.00  0.00    -0.077 C 
ATOM      7  C   UNL     1     120.707 127.036 106.821  1.00  0.00     0.039 C 
ATOM      8  C   UNL     1     119.052 126.859 108.623  1.00  0.00    -0.023 CG0
ATOM      9  G   UNL     1     118.070 126.249 109.607  1.00  0.00     0.000 G0
ENDBRANCH   5   6
ENDBRANCH   4   5
ENDBRANCH   2   4
BRANCH   1  10
ATOM     10  C   UNL     1     115.769 125.048 107.185  1.00  0.00     0.111 C 
BRANCH  10  11
ATOM     11  C   UNL     1     115.889 125.231 108.678  1.00  0.00     0.163 C 
ATOM     12  O   UNL     1     115.390 124.331 109.408  1.00  0.00    -0.294 OA
BRANCH  11  13
ATOM     13  C   UNL     1     116.576 126.398 109.325  1.00  0.00    -0.002 C 
ATOM     14  C   UNL     1     115.854 127.474 109.766  1.00  0.00    -0.069 C 
ATOM     15  C   UNL     1     116.471 128.556 110.623  1.00  0.00     0.039 C 
ATOM     16  C   UNL     1     114.406 127.666 109.376  1.00  0.00     0.039 C 
BRANCH  13  17
ATOM     17  C   UNL     1     118.063 126.265 109.634  1.00  0.00     0.066 CG0
ATOM     18  G   UNL     1     119.022 126.856 108.617  1.00  0.00     0.000 G0
ENDBRANCH  13  17
ENDBRANCH  11  13
ENDBRANCH  10  11
ENDBRANCH   1  10
TORSDOF 0
ENDMDL
MODEL 3
REMARK VINA RESULT:    -3.379      9.684     11.933
REMARK INTER + INTRA:          -4.902
REMARK INTER:                  -4.784
REMARK INTRA:                  -0.117
REMARK UNBOUND:                -0.139
REMARK SMILES CC1=CCC(=C(C)C)C(=O)CC(C)=CCC1
REMARK SMILES IDX 12 1 14 2 13 3 15 4 16 5 2 6 1 7 3 8 11 10 9 11 10 12 5 13
REMARK SMILES IDX 6 14 7 15 8 16 4 17
REMARK H PARENT
REMARK Flexibility Score: 60.00
ROOT
ATOM      1  C   UNL     1     120.423 122.909 103.841  1.00  0.00    -0.070 C 
ATOM      2  C   UNL     1     121.746 123.051 103.596  1.00  0.00    -0.027 C 
ATOM      3  C   UNL     1     119.772 121.597 103.482  1.00  0.00     0.039 C 
ENDROOT
BRANCH   2   4
ATOM      4  C   UNL     1     122.521 124.334 103.754  1.00  0.00     0.032 C 
BRANCH   4   5
ATOM      5  C   UNL     1     123.183 124.375 105.136  1.00  0.00     0.034 C 
BRANCH   5   6
ATOM      6  C   UNL     1     123.079 125.740 105.788  1.00  0.00    -0.077 C 
ATOM      7  C   UNL     1     123.973 126.848 105.289  1.00  0.00     0.039 C 
ATOM      8  C   UNL     1     122.174 126.045 106.751  1.00  0.00    -0.023 CG0
ATOM      9  G   UNL     1     121.215 125.097 107.449  1.00  0.00     0.000 G0
ENDBRANCH   5   6
ENDBRANCH   4   5
ENDBRANCH   2   4
BRANCH   1  10
ATOM     10  C   UNL     1     119.571 123.991 104.472  1.00  0.00     0.111 C 
BRANCH  10  11
ATOM     11  C   UNL     1     119.523 123.868 105.975  1.00  0.00     0.163 C 
ATOM     12  O   UNL     1     119.225 122.737 106.448  1.00  0.00    -0.294 OA
BRANCH  11  13
ATOM     13  C   UNL     1     119.827 124.997 106.916  1.00  0.00    -0.002 C 
ATOM     14  C   UNL     1     118.822 125.797 107.391  1.00  0.00    -0.069 C 
ATOM     15  C   UNL     1     119.048 126.788 108.510  1.00  0.00     0.039 C 
ATOM     16  C   UNL     1     117.437 125.768 106.784  1.00  0.00     0.039 C 
BRANCH  13  17
ATOM     17  C   UNL     1     121.246 125.106 107.461  1.00  0.00     0.066 CG0
ATOM     18  G   UNL     1     122.179 126.057 106.734  1.00  0.00     0.000 G0
ENDBRANCH  13  17
ENDBRANCH  11  13
ENDBRANCH  10  11
ENDBRANCH   1  10
TORSDOF 0
ENDMDL
MODEL 4
REMARK VINA RESULT:    -3.356      1.968      4.392
REMARK INTER + INTRA:          -4.868
REMARK INTER:                  -4.724
REMARK INTRA:                  -0.144
REMARK UNBOUND:                -0.139
REMARK SMILES CC1=CCC(=C(C)C)C(=O)CC(C)=CCC1
REMARK SMILES IDX 12 1 14 2 13 3 15 4 16 5 2 6 1 7 3 8 11 10 9 11 10 12 5 13
REMARK SMILES IDX 6 14 7 15 8 16 4 17
REMARK H PARENT
REMARK Flexibility Score: 60.00
ROOT
ATOM      1  C   UNL     1     128.796 122.862  98.881  1.00  0.00    -0.070 C 
ATOM      2  C   UNL     1     127.767 123.011  99.746  1.00  0.00    -0.027 C 
ATOM      3  C   UNL     1     129.301 124.087  98.161  1.00  0.00     0.039 C 
ENDROOT
BRANCH   2   4
ATOM      4  C   UNL     1     127.046 121.881 100.435  1.00  0.00     0.032 C 
BRANCH   4   5
ATOM      5  C   UNL     1     127.707 121.590 101.788  1.00  0.00     0.034 C 
BRANCH   5   6
ATOM      6  C   UNL     1     127.805 120.106 102.078  1.00  0.00    -0.077 C 
ATOM      7  C   UNL     1     126.541 119.349 102.400  1.00  0.00     0.039 C 
ATOM      8  C   UNL     1     128.959 119.399 101.993  1.00  0.00    -0.023 CG0
ATOM      9  G   UNL     1     130.356 119.940 101.743  1.00  0.00     0.000 G0
ENDBRANCH   5   6
ENDBRANCH   4   5
ENDBRANCH   2   4
BRANCH   1  10
ATOM     10  C   UNL     1     129.476 121.534  98.615  1.00  0.00     0.111 C 
BRANCH  10  11
ATOM     11  C   UNL     1     130.630 121.292  99.557  1.00  0.00     0.163 C 
ATOM     12  O   UNL     1     131.442 122.243  99.725  1.00  0.00    -0.294 OA
BRANCH  11  13
ATOM     13  C   UNL     1     130.844 120.008 100.304  1.00  0.00    -0.002 C 
ATOM     14  C   UNL     1     131.582 118.996  99.752  1.00  0.00    -0.069 C 
ATOM     15  C   UNL     1     132.014 117.789 100.554  1.00  0.00     0.039 C 
ATOM     16  C   UNL     1     131.966 119.006  98.289  1.00  0.00     0.039 C 
BRANCH  13  17
ATOM     17  C   UNL     1     130.371 119.941 101.752  1.00  0.00     0.066 CG0
ATOM     18  G   UNL     1     128.974 119.394 101.983  1.00  0.00     0.000 G0
ENDBRANCH  13  17
ENDBRANCH  11  13
ENDBRANCH  10  11
ENDBRANCH   1  10
TORSDOF 0
ENDMDL
MODEL 5
REMARK VINA RESULT:    -3.297      1.915      4.294
REMARK INTER + INTRA:          -4.785
REMARK INTER:                  -4.695
REMARK INTRA:                  -0.091
REMARK UNBOUND:                -0.139
REMARK SMILES CC1=CCC(=C(C)C)C(=O)CC(C)=CCC1
REMARK SMILES IDX 12 1 14 2 13 3 15 4 16 5 2 6 1 7 3 8 11 10 9 11 10 12 5 13
REMARK SMILES IDX 6 14 7 15 8 16 4 17
REMARK H PARENT
REMARK Flexibility Score: 60.00
ROOT
ATOM      1  C   UNL     1     132.338 122.789  98.582  1.00  0.00    -0.070 C 
ATOM      2  C   UNL     1     133.227 121.852  98.181  1.00  0.00    -0.027 C 
ATOM      3  C   UNL     1     132.375 124.138  97.909  1.00  0.00     0.039 C 
ENDROOT
BRANCH   2   4
ATOM      4  C   UNL     1     133.427 120.512  98.840  1.00  0.00     0.032 C 
BRANCH   4   5
ATOM      5  C   UNL     1     132.492 119.475  98.207  1.00  0.00     0.034 C 
BRANCH   5   6
ATOM      6  C   UNL     1     131.799 118.610  99.241  1.00  0.00    -0.077 C 
ATOM      7  C   UNL     1     132.625 117.619 100.022  1.00  0.00     0.039 C 
ATOM      8  C   UNL     1     130.486 118.727  99.558  1.00  0.00    -0.023 CG0
ATOM      9  G   UNL     1     129.447 119.603  98.882  1.00  0.00     0.000 G0
ENDBRANCH   5   6
ENDBRANCH   4   5
ENDBRANCH   2   4
BRANCH   1  10
ATOM     10  C   UNL     1     131.298 122.545  99.657  1.00  0.00     0.111 C 
BRANCH  10  11
ATOM     11  C   UNL     1     129.966 122.140  99.073  1.00  0.00     0.163 C 
ATOM     12  O   UNL     1     129.523 122.837  98.120  1.00  0.00    -0.294 OA
BRANCH  11  13
ATOM     13  C   UNL     1     129.170 120.960  99.548  1.00  0.00    -0.002 C 
ATOM     14  C   UNL     1     128.129 121.128 100.422  1.00  0.00    -0.069 C 
ATOM     15  C   UNL     1     127.163 120.011 100.742  1.00  0.00     0.039 C 
ATOM     16  C   UNL     1     127.918 122.434 101.156  1.00  0.00     0.039 C 
BRANCH  13  17
ATOM     17  C   UNL     1     129.438 119.611  98.892  1.00  0.00     0.066 CG0
ATOM     18  G   UNL     1     130.483 118.731  99.555  1.00  0.00     0.000 G0
ENDBRANCH  13  17
ENDBRANCH  11  13
ENDBRANCH  10  11
ENDBRANCH   1  10
TORSDOF 0
ENDMDL
MODEL 6
REMARK VINA RESULT:    -3.293      2.113      4.412
REMARK INTER + INTRA:          -4.780
REMARK INTER:                  -4.879
REMARK INTRA:                   0.099
REMARK UNBOUND:                -0.139
REMARK SMILES CC1=CCC(=C(C)C)C(=O)CC(C)=CCC1
REMARK SMILES IDX 12 1 14 2 13 3 15 4 16 5 2 6 1 7 3 8 11 10 9 11 10 12 5 13
REMARK SMILES IDX 6 14 7 15 8 16 4 17
REMARK H PARENT
REMARK Flexibility Score: 60.00
ROOT
ATOM      1  C   UNL     1     129.407 119.750  99.588  1.00  0.00    -0.070 C 
ATOM      2  C   UNL     1     128.750 120.932  99.540  1.00  0.00    -0.027 C 
ATOM      3  C   UNL     1     129.137 118.835 100.755  1.00  0.00     0.039 C 
ENDROOT
BRANCH   2   4
ATOM      4  C   UNL     1     129.005 122.022  98.532  1.00  0.00     0.032 C 
BRANCH   4   5
ATOM      5  C   UNL     1     129.705 123.206  99.212  1.00  0.00     0.034 C 
BRANCH   5   6
ATOM      6  C   UNL     1     131.155 123.342  98.791  1.00  0.00    -0.077 C 
ATOM      7  C   UNL     1     131.493 124.283  97.663  1.00  0.00     0.039 C 
ATOM      8  C   UNL     1     132.180 122.718  99.422  1.00  0.00    -0.023 CG0
ATOM      9  G   UNL     1     132.091 121.691 100.536  1.00  0.00     0.000 G0
ENDBRANCH   5   6
ENDBRANCH   4   5
ENDBRANCH   2   4
BRANCH   1  10
ATOM     10  C   UNL     1     130.382 119.294  98.521  1.00  0.00     0.111 C 
BRANCH  10  11
ATOM     11  C   UNL     1     131.779 119.805  98.777  1.00  0.00     0.163 C 
ATOM     12  O   UNL     1     132.547 119.899  97.781  1.00  0.00    -0.294 OA
BRANCH  11  13
ATOM     13  C   UNL     1     132.282 120.219 100.129  1.00  0.00    -0.002 C 
ATOM     14  C   UNL     1     133.024 119.356 100.889  1.00  0.00    -0.069 C 
ATOM     15  C   UNL     1     133.741 119.805 102.143  1.00  0.00     0.039 C 
ATOM     16  C   UNL     1     133.128 117.887 100.543  1.00  0.00     0.039 C 
BRANCH  13  17
ATOM     17  C   UNL     1     132.095 121.674 100.543  1.00  0.00     0.066 CG0
ATOM     18  G   UNL     1     132.194 122.710  99.437  1.00  0.00     0.000 G0
ENDBRANCH  13  17
ENDBRANCH  11  13
ENDBRANCH  10  11
ENDBRANCH   1  10
TORSDOF 0
ENDMDL
MODEL 7
REMARK VINA RESULT:    -3.258     11.724     13.609
REMARK INTER + INTRA:          -4.730
REMARK INTER:                  -4.562
REMARK INTRA:                  -0.168
REMARK UNBOUND:                -0.139
REMARK SMILES CC1=CCC(=C(C)C)C(=O)CC(C)=CCC1
REMARK SMILES IDX 12 1 14 2 13 3 15 4 16 5 2 6 1 7 3 8 11 10 9 11 10 12 5 13
REMARK SMILES IDX 6 14 7 15 8 16 4 17
REMARK H PARENT
REMARK Flexibility Score: 60.00
ROOT
ATOM      1  C   UNL     1     116.635 125.383 107.710  1.00  0.00    -0.070 C 
ATOM      2  C   UNL     1     116.255 124.099 107.515  1.00  0.00    -0.027 C 
ATOM      3  C   UNL     1     115.733 126.273 108.528  1.00  0.00     0.039 C 
ENDROOT
BRANCH   2   4
ATOM      4  C   UNL     1     116.954 123.119 106.609  1.00  0.00     0.032 C 
BRANCH   4   5
ATOM      5  C   UNL     1     117.906 122.240 107.429  1.00  0.00     0.034 C 
BRANCH   5   6
ATOM      6  C   UNL     1     119.244 122.039 106.746  1.00  0.00    -0.077 C 
ATOM      7  C   UNL     1     119.330 121.060 105.602  1.00  0.00     0.039 C 
ATOM      8  C   UNL     1     120.359 122.746 107.057  1.00  0.00    -0.023 CG0
ATOM      9  G   UNL     1     120.536 123.737 108.193  1.00  0.00     0.000 G0
ENDBRANCH   5   6
ENDBRANCH   4   5
ENDBRANCH   2   4
BRANCH   1  10
ATOM     10  C   UNL     1     117.925 125.962 107.166  1.00  0.00     0.111 C 
BRANCH  10  11
ATOM     11  C   UNL     1     119.057 125.850 108.157  1.00  0.00     0.163 C 
ATOM     12  O   UNL     1     118.852 126.307 109.315  1.00  0.00    -0.294 OA
BRANCH  11  13
ATOM     13  C   UNL     1     120.381 125.215 107.846  1.00  0.00    -0.002 C 
ATOM     14  C   UNL     1     121.435 125.977 107.420  1.00  0.00    -0.069 C 
ATOM     15  C   UNL     1     122.837 125.421 107.320  1.00  0.00     0.039 C 
ATOM     16  C   UNL     1     121.246 127.411 106.978  1.00  0.00     0.039 C 
BRANCH  13  17
ATOM     17  C   UNL     1     120.561 123.741 108.190  1.00  0.00     0.066 CG0
ATOM     18  G   UNL     1     120.358 122.752 107.056  1.00  0.00     0.000 G0
ENDBRANCH  13  17
ENDBRANCH  11  13
ENDBRANCH  10  11
ENDBRANCH   1  10
TORSDOF 0
ENDMDL
MODEL 8
REMARK VINA RESULT:    -3.248      1.698      2.781
REMARK INTER + INTRA:          -4.716
REMARK INTER:                  -4.928
REMARK INTRA:                   0.212
REMARK UNBOUND:                -0.139
REMARK SMILES CC1=CCC(=C(C)C)C(=O)CC(C)=CCC1
REMARK SMILES IDX 12 1 14 2 13 3 15 4 16 5 2 6 1 7 3 8 11 10 9 11 10 12 5 13
REMARK SMILES IDX 6 14 7 15 8 16 4 17
REMARK H PARENT
REMARK Flexibility Score: 60.00
ROOT
ATOM      1  C   UNL     1     129.252 123.708  98.697  1.00  0.00    -0.070 C 
ATOM      2  C   UNL     1     128.568 122.541  98.679  1.00  0.00    -0.027 C 
ATOM      3  C   UNL     1     129.240 124.557  97.451  1.00  0.00     0.039 C 
ENDROOT
BRANCH   2   4
ATOM      4  C   UNL     1     128.593 121.508  99.776  1.00  0.00     0.032 C 
BRANCH   4   5
ATOM      5  C   UNL     1     129.656 120.446  99.467  1.00  0.00     0.034 C 
BRANCH   5   6
ATOM      6  C   UNL     1     130.902 120.610 100.314  1.00  0.00    -0.077 C 
ATOM      7  C   UNL     1     130.915 120.017 101.701  1.00  0.00     0.039 C 
ATOM      8  C   UNL     1     132.040 121.199  99.869  1.00  0.00    -0.023 CG0
ATOM      9  G   UNL     1     132.253 121.912  98.546  1.00  0.00     0.000 G0
ENDBRANCH   5   6
ENDBRANCH   4   5
ENDBRANCH   2   4
BRANCH   1  10
ATOM     10  C   UNL     1     130.010 124.212  99.909  1.00  0.00     0.111 C 
BRANCH  10  11
ATOM     11  C   UNL     1     131.504 124.092  99.730  1.00  0.00     0.163 C 
ATOM     12  O   UNL     1     132.231 124.557 100.650  1.00  0.00    -0.294 OA
BRANCH  11  13
ATOM     13  C   UNL     1     132.154 123.440  98.544  1.00  0.00    -0.002 C 
ATOM     14  C   UNL     1     132.765 124.198  97.582  1.00  0.00    -0.069 C 
ATOM     15  C   UNL     1     133.625 123.582  96.503  1.00  0.00     0.039 C 
ATOM     16  C   UNL     1     132.573 125.697  97.517  1.00  0.00     0.039 C 
BRANCH  13  17
ATOM     17  C   UNL     1     132.267 121.921  98.541  1.00  0.00     0.066 CG0
ATOM     18  G   UNL     1     132.052 121.223  99.872  1.00  0.00     0.000 G0
ENDBRANCH  13  17
ENDBRANCH  11  13
ENDBRANCH  10  11
ENDBRANCH   1  10
TORSDOF 0
ENDMDL
MODEL 9
REMARK VINA RESULT:    -3.201     11.140     13.791
REMARK INTER + INTRA:          -4.650
REMARK INTER:                  -4.580
REMARK INTRA:                  -0.071
REMARK UNBOUND:                -0.139
REMARK SMILES CC1=CCC(=C(C)C)C(=O)CC(C)=CCC1
REMARK SMILES IDX 12 1 14 2 13 3 15 4 16 5 2 6 1 7 3 8 11 10 9 11 10 12 5 13
REMARK SMILES IDX 6 14 7 15 8 16 4 17
REMARK H PARENT
REMARK Flexibility Score: 60.00
ROOT
ATOM      1  C   UNL     1     121.527 126.102 106.442  1.00  0.00    -0.070 C 
ATOM      2  C   UNL     1     121.009 126.893 107.408  1.00  0.00    -0.027 C 
ATOM      3  C   UNL     1     122.995 126.238 106.123  1.00  0.00     0.039 C 
ENDROOT
BRANCH   2   4
ATOM      4  C   UNL     1     119.545 126.993 107.751  1.00  0.00     0.032 C 
BRANCH   4   5
ATOM      5  C   UNL     1     119.206 126.011 108.879  1.00  0.00     0.034 C 
BRANCH   5   6
ATOM      6  C   UNL     1     117.958 125.202 108.588  1.00  0.00    -0.077 C 
ATOM      7  C   UNL     1     116.617 125.886 108.682  1.00  0.00     0.039 C 
ATOM      8  C   UNL     1     117.980 123.911 108.175  1.00  0.00    -0.023 CG0
ATOM      9  G   UNL     1     119.189 122.999 108.059  1.00  0.00     0.000 G0
ENDBRANCH   5   6
ENDBRANCH   4   5
ENDBRANCH   2   4
BRANCH   1  10
ATOM     10  C   UNL     1     120.713 125.076 105.679  1.00  0.00     0.111 C 
BRANCH  10  11
ATOM     11  C   UNL     1     120.893 123.685 106.237  1.00  0.00     0.163 C 
ATOM     12  O   UNL     1     122.076 123.269 106.370  1.00  0.00    -0.294 OA
BRANCH  11  13
ATOM     13  C   UNL     1     119.755 122.798 106.652  1.00  0.00    -0.002 C 
ATOM     14  C   UNL     1     119.365 121.751 105.862  1.00  0.00    -0.069 C 
ATOM     15  C   UNL     1     118.388 120.702 106.345  1.00  0.00     0.039 C 
ATOM     16  C   UNL     1     119.853 121.612 104.437  1.00  0.00     0.039 C 
BRANCH  13  17
ATOM     17  C   UNL     1     119.178 122.989 108.050  1.00  0.00     0.066 CG0
ATOM     18  G   UNL     1     117.980 123.914 108.167  1.00  0.00     0.000 G0
ENDBRANCH  13  17
ENDBRANCH  11  13
ENDBRANCH  10  11
ENDBRANCH   1  10
TORSDOF 0
ENDMDL
