MODEL 1
REMARK VINA RESULT:    -4.435      0.000      0.000
REMARK INTER + INTRA:          -6.222
REMARK INTER:                  -5.991
REMARK INTRA:                  -0.231
REMARK UNBOUND:                -0.231
REMARK SMILES CCCCCCC=CC(=O)[O-]
REMARK SMILES IDX 5 1 6 2 7 3 8 4 9 5 10 6 11 7 4 8 3 9 2 10 1 11
REMARK H PARENT
REMARK Flexibility Score: inf
ROOT
ATOM      1  C   UNL     1      14.450  13.924  38.881  1.00  0.00     0.004 C 
ENDROOT
BRANCH   1   2
ATOM      2  C   UNL     1      15.346  13.236  37.840  1.00  0.00     0.027 C 
BRANCH   2   3
ATOM      3  C   UNL     1      14.649  13.128  36.515  1.00  0.00    -0.025 C 
ATOM      4  C   UNL     1      14.018  12.008  36.148  1.00  0.00     0.020 C 
BRANCH   4   5
ATOM      5  C   UNL     1      13.342  11.883  34.847  1.00  0.00     0.064 C 
ATOM      6  O   UNL     1      12.612  12.820  34.434  1.00  0.00    -0.545 OA
ATOM      7  O   UNL     1      13.497  10.743  34.065  1.00  0.00    -0.545 OA
ENDBRANCH   4   5
ENDBRANCH   2   3
ENDBRANCH   1   2
BRANCH   1   8
ATOM      8  C   UNL     1      15.157  14.125  40.232  1.00  0.00     0.000 C 
BRANCH   8   9
ATOM      9  C   UNL     1      16.524  13.424  40.291  1.00  0.00    -0.000 C 
BRANCH   9  10
ATOM     10  C   UNL     1      17.478  14.077  41.304  1.00  0.00    -0.003 C 
ATOM     11  C   UNL     1      18.482  13.086  41.898  1.00  0.00     0.004 C 
ENDBRANCH   9  10
ENDBRANCH   8   9
ENDBRANCH   1   8
TORSDOF 6
ENDMDL
MODEL 2
REMARK VINA RESULT:    -4.270      0.447      1.060
REMARK INTER + INTRA:          -5.999
REMARK INTER:                  -5.752
REMARK INTRA:                  -0.247
REMARK UNBOUND:                -0.231
REMARK SMILES CCCCCCC=CC(=O)[O-]
REMARK SMILES IDX 5 1 6 2 7 3 8 4 9 5 10 6 11 7 4 8 3 9 2 10 1 11
REMARK H PARENT
REMARK Flexibility Score: inf
ROOT
ATOM      1  C   UNL     1      14.541  13.970  39.119  1.00  0.00     0.004 C 
ENDROOT
BRANCH   1   2
ATOM      2  C   UNL     1      15.486  13.983  37.908  1.00  0.00     0.027 C 
BRANCH   2   3
ATOM      3  C   UNL     1      14.750  13.639  36.645  1.00  0.00    -0.025 C 
ATOM      4  C   UNL     1      14.297  12.403  36.417  1.00  0.00     0.020 C 
BRANCH   4   5
ATOM      5  C   UNL     1      13.586  12.048  35.178  1.00  0.00     0.064 C 
ATOM      6  O   UNL     1      13.710  10.890  34.701  1.00  0.00    -0.545 OA
ATOM      7  O   UNL     1      12.779  12.973  34.525  1.00  0.00    -0.545 OA
ENDBRANCH   4   5
ENDBRANCH   2   3
ENDBRANCH   1   2
BRANCH   1   8
ATOM      8  C   UNL     1      15.287  14.125  40.455  1.00  0.00     0.000 C 
BRANCH   8   9
ATOM      9  C   UNL     1      16.707  13.538  40.408  1.00  0.00    -0.000 C 
BRANCH   9  10
ATOM     10  C   UNL     1      17.619  14.115  41.503  1.00  0.00    -0.003 C 
ATOM     11  C   UNL     1      18.614  13.089  42.048  1.00  0.00     0.004 C 
ENDBRANCH   9  10
ENDBRANCH   8   9
ENDBRANCH   1   8
TORSDOF 6
ENDMDL
MODEL 3
REMARK VINA RESULT:    -4.120      3.976      6.551
REMARK INTER + INTRA:          -5.797
REMARK INTER:                  -5.574
REMARK INTRA:                  -0.222
REMARK UNBOUND:                -0.231
REMARK SMILES CCCCCCC=CC(=O)[O-]
REMARK SMILES IDX 5 1 6 2 7 3 8 4 9 5 10 6 11 7 4 8 3 9 2 10 1 11
REMARK H PARENT
REMARK Flexibility Score: inf
ROOT
ATOM      1  C   UNL     1      15.324  12.894  37.679  1.00  0.00     0.004 C 
ENDROOT
BRANCH   1   2
ATOM      2  C   UNL     1      14.908  13.909  38.756  1.00  0.00     0.027 C 
BRANCH   2   3
ATOM      3  C   UNL     1      15.938  13.993  39.845  1.00  0.00    -0.025 C 
ATOM      4  C   UNL     1      16.711  12.948  40.156  1.00  0.00     0.020 C 
BRANCH   4   5
ATOM      5  C   UNL     1      17.715  13.012  41.230  1.00  0.00     0.064 C 
ATOM      6  O   UNL     1      18.198  14.125  41.563  1.00  0.00    -0.545 OA
ATOM      7  O   UNL     1      18.139  11.860  41.884  1.00  0.00    -0.545 OA
ENDBRANCH   4   5
ENDBRANCH   2   3
ENDBRANCH   1   2
BRANCH   1   8
ATOM      8  C   UNL     1      14.246  12.700  36.600  1.00  0.00     0.000 C 
BRANCH   8   9
ATOM      9  C   UNL     1      14.517  11.475  35.710  1.00  0.00    -0.000 C 
BRANCH   9  10
ATOM     10  C   UNL     1      14.111  11.709  34.247  1.00  0.00    -0.003 C 
ATOM     11  C   UNL     1      13.203  12.927  34.070  1.00  0.00     0.004 C 
ENDBRANCH   9  10
ENDBRANCH   8   9
ENDBRANCH   1   8
TORSDOF 6
ENDMDL
MODEL 4
REMARK VINA RESULT:    -4.091      3.528      6.451
REMARK INTER + INTRA:          -5.757
REMARK INTER:                  -5.756
REMARK INTRA:                  -0.002
REMARK UNBOUND:                -0.231
REMARK SMILES CCCCCCC=CC(=O)[O-]
REMARK SMILES IDX 5 1 6 2 7 3 8 4 9 5 10 6 11 7 4 8 3 9 2 10 1 11
REMARK H PARENT
REMARK Flexibility Score: inf
ROOT
ATOM      1  C   UNL     1      14.063  12.078  36.689  1.00  0.00     0.004 C 
ENDROOT
BRANCH   1   2
ATOM      2  C   UNL     1      14.605  13.494  36.938  1.00  0.00     0.027 C 
BRANCH   2   3
ATOM      3  C   UNL     1      14.854  13.728  38.401  1.00  0.00    -0.025 C 
ATOM      4  C   UNL     1      15.992  13.341  38.985  1.00  0.00     0.020 C 
BRANCH   4   5
ATOM      5  C   UNL     1      16.244  13.551  40.419  1.00  0.00     0.064 C 
ATOM      6  O   UNL     1      15.375  14.125  41.124  1.00  0.00    -0.545 OA
ATOM      7  O   UNL     1      17.429  13.124  41.008  1.00  0.00    -0.545 OA
ENDBRANCH   4   5
ENDBRANCH   2   3
ENDBRANCH   1   2
BRANCH   1   8
ATOM      8  C   UNL     1      14.428  11.541  35.295  1.00  0.00     0.000 C 
BRANCH   8   9
ATOM      9  C   UNL     1      13.433  11.991  34.212  1.00  0.00    -0.000 C 
BRANCH   9  10
ATOM     10  C   UNL     1      13.529  13.496  33.914  1.00  0.00    -0.003 C 
ATOM     11  C   UNL     1      12.250  14.060  33.291  1.00  0.00     0.004 C 
ENDBRANCH   9  10
ENDBRANCH   8   9
ENDBRANCH   1   8
TORSDOF 6
ENDMDL
MODEL 5
REMARK VINA RESULT:    -3.863      1.006      1.356
REMARK INTER + INTRA:          -5.449
REMARK INTER:                  -5.296
REMARK INTRA:                  -0.152
REMARK UNBOUND:                -0.231
REMARK SMILES CCCCCCC=CC(=O)[O-]
REMARK SMILES IDX 5 1 6 2 7 3 8 4 9 5 10 6 11 7 4 8 3 9 2 10 1 11
REMARK H PARENT
REMARK Flexibility Score: inf
ROOT
ATOM      1  C   UNL     1      15.929  13.201  39.511  1.00  0.00     0.004 C 
ENDROOT
BRANCH   1   2
ATOM      2  C   UNL     1      14.950  13.963  38.604  1.00  0.00     0.027 C 
BRANCH   2   3
ATOM      3  C   UNL     1      15.025  13.463  37.190  1.00  0.00    -0.025 C 
ATOM      4  C   UNL     1      14.112  12.619  36.699  1.00  0.00     0.020 C 
BRANCH   4   5
ATOM      5  C   UNL     1      14.179  12.111  35.320  1.00  0.00     0.064 C 
ATOM      6  O   UNL     1      14.659  12.840  34.413  1.00  0.00    -0.545 OA
ATOM      7  O   UNL     1      13.722  10.837  35.002  1.00  0.00    -0.545 OA
ENDBRANCH   4   5
ENDBRANCH   2   3
ENDBRANCH   1   2
BRANCH   1   8
ATOM      8  C   UNL     1      16.223  13.946  40.824  1.00  0.00     0.000 C 
BRANCH   8   9
ATOM      9  C   UNL     1      17.729  14.124  41.076  1.00  0.00    -0.000 C 
BRANCH   9  10
ATOM     10  C   UNL     1      18.336  12.955  41.867  1.00  0.00    -0.003 C 
ATOM     11  C   UNL     1      19.076  13.411  43.126  1.00  0.00     0.004 C 
ENDBRANCH   9  10
ENDBRANCH   8   9
ENDBRANCH   1   8
TORSDOF 6
ENDMDL
MODEL 6
REMARK VINA RESULT:    -1.716     20.293     22.064
REMARK INTER + INTRA:          -2.549
REMARK INTER:                  -2.265
REMARK INTRA:                  -0.284
REMARK UNBOUND:                -0.231
REMARK SMILES CCCCCCC=CC(=O)[O-]
REMARK SMILES IDX 5 1 6 2 7 3 8 4 9 5 10 6 11 7 4 8 3 9 2 10 1 11
REMARK H PARENT
REMARK Flexibility Score: inf
ROOT
ATOM      1  C   UNL     1       7.252  -1.087  23.951  1.00  0.00     0.004 C 
ENDROOT
BRANCH   1   2
ATOM      2  C   UNL     1       6.135  -1.080  25.005  1.00  0.00     0.027 C 
BRANCH   2   3
ATOM      3  C   UNL     1       5.014  -1.999  24.612  1.00  0.00    -0.025 C 
ATOM      4  C   UNL     1       5.211  -3.312  24.459  1.00  0.00     0.020 C 
BRANCH   4   5
ATOM      5  C   UNL     1       4.125  -4.222  24.060  1.00  0.00     0.064 C 
ATOM      6  O   UNL     1       2.966  -3.766  23.884  1.00  0.00    -0.545 OA
ATOM      7  O   UNL     1       4.361  -5.580  23.875  1.00  0.00    -0.545 OA
ENDBRANCH   4   5
ENDBRANCH   2   3
ENDBRANCH   1   2
BRANCH   1   8
ATOM      8  C   UNL     1       8.101   0.194  23.977  1.00  0.00     0.000 C 
BRANCH   8   9
ATOM      9  C   UNL     1       9.611  -0.100  23.992  1.00  0.00    -0.000 C 
BRANCH   9  10
ATOM     10  C   UNL     1       9.952  -1.394  24.746  1.00  0.00    -0.003 C 
ATOM     11  C   UNL     1      11.096  -1.215  25.746  1.00  0.00     0.004 C 
ENDBRANCH   9  10
ENDBRANCH   8   9
ENDBRANCH   1   8
TORSDOF 6
ENDMDL
