MODEL 1
REMARK VINA RESULT:    -5.643      0.000      0.000
REMARK INTER + INTRA:          -7.572
REMARK INTER:                  -7.457
REMARK INTRA:                  -0.114
REMARK UNBOUND:                -0.114
REMARK SMILES CCCCC=CC=CCO
REMARK SMILES IDX 5 1 6 2 4 3 3 4 2 5 1 6 7 7 8 8 9 9 10 10
REMARK H PARENT 10 11
REMARK Flexibility Score: inf
ROOT
ATOM      1  C   UNL     1     -15.209   5.273 -18.534  1.00  0.00    -0.027 C 
ATOM      2  C   UNL     1     -15.929   5.789 -17.534  1.00  0.00    -0.005 C 
ENDROOT
BRANCH   1   3
ATOM      3  C   UNL     1     -15.587   3.976 -19.187  1.00  0.00     0.027 C 
BRANCH   3   4
ATOM      4  C   UNL     1     -14.412   3.386 -19.976  1.00  0.00     0.004 C 
BRANCH   4   5
ATOM      5  C   UNL     1     -14.453   1.855 -19.957  1.00  0.00    -0.003 C 
ATOM      6  C   UNL     1     -14.080   1.277 -21.320  1.00  0.00     0.004 C 
ENDBRANCH   4   5
ENDBRANCH   3   4
ENDBRANCH   1   3
BRANCH   2   7
ATOM      7  C   UNL     1     -15.539   7.057 -16.893  1.00  0.00    -0.002 C 
ATOM      8  C   UNL     1     -15.881   7.322 -15.631  1.00  0.00     0.001 C 
BRANCH   8   9
ATOM      9  C   UNL     1     -15.493   8.614 -14.975  1.00  0.00     0.183 C 
BRANCH   9  10
ATOM     10  O   UNL     1     -14.378   8.427 -14.146  1.00  0.00    -0.392 OA
ATOM     11  H   UNL     1     -14.279   9.259 -13.612  1.00  0.00     0.210 HD
ENDBRANCH   9  10
ENDBRANCH   8   9
ENDBRANCH   2   7
TORSDOF 6
ENDMDL
MODEL 2
REMARK VINA RESULT:    -5.639      1.077      1.561
REMARK INTER + INTRA:          -7.566
REMARK INTER:                  -7.337
REMARK INTRA:                  -0.230
REMARK UNBOUND:                -0.114
REMARK SMILES CCCCC=CC=CCO
REMARK SMILES IDX 5 1 6 2 4 3 3 4 2 5 1 6 7 7 8 8 9 9 10 10
REMARK H PARENT 10 11
REMARK Flexibility Score: inf
ROOT
ATOM      1  C   UNL     1     -14.574   5.160 -19.449  1.00  0.00    -0.027 C 
ATOM      2  C   UNL     1     -15.506   4.766 -18.577  1.00  0.00    -0.005 C 
ENDROOT
BRANCH   1   3
ATOM      3  C   UNL     1     -14.189   4.310 -20.625  1.00  0.00     0.027 C 
BRANCH   3   4
ATOM      4  C   UNL     1     -14.403   2.821 -20.330  1.00  0.00     0.004 C 
BRANCH   4   5
ATOM      5  C   UNL     1     -13.438   1.955 -21.147  1.00  0.00    -0.003 C 
ATOM      6  C   UNL     1     -14.141   0.721 -21.705  1.00  0.00     0.004 C 
ENDBRANCH   4   5
ENDBRANCH   3   4
ENDBRANCH   1   3
BRANCH   2   7
ATOM      7  C   UNL     1     -15.865   5.603 -17.420  1.00  0.00    -0.002 C 
ATOM      8  C   UNL     1     -15.495   6.884 -17.358  1.00  0.00     0.001 C 
BRANCH   8   9
ATOM      9  C   UNL     1     -15.852   7.740 -16.180  1.00  0.00     0.183 C 
BRANCH   9  10
ATOM     10  O   UNL     1     -15.889   6.971 -15.008  1.00  0.00    -0.392 OA
ATOM     11  H   UNL     1     -16.847   6.787 -14.820  1.00  0.00     0.210 HD
ENDBRANCH   9  10
ENDBRANCH   8   9
ENDBRANCH   2   7
TORSDOF 6
ENDMDL
MODEL 3
REMARK VINA RESULT:    -5.549      1.609      2.098
REMARK INTER + INTRA:          -7.448
REMARK INTER:                  -7.169
REMARK INTRA:                  -0.279
REMARK UNBOUND:                -0.114
REMARK SMILES CCCCC=CC=CCO
REMARK SMILES IDX 5 1 6 2 4 3 3 4 2 5 1 6 7 7 8 8 9 9 10 10
REMARK H PARENT 10 11
REMARK Flexibility Score: inf
ROOT
ATOM      1  C   UNL     1     -14.305   4.670 -19.941  1.00  0.00    -0.027 C 
ATOM      2  C   UNL     1     -15.175   4.564 -18.933  1.00  0.00    -0.005 C 
ENDROOT
BRANCH   1   3
ATOM      3  C   UNL     1     -13.938   3.488 -20.790  1.00  0.00     0.027 C 
BRANCH   3   4
ATOM      4  C   UNL     1     -13.766   2.224 -19.939  1.00  0.00     0.004 C 
BRANCH   4   5
ATOM      5  C   UNL     1     -14.612   1.072 -20.490  1.00  0.00    -0.003 C 
ATOM      6  C   UNL     1     -14.119   0.634 -21.866  1.00  0.00     0.004 C 
ENDBRANCH   4   5
ENDBRANCH   3   4
ENDBRANCH   1   3
BRANCH   2   7
ATOM      7  C   UNL     1     -15.517   5.730 -18.100  1.00  0.00    -0.002 C 
ATOM      8  C   UNL     1     -14.824   6.866 -18.191  1.00  0.00     0.001 C 
BRANCH   8   9
ATOM      9  C   UNL     1     -15.162   8.054 -17.341  1.00  0.00     0.183 C 
BRANCH   9  10
ATOM     10  O   UNL     1     -14.119   8.990 -17.369  1.00  0.00    -0.392 OA
ATOM     11  H   UNL     1     -14.519   9.869 -17.133  1.00  0.00     0.210 HD
ENDBRANCH   9  10
ENDBRANCH   8   9
ENDBRANCH   2   7
TORSDOF 6
ENDMDL
MODEL 4
REMARK VINA RESULT:    -5.540      1.781      2.099
REMARK INTER + INTRA:          -7.436
REMARK INTER:                  -7.193
REMARK INTRA:                  -0.243
REMARK UNBOUND:                -0.114
REMARK SMILES CCCCC=CC=CCO
REMARK SMILES IDX 5 1 6 2 4 3 3 4 2 5 1 6 7 7 8 8 9 9 10 10
REMARK H PARENT 10 11
REMARK Flexibility Score: inf
ROOT
ATOM      1  C   UNL     1     -15.436   6.220 -17.791  1.00  0.00    -0.027 C 
ATOM      2  C   UNL     1     -15.810   6.779 -16.637  1.00  0.00    -0.005 C 
ENDROOT
BRANCH   1   3
ATOM      3  C   UNL     1     -15.804   4.805 -18.134  1.00  0.00     0.027 C 
BRANCH   3   4
ATOM      4  C   UNL     1     -15.124   4.353 -19.432  1.00  0.00     0.004 C 
BRANCH   4   5
ATOM      5  C   UNL     1     -13.822   5.126 -19.666  1.00  0.00    -0.003 C 
ATOM      6  C   UNL     1     -13.248   4.832 -21.050  1.00  0.00     0.004 C 
ENDBRANCH   4   5
ENDBRANCH   3   4
ENDBRANCH   1   3
BRANCH   2   7
ATOM      7  C   UNL     1     -15.431   8.163 -16.307  1.00  0.00    -0.002 C 
ATOM      8  C   UNL     1     -15.070   8.500 -15.067  1.00  0.00     0.001 C 
BRANCH   8   9
ATOM      9  C   UNL     1     -14.690   9.909 -14.723  1.00  0.00     0.183 C 
BRANCH   9  10
ATOM     10  O   UNL     1     -13.660  10.357 -15.561  1.00  0.00    -0.392 OA
ATOM     11  H   UNL     1     -13.489  11.306 -15.318  1.00  0.00     0.210 HD
ENDBRANCH   9  10
ENDBRANCH   8   9
ENDBRANCH   2   7
TORSDOF 6
ENDMDL
MODEL 5
REMARK VINA RESULT:    -5.492      3.511      6.750
REMARK INTER + INTRA:          -7.372
REMARK INTER:                  -7.204
REMARK INTRA:                  -0.168
REMARK UNBOUND:                -0.114
REMARK SMILES CCCCC=CC=CCO
REMARK SMILES IDX 5 1 6 2 4 3 3 4 2 5 1 6 7 7 8 8 9 9 10 10
REMARK H PARENT 10 11
REMARK Flexibility Score: inf
ROOT
ATOM      1  C   UNL     1     -15.118   5.463 -18.500  1.00  0.00    -0.027 C 
ATOM      2  C   UNL     1     -15.307   4.205 -18.909  1.00  0.00    -0.005 C 
ENDROOT
BRANCH   1   3
ATOM      3  C   UNL     1     -15.895   6.041 -17.354  1.00  0.00     0.027 C 
BRANCH   3   4
ATOM      4  C   UNL     1     -15.543   7.517 -17.131  1.00  0.00     0.004 C 
BRANCH   4   5
ATOM      5  C   UNL     1     -15.982   7.982 -15.739  1.00  0.00    -0.003 C 
ATOM      6  C   UNL     1     -15.936   6.834 -14.734  1.00  0.00     0.004 C 
ENDBRANCH   4   5
ENDBRANCH   3   4
ENDBRANCH   1   3
BRANCH   2   7
ATOM      7  C   UNL     1     -14.547   3.654 -20.044  1.00  0.00    -0.002 C 
ATOM      8  C   UNL     1     -14.385   2.338 -20.188  1.00  0.00     0.001 C 
BRANCH   8   9
ATOM      9  C   UNL     1     -13.606   1.770 -21.337  1.00  0.00     0.183 C 
BRANCH   9  10
ATOM     10  O   UNL     1     -14.265   0.654 -21.872  1.00  0.00    -0.392 OA
ATOM     11  H   UNL     1     -15.229   0.762 -21.654  1.00  0.00     0.210 HD
ENDBRANCH   9  10
ENDBRANCH   8   9
ENDBRANCH   2   7
TORSDOF 6
ENDMDL
MODEL 6
REMARK VINA RESULT:    -5.237      3.231      6.793
REMARK INTER + INTRA:          -7.036
REMARK INTER:                  -6.925
REMARK INTRA:                  -0.110
REMARK UNBOUND:                -0.114
REMARK SMILES CCCCC=CC=CCO
REMARK SMILES IDX 5 1 6 2 4 3 3 4 2 5 1 6 7 7 8 8 9 9 10 10
REMARK H PARENT 10 11
REMARK Flexibility Score: inf
ROOT
ATOM      1  C   UNL     1     -15.750   5.412 -17.732  1.00  0.00    -0.027 C 
ATOM      2  C   UNL     1     -15.173   5.051 -18.881  1.00  0.00    -0.005 C 
ENDROOT
BRANCH   1   3
ATOM      3  C   UNL     1     -15.647   6.815 -17.207  1.00  0.00     0.027 C 
BRANCH   3   4
ATOM      4  C   UNL     1     -15.952   6.871 -15.706  1.00  0.00     0.004 C 
BRANCH   4   5
ATOM      5  C   UNL     1     -16.086   8.321 -15.228  1.00  0.00    -0.003 C 
ATOM      6  C   UNL     1     -15.228   8.576 -13.991  1.00  0.00     0.004 C 
ENDBRANCH   4   5
ENDBRANCH   3   4
ENDBRANCH   1   3
BRANCH   2   7
ATOM      7  C   UNL     1     -15.270   3.668 -19.378  1.00  0.00    -0.002 C 
ATOM      8  C   UNL     1     -14.200   3.034 -19.861  1.00  0.00     0.001 C 
BRANCH   8   9
ATOM      9  C   UNL     1     -14.294   1.629 -20.374  1.00  0.00     0.183 C 
BRANCH   9  10
ATOM     10  O   UNL     1     -13.197   1.332 -21.195  1.00  0.00    -0.392 OA
ATOM     11  H   UNL     1     -13.532   0.730 -21.910  1.00  0.00     0.210 HD
ENDBRANCH   9  10
ENDBRANCH   8   9
ENDBRANCH   2   7
TORSDOF 6
ENDMDL
MODEL 7
REMARK VINA RESULT:    -5.077      1.631      2.528
REMARK INTER + INTRA:          -6.824
REMARK INTER:                  -6.494
REMARK INTRA:                  -0.330
REMARK UNBOUND:                -0.114
REMARK SMILES CCCCC=CC=CCO
REMARK SMILES IDX 5 1 6 2 4 3 3 4 2 5 1 6 7 7 8 8 9 9 10 10
REMARK H PARENT 10 11
REMARK Flexibility Score: inf
ROOT
ATOM      1  C   UNL     1     -14.629   3.664 -19.157  1.00  0.00    -0.027 C 
ATOM      2  C   UNL     1     -15.791   4.170 -18.735  1.00  0.00    -0.005 C 
ENDROOT
BRANCH   1   3
ATOM      3  C   UNL     1     -14.569   2.393 -19.954  1.00  0.00     0.027 C 
BRANCH   3   4
ATOM      4  C   UNL     1     -13.653   2.545 -21.174  1.00  0.00     0.004 C 
BRANCH   4   5
ATOM      5  C   UNL     1     -13.756   3.955 -21.766  1.00  0.00    -0.003 C 
ATOM      6  C   UNL     1     -12.390   4.633 -21.817  1.00  0.00     0.004 C 
ENDBRANCH   4   5
ENDBRANCH   3   4
ENDBRANCH   1   3
BRANCH   2   7
ATOM      7  C   UNL     1     -15.835   5.411 -17.943  1.00  0.00    -0.002 C 
ATOM      8  C   UNL     1     -15.124   6.481 -18.302  1.00  0.00     0.001 C 
BRANCH   8   9
ATOM      9  C   UNL     1     -15.159   7.745 -17.496  1.00  0.00     0.183 C 
BRANCH   9  10
ATOM     10  O   UNL     1     -15.854   7.541 -16.295  1.00  0.00    -0.392 OA
ATOM     11  H   UNL     1     -16.821   7.634 -16.508  1.00  0.00     0.210 HD
ENDBRANCH   9  10
ENDBRANCH   8   9
ENDBRANCH   2   7
TORSDOF 6
ENDMDL
MODEL 8
REMARK VINA RESULT:    -4.363      8.623     10.409
REMARK INTER + INTRA:          -5.880
REMARK INTER:                  -5.605
REMARK INTRA:                  -0.274
REMARK UNBOUND:                -0.114
REMARK SMILES CCCCC=CC=CCO
REMARK SMILES IDX 5 1 6 2 4 3 3 4 2 5 1 6 7 7 8 8 9 9 10 10
REMARK H PARENT 10 11
REMARK Flexibility Score: inf
ROOT
ATOM      1  C   UNL     1     -22.950   0.822 -15.079  1.00  0.00    -0.027 C 
ATOM      2  C   UNL     1     -21.925   0.883 -15.933  1.00  0.00    -0.005 C 
ENDROOT
BRANCH   1   3
ATOM      3  C   UNL     1     -23.780   2.031 -14.760  1.00  0.00     0.027 C 
BRANCH   3   4
ATOM      4  C   UNL     1     -23.786   2.322 -13.255  1.00  0.00     0.004 C 
BRANCH   4   5
ATOM      5  C   UNL     1     -22.933   3.553 -12.931  1.00  0.00    -0.003 C 
ATOM      6  C   UNL     1     -21.450   3.198 -12.875  1.00  0.00     0.004 C 
ENDBRANCH   4   5
ENDBRANCH   3   4
ENDBRANCH   1   3
BRANCH   2   7
ATOM      7  C   UNL     1     -21.110  -0.309 -16.226  1.00  0.00    -0.002 C 
ATOM      8  C   UNL     1     -20.397  -0.393 -17.351  1.00  0.00     0.001 C 
BRANCH   8   9
ATOM      9  C   UNL     1     -19.571  -1.606 -17.659  1.00  0.00     0.183 C 
BRANCH   9  10
ATOM     10  O   UNL     1     -19.660  -2.538 -16.616  1.00  0.00    -0.392 OA
ATOM     11  H   UNL     1     -19.573  -3.437 -17.029  1.00  0.00     0.210 HD
ENDBRANCH   9  10
ENDBRANCH   8   9
ENDBRANCH   2   7
TORSDOF 6
ENDMDL
MODEL 9
REMARK VINA RESULT:    -4.255      3.009      6.067
REMARK INTER + INTRA:          -5.737
REMARK INTER:                  -5.505
REMARK INTRA:                  -0.233
REMARK UNBOUND:                -0.114
REMARK SMILES CCCCC=CC=CCO
REMARK SMILES IDX 5 1 6 2 4 3 3 4 2 5 1 6 7 7 8 8 9 9 10 10
REMARK H PARENT 10 11
REMARK Flexibility Score: inf
ROOT
ATOM      1  C   UNL     1     -15.152   7.932 -17.379  1.00  0.00    -0.027 C 
ATOM      2  C   UNL     1     -14.323   7.209 -18.136  1.00  0.00    -0.005 C 
ENDROOT
BRANCH   1   3
ATOM      3  C   UNL     1     -14.668   9.119 -16.597  1.00  0.00     0.027 C 
BRANCH   3   4
ATOM      4  C   UNL     1     -15.002   8.978 -15.108  1.00  0.00     0.004 C 
BRANCH   4   5
ATOM      5  C   UNL     1     -16.252   8.115 -14.905  1.00  0.00    -0.003 C 
ATOM      6  C   UNL     1     -15.886   6.726 -14.387  1.00  0.00     0.004 C 
ENDBRANCH   4   5
ENDBRANCH   3   4
ENDBRANCH   1   3
BRANCH   2   7
ATOM      7  C   UNL     1     -14.809   6.039 -18.888  1.00  0.00    -0.002 C 
ATOM      8  C   UNL     1     -15.512   5.078 -18.285  1.00  0.00     0.001 C 
BRANCH   8   9
ATOM      9  C   UNL     1     -16.003   3.881 -19.043  1.00  0.00     0.183 C 
BRANCH   9  10
ATOM     10  O   UNL     1     -15.112   3.555 -20.075  1.00  0.00    -0.392 OA
ATOM     11  H   UNL     1     -14.395   4.242 -20.058  1.00  0.00     0.210 HD
ENDBRANCH   9  10
ENDBRANCH   8   9
ENDBRANCH   2   7
TORSDOF 6
ENDMDL
