MODEL 1
REMARK VINA RESULT:    -5.609      0.000      0.000
REMARK INTER + INTRA:         -11.755
REMARK INTER:                  -9.871
REMARK INTRA:                  -1.883
REMARK UNBOUND:                -1.883
REMARK SMILES CCCCCCCCCCCCCCC(=O)[O-]
REMARK SMILES IDX 9 1 10 2 11 3 12 4 13 5 14 6 15 7 16 8 17 9 8 10 7 11 6 12
REMARK SMILES IDX 5 13 4 14 3 15 2 16 1 17
REMARK H PARENT
REMARK Flexibility Score: inf
ROOT
ATOM      1  C   UNL     1     -17.601   1.129 -17.398  1.00  0.00     0.000 C 
ENDROOT
BRANCH   1   2
ATOM      2  C   UNL     1     -17.711   0.206 -16.173  1.00  0.00     0.000 C 
BRANCH   2   3
ATOM      3  C   UNL     1     -16.460   0.248 -15.284  1.00  0.00     0.000 C 
BRANCH   3   4
ATOM      4  C   UNL     1     -15.909   1.675 -15.176  1.00  0.00     0.000 C 
BRANCH   4   5
ATOM      5  C   UNL     1     -14.940   1.804 -13.995  1.00  0.00     0.006 C 
BRANCH   5   6
ATOM      6  C   UNL     1     -15.472   2.793 -12.954  1.00  0.00     0.053 C 
BRANCH   6   7
ATOM      7  C   UNL     1     -16.103   2.063 -11.811  1.00  0.00     0.041 C 
ATOM      8  O   UNL     1     -17.316   2.255 -11.527  1.00  0.00    -0.550 OA
ATOM      9  O   UNL     1     -15.340   1.207 -11.026  1.00  0.00    -0.550 OA
ENDBRANCH   6   7
ENDBRANCH   5   6
ENDBRANCH   4   5
ENDBRANCH   3   4
ENDBRANCH   2   3
ENDBRANCH   1   2
BRANCH   1  10
ATOM     10  C   UNL     1     -17.879   0.392 -18.719  1.00  0.00     0.000 C 
BRANCH  10  11
ATOM     11  C   UNL     1     -17.007  -0.863 -18.890  1.00  0.00    -0.000 C 
BRANCH  11  12
ATOM     12  C   UNL     1     -15.626  -0.548 -19.489  1.00  0.00    -0.000 C 
BRANCH  12  13
ATOM     13  C   UNL     1     -14.473  -0.801 -18.501  1.00  0.00    -0.000 C 
BRANCH  13  14
ATOM     14  C   UNL     1     -13.804   0.467 -17.938  1.00  0.00    -0.000 C 
BRANCH  14  15
ATOM     15  C   UNL     1     -13.927   1.677 -18.875  1.00  0.00    -0.000 C 
BRANCH  15  16
ATOM     16  C   UNL     1     -14.173   2.964 -18.081  1.00  0.00    -0.003 C 
ATOM     17  C   UNL     1     -12.875   3.737 -17.865  1.00  0.00     0.004 C 
ENDBRANCH  15  16
ENDBRANCH  14  15
ENDBRANCH  13  14
ENDBRANCH  12  13
ENDBRANCH  11  12
ENDBRANCH  10  11
ENDBRANCH   1  10
TORSDOF 13
ENDMDL
MODEL 2
REMARK VINA RESULT:    -5.595      3.099      6.635
REMARK INTER + INTRA:         -11.730
REMARK INTER:                 -10.303
REMARK INTRA:                  -1.427
REMARK UNBOUND:                -1.883
REMARK SMILES CCCCCCCCCCCCCCC(=O)[O-]
REMARK SMILES IDX 9 1 10 2 11 3 12 4 13 5 14 6 15 7 16 8 17 9 8 10 7 11 6 12
REMARK SMILES IDX 5 13 4 14 3 15 2 16 1 17
REMARK H PARENT
REMARK Flexibility Score: inf
ROOT
ATOM      1  C   UNL     1     -14.410   2.142 -14.336  1.00  0.00     0.000 C 
ENDROOT
BRANCH   1   2
ATOM      2  C   UNL     1     -14.458   2.319 -15.862  1.00  0.00     0.000 C 
BRANCH   2   3
ATOM      3  C   UNL     1     -13.281   3.146 -16.402  1.00  0.00     0.000 C 
BRANCH   3   4
ATOM      4  C   UNL     1     -13.270   3.149 -17.935  1.00  0.00     0.000 C 
BRANCH   4   5
ATOM      5  C   UNL     1     -13.599   1.759 -18.491  1.00  0.00     0.006 C 
BRANCH   5   6
ATOM      6  C   UNL     1     -14.685   1.840 -19.567  1.00  0.00     0.053 C 
BRANCH   6   7
ATOM      7  C   UNL     1     -15.727   0.791 -19.339  1.00  0.00     0.041 C 
ATOM      8  O   UNL     1     -15.700  -0.283 -19.998  1.00  0.00    -0.550 OA
ATOM      9  O   UNL     1     -16.759   1.019 -18.436  1.00  0.00    -0.550 OA
ENDBRANCH   6   7
ENDBRANCH   5   6
ENDBRANCH   4   5
ENDBRANCH   3   4
ENDBRANCH   2   3
ENDBRANCH   1   2
BRANCH   1  10
ATOM     10  C   UNL     1     -15.553   2.883 -13.620  1.00  0.00     0.000 C 
BRANCH  10  11
ATOM     11  C   UNL     1     -15.521   2.685 -12.095  1.00  0.00    -0.000 C 
BRANCH  11  12
ATOM     12  C   UNL     1     -15.499   1.200 -11.693  1.00  0.00    -0.000 C 
BRANCH  12  13
ATOM     13  C   UNL     1     -16.825   0.730 -11.068  1.00  0.00    -0.000 C 
BRANCH  13  14
ATOM     14  C   UNL     1     -18.027   0.703 -12.030  1.00  0.00    -0.000 C 
BRANCH  14  15
ATOM     15  C   UNL     1     -18.020  -0.514 -12.967  1.00  0.00    -0.000 C 
BRANCH  15  16
ATOM     16  C   UNL     1     -17.936  -0.078 -14.434  1.00  0.00    -0.003 C 
ATOM     17  C   UNL     1     -16.683  -0.634 -15.104  1.00  0.00     0.004 C 
ENDBRANCH  15  16
ENDBRANCH  14  15
ENDBRANCH  13  14
ENDBRANCH  12  13
ENDBRANCH  11  12
ENDBRANCH  10  11
ENDBRANCH   1  10
TORSDOF 13
ENDMDL
MODEL 3
REMARK VINA RESULT:    -5.538      3.174      6.183
REMARK INTER + INTRA:         -11.631
REMARK INTER:                 -10.148
REMARK INTRA:                  -1.483
REMARK UNBOUND:                -1.883
REMARK SMILES CCCCCCCCCCCCCCC(=O)[O-]
REMARK SMILES IDX 9 1 10 2 11 3 12 4 13 5 14 6 15 7 16 8 17 9 8 10 7 11 6 12
REMARK SMILES IDX 5 13 4 14 3 15 2 16 1 17
REMARK H PARENT
REMARK Flexibility Score: inf
ROOT
ATOM      1  C   UNL     1     -15.502   2.906 -13.128  1.00  0.00     0.000 C 
ENDROOT
BRANCH   1   2
ATOM      2  C   UNL     1     -14.491   2.166 -14.018  1.00  0.00     0.000 C 
BRANCH   2   3
ATOM      3  C   UNL     1     -14.533   2.633 -15.481  1.00  0.00     0.000 C 
BRANCH   3   4
ATOM      4  C   UNL     1     -13.135   3.031 -15.971  1.00  0.00     0.000 C 
BRANCH   4   5
ATOM      5  C   UNL     1     -13.159   3.409 -17.456  1.00  0.00     0.006 C 
BRANCH   5   6
ATOM      6  C   UNL     1     -14.491   3.017 -18.101  1.00  0.00     0.053 C 
BRANCH   6   7
ATOM      7  C   UNL     1     -14.293   1.897 -19.073  1.00  0.00     0.041 C 
ATOM      8  O   UNL     1     -14.649   2.030 -20.274  1.00  0.00    -0.550 OA
ATOM      9  O   UNL     1     -13.761   0.687 -18.642  1.00  0.00    -0.550 OA
ENDBRANCH   6   7
ENDBRANCH   5   6
ENDBRANCH   4   5
ENDBRANCH   3   4
ENDBRANCH   2   3
ENDBRANCH   1   2
BRANCH   1  10
ATOM     10  C   UNL     1     -15.670   2.244 -11.749  1.00  0.00     0.000 C 
BRANCH  10  11
ATOM     11  C   UNL     1     -17.135   1.899 -11.435  1.00  0.00    -0.000 C 
BRANCH  11  12
ATOM     12  C   UNL     1     -17.423   0.392 -11.537  1.00  0.00    -0.000 C 
BRANCH  12  13
ATOM     13  C   UNL     1     -18.142   0.006 -12.843  1.00  0.00    -0.000 C 
BRANCH  13  14
ATOM     14  C   UNL     1     -17.216  -0.250 -14.047  1.00  0.00    -0.000 C 
BRANCH  14  15
ATOM     15  C   UNL     1     -17.953  -0.196 -15.394  1.00  0.00    -0.000 C 
BRANCH  15  16
ATOM     16  C   UNL     1     -16.996   0.180 -16.530  1.00  0.00    -0.003 C 
ATOM     17  C   UNL     1     -17.625   1.209 -17.464  1.00  0.00     0.004 C 
ENDBRANCH  15  16
ENDBRANCH  14  15
ENDBRANCH  13  14
ENDBRANCH  12  13
ENDBRANCH  11  12
ENDBRANCH  10  11
ENDBRANCH   1  10
TORSDOF 13
ENDMDL
MODEL 4
REMARK VINA RESULT:    -5.500      1.027      1.579
REMARK INTER + INTRA:         -11.564
REMARK INTER:                  -9.804
REMARK INTRA:                  -1.760
REMARK UNBOUND:                -1.883
REMARK SMILES CCCCCCCCCCCCCCC(=O)[O-]
REMARK SMILES IDX 9 1 10 2 11 3 12 4 13 5 14 6 15 7 16 8 17 9 8 10 7 11 6 12
REMARK SMILES IDX 5 13 4 14 3 15 2 16 1 17
REMARK H PARENT
REMARK Flexibility Score: inf
ROOT
ATOM      1  C   UNL     1     -17.722  -0.709 -16.396  1.00  0.00     0.000 C 
ENDROOT
BRANCH   1   2
ATOM      2  C   UNL     1     -16.615  -0.263 -15.428  1.00  0.00     0.000 C 
BRANCH   2   3
ATOM      3  C   UNL     1     -16.241   1.218 -15.594  1.00  0.00     0.000 C 
BRANCH   3   4
ATOM      4  C   UNL     1     -15.086   1.601 -14.661  1.00  0.00     0.000 C 
BRANCH   4   5
ATOM      5  C   UNL     1     -15.552   2.587 -13.583  1.00  0.00     0.006 C 
BRANCH   5   6
ATOM      6  C   UNL     1     -15.445   1.966 -12.187  1.00  0.00     0.053 C 
BRANCH   6   7
ATOM      7  C   UNL     1     -16.784   1.485 -11.724  1.00  0.00     0.041 C 
ATOM      8  O   UNL     1     -17.156   0.307 -11.974  1.00  0.00    -0.550 OA
ATOM      9  O   UNL     1     -17.643   2.352 -11.060  1.00  0.00    -0.550 OA
ENDBRANCH   6   7
ENDBRANCH   5   6
ENDBRANCH   4   5
ENDBRANCH   3   4
ENDBRANCH   2   3
ENDBRANCH   1   2
BRANCH   1  10
ATOM     10  C   UNL     1     -17.290  -1.892 -17.281  1.00  0.00     0.000 C 
BRANCH  10  11
ATOM     11  C   UNL     1     -17.227  -1.520 -18.772  1.00  0.00    -0.000 C 
BRANCH  11  12
ATOM     12  C   UNL     1     -17.338  -0.005 -19.009  1.00  0.00    -0.000 C 
BRANCH  12  13
ATOM     13  C   UNL     1     -16.013   0.628 -19.472  1.00  0.00    -0.000 C 
BRANCH  13  14
ATOM     14  C   UNL     1     -14.746   0.031 -18.831  1.00  0.00    -0.000 C 
BRANCH  14  15
ATOM     15  C   UNL     1     -13.699   1.095 -18.466  1.00  0.00    -0.000 C 
BRANCH  15  16
ATOM     16  C   UNL     1     -14.298   2.503 -18.543  1.00  0.00    -0.003 C 
ATOM     17  C   UNL     1     -13.369   3.533 -17.906  1.00  0.00     0.004 C 
ENDBRANCH  15  16
ENDBRANCH  14  15
ENDBRANCH  13  14
ENDBRANCH  12  13
ENDBRANCH  11  12
ENDBRANCH  10  11
ENDBRANCH   1  10
TORSDOF 13
ENDMDL
MODEL 5
REMARK VINA RESULT:    -5.488      2.922      5.812
REMARK INTER + INTRA:         -11.543
REMARK INTER:                  -9.793
REMARK INTRA:                  -1.750
REMARK UNBOUND:                -1.883
REMARK SMILES CCCCCCCCCCCCCCC(=O)[O-]
REMARK SMILES IDX 9 1 10 2 11 3 12 4 13 5 14 6 15 7 16 8 17 9 8 10 7 11 6 12
REMARK SMILES IDX 5 13 4 14 3 15 2 16 1 17
REMARK H PARENT
REMARK Flexibility Score: inf
ROOT
ATOM      1  C   UNL     1     -18.355  -1.374 -16.240  1.00  0.00     0.000 C 
ENDROOT
BRANCH   1   2
ATOM      2  C   UNL     1     -17.216  -2.054 -17.015  1.00  0.00     0.000 C 
BRANCH   2   3
ATOM      3  C   UNL     1     -17.353  -1.894 -18.537  1.00  0.00     0.000 C 
BRANCH   3   4
ATOM      4  C   UNL     1     -17.572  -0.425 -18.916  1.00  0.00     0.000 C 
BRANCH   4   5
ATOM      5  C   UNL     1     -16.319   0.167 -19.573  1.00  0.00     0.006 C 
BRANCH   5   6
ATOM      6  C   UNL     1     -15.704   1.261 -18.696  1.00  0.00     0.053 C 
BRANCH   6   7
ATOM      7  C   UNL     1     -14.297   0.910 -18.329  1.00  0.00     0.041 C 
ATOM      8  O   UNL     1     -13.982  -0.289 -18.098  1.00  0.00    -0.550 OA
ATOM      9  O   UNL     1     -13.342   1.911 -18.192  1.00  0.00    -0.550 OA
ENDBRANCH   6   7
ENDBRANCH   5   6
ENDBRANCH   4   5
ENDBRANCH   3   4
ENDBRANCH   2   3
ENDBRANCH   1   2
BRANCH   1  10
ATOM     10  C   UNL     1     -17.853  -0.611 -15.001  1.00  0.00     0.000 C 
BRANCH  10  11
ATOM     11  C   UNL     1     -16.380  -0.189 -15.125  1.00  0.00    -0.000 C 
BRANCH  11  12
ATOM     12  C   UNL     1     -16.204   1.339 -15.173  1.00  0.00    -0.000 C 
BRANCH  12  13
ATOM     13  C   UNL     1     -15.108   1.846 -14.219  1.00  0.00    -0.000 C 
BRANCH  13  14
ATOM     14  C   UNL     1     -15.166   1.270 -12.792  1.00  0.00    -0.000 C 
BRANCH  14  15
ATOM     15  C   UNL     1     -15.694   2.276 -11.759  1.00  0.00    -0.000 C 
BRANCH  15  16
ATOM     16  C   UNL     1     -17.159   1.990 -11.412  1.00  0.00    -0.003 C 
ATOM     17  C   UNL     1     -17.456   0.494 -11.460  1.00  0.00     0.004 C 
ENDBRANCH  15  16
ENDBRANCH  14  15
ENDBRANCH  13  14
ENDBRANCH  12  13
ENDBRANCH  11  12
ENDBRANCH  10  11
ENDBRANCH   1  10
TORSDOF 13
ENDMDL
MODEL 6
REMARK VINA RESULT:    -5.488      2.547      5.720
REMARK INTER + INTRA:         -11.542
REMARK INTER:                 -10.253
REMARK INTRA:                  -1.289
REMARK UNBOUND:                -1.883
REMARK SMILES CCCCCCCCCCCCCCC(=O)[O-]
REMARK SMILES IDX 9 1 10 2 11 3 12 4 13 5 14 6 15 7 16 8 17 9 8 10 7 11 6 12
REMARK SMILES IDX 5 13 4 14 3 15 2 16 1 17
REMARK H PARENT
REMARK Flexibility Score: inf
ROOT
ATOM      1  C   UNL     1     -14.404   2.078 -19.117  1.00  0.00     0.000 C 
ENDROOT
BRANCH   1   2
ATOM      2  C   UNL     1     -13.996   0.614 -19.342  1.00  0.00     0.000 C 
BRANCH   2   3
ATOM      3  C   UNL     1     -15.203  -0.315 -19.542  1.00  0.00     0.000 C 
BRANCH   3   4
ATOM      4  C   UNL     1     -16.517   0.476 -19.505  1.00  0.00     0.000 C 
BRANCH   4   5
ATOM      5  C   UNL     1     -17.631  -0.338 -18.837  1.00  0.00     0.006 C 
BRANCH   5   6
ATOM      6  C   UNL     1     -17.191  -1.787 -18.608  1.00  0.00     0.053 C 
BRANCH   6   7
ATOM      7  C   UNL     1     -17.204  -2.113 -17.148  1.00  0.00     0.041 C 
ATOM      8  O   UNL     1     -16.349  -1.602 -16.376  1.00  0.00    -0.550 OA
ATOM      9  O   UNL     1     -18.129  -3.021 -16.646  1.00  0.00    -0.550 OA
ENDBRANCH   6   7
ENDBRANCH   5   6
ENDBRANCH   4   5
ENDBRANCH   3   4
ENDBRANCH   2   3
ENDBRANCH   1   2
BRANCH   1  10
ATOM     10  C   UNL     1     -13.377   2.854 -18.273  1.00  0.00     0.000 C 
BRANCH  10  11
ATOM     11  C   UNL     1     -13.990   3.437 -16.988  1.00  0.00    -0.000 C 
BRANCH  11  12
ATOM     12  C   UNL     1     -15.347   2.803 -16.640  1.00  0.00    -0.000 C 
BRANCH  12  13
ATOM     13  C   UNL     1     -15.231   1.666 -15.609  1.00  0.00    -0.000 C 
BRANCH  13  14
ATOM     14  C   UNL     1     -14.555   2.055 -14.280  1.00  0.00    -0.000 C 
BRANCH  14  15
ATOM     15  C   UNL     1     -15.479   2.852 -13.347  1.00  0.00    -0.000 C 
BRANCH  15  16
ATOM     16  C   UNL     1     -15.589   2.178 -11.976  1.00  0.00    -0.003 C 
ATOM     17  C   UNL     1     -17.045   1.903 -11.611  1.00  0.00     0.004 C 
ENDBRANCH  15  16
ENDBRANCH  14  15
ENDBRANCH  13  14
ENDBRANCH  12  13
ENDBRANCH  11  12
ENDBRANCH  10  11
ENDBRANCH   1  10
TORSDOF 13
ENDMDL
MODEL 7
REMARK VINA RESULT:    -5.481      2.949      5.952
REMARK INTER + INTRA:         -11.529
REMARK INTER:                  -9.948
REMARK INTRA:                  -1.581
REMARK UNBOUND:                -1.883
REMARK SMILES CCCCCCCCCCCCCCC(=O)[O-]
REMARK SMILES IDX 9 1 10 2 11 3 12 4 13 5 14 6 15 7 16 8 17 9 8 10 7 11 6 12
REMARK SMILES IDX 5 13 4 14 3 15 2 16 1 17
REMARK H PARENT
REMARK Flexibility Score: inf
ROOT
ATOM      1  C   UNL     1     -16.636  -0.929 -15.378  1.00  0.00     0.000 C 
ENDROOT
BRANCH   1   2
ATOM      2  C   UNL     1     -16.278  -1.796 -16.596  1.00  0.00     0.000 C 
BRANCH   2   3
ATOM      3  C   UNL     1     -17.511  -2.224 -17.405  1.00  0.00     0.000 C 
BRANCH   3   4
ATOM      4  C   UNL     1     -17.377  -1.802 -18.873  1.00  0.00     0.000 C 
BRANCH   4   5
ATOM      5  C   UNL     1     -17.471  -0.279 -19.019  1.00  0.00     0.006 C 
BRANCH   5   6
ATOM      6  C   UNL     1     -16.206   0.290 -19.669  1.00  0.00     0.053 C 
BRANCH   6   7
ATOM      7  C   UNL     1     -15.484   1.186 -18.714  1.00  0.00     0.041 C 
ATOM      8  O   UNL     1     -16.087   1.668 -17.717  1.00  0.00    -0.550 OA
ATOM      9  O   UNL     1     -14.159   1.533 -18.950  1.00  0.00    -0.550 OA
ENDBRANCH   6   7
ENDBRANCH   5   6
ENDBRANCH   4   5
ENDBRANCH   3   4
ENDBRANCH   2   3
ENDBRANCH   1   2
BRANCH   1  10
ATOM     10  C   UNL     1     -18.139  -0.966 -15.049  1.00  0.00     0.000 C 
BRANCH  10  11
ATOM     11  C   UNL     1     -18.505  -0.062 -13.860  1.00  0.00    -0.000 C 
BRANCH  11  12
ATOM     12  C   UNL     1     -17.782  -0.467 -12.564  1.00  0.00    -0.000 C 
BRANCH  12  13
ATOM     13  C   UNL     1     -17.774   0.652 -11.508  1.00  0.00    -0.000 C 
BRANCH  13  14
ATOM     14  C   UNL     1     -16.941   1.894 -11.877  1.00  0.00    -0.000 C 
BRANCH  14  15
ATOM     15  C   UNL     1     -15.427   1.638 -11.830  1.00  0.00    -0.000 C 
BRANCH  15  16
ATOM     16  C   UNL     1     -14.843   1.534 -13.243  1.00  0.00    -0.003 C 
ATOM     17  C   UNL     1     -15.429   2.602 -14.162  1.00  0.00     0.004 C 
ENDBRANCH  15  16
ENDBRANCH  14  15
ENDBRANCH  13  14
ENDBRANCH  12  13
ENDBRANCH  11  12
ENDBRANCH  10  11
ENDBRANCH   1  10
TORSDOF 13
ENDMDL
MODEL 8
REMARK VINA RESULT:    -5.466      1.281      3.905
REMARK INTER + INTRA:         -11.504
REMARK INTER:                  -9.536
REMARK INTRA:                  -1.968
REMARK UNBOUND:                -1.883
REMARK SMILES CCCCCCCCCCCCCCC(=O)[O-]
REMARK SMILES IDX 9 1 10 2 11 3 12 4 13 5 14 6 15 7 16 8 17 9 8 10 7 11 6 12
REMARK SMILES IDX 5 13 4 14 3 15 2 16 1 17
REMARK H PARENT
REMARK Flexibility Score: inf
ROOT
ATOM      1  C   UNL     1     -14.375   2.050 -19.641  1.00  0.00     0.000 C 
ENDROOT
BRANCH   1   2
ATOM      2  C   UNL     1     -14.474   3.086 -18.510  1.00  0.00     0.000 C 
BRANCH   2   3
ATOM      3  C   UNL     1     -13.121   3.364 -17.838  1.00  0.00     0.000 C 
BRANCH   3   4
ATOM      4  C   UNL     1     -13.242   3.294 -16.311  1.00  0.00     0.000 C 
BRANCH   4   5
ATOM      5  C   UNL     1     -14.152   2.137 -15.883  1.00  0.00     0.006 C 
BRANCH   5   6
ATOM      6  C   UNL     1     -15.256   2.626 -14.941  1.00  0.00     0.053 C 
BRANCH   6   7
ATOM      7  C   UNL     1     -14.926   2.279 -13.524  1.00  0.00     0.041 C 
ATOM      8  O   UNL     1     -14.511   1.125 -13.233  1.00  0.00    -0.550 OA
ATOM      9  O   UNL     1     -15.126   3.213 -12.514  1.00  0.00    -0.550 OA
ENDBRANCH   6   7
ENDBRANCH   5   6
ENDBRANCH   4   5
ENDBRANCH   3   4
ENDBRANCH   2   3
ENDBRANCH   1   2
BRANCH   1  10
ATOM     10  C   UNL     1     -13.883   0.679 -19.144  1.00  0.00     0.000 C 
BRANCH  10  11
ATOM     11  C   UNL     1     -15.028  -0.204 -18.620  1.00  0.00    -0.000 C 
BRANCH  11  12
ATOM     12  C   UNL     1     -16.229  -0.246 -19.579  1.00  0.00    -0.000 C 
BRANCH  12  13
ATOM     13  C   UNL     1     -17.562   0.087 -18.885  1.00  0.00    -0.000 C 
BRANCH  13  14
ATOM     14  C   UNL     1     -17.467   1.125 -17.751  1.00  0.00    -0.000 C 
BRANCH  14  15
ATOM     15  C   UNL     1     -18.156   0.666 -16.457  1.00  0.00    -0.000 C 
BRANCH  15  16
ATOM     16  C   UNL     1     -17.426  -0.532 -15.840  1.00  0.00    -0.003 C 
ATOM     17  C   UNL     1     -17.455  -0.470 -14.316  1.00  0.00     0.004 C 
ENDBRANCH  15  16
ENDBRANCH  14  15
ENDBRANCH  13  14
ENDBRANCH  12  13
ENDBRANCH  11  12
ENDBRANCH  10  11
ENDBRANCH   1  10
TORSDOF 13
ENDMDL
MODEL 9
REMARK VINA RESULT:    -5.455      1.385      3.469
REMARK INTER + INTRA:         -11.485
REMARK INTER:                 -10.215
REMARK INTRA:                  -1.270
REMARK UNBOUND:                -1.883
REMARK SMILES CCCCCCCCCCCCCCC(=O)[O-]
REMARK SMILES IDX 9 1 10 2 11 3 12 4 13 5 14 6 15 7 16 8 17 9 8 10 7 11 6 12
REMARK SMILES IDX 5 13 4 14 3 15 2 16 1 17
REMARK H PARENT
REMARK Flexibility Score: inf
ROOT
ATOM      1  C   UNL     1     -13.921   2.999 -16.761  1.00  0.00     0.000 C 
ENDROOT
BRANCH   1   2
ATOM      2  C   UNL     1     -15.419   2.804 -16.475  1.00  0.00     0.000 C 
BRANCH   2   3
ATOM      3  C   UNL     1     -15.680   1.938 -15.234  1.00  0.00     0.000 C 
BRANCH   3   4
ATOM      4  C   UNL     1     -14.644   2.222 -14.139  1.00  0.00     0.000 C 
BRANCH   4   5
ATOM      5  C   UNL     1     -15.303   2.865 -12.913  1.00  0.00     0.006 C 
BRANCH   5   6
ATOM      6  C   UNL     1     -15.473   1.846 -11.783  1.00  0.00     0.053 C 
BRANCH   6   7
ATOM      7  C   UNL     1     -16.917   1.496 -11.606  1.00  0.00     0.041 C 
ATOM      8  O   UNL     1     -17.684   2.271 -10.974  1.00  0.00    -0.550 OA
ATOM      9  O   UNL     1     -17.406   0.291 -12.095  1.00  0.00    -0.550 OA
ENDBRANCH   6   7
ENDBRANCH   5   6
ENDBRANCH   4   5
ENDBRANCH   3   4
ENDBRANCH   2   3
ENDBRANCH   1   2
BRANCH   1  10
ATOM     10  C   UNL     1     -13.481   2.336 -18.078  1.00  0.00     0.000 C 
BRANCH  10  11
ATOM     11  C   UNL     1     -13.981   0.888 -18.206  1.00  0.00    -0.000 C 
BRANCH  11  12
ATOM     12  C   UNL     1     -14.055   0.415 -19.668  1.00  0.00    -0.000 C 
BRANCH  12  13
ATOM     13  C   UNL     1     -15.491   0.096 -20.122  1.00  0.00    -0.000 C 
BRANCH  13  14
ATOM     14  C   UNL     1     -16.602   0.599 -19.180  1.00  0.00    -0.000 C 
BRANCH  14  15
ATOM     15  C   UNL     1     -17.690  -0.453 -18.919  1.00  0.00    -0.000 C 
BRANCH  15  16
ATOM     16  C   UNL     1     -17.072  -1.838 -18.696  1.00  0.00    -0.003 C 
ATOM     17  C   UNL     1     -16.978  -2.167 -17.209  1.00  0.00     0.004 C 
ENDBRANCH  15  16
ENDBRANCH  14  15
ENDBRANCH  13  14
ENDBRANCH  12  13
ENDBRANCH  11  12
ENDBRANCH  10  11
ENDBRANCH   1  10
TORSDOF 13
ENDMDL
