MODEL 1
REMARK VINA RESULT:    -3.468      0.000      0.000
REMARK INTER + INTRA:          -5.257
REMARK INTER:                  -5.292
REMARK INTRA:                   0.035
REMARK UNBOUND:                 0.035
REMARK SMILES CC1=CCC[C@@H](C)C(=O)C[C@@H](C(C)C)C(=O)C1
REMARK SMILES IDX 8 1 9 2 6 3 7 4 5 5 4 6 3 7 2 8 1 9 10 11 11 12 15 13 16 14
REMARK SMILES IDX 17 15 12 17 13 18 14 19
REMARK H PARENT
REMARK Flexibility Score: 70.00
ROOT
ATOM      1  C   UNL     1       8.959 -26.638  41.183  1.00  0.00     0.136 C 
ATOM      2  O   UNL     1       7.956 -25.952  41.313  1.00  0.00    -0.299 OA
ENDROOT
BRANCH   1   3
ATOM      3  C   UNL     1       8.773 -28.131  40.924  1.00  0.00     0.053 C 
ATOM      4  C   UNL     1       8.766 -29.016  42.183  1.00  0.00     0.016 C 
BRANCH   3   5
ATOM      5  C   UNL     1       9.761 -28.675  39.859  1.00  0.00     0.015 C 
BRANCH   5   6
ATOM      6  C   UNL     1      11.120 -29.158  40.405  1.00  0.00     0.028 C 
BRANCH   6   7
ATOM      7  C   UNL     1      12.222 -28.958  39.391  1.00  0.00    -0.028 C 
ATOM      8  C   UNL     1      12.981 -27.846  39.265  1.00  0.00    -0.070 CG0
ATOM      9  C   UNL     1      14.047 -27.832  38.197  1.00  0.00     0.039 C 
ATOM     10  G   UNL     1      12.808 -26.623  40.145  1.00  0.00     0.000 G0
ENDBRANCH   6   7
ENDBRANCH   5   6
ENDBRANCH   3   5
ENDBRANCH   1   3
BRANCH   1  11
ATOM     11  C   UNL     1      10.306 -25.960  41.363  1.00  0.00     0.087 C 
BRANCH  11  12
ATOM     12  C   UNL     1      10.672 -25.064  40.155  1.00  0.00     0.066 C 
BRANCH  12  13
ATOM     13  C   UNL     1      11.972 -25.529  39.514  1.00  0.00     0.140 C 
ATOM     14  O   UNL     1      12.319 -25.060  38.440  1.00  0.00    -0.299 OA
BRANCH  13  15
ATOM     15  C   UNL     1      12.832 -26.597  40.144  1.00  0.00     0.106 CG0
ATOM     16  G   UNL     1      12.983 -27.823  39.265  1.00  0.00     0.000 G0
ENDBRANCH  13  15
ENDBRANCH  12  13
BRANCH  12  17
ATOM     17  C   UNL     1      10.690 -23.550  40.529  1.00  0.00    -0.006 C 
ATOM     18  C   UNL     1      11.253 -23.328  41.941  1.00  0.00     0.008 C 
ATOM     19  C   UNL     1       9.330 -22.843  40.387  1.00  0.00     0.008 C 
ENDBRANCH  12  17
ENDBRANCH  11  12
ENDBRANCH   1  11
TORSDOF 1
ENDMDL
MODEL 2
REMARK VINA RESULT:    -3.440      1.986      4.114
REMARK INTER + INTRA:          -5.214
REMARK INTER:                  -4.906
REMARK INTRA:                  -0.307
REMARK UNBOUND:                 0.035
REMARK SMILES CC1=CCC[C@@H](C)C(=O)C[C@@H](C(C)C)C(=O)C1
REMARK SMILES IDX 8 1 9 2 6 3 7 4 5 5 4 6 3 7 2 8 1 9 10 11 11 12 15 13 16 14
REMARK SMILES IDX 17 15 12 17 13 18 14 19
REMARK H PARENT
REMARK Flexibility Score: 70.00
ROOT
ATOM      1  C   UNL     1      13.798 -24.734  38.270  1.00  0.00     0.136 C 
ATOM      2  O   UNL     1      13.916 -25.157  37.129  1.00  0.00    -0.299 OA
ENDROOT
BRANCH   1   3
ATOM      3  C   UNL     1      14.606 -25.416  39.370  1.00  0.00     0.053 C 
ATOM      4  C   UNL     1      16.058 -24.928  39.513  1.00  0.00     0.016 C 
BRANCH   3   5
ATOM      5  C   UNL     1      14.539 -26.963  39.281  1.00  0.00     0.015 C 
BRANCH   5   6
ATOM      6  C   UNL     1      13.435 -27.626  40.130  1.00  0.00     0.028 C 
BRANCH   6   7
ATOM      7  C   UNL     1      12.221 -27.958  39.292  1.00  0.00    -0.028 C 
ATOM      8  C   UNL     1      11.040 -27.299  39.325  1.00  0.00    -0.070 CG0
ATOM      9  C   UNL     1       9.941 -27.769  38.405  1.00  0.00     0.039 C 
ATOM     10  G   UNL     1      10.778 -26.118  40.238  1.00  0.00     0.000 G0
ENDBRANCH   6   7
ENDBRANCH   5   6
ENDBRANCH   3   5
ENDBRANCH   1   3
BRANCH   1  11
ATOM     11  C   UNL     1      12.801 -23.614  38.507  1.00  0.00     0.087 C 
BRANCH  11  12
ATOM     12  C   UNL     1      11.987 -23.824  39.806  1.00  0.00     0.066 C 
BRANCH  12  13
ATOM     13  C   UNL     1      10.827 -24.780  39.567  1.00  0.00     0.140 C 
ATOM     14  O   UNL     1       9.910 -24.448  38.831  1.00  0.00    -0.299 OA
BRANCH  13  15
ATOM     15  C   UNL     1      10.749 -26.122  40.255  1.00  0.00     0.106 CG0
ATOM     16  G   UNL     1      11.030 -27.279  39.317  1.00  0.00     0.000 G0
ENDBRANCH  13  15
ENDBRANCH  12  13
BRANCH  12  17
ATOM     17  C   UNL     1      11.535 -22.473  40.443  1.00  0.00    -0.006 C 
ATOM     18  C   UNL     1      12.742 -21.629  40.880  1.00  0.00     0.008 C 
ATOM     19  C   UNL     1      10.546 -22.622  41.613  1.00  0.00     0.008 C 
ENDBRANCH  12  17
ENDBRANCH  11  12
ENDBRANCH   1  11
TORSDOF 1
ENDMDL
MODEL 3
REMARK VINA RESULT:    -3.411      2.165      4.631
REMARK INTER + INTRA:          -5.170
REMARK INTER:                  -4.836
REMARK INTRA:                  -0.334
REMARK UNBOUND:                 0.035
REMARK SMILES CC1=CCC[C@@H](C)C(=O)C[C@@H](C(C)C)C(=O)C1
REMARK SMILES IDX 8 1 9 2 6 3 7 4 5 5 4 6 3 7 2 8 1 9 10 11 11 12 15 13 16 14
REMARK SMILES IDX 17 15 12 17 13 18 14 19
REMARK H PARENT
REMARK Flexibility Score: 70.00
ROOT
ATOM      1  C   UNL     1      10.072 -25.274  39.344  1.00  0.00     0.136 C 
ATOM      2  O   UNL     1       9.202 -25.286  38.485  1.00  0.00    -0.299 OA
ENDROOT
BRANCH   1   3
ATOM      3  C   UNL     1       9.642 -25.042  40.790  1.00  0.00     0.053 C 
ATOM      4  C   UNL     1       8.453 -25.895  41.263  1.00  0.00     0.016 C 
BRANCH   3   5
ATOM      5  C   UNL     1       9.420 -23.540  41.108  1.00  0.00     0.015 C 
BRANCH   5   6
ATOM      6  C   UNL     1      10.496 -22.583  40.558  1.00  0.00     0.028 C 
BRANCH   6   7
ATOM      7  C   UNL     1      11.618 -22.389  41.552  1.00  0.00    -0.028 C 
ATOM      8  C   UNL     1      12.903 -22.770  41.370  1.00  0.00    -0.070 CG0
ATOM      9  C   UNL     1      13.891 -22.483  42.473  1.00  0.00     0.039 C 
ATOM     10  G   UNL     1      13.388 -23.468  40.114  1.00  0.00     0.000 G0
ENDBRANCH   6   7
ENDBRANCH   5   6
ENDBRANCH   3   5
ENDBRANCH   1   3
BRANCH   1  11
ATOM     11  C   UNL     1      11.513 -25.418  38.890  1.00  0.00     0.087 C 
BRANCH  11  12
ATOM     12  C   UNL     1      12.430 -25.946  40.019  1.00  0.00     0.066 C 
BRANCH  12  13
ATOM     13  C   UNL     1      13.565 -24.968  40.293  1.00  0.00     0.140 C 
ATOM     14  O   UNL     1      14.635 -25.385  40.711  1.00  0.00    -0.299 OA
BRANCH  13  15
ATOM     15  C   UNL     1      13.394 -23.480  40.110  1.00  0.00     0.106 CG0
ATOM     16  G   UNL     1      12.910 -22.786  41.368  1.00  0.00     0.000 G0
ENDBRANCH  13  15
ENDBRANCH  12  13
BRANCH  12  17
ATOM     17  C   UNL     1      12.935 -27.395  39.740  1.00  0.00    -0.006 C 
ATOM     18  C   UNL     1      12.574 -27.849  38.317  1.00  0.00     0.008 C 
ATOM     19  C   UNL     1      12.460 -28.442  40.763  1.00  0.00     0.008 C 
ENDBRANCH  12  17
ENDBRANCH  11  12
ENDBRANCH   1  11
TORSDOF 1
ENDMDL
MODEL 4
REMARK VINA RESULT:    -3.404      2.296      4.540
REMARK INTER + INTRA:          -5.159
REMARK INTER:                  -4.921
REMARK INTRA:                  -0.238
REMARK UNBOUND:                 0.035
REMARK SMILES CC1=CCC[C@@H](C)C(=O)C[C@@H](C(C)C)C(=O)C1
REMARK SMILES IDX 8 1 9 2 6 3 7 4 5 5 4 6 3 7 2 8 1 9 10 11 11 12 15 13 16 14
REMARK SMILES IDX 17 15 12 17 13 18 14 19
REMARK H PARENT
REMARK Flexibility Score: 70.00
ROOT
ATOM      1  C   UNL     1      10.543 -26.979  39.537  1.00  0.00     0.136 C 
ATOM      2  O   UNL     1      10.084 -28.109  39.622  1.00  0.00    -0.299 OA
ENDROOT
BRANCH   1   3
ATOM      3  C   UNL     1      10.258 -26.006  40.677  1.00  0.00     0.053 C 
ATOM      4  C   UNL     1       8.897 -26.191  41.369  1.00  0.00     0.016 C 
BRANCH   3   5
ATOM      5  C   UNL     1      10.482 -24.528  40.264  1.00  0.00     0.015 C 
BRANCH   5   6
ATOM      6  C   UNL     1      11.848 -23.932  40.660  1.00  0.00     0.028 C 
BRANCH   6   7
ATOM      7  C   UNL     1      12.367 -22.990  39.599  1.00  0.00    -0.028 C 
ATOM      8  C   UNL     1      13.383 -23.250  38.745  1.00  0.00    -0.070 CG0
ATOM      9  C   UNL     1      13.755 -22.188  37.741  1.00  0.00     0.039 C 
ATOM     10  G   UNL     1      14.155 -24.555  38.754  1.00  0.00     0.000 G0
ENDBRANCH   6   7
ENDBRANCH   5   6
ENDBRANCH   3   5
ENDBRANCH   1   3
BRANCH   1  11
ATOM     11  C   UNL     1      11.295 -26.618  38.268  1.00  0.00     0.087 C 
BRANCH  11  12
ATOM     12  C   UNL     1      12.822 -26.817  38.421  1.00  0.00     0.066 C 
BRANCH  12  13
ATOM     13  C   UNL     1      13.580 -25.622  37.859  1.00  0.00     0.140 C 
ATOM     14  O   UNL     1      13.758 -25.532  36.653  1.00  0.00    -0.299 OA
BRANCH  13  15
ATOM     15  C   UNL     1      14.166 -24.559  38.755  1.00  0.00     0.106 CG0
ATOM     16  G   UNL     1      13.381 -23.262  38.718  1.00  0.00     0.000 G0
ENDBRANCH  13  15
ENDBRANCH  12  13
BRANCH  12  17
ATOM     17  C   UNL     1      13.303 -28.174  37.822  1.00  0.00    -0.006 C 
ATOM     18  C   UNL     1      12.281 -28.740  36.826  1.00  0.00     0.008 C 
ATOM     19  C   UNL     1      13.662 -29.241  38.872  1.00  0.00     0.008 C 
ENDBRANCH  12  17
ENDBRANCH  11  12
ENDBRANCH   1  11
TORSDOF 1
ENDMDL
MODEL 5
REMARK VINA RESULT:    -3.347      1.848      4.691
REMARK INTER + INTRA:          -5.073
REMARK INTER:                  -5.092
REMARK INTRA:                   0.019
REMARK UNBOUND:                 0.035
REMARK SMILES CC1=CCC[C@@H](C)C(=O)C[C@@H](C(C)C)C(=O)C1
REMARK SMILES IDX 8 1 9 2 6 3 7 4 5 5 4 6 3 7 2 8 1 9 10 11 11 12 15 13 16 14
REMARK SMILES IDX 17 15 12 17 13 18 14 19
REMARK H PARENT
REMARK Flexibility Score: 70.00
ROOT
ATOM      1  C   UNL     1      12.039 -23.976  39.807  1.00  0.00     0.136 C 
ATOM      2  O   UNL     1      12.361 -23.825  38.638  1.00  0.00    -0.299 OA
ENDROOT
BRANCH   1   3
ATOM      3  C   UNL     1      11.097 -22.946  40.426  1.00  0.00     0.053 C 
ATOM      4  C   UNL     1      11.318 -22.677  41.924  1.00  0.00     0.016 C 
BRANCH   3   5
ATOM      5  C   UNL     1       9.607 -23.249  40.122  1.00  0.00     0.015 C 
BRANCH   5   6
ATOM      6  C   UNL     1       9.328 -24.632  39.501  1.00  0.00     0.028 C 
BRANCH   6   7
ATOM      7  C   UNL     1       9.066 -25.671  40.566  1.00  0.00    -0.028 C 
ATOM      8  C   UNL     1       9.593 -26.916  40.596  1.00  0.00    -0.070 CG0
ATOM      9  C   UNL     1       9.224 -27.815  41.750  1.00  0.00     0.039 C 
ATOM     10  G   UNL     1      10.533 -27.441  39.528  1.00  0.00     0.000 G0
ENDBRANCH   6   7
ENDBRANCH   5   6
ENDBRANCH   3   5
ENDBRANCH   1   3
BRANCH   1  11
ATOM     11  C   UNL     1      12.661 -25.134  40.566  1.00  0.00     0.087 C 
BRANCH  11  12
ATOM     12  C   UNL     1      12.941 -26.348  39.648  1.00  0.00     0.066 C 
BRANCH  12  13
ATOM     13  C   UNL     1      11.979 -27.489  39.955  1.00  0.00     0.140 C 
ATOM     14  O   UNL     1      12.389 -28.488  40.529  1.00  0.00    -0.299 OA
BRANCH  13  15
ATOM     15  C   UNL     1      10.533 -27.446  39.526  1.00  0.00     0.106 CG0
ATOM     16  G   UNL     1       9.617 -26.899  40.603  1.00  0.00     0.000 G0
ENDBRANCH  13  15
ENDBRANCH  12  13
BRANCH  12  17
ATOM     17  C   UNL     1      14.436 -26.790  39.694  1.00  0.00    -0.006 C 
ATOM     18  C   UNL     1      15.199 -26.068  40.814  1.00  0.00     0.008 C 
ATOM     19  C   UNL     1      15.187 -26.632  38.359  1.00  0.00     0.008 C 
ENDBRANCH  12  17
ENDBRANCH  11  12
ENDBRANCH   1  11
TORSDOF 1
ENDMDL
MODEL 6
REMARK VINA RESULT:    -3.343      1.887      3.931
REMARK INTER + INTRA:          -5.066
REMARK INTER:                  -4.736
REMARK INTRA:                  -0.329
REMARK UNBOUND:                 0.035
REMARK SMILES CC1=CCC[C@@H](C)C(=O)C[C@@H](C(C)C)C(=O)C1
REMARK SMILES IDX 8 1 9 2 6 3 7 4 5 5 4 6 3 7 2 8 1 9 10 11 11 12 15 13 16 14
REMARK SMILES IDX 17 15 12 17 13 18 14 19
REMARK H PARENT
REMARK Flexibility Score: 70.00
ROOT
ATOM      1  C   UNL     1      12.309 -26.954  38.025  1.00  0.00     0.136 C 
ATOM      2  O   UNL     1      12.765 -25.859  37.732  1.00  0.00    -0.299 OA
ENDROOT
BRANCH   1   3
ATOM      3  C   UNL     1      13.098 -28.191  37.602  1.00  0.00     0.053 C 
ATOM      4  C   UNL     1      12.243 -29.384  37.141  1.00  0.00     0.016 C 
BRANCH   3   5
ATOM      5  C   UNL     1      14.138 -28.622  38.669  1.00  0.00     0.015 C 
BRANCH   5   6
ATOM      6  C   UNL     1      13.847 -29.964  39.371  1.00  0.00     0.028 C 
BRANCH   6   7
ATOM      7  C   UNL     1      13.698 -29.783  40.864  1.00  0.00    -0.028 C 
ATOM      8  C   UNL     1      12.542 -29.511  41.511  1.00  0.00    -0.070 CG0
ATOM      9  C   UNL     1      12.586 -29.375  43.013  1.00  0.00     0.039 C 
ATOM     10  G   UNL     1      11.216 -29.340  40.797  1.00  0.00     0.000 G0
ENDBRANCH   6   7
ENDBRANCH   5   6
ENDBRANCH   3   5
ENDBRANCH   1   3
BRANCH   1  11
ATOM     11  C   UNL     1      10.959 -26.993  38.719  1.00  0.00     0.087 C 
BRANCH  11  12
ATOM     12  C   UNL     1      11.082 -26.751  40.243  1.00  0.00     0.066 C 
BRANCH  12  13
ATOM     13  C   UNL     1      10.598 -27.966  41.022  1.00  0.00     0.140 C 
ATOM     14  O   UNL     1       9.732 -27.833  41.874  1.00  0.00    -0.299 OA
BRANCH  13  15
ATOM     15  C   UNL     1      11.194 -29.336  40.809  1.00  0.00     0.106 CG0
ATOM     16  G   UNL     1      12.541 -29.502  41.485  1.00  0.00     0.000 G0
ENDBRANCH  13  15
ENDBRANCH  12  13
BRANCH  12  17
ATOM     17  C   UNL     1      10.382 -25.430  40.688  1.00  0.00    -0.006 C 
ATOM     18  C   UNL     1       9.217 -25.071  39.753  1.00  0.00     0.008 C 
ATOM     19  C   UNL     1      11.330 -24.226  40.834  1.00  0.00     0.008 C 
ENDBRANCH  12  17
ENDBRANCH  11  12
ENDBRANCH   1  11
TORSDOF 1
ENDMDL
MODEL 7
REMARK VINA RESULT:    -3.307      1.465      3.948
REMARK INTER + INTRA:          -5.012
REMARK INTER:                  -4.779
REMARK INTRA:                  -0.233
REMARK UNBOUND:                 0.035
REMARK SMILES CC1=CCC[C@@H](C)C(=O)C[C@@H](C(C)C)C(=O)C1
REMARK SMILES IDX 8 1 9 2 6 3 7 4 5 5 4 6 3 7 2 8 1 9 10 11 11 12 15 13 16 14
REMARK SMILES IDX 17 15 12 17 13 18 14 19
REMARK H PARENT
REMARK Flexibility Score: 70.00
ROOT
ATOM      1  C   UNL     1      12.790 -24.857  38.868  1.00  0.00     0.136 C 
ATOM      2  O   UNL     1      13.043 -24.130  37.919  1.00  0.00    -0.299 OA
ENDROOT
BRANCH   1   3
ATOM      3  C   UNL     1      13.956 -25.552  39.565  1.00  0.00     0.053 C 
ATOM      4  C   UNL     1      15.244 -24.718  39.672  1.00  0.00     0.016 C 
BRANCH   3   5
ATOM      5  C   UNL     1      14.244 -26.958  38.977  1.00  0.00     0.015 C 
BRANCH   5   6
ATOM      6  C   UNL     1      13.011 -27.872  38.818  1.00  0.00     0.028 C 
BRANCH   6   7
ATOM      7  C   UNL     1      12.701 -28.607  40.101  1.00  0.00    -0.028 C 
ATOM      8  C   UNL     1      11.535 -28.539  40.783  1.00  0.00    -0.070 CG0
ATOM      9  C   UNL     1      11.404 -29.356  42.045  1.00  0.00     0.039 C 
ATOM     10  G   UNL     1      10.365 -27.686  40.336  1.00  0.00     0.000 G0
ENDBRANCH   6   7
ENDBRANCH   5   6
ENDBRANCH   3   5
ENDBRANCH   1   3
BRANCH   1  11
ATOM     11  C   UNL     1      11.329 -25.064  39.227  1.00  0.00     0.087 C 
BRANCH  11  12
ATOM     12  C   UNL     1      11.116 -25.182  40.755  1.00  0.00     0.066 C 
BRANCH  12  13
ATOM     13  C   UNL     1      10.239 -26.381  41.087  1.00  0.00     0.140 C 
ATOM     14  O   UNL     1       9.445 -26.313  42.013  1.00  0.00    -0.299 OA
BRANCH  13  15
ATOM     15  C   UNL     1      10.353 -27.683  40.331  1.00  0.00     0.106 CG0
ATOM     16  G   UNL     1      11.534 -28.520  40.779  1.00  0.00     0.000 G0
ENDBRANCH  13  15
ENDBRANCH  12  13
BRANCH  12  17
ATOM     17  C   UNL     1      10.586 -23.855  41.380  1.00  0.00    -0.006 C 
ATOM     18  C   UNL     1       9.673 -23.100  40.402  1.00  0.00     0.008 C 
ATOM     19  C   UNL     1      11.687 -22.914  41.905  1.00  0.00     0.008 C 
ENDBRANCH  12  17
ENDBRANCH  11  12
ENDBRANCH   1  11
TORSDOF 1
ENDMDL
MODEL 8
REMARK VINA RESULT:    -3.305      2.289      4.507
REMARK INTER + INTRA:          -5.009
REMARK INTER:                  -4.782
REMARK INTRA:                  -0.227
REMARK UNBOUND:                 0.035
REMARK SMILES CC1=CCC[C@@H](C)C(=O)C[C@@H](C(C)C)C(=O)C1
REMARK SMILES IDX 8 1 9 2 6 3 7 4 5 5 4 6 3 7 2 8 1 9 10 11 11 12 15 13 16 14
REMARK SMILES IDX 17 15 12 17 13 18 14 19
REMARK H PARENT
REMARK Flexibility Score: 70.00
ROOT
ATOM      1  C   UNL     1      11.034 -22.679  40.687  1.00  0.00     0.136 C 
ATOM      2  O   UNL     1       9.961 -22.426  41.214  1.00  0.00    -0.299 OA
ENDROOT
BRANCH   1   3
ATOM      3  C   UNL     1      12.276 -21.969  41.221  1.00  0.00     0.053 C 
ATOM      4  C   UNL     1      13.033 -21.115  40.190  1.00  0.00     0.016 C 
BRANCH   3   5
ATOM      5  C   UNL     1      13.235 -22.934  41.966  1.00  0.00     0.015 C 
BRANCH   5   6
ATOM      6  C   UNL     1      14.604 -23.155  41.292  1.00  0.00     0.028 C 
BRANCH   6   7
ATOM      7  C   UNL     1      14.970 -24.621  41.258  1.00  0.00    -0.028 C 
ATOM      8  C   UNL     1      14.702 -25.474  40.243  1.00  0.00    -0.070 CG0
ATOM      9  C   UNL     1      15.155 -26.906  40.382  1.00  0.00     0.039 C 
ATOM     10  G   UNL     1      13.972 -25.055  38.982  1.00  0.00     0.000 G0
ENDBRANCH   6   7
ENDBRANCH   5   6
ENDBRANCH   3   5
ENDBRANCH   1   3
BRANCH   1  11
ATOM     11  C   UNL     1      11.031 -23.622  39.497  1.00  0.00     0.087 C 
BRANCH  11  12
ATOM     12  C   UNL     1      11.483 -25.050  39.885  1.00  0.00     0.066 C 
BRANCH  12  13
ATOM     13  C   UNL     1      12.541 -25.562  38.917  1.00  0.00     0.140 C 
ATOM     14  O   UNL     1      12.250 -26.427  38.104  1.00  0.00    -0.299 OA
BRANCH  13  15
ATOM     15  C   UNL     1      13.966 -25.065  38.962  1.00  0.00     0.106 CG0
ATOM     16  G   UNL     1      14.689 -25.469  40.231  1.00  0.00     0.000 G0
ENDBRANCH  13  15
ENDBRANCH  12  13
BRANCH  12  17
ATOM     17  C   UNL     1      10.279 -26.030  40.036  1.00  0.00    -0.006 C 
ATOM     18  C   UNL     1       9.080 -25.579  39.188  1.00  0.00     0.008 C 
ATOM     19  C   UNL     1       9.834 -26.271  41.490  1.00  0.00     0.008 C 
ENDBRANCH  12  17
ENDBRANCH  11  12
ENDBRANCH   1  11
TORSDOF 1
ENDMDL
MODEL 9
REMARK VINA RESULT:    -3.280      2.270      4.521
REMARK INTER + INTRA:          -4.970
REMARK INTER:                  -4.565
REMARK INTRA:                  -0.404
REMARK UNBOUND:                 0.035
REMARK SMILES CC1=CCC[C@@H](C)C(=O)C[C@@H](C(C)C)C(=O)C1
REMARK SMILES IDX 8 1 9 2 6 3 7 4 5 5 4 6 3 7 2 8 1 9 10 11 11 12 15 13 16 14
REMARK SMILES IDX 17 15 12 17 13 18 14 19
REMARK H PARENT
REMARK Flexibility Score: 70.00
ROOT
ATOM      1  C   UNL     1      13.553 -24.492  38.395  1.00  0.00     0.136 C 
ATOM      2  O   UNL     1      13.972 -24.603  37.252  1.00  0.00    -0.299 OA
ENDROOT
BRANCH   1   3
ATOM      3  C   UNL     1      13.753 -25.669  39.344  1.00  0.00     0.053 C 
ATOM      4  C   UNL     1      15.198 -25.879  39.829  1.00  0.00     0.016 C 
BRANCH   3   5
ATOM      5  C   UNL     1      13.148 -26.986  38.791  1.00  0.00     0.015 C 
BRANCH   5   6
ATOM      6  C   UNL     1      11.656 -26.916  38.408  1.00  0.00     0.028 C 
BRANCH   6   7
ATOM      7  C   UNL     1      10.773 -26.909  39.635  1.00  0.00    -0.028 C 
ATOM      8  C   UNL     1      10.074 -25.846  40.093  1.00  0.00    -0.070 CG0
ATOM      9  C   UNL     1       9.234 -26.031  41.333  1.00  0.00     0.039 C 
ATOM     10  G   UNL     1      10.097 -24.488  39.418  1.00  0.00     0.000 G0
ENDBRANCH   6   7
ENDBRANCH   5   6
ENDBRANCH   3   5
ENDBRANCH   1   3
BRANCH   1  11
ATOM     11  C   UNL     1      12.805 -23.219  38.751  1.00  0.00     0.087 C 
BRANCH  11  12
ATOM     12  C   UNL     1      12.280 -23.241  40.206  1.00  0.00     0.066 C 
BRANCH  12  13
ATOM     13  C   UNL     1      10.768 -23.420  40.232  1.00  0.00     0.140 C 
ATOM     14  O   UNL     1      10.087 -22.711  40.959  1.00  0.00    -0.299 OA
BRANCH  13  15
ATOM     15  C   UNL     1      10.080 -24.487  39.417  1.00  0.00     0.106 CG0
ATOM     16  G   UNL     1      10.070 -25.837  40.106  1.00  0.00     0.000 G0
ENDBRANCH  13  15
ENDBRANCH  12  13
BRANCH  12  17
ATOM     17  C   UNL     1      12.756 -22.000  41.023  1.00  0.00    -0.006 C 
ATOM     18  C   UNL     1      13.664 -21.091  40.181  1.00  0.00     0.008 C 
ATOM     19  C   UNL     1      13.444 -22.342  42.357  1.00  0.00     0.008 C 
ENDBRANCH  12  17
ENDBRANCH  11  12
ENDBRANCH   1  11
TORSDOF 1
ENDMDL
