MODEL 1
REMARK VINA RESULT:    -2.983      0.000      0.000
REMARK INTER + INTRA:          -3.070
REMARK INTER:                  -3.070
REMARK INTRA:                   0.000
REMARK UNBOUND:                 0.000
REMARK SMILES C=C1CCC[C@@]2(C)C[C@@]3(O)OC(=O)C(C)=C3C[C@H]12
REMARK SMILES IDX 15 1 14 2 16 3 17 4 18 5 2 6 1 7 3 8 4 9 5 10 6 11 8 12 9 13
REMARK SMILES IDX 11 14 12 15 13 16 7 17 10 18
REMARK H PARENT 10 19
REMARK Flexibility Score: inf
ROOT
ATOM      1  C   UNL     1      12.126  21.293  -5.125  1.00  0.00     0.052 C 
ATOM      2  C   UNL     1      11.366  20.914  -3.890  1.00  0.00     0.040 C 
ATOM      3  C   UNL     1      11.653  21.263  -2.636  1.00  0.00     0.012 C 
ATOM      4  C   UNL     1      12.749  22.189  -2.197  1.00  0.00     0.047 C 
ATOM      5  C   UNL     1      12.100  23.431  -1.543  1.00  0.00     0.025 C 
ATOM      6  C   UNL     1      13.065  24.507  -1.061  1.00  0.00    -0.073 C 
ATOM      7  C   UNL     1      14.404  24.368  -1.051  1.00  0.00     0.008 C 
ATOM      8  C   UNL     1      12.428  25.779  -0.555  1.00  0.00     0.031 C 
ATOM      9  C   UNL     1      11.391  25.465   0.531  1.00  0.00     0.005 C 
ATOM     10  C   UNL     1      10.401  24.365   0.093  1.00  0.00     0.008 C 
ATOM     11  C   UNL     1      11.098  23.058  -0.397  1.00  0.00    -0.019 C 
ATOM     12  C   UNL     1       9.993  22.099  -0.954  1.00  0.00     0.092 C 
ATOM     13  C   UNL     1      10.547  20.857  -1.694  1.00  0.00     0.235 C 
ATOM     14  O   UNL     1       9.565  20.296  -2.565  1.00  0.00    -0.426 OA
ATOM     15  C   UNL     1      10.053  20.308  -3.857  1.00  0.00     0.336 C 
ATOM     16  O   UNL     1       9.415  19.879  -4.854  1.00  0.00    -0.246 OA
ATOM     17  C   UNL     1      11.819  22.389   0.805  1.00  0.00     0.012 C 
ENDROOT
BRANCH  13  18
ATOM     18  O   UNL     1      11.011  19.875  -0.805  1.00  0.00    -0.353 OA
ATOM     19  H   UNL     1      10.424  19.083  -0.921  1.00  0.00     0.215 HD
ENDBRANCH  13  18
TORSDOF 1
ENDMDL
MODEL 2
REMARK VINA RESULT:    -1.442      2.688      5.508
REMARK INTER + INTRA:          -1.484
REMARK INTER:                  -1.484
REMARK INTRA:                   0.000
REMARK UNBOUND:                 0.000
REMARK SMILES C=C1CCC[C@@]2(C)C[C@@]3(O)OC(=O)C(C)=C3C[C@H]12
REMARK SMILES IDX 15 1 14 2 16 3 17 4 18 5 2 6 1 7 3 8 4 9 5 10 6 11 8 12 9 13
REMARK SMILES IDX 11 14 12 15 13 16 7 17 10 18
REMARK H PARENT 10 19
REMARK Flexibility Score: inf
ROOT
ATOM      1  C   UNL     1      10.675  24.827   0.697  1.00  0.00     0.052 C 
ATOM      2  C   UNL     1      11.891  24.649  -0.161  1.00  0.00     0.040 C 
ATOM      3  C   UNL     1      12.250  23.548  -0.821  1.00  0.00     0.012 C 
ATOM      4  C   UNL     1      11.463  22.274  -0.924  1.00  0.00     0.047 C 
ATOM      5  C   UNL     1      11.070  22.066  -2.405  1.00  0.00     0.025 C 
ATOM      6  C   UNL     1      10.232  20.829  -2.701  1.00  0.00    -0.073 C 
ATOM      7  C   UNL     1       9.949  19.876  -1.794  1.00  0.00     0.008 C 
ATOM      8  C   UNL     1       9.729  20.703  -4.119  1.00  0.00     0.031 C 
ATOM      9  C   UNL     1      10.892  20.811  -5.114  1.00  0.00     0.005 C 
ATOM     10  C   UNL     1      11.782  22.042  -4.840  1.00  0.00     0.008 C 
ATOM     11  C   UNL     1      12.303  22.121  -3.372  1.00  0.00    -0.019 C 
ATOM     12  C   UNL     1      13.051  23.485  -3.195  1.00  0.00     0.092 C 
ATOM     13  C   UNL     1      13.422  23.819  -1.730  1.00  0.00     0.235 C 
ATOM     14  O   UNL     1      13.649  25.218  -1.562  1.00  0.00    -0.426 OA
ATOM     15  C   UNL     1      12.763  25.706  -0.622  1.00  0.00     0.336 C 
ATOM     16  O   UNL     1      12.717  26.911  -0.258  1.00  0.00    -0.246 OA
ATOM     17  C   UNL     1      13.286  20.946  -3.120  1.00  0.00     0.012 C 
ENDROOT
BRANCH  13  18
ATOM     18  O   UNL     1      14.544  23.099  -1.292  1.00  0.00    -0.353 OA
ATOM     19  H   UNL     1      14.767  22.450  -2.009  1.00  0.00     0.215 HD
ENDBRANCH  13  18
TORSDOF 1
ENDMDL
