MODEL 1
REMARK VINA RESULT:    -3.239      0.000      0.000
REMARK INTER + INTRA:          -4.328
REMARK INTER:                  -4.186
REMARK INTRA:                  -0.142
REMARK UNBOUND:                -0.142
REMARK SMILES CCCCCCC(=O)[O-]
REMARK SMILES IDX 5 1 6 2 7 3 8 4 9 5 4 6 3 7 2 8 1 9
REMARK H PARENT
REMARK Flexibility Score: inf
ROOT
ATOM      1  C   UNL     1      61.824  33.022  60.444  1.00  0.00     0.006 C 
ENDROOT
BRANCH   1   2
ATOM      2  C   UNL     1      62.275  31.558  60.371  1.00  0.00     0.053 C 
BRANCH   2   3
ATOM      3  C   UNL     1      61.658  30.730  61.457  1.00  0.00     0.041 C 
ATOM      4  O   UNL     1      60.518  31.021  61.905  1.00  0.00    -0.550 OA
ATOM      5  O   UNL     1      62.328  29.618  61.950  1.00  0.00    -0.550 OA
ENDBRANCH   2   3
ENDBRANCH   1   2
BRANCH   1   6
ATOM      6  C   UNL     1      63.012  33.993  60.531  1.00  0.00     0.000 C 
BRANCH   6   7
ATOM      7  C   UNL     1      62.541  35.404  60.903  1.00  0.00    -0.000 C 
BRANCH   7   8
ATOM      8  C   UNL     1      63.718  36.273  61.361  1.00  0.00    -0.003 C 
ATOM      9  C   UNL     1      64.933  35.417  61.707  1.00  0.00     0.004 C 
ENDBRANCH   7   8
ENDBRANCH   6   7
ENDBRANCH   1   6
TORSDOF 5
ENDMDL
MODEL 2
REMARK VINA RESULT:    -3.221     12.404     13.667
REMARK INTER + INTRA:          -4.305
REMARK INTER:                  -4.075
REMARK INTRA:                  -0.230
REMARK UNBOUND:                -0.142
REMARK SMILES CCCCCCC(=O)[O-]
REMARK SMILES IDX 5 1 6 2 7 3 8 4 9 5 4 6 3 7 2 8 1 9
REMARK H PARENT
REMARK Flexibility Score: inf
ROOT
ATOM      1  C   UNL     1      58.228  29.142  50.740  1.00  0.00     0.006 C 
ENDROOT
BRANCH   1   2
ATOM      2  C   UNL     1      58.883  28.765  49.406  1.00  0.00     0.053 C 
BRANCH   2   3
ATOM      3  C   UNL     1      59.812  27.598  49.552  1.00  0.00     0.041 C 
ATOM      4  O   UNL     1      59.358  26.424  49.552  1.00  0.00    -0.550 OA
ATOM      5  O   UNL     1      61.181  27.806  49.653  1.00  0.00    -0.550 OA
ENDBRANCH   2   3
ENDBRANCH   1   2
BRANCH   1   6
ATOM      6  C   UNL     1      56.694  29.078  50.675  1.00  0.00     0.000 C 
BRANCH   6   7
ATOM      7  C   UNL     1      56.207  27.625  50.631  1.00  0.00    -0.000 C 
BRANCH   7   8
ATOM      8  C   UNL     1      54.710  27.558  50.307  1.00  0.00    -0.003 C 
ATOM      9  C   UNL     1      54.049  28.923  50.467  1.00  0.00     0.004 C 
ENDBRANCH   7   8
ENDBRANCH   6   7
ENDBRANCH   1   6
TORSDOF 5
ENDMDL
MODEL 3
REMARK VINA RESULT:    -3.172      1.457      2.006
REMARK INTER + INTRA:          -4.241
REMARK INTER:                  -4.025
REMARK INTRA:                  -0.216
REMARK UNBOUND:                -0.142
REMARK SMILES CCCCCCC(=O)[O-]
REMARK SMILES IDX 5 1 6 2 7 3 8 4 9 5 4 6 3 7 2 8 1 9
REMARK H PARENT
REMARK Flexibility Score: inf
ROOT
ATOM      1  C   UNL     1      61.101  31.664  60.395  1.00  0.00     0.006 C 
ENDROOT
BRANCH   1   2
ATOM      2  C   UNL     1      61.184  30.826  61.678  1.00  0.00     0.053 C 
BRANCH   2   3
ATOM      3  C   UNL     1      62.344  29.878  61.649  1.00  0.00     0.041 C 
ATOM      4  O   UNL     1      63.522  30.320  61.616  1.00  0.00    -0.550 OA
ATOM      5  O   UNL     1      62.124  28.507  61.694  1.00  0.00    -0.550 OA
ENDBRANCH   2   3
ENDBRANCH   1   2
BRANCH   1   6
ATOM      6  C   UNL     1      61.437  33.143  60.643  1.00  0.00     0.000 C 
BRANCH   6   7
ATOM      7  C   UNL     1      62.870  33.462  60.201  1.00  0.00    -0.000 C 
BRANCH   7   8
ATOM      8  C   UNL     1      63.362  34.768  60.834  1.00  0.00    -0.003 C 
ATOM      9  C   UNL     1      62.222  35.770  60.988  1.00  0.00     0.004 C 
ENDBRANCH   7   8
ENDBRANCH   6   7
ENDBRANCH   1   6
TORSDOF 5
ENDMDL
MODEL 4
REMARK VINA RESULT:    -3.163      3.193      5.040
REMARK INTER + INTRA:          -4.230
REMARK INTER:                  -4.056
REMARK INTRA:                  -0.174
REMARK UNBOUND:                -0.142
REMARK SMILES CCCCCCC(=O)[O-]
REMARK SMILES IDX 5 1 6 2 7 3 8 4 9 5 4 6 3 7 2 8 1 9
REMARK H PARENT
REMARK Flexibility Score: inf
ROOT
ATOM      1  C   UNL     1      62.819  33.747  60.508  1.00  0.00     0.006 C 
ENDROOT
BRANCH   1   2
ATOM      2  C   UNL     1      64.282  33.942  60.924  1.00  0.00     0.053 C 
BRANCH   2   3
ATOM      3  C   UNL     1      64.558  35.352  61.349  1.00  0.00     0.041 C 
ATOM      4  O   UNL     1      65.738  35.728  61.570  1.00  0.00    -0.550 OA
ATOM      5  O   UNL     1      63.513  36.260  61.467  1.00  0.00    -0.550 OA
ENDBRANCH   2   3
ENDBRANCH   1   2
BRANCH   1   6
ATOM      6  C   UNL     1      62.446  32.263  60.366  1.00  0.00     0.000 C 
BRANCH   6   7
ATOM      7  C   UNL     1      60.994  32.019  60.792  1.00  0.00    -0.000 C 
BRANCH   7   8
ATOM      8  C   UNL     1      60.881  30.766  61.668  1.00  0.00    -0.003 C 
ATOM      9  C   UNL     1      62.218  30.036  61.761  1.00  0.00     0.004 C 
ENDBRANCH   7   8
ENDBRANCH   6   7
ENDBRANCH   1   6
TORSDOF 5
ENDMDL
MODEL 5
REMARK VINA RESULT:    -3.155     12.932     14.384
REMARK INTER + INTRA:          -4.219
REMARK INTER:                  -4.052
REMARK INTRA:                  -0.167
REMARK UNBOUND:                -0.142
REMARK SMILES CCCCCCC(=O)[O-]
REMARK SMILES IDX 5 1 6 2 7 3 8 4 9 5 4 6 3 7 2 8 1 9
REMARK H PARENT
REMARK Flexibility Score: inf
ROOT
ATOM      1  C   UNL     1      56.738  29.146  50.730  1.00  0.00     0.006 C 
ENDROOT
BRANCH   1   2
ATOM      2  C   UNL     1      57.703  27.985  50.456  1.00  0.00     0.053 C 
BRANCH   2   3
ATOM      3  C   UNL     1      58.917  28.437  49.702  1.00  0.00     0.041 C 
ATOM      4  O   UNL     1      59.108  29.662  49.485  1.00  0.00    -0.550 OA
ATOM      5  O   UNL     1      59.852  27.506  49.268  1.00  0.00    -0.550 OA
ENDBRANCH   2   3
ENDBRANCH   1   2
BRANCH   1   6
ATOM      6  C   UNL     1      55.266  28.709  50.656  1.00  0.00     0.000 C 
BRANCH   6   7
ATOM      7  C   UNL     1      55.153  27.195  50.441  1.00  0.00    -0.000 C 
BRANCH   7   8
ATOM      8  C   UNL     1      53.769  26.819  49.902  1.00  0.00    -0.003 C 
ATOM      9  C   UNL     1      53.756  25.392  49.362  1.00  0.00     0.004 C 
ENDBRANCH   7   8
ENDBRANCH   6   7
ENDBRANCH   1   6
TORSDOF 5
ENDMDL
MODEL 6
REMARK VINA RESULT:    -3.136     12.614     13.735
REMARK INTER + INTRA:          -4.195
REMARK INTER:                  -3.965
REMARK INTRA:                  -0.230
REMARK UNBOUND:                -0.142
REMARK SMILES CCCCCCC(=O)[O-]
REMARK SMILES IDX 5 1 6 2 7 3 8 4 9 5 4 6 3 7 2 8 1 9
REMARK H PARENT
REMARK Flexibility Score: inf
ROOT
ATOM      1  C   UNL     1      55.904  28.095  51.283  1.00  0.00     0.006 C 
ENDROOT
BRANCH   1   2
ATOM      2  C   UNL     1      54.882  27.388  50.385  1.00  0.00     0.053 C 
BRANCH   2   3
ATOM      3  C   UNL     1      55.323  26.003  50.023  1.00  0.00     0.041 C 
ATOM      4  O   UNL     1      54.582  25.264  49.324  1.00  0.00    -0.550 OA
ATOM      5  O   UNL     1      56.569  25.541  50.429  1.00  0.00    -0.550 OA
ENDBRANCH   2   3
ENDBRANCH   1   2
BRANCH   1   6
ATOM      6  C   UNL     1      56.598  29.265  50.566  1.00  0.00     0.000 C 
BRANCH   6   7
ATOM      7  C   UNL     1      58.119  29.190  50.739  1.00  0.00    -0.000 C 
BRANCH   7   8
ATOM      8  C   UNL     1      58.814  28.948  49.395  1.00  0.00    -0.003 C 
ATOM      9  C   UNL     1      59.755  27.750  49.467  1.00  0.00     0.004 C 
ENDBRANCH   7   8
ENDBRANCH   6   7
ENDBRANCH   1   6
TORSDOF 5
ENDMDL
MODEL 7
REMARK VINA RESULT:    -3.014     13.294     13.702
REMARK INTER + INTRA:          -4.037
REMARK INTER:                  -3.844
REMARK INTRA:                  -0.193
REMARK UNBOUND:                -0.142
REMARK SMILES CCCCCCC(=O)[O-]
REMARK SMILES IDX 5 1 6 2 7 3 8 4 9 5 4 6 3 7 2 8 1 9
REMARK H PARENT
REMARK Flexibility Score: inf
ROOT
ATOM      1  C   UNL     1      57.194  27.594  50.548  1.00  0.00     0.006 C 
ENDROOT
BRANCH   1   2
ATOM      2  C   UNL     1      55.809  27.446  51.190  1.00  0.00     0.053 C 
BRANCH   2   3
ATOM      3  C   UNL     1      54.778  27.010  50.195  1.00  0.00     0.041 C 
ATOM      4  O   UNL     1      53.855  27.795  49.854  1.00  0.00    -0.550 OA
ATOM      5  O   UNL     1      54.857  25.749  49.618  1.00  0.00    -0.550 OA
ENDBRANCH   2   3
ENDBRANCH   1   2
BRANCH   1   6
ATOM      6  C   UNL     1      57.566  29.065  50.299  1.00  0.00     0.000 C 
BRANCH   6   7
ATOM      7  C   UNL     1      58.929  29.177  49.607  1.00  0.00    -0.000 C 
BRANCH   7   8
ATOM      8  C   UNL     1      59.534  27.790  49.356  1.00  0.00    -0.003 C 
ATOM      9  C   UNL     1      60.971  27.715  49.863  1.00  0.00     0.004 C 
ENDBRANCH   7   8
ENDBRANCH   6   7
ENDBRANCH   1   6
TORSDOF 5
ENDMDL
MODEL 8
REMARK VINA RESULT:    -3.002      2.613      4.495
REMARK INTER + INTRA:          -4.021
REMARK INTER:                  -3.622
REMARK INTRA:                  -0.399
REMARK UNBOUND:                -0.142
REMARK SMILES CCCCCCC(=O)[O-]
REMARK SMILES IDX 5 1 6 2 7 3 8 4 9 5 4 6 3 7 2 8 1 9
REMARK H PARENT
REMARK Flexibility Score: inf
ROOT
ATOM      1  C   UNL     1      61.605  33.126  60.493  1.00  0.00     0.006 C 
ENDROOT
BRANCH   1   2
ATOM      2  C   UNL     1      62.910  33.238  59.696  1.00  0.00     0.053 C 
BRANCH   2   3
ATOM      3  C   UNL     1      64.114  33.123  60.581  1.00  0.00     0.041 C 
ATOM      4  O   UNL     1      64.727  32.028  60.678  1.00  0.00    -0.550 OA
ATOM      5  O   UNL     1      64.579  34.236  61.271  1.00  0.00    -0.550 OA
ENDBRANCH   2   3
ENDBRANCH   1   2
BRANCH   1   6
ATOM      6  C   UNL     1      60.895  31.782  60.263  1.00  0.00     0.000 C 
BRANCH   6   7
ATOM      7  C   UNL     1      60.793  30.985  61.568  1.00  0.00    -0.000 C 
BRANCH   7   8
ATOM      8  C   UNL     1      62.033  30.109  61.776  1.00  0.00    -0.003 C 
ATOM      9  C   UNL     1      62.375  29.328  60.511  1.00  0.00     0.004 C 
ENDBRANCH   7   8
ENDBRANCH   6   7
ENDBRANCH   1   6
TORSDOF 5
ENDMDL
MODEL 9
REMARK VINA RESULT:    -2.931     12.222     13.143
REMARK INTER + INTRA:          -3.930
REMARK INTER:                  -3.552
REMARK INTRA:                  -0.379
REMARK UNBOUND:                -0.142
REMARK SMILES CCCCCCC(=O)[O-]
REMARK SMILES IDX 5 1 6 2 7 3 8 4 9 5 4 6 3 7 2 8 1 9
REMARK H PARENT
REMARK Flexibility Score: inf
ROOT
ATOM      1  C   UNL     1      59.521  26.996  50.500  1.00  0.00     0.006 C 
ENDROOT
BRANCH   1   2
ATOM      2  C   UNL     1      58.911  25.642  50.116  1.00  0.00     0.053 C 
BRANCH   2   3
ATOM      3  C   UNL     1      57.568  25.438  50.747  1.00  0.00     0.041 C 
ATOM      4  O   UNL     1      56.523  25.788  50.139  1.00  0.00    -0.550 OA
ATOM      5  O   UNL     1      57.469  24.830  51.992  1.00  0.00    -0.550 OA
ENDBRANCH   2   3
ENDBRANCH   1   2
BRANCH   1   6
ATOM      6  C   UNL     1      59.635  27.945  49.297  1.00  0.00     0.000 C 
BRANCH   6   7
ATOM      7  C   UNL     1      58.762  29.190  49.496  1.00  0.00    -0.000 C 
BRANCH   7   8
ATOM      8  C   UNL     1      58.108  29.186  50.882  1.00  0.00    -0.003 C 
ATOM      9  C   UNL     1      56.588  29.267  50.776  1.00  0.00     0.004 C 
ENDBRANCH   7   8
ENDBRANCH   6   7
ENDBRANCH   1   6
TORSDOF 5
ENDMDL
