MODEL 1
REMARK VINA RESULT:     6.929      0.000      0.000
REMARK INTER + INTRA:          12.963
REMARK INTER:                  13.005
REMARK INTRA:                  -0.042
REMARK UNBOUND:                -0.042
REMARK SMILES CCCCCCCCC=CCCCCCCCC(=O)[O-]
REMARK SMILES IDX 10 1 9 2 11 3 12 4 13 5 14 6 15 7 16 8 17 9 18 10 19 11
REMARK SMILES IDX 20 12 8 13 7 14 6 15 5 16 4 17 3 18 2 19 1 20
REMARK H PARENT
REMARK Flexibility Score: inf
ROOT
ATOM      1  C   UNL     1      -2.446  26.398  39.453  1.00  0.00    -0.031 C 
ATOM      2  C   UNL     1      -2.727  25.094  39.634  1.00  0.00    -0.031 C 
ENDROOT
BRANCH   1   3
ATOM      3  C   UNL     1      -2.135  27.031  38.118  1.00  0.00     0.027 C 
BRANCH   3   4
ATOM      4  C   UNL     1      -0.922  27.970  38.199  1.00  0.00     0.004 C 
BRANCH   4   5
ATOM      5  C   UNL     1      -0.112  27.761  39.487  1.00  0.00     0.000 C 
BRANCH   5   6
ATOM      6  C   UNL     1      -0.109  29.035  40.346  1.00  0.00     0.000 C 
BRANCH   6   7
ATOM      7  C   UNL     1       0.806  28.921  41.575  1.00  0.00     0.000 C 
BRANCH   7   8
ATOM      8  C   UNL     1       1.520  27.564  41.659  1.00  0.00     0.006 C 
BRANCH   8   9
ATOM      9  C   UNL     1       2.635  27.596  42.710  1.00  0.00     0.053 C 
BRANCH   9  10
ATOM     10  C   UNL     1       2.675  26.310  43.472  1.00  0.00     0.041 C 
ATOM     11  O   UNL     1       2.505  26.307  44.720  1.00  0.00    -0.550 OA
ATOM     12  O   UNL     1       2.857  25.107  42.800  1.00  0.00    -0.550 OA
ENDBRANCH   9  10
ENDBRANCH   8   9
ENDBRANCH   7   8
ENDBRANCH   6   7
ENDBRANCH   5   6
ENDBRANCH   4   5
ENDBRANCH   3   4
ENDBRANCH   1   3
BRANCH   2  13
ATOM     13  C   UNL     1      -2.685  24.051  38.546  1.00  0.00     0.027 C 
BRANCH  13  14
ATOM     14  C   UNL     1      -2.952  22.653  39.123  1.00  0.00     0.004 C 
BRANCH  14  15
ATOM     15  C   UNL     1      -4.311  22.075  38.685  1.00  0.00     0.000 C 
BRANCH  15  16
ATOM     16  C   UNL     1      -5.539  22.854  39.194  1.00  0.00     0.000 C 
BRANCH  16  17
ATOM     17  C   UNL     1      -5.704  22.871  40.725  1.00  0.00    -0.000 C 
BRANCH  17  18
ATOM     18  C   UNL     1      -4.571  23.625  41.461  1.00  0.00    -0.000 C 
BRANCH  18  19
ATOM     19  C   UNL     1      -3.631  22.701  42.255  1.00  0.00    -0.003 C 
ATOM     20  C   UNL     1      -3.534  23.091  43.730  1.00  0.00     0.004 C 
ENDBRANCH  18  19
ENDBRANCH  17  18
ENDBRANCH  16  17
ENDBRANCH  15  16
ENDBRANCH  14  15
ENDBRANCH  13  14
ENDBRANCH   2  13
TORSDOF 15
ENDMDL
MODEL 2
REMARK VINA RESULT:     7.088      2.187      6.908
REMARK INTER + INTRA:          13.261
REMARK INTER:                  13.583
REMARK INTRA:                  -0.322
REMARK UNBOUND:                -0.042
REMARK SMILES CCCCCCCCC=CCCCCCCCC(=O)[O-]
REMARK SMILES IDX 10 1 9 2 11 3 12 4 13 5 14 6 15 7 16 8 17 9 18 10 19 11
REMARK SMILES IDX 20 12 8 13 7 14 6 15 5 16 4 17 3 18 2 19 1 20
REMARK H PARENT
REMARK Flexibility Score: inf
ROOT
ATOM      1  C   UNL     1      -2.746  25.514  39.601  1.00  0.00    -0.031 C 
ATOM      2  C   UNL     1      -2.550  26.799  39.250  1.00  0.00    -0.031 C 
ENDROOT
BRANCH   1   3
ATOM      3  C   UNL     1      -2.304  24.325  38.784  1.00  0.00     0.027 C 
BRANCH   3   4
ATOM      4  C   UNL     1      -2.798  23.000  39.386  1.00  0.00     0.004 C 
BRANCH   4   5
ATOM      5  C   UNL     1      -3.587  22.160  38.371  1.00  0.00     0.000 C 
BRANCH   5   6
ATOM      6  C   UNL     1      -5.031  21.938  38.847  1.00  0.00     0.000 C 
BRANCH   6   7
ATOM      7  C   UNL     1      -5.640  23.189  39.500  1.00  0.00     0.000 C 
BRANCH   7   8
ATOM      8  C   UNL     1      -5.761  23.063  41.025  1.00  0.00     0.006 C 
BRANCH   8   9
ATOM      9  C   UNL     1      -4.693  23.905  41.731  1.00  0.00     0.053 C 
BRANCH   9  10
ATOM     10  C   UNL     1      -3.803  23.036  42.561  1.00  0.00     0.041 C 
ATOM     11  O   UNL     1      -3.402  21.928  42.114  1.00  0.00    -0.550 OA
ATOM     12  O   UNL     1      -3.379  23.466  43.812  1.00  0.00    -0.550 OA
ENDBRANCH   9  10
ENDBRANCH   8   9
ENDBRANCH   7   8
ENDBRANCH   6   7
ENDBRANCH   5   6
ENDBRANCH   4   5
ENDBRANCH   3   4
ENDBRANCH   1   3
BRANCH   2  13
ATOM     13  C   UNL     1      -1.939  27.245  37.945  1.00  0.00     0.027 C 
BRANCH  13  14
ATOM     14  C   UNL     1      -0.668  28.069  38.195  1.00  0.00     0.004 C 
BRANCH  14  15
ATOM     15  C   UNL     1      -0.045  27.801  39.578  1.00  0.00     0.000 C 
BRANCH  15  16
ATOM     16  C   UNL     1      -0.079  28.999  40.545  1.00  0.00     0.000 C 
BRANCH  16  17
ATOM     17  C   UNL     1       0.931  28.921  41.705  1.00  0.00    -0.000 C 
BRANCH  17  18
ATOM     18  C   UNL     1       1.623  27.544  41.833  1.00  0.00    -0.000 C 
BRANCH  18  19
ATOM     19  C   UNL     1       2.642  27.471  42.983  1.00  0.00    -0.003 C 
ATOM     20  C   UNL     1       2.709  26.082  43.619  1.00  0.00     0.004 C 
ENDBRANCH  18  19
ENDBRANCH  17  18
ENDBRANCH  16  17
ENDBRANCH  15  16
ENDBRANCH  14  15
ENDBRANCH  13  14
ENDBRANCH   2  13
TORSDOF 15
ENDMDL
MODEL 3
REMARK VINA RESULT:     7.353      2.281      6.897
REMARK INTER + INTRA:          13.758
REMARK INTER:                  14.063
REMARK INTRA:                  -0.304
REMARK UNBOUND:                -0.042
REMARK SMILES CCCCCCCCC=CCCCCCCCC(=O)[O-]
REMARK SMILES IDX 10 1 9 2 11 3 12 4 13 5 14 6 15 7 16 8 17 9 18 10 19 11
REMARK SMILES IDX 20 12 8 13 7 14 6 15 5 16 4 17 3 18 2 19 1 20
REMARK H PARENT
REMARK Flexibility Score: inf
ROOT
ATOM      1  C   UNL     1      -2.148  27.066  38.433  1.00  0.00    -0.031 C 
ATOM      2  C   UNL     1      -1.143  27.951  38.577  1.00  0.00    -0.031 C 
ENDROOT
BRANCH   1   3
ATOM      3  C   UNL     1      -2.393  25.890  39.347  1.00  0.00     0.027 C 
BRANCH   3   4
ATOM      4  C   UNL     1      -2.751  24.619  38.562  1.00  0.00     0.004 C 
BRANCH   4   5
ATOM      5  C   UNL     1      -2.534  23.345  39.391  1.00  0.00     0.000 C 
BRANCH   5   6
ATOM      6  C   UNL     1      -3.632  22.309  39.102  1.00  0.00     0.000 C 
BRANCH   6   7
ATOM      7  C   UNL     1      -5.042  22.836  39.413  1.00  0.00     0.000 C 
BRANCH   7   8
ATOM      8  C   UNL     1      -5.320  22.932  40.920  1.00  0.00     0.006 C 
BRANCH   8   9
ATOM      9  C   UNL     1      -4.264  23.797  41.618  1.00  0.00     0.053 C 
BRANCH   9  10
ATOM     10  C   UNL     1      -3.584  23.022  42.702  1.00  0.00     0.041 C 
ATOM     11  O   UNL     1      -3.547  23.475  43.877  1.00  0.00    -0.550 OA
ATOM     12  O   UNL     1      -3.028  21.779  42.425  1.00  0.00    -0.550 OA
ENDBRANCH   9  10
ENDBRANCH   8   9
ENDBRANCH   7   8
ENDBRANCH   6   7
ENDBRANCH   5   6
ENDBRANCH   4   5
ENDBRANCH   3   4
ENDBRANCH   1   3
BRANCH   2  13
ATOM     13  C   UNL     1      -0.058  27.850  39.621  1.00  0.00     0.027 C 
BRANCH  13  14
ATOM     14  C   UNL     1      -0.181  28.991  40.641  1.00  0.00     0.004 C 
BRANCH  14  15
ATOM     15  C   UNL     1       0.943  28.973  41.695  1.00  0.00     0.000 C 
BRANCH  15  16
ATOM     16  C   UNL     1       1.665  27.621  41.847  1.00  0.00     0.000 C 
BRANCH  16  17
ATOM     17  C   UNL     1       2.442  27.448  43.165  1.00  0.00    -0.000 C 
BRANCH  17  18
ATOM     18  C   UNL     1       2.368  26.017  43.745  1.00  0.00    -0.000 C 
BRANCH  18  19
ATOM     19  C   UNL     1       3.357  25.036  43.092  1.00  0.00    -0.003 C 
ATOM     20  C   UNL     1       2.684  23.742  42.634  1.00  0.00     0.004 C 
ENDBRANCH  18  19
ENDBRANCH  17  18
ENDBRANCH  16  17
ENDBRANCH  15  16
ENDBRANCH  14  15
ENDBRANCH  13  14
ENDBRANCH   2  13
TORSDOF 15
ENDMDL
MODEL 4
REMARK VINA RESULT:     8.242      0.960      2.239
REMARK INTER + INTRA:          15.427
REMARK INTER:                  16.516
REMARK INTRA:                  -1.089
REMARK UNBOUND:                -0.042
REMARK SMILES CCCCCCCCC=CCCCCCCCC(=O)[O-]
REMARK SMILES IDX 10 1 9 2 11 3 12 4 13 5 14 6 15 7 16 8 17 9 18 10 19 11
REMARK SMILES IDX 20 12 8 13 7 14 6 15 5 16 4 17 3 18 2 19 1 20
REMARK H PARENT
REMARK Flexibility Score: inf
ROOT
ATOM      1  C   UNL     1      -0.883  27.737  38.270  1.00  0.00    -0.031 C 
ATOM      2  C   UNL     1      -2.075  27.131  38.114  1.00  0.00    -0.031 C 
ENDROOT
BRANCH   1   3
ATOM      3  C   UNL     1      -0.116  27.800  39.569  1.00  0.00     0.027 C 
BRANCH   3   4
ATOM      4  C   UNL     1      -0.219  29.183  40.228  1.00  0.00     0.004 C 
BRANCH   4   5
ATOM      5  C   UNL     1       0.626  29.281  41.507  1.00  0.00     0.000 C 
BRANCH   5   6
ATOM      6  C   UNL     1       1.363  27.960  41.778  1.00  0.00     0.000 C 
BRANCH   6   7
ATOM      7  C   UNL     1       2.467  28.103  42.837  1.00  0.00     0.000 C 
BRANCH   7   8
ATOM      8  C   UNL     1       3.326  26.837  42.973  1.00  0.00     0.006 C 
BRANCH   8   9
ATOM      9  C   UNL     1       2.506  25.679  43.553  1.00  0.00     0.053 C 
BRANCH   9  10
ATOM     10  C   UNL     1       3.068  24.365  43.110  1.00  0.00     0.041 C 
ATOM     11  O   UNL     1       2.655  23.824  42.050  1.00  0.00    -0.550 OA
ATOM     12  O   UNL     1       4.079  23.757  43.844  1.00  0.00    -0.550 OA
ENDBRANCH   9  10
ENDBRANCH   8   9
ENDBRANCH   7   8
ENDBRANCH   6   7
ENDBRANCH   5   6
ENDBRANCH   4   5
ENDBRANCH   3   4
ENDBRANCH   1   3
BRANCH   2  13
ATOM     13  C   UNL     1      -2.868  26.502  39.234  1.00  0.00     0.027 C 
BRANCH  13  14
ATOM     14  C   UNL     1      -2.327  25.103  39.561  1.00  0.00     0.004 C 
BRANCH  14  15
ATOM     15  C   UNL     1      -2.803  24.030  38.563  1.00  0.00     0.000 C 
BRANCH  15  16
ATOM     16  C   UNL     1      -3.344  22.741  39.210  1.00  0.00     0.000 C 
BRANCH  16  17
ATOM     17  C   UNL     1      -4.715  22.889  39.895  1.00  0.00    -0.000 C 
BRANCH  17  18
ATOM     18  C   UNL     1      -4.625  23.354  41.367  1.00  0.00    -0.000 C 
BRANCH  18  19
ATOM     19  C   UNL     1      -3.505  22.663  42.163  1.00  0.00    -0.003 C 
ATOM     20  C   UNL     1      -3.516  23.047  43.643  1.00  0.00     0.004 C 
ENDBRANCH  18  19
ENDBRANCH  17  18
ENDBRANCH  16  17
ENDBRANCH  15  16
ENDBRANCH  14  15
ENDBRANCH  13  14
ENDBRANCH   2  13
TORSDOF 15
ENDMDL
MODEL 5
REMARK VINA RESULT:     8.550      3.567      5.962
REMARK INTER + INTRA:          16.006
REMARK INTER:                  15.738
REMARK INTRA:                   0.268
REMARK UNBOUND:                -0.042
REMARK SMILES CCCCCCCCC=CCCCCCCCC(=O)[O-]
REMARK SMILES IDX 10 1 9 2 11 3 12 4 13 5 14 6 15 7 16 8 17 9 18 10 19 11
REMARK SMILES IDX 20 12 8 13 7 14 6 15 5 16 4 17 3 18 2 19 1 20
REMARK H PARENT
REMARK Flexibility Score: inf
ROOT
ATOM      1  C   UNL     1      -5.965  22.359  38.662  1.00  0.00    -0.031 C 
ATOM      2  C   UNL     1      -4.806  21.888  38.163  1.00  0.00    -0.031 C 
ENDROOT
BRANCH   1   3
ATOM      3  C   UNL     1      -6.107  23.050  39.996  1.00  0.00     0.027 C 
BRANCH   3   4
ATOM      4  C   UNL     1      -5.026  22.601  40.992  1.00  0.00     0.004 C 
BRANCH   4   5
ATOM      5  C   UNL     1      -4.463  23.775  41.806  1.00  0.00     0.000 C 
BRANCH   5   6
ATOM      6  C   UNL     1      -3.863  24.845  40.881  1.00  0.00     0.000 C 
BRANCH   6   7
ATOM      7  C   UNL     1      -2.701  24.311  40.029  1.00  0.00     0.000 C 
BRANCH   7   8
ATOM      8  C   UNL     1      -2.377  25.216  38.833  1.00  0.00     0.006 C 
BRANCH   8   9
ATOM      9  C   UNL     1      -2.482  26.695  39.220  1.00  0.00     0.053 C 
BRANCH   9  10
ATOM     10  C   UNL     1      -1.519  27.517  38.424  1.00  0.00     0.041 C 
ATOM     11  O   UNL     1      -0.388  27.804  38.899  1.00  0.00    -0.550 OA
ATOM     12  O   UNL     1      -1.851  27.929  37.140  1.00  0.00    -0.550 OA
ENDBRANCH   9  10
ENDBRANCH   8   9
ENDBRANCH   7   8
ENDBRANCH   6   7
ENDBRANCH   5   6
ENDBRANCH   4   5
ENDBRANCH   3   4
ENDBRANCH   1   3
BRANCH   2  13
ATOM     13  C   UNL     1      -3.490  21.902  38.900  1.00  0.00     0.027 C 
BRANCH  13  14
ATOM     14  C   UNL     1      -2.385  21.263  38.047  1.00  0.00     0.004 C 
BRANCH  14  15
ATOM     15  C   UNL     1      -1.196  20.759  38.889  1.00  0.00     0.000 C 
BRANCH  15  16
ATOM     16  C   UNL     1      -0.141  19.959  38.102  1.00  0.00     0.000 C 
BRANCH  16  17
ATOM     17  C   UNL     1       0.424  18.733  38.843  1.00  0.00    -0.000 C 
BRANCH  17  18
ATOM     18  C   UNL     1      -0.660  17.865  39.523  1.00  0.00    -0.000 C 
BRANCH  18  19
ATOM     19  C   UNL     1      -0.304  17.447  40.960  1.00  0.00    -0.003 C 
ATOM     20  C   UNL     1      -1.517  17.458  41.891  1.00  0.00     0.004 C 
ENDBRANCH  18  19
ENDBRANCH  17  18
ENDBRANCH  16  17
ENDBRANCH  15  16
ENDBRANCH  14  15
ENDBRANCH  13  14
ENDBRANCH   2  13
TORSDOF 15
ENDMDL
MODEL 6
REMARK VINA RESULT:     8.655      3.992      7.393
REMARK INTER + INTRA:          16.203
REMARK INTER:                  15.329
REMARK INTRA:                   0.873
REMARK UNBOUND:                -0.042
REMARK SMILES CCCCCCCCC=CCCCCCCCC(=O)[O-]
REMARK SMILES IDX 10 1 9 2 11 3 12 4 13 5 14 6 15 7 16 8 17 9 18 10 19 11
REMARK SMILES IDX 20 12 8 13 7 14 6 15 5 16 4 17 3 18 2 19 1 20
REMARK H PARENT
REMARK Flexibility Score: inf
ROOT
ATOM      1  C   UNL     1      -6.124  22.623  38.978  1.00  0.00    -0.031 C 
ATOM      2  C   UNL     1      -5.938  23.074  40.234  1.00  0.00    -0.031 C 
ENDROOT
BRANCH   1   3
ATOM      3  C   UNL     1      -5.095  21.860  38.180  1.00  0.00     0.027 C 
BRANCH   3   4
ATOM      4  C   UNL     1      -3.709  21.904  38.842  1.00  0.00     0.004 C 
BRANCH   4   5
ATOM      5  C   UNL     1      -2.635  21.221  37.983  1.00  0.00     0.000 C 
BRANCH   5   6
ATOM      6  C   UNL     1      -1.299  21.139  38.738  1.00  0.00     0.000 C 
BRANCH   6   7
ATOM      7  C   UNL     1      -0.410  19.985  38.249  1.00  0.00     0.000 C 
BRANCH   7   8
ATOM      8  C   UNL     1      -0.016  19.020  39.376  1.00  0.00     0.006 C 
BRANCH   8   9
ATOM      9  C   UNL     1      -0.337  17.571  38.994  1.00  0.00     0.053 C 
BRANCH   9  10
ATOM     10  C   UNL     1      -1.241  16.948  40.010  1.00  0.00     0.041 C 
ATOM     11  O   UNL     1      -1.236  17.360  41.200  1.00  0.00    -0.550 OA
ATOM     12  O   UNL     1      -2.120  15.940  39.634  1.00  0.00    -0.550 OA
ENDBRANCH   9  10
ENDBRANCH   8   9
ENDBRANCH   7   8
ENDBRANCH   6   7
ENDBRANCH   5   6
ENDBRANCH   4   5
ENDBRANCH   3   4
ENDBRANCH   1   3
BRANCH   2  13
ATOM     13  C   UNL     1      -4.643  22.962  40.999  1.00  0.00     0.027 C 
BRANCH  13  14
ATOM     14  C   UNL     1      -3.880  24.295  40.971  1.00  0.00     0.004 C 
BRANCH  14  15
ATOM     15  C   UNL     1      -2.668  24.269  40.020  1.00  0.00     0.000 C 
BRANCH  15  16
ATOM     16  C   UNL     1      -2.765  25.234  38.823  1.00  0.00     0.000 C 
BRANCH  16  17
ATOM     17  C   UNL     1      -2.324  26.679  39.122  1.00  0.00    -0.000 C 
BRANCH  17  18
ATOM     18  C   UNL     1      -1.727  27.410  37.898  1.00  0.00    -0.000 C 
BRANCH  18  19
ATOM     19  C   UNL     1      -0.444  28.198  38.216  1.00  0.00    -0.003 C 
ATOM     20  C   UNL     1      -0.202  28.341  39.719  1.00  0.00     0.004 C 
ENDBRANCH  18  19
ENDBRANCH  17  18
ENDBRANCH  16  17
ENDBRANCH  15  16
ENDBRANCH  14  15
ENDBRANCH  13  14
ENDBRANCH   2  13
TORSDOF 15
ENDMDL
MODEL 7
REMARK VINA RESULT:     8.699      0.913      2.180
REMARK INTER + INTRA:          16.285
REMARK INTER:                  15.323
REMARK INTRA:                   0.962
REMARK UNBOUND:                -0.042
REMARK SMILES CCCCCCCCC=CCCCCCCCC(=O)[O-]
REMARK SMILES IDX 10 1 9 2 11 3 12 4 13 5 14 6 15 7 16 8 17 9 18 10 19 11
REMARK SMILES IDX 20 12 8 13 7 14 6 15 5 16 4 17 3 18 2 19 1 20
REMARK H PARENT
REMARK Flexibility Score: inf
ROOT
ATOM      1  C   UNL     1      -2.202  25.359  39.064  1.00  0.00    -0.031 C 
ATOM      2  C   UNL     1      -2.752  24.343  39.755  1.00  0.00    -0.031 C 
ENDROOT
BRANCH   1   3
ATOM      3  C   UNL     1      -2.487  26.820  39.315  1.00  0.00     0.027 C 
BRANCH   3   4
ATOM      4  C   UNL     1      -1.483  27.732  38.593  1.00  0.00     0.004 C 
BRANCH   4   5
ATOM      5  C   UNL     1      -0.175  27.892  39.383  1.00  0.00     0.000 C 
BRANCH   5   6
ATOM      6  C   UNL     1      -0.339  28.923  40.510  1.00  0.00     0.000 C 
BRANCH   6   7
ATOM      7  C   UNL     1       0.821  28.890  41.518  1.00  0.00     0.000 C 
BRANCH   7   8
ATOM      8  C   UNL     1       1.413  27.484  41.694  1.00  0.00     0.006 C 
BRANCH   8   9
ATOM      9  C   UNL     1       2.651  27.521  42.597  1.00  0.00     0.053 C 
BRANCH   9  10
ATOM     10  C   UNL     1       2.717  26.292  43.448  1.00  0.00     0.041 C 
ATOM     11  O   UNL     1       2.511  26.369  44.688  1.00  0.00    -0.550 OA
ATOM     12  O   UNL     1       2.963  25.055  42.866  1.00  0.00    -0.550 OA
ENDBRANCH   9  10
ENDBRANCH   8   9
ENDBRANCH   7   8
ENDBRANCH   6   7
ENDBRANCH   5   6
ENDBRANCH   4   5
ENDBRANCH   3   4
ENDBRANCH   1   3
BRANCH   2  13
ATOM     13  C   UNL     1      -3.804  24.506  40.824  1.00  0.00     0.027 C 
BRANCH  13  14
ATOM     14  C   UNL     1      -4.509  23.170  41.099  1.00  0.00     0.004 C 
BRANCH  14  15
ATOM     15  C   UNL     1      -5.964  23.147  40.592  1.00  0.00     0.000 C 
BRANCH  15  16
ATOM     16  C   UNL     1      -6.119  22.859  39.087  1.00  0.00     0.000 C 
BRANCH  16  17
ATOM     17  C   UNL     1      -5.149  21.800  38.529  1.00  0.00    -0.000 C 
BRANCH  17  18
ATOM     18  C   UNL     1      -3.665  22.232  38.580  1.00  0.00    -0.000 C 
BRANCH  18  19
ATOM     19  C   UNL     1      -2.691  21.146  38.093  1.00  0.00    -0.003 C 
ATOM     20  C   UNL     1      -1.395  21.115  38.905  1.00  0.00     0.004 C 
ENDBRANCH  18  19
ENDBRANCH  17  18
ENDBRANCH  16  17
ENDBRANCH  15  16
ENDBRANCH  14  15
ENDBRANCH  13  14
ENDBRANCH   2  13
TORSDOF 15
ENDMDL
MODEL 8
REMARK VINA RESULT:     9.343      3.495      6.206
REMARK INTER + INTRA:          17.494
REMARK INTER:                  18.300
REMARK INTRA:                  -0.806
REMARK UNBOUND:                -0.042
REMARK SMILES CCCCCCCCC=CCCCCCCCC(=O)[O-]
REMARK SMILES IDX 10 1 9 2 11 3 12 4 13 5 14 6 15 7 16 8 17 9 18 10 19 11
REMARK SMILES IDX 20 12 8 13 7 14 6 15 5 16 4 17 3 18 2 19 1 20
REMARK H PARENT
REMARK Flexibility Score: inf
ROOT
ATOM      1  C   UNL     1      -4.214  22.868  42.501  1.00  0.00    -0.031 C 
ATOM      2  C   UNL     1      -3.016  22.263  42.610  1.00  0.00    -0.031 C 
ENDROOT
BRANCH   1   3
ATOM      3  C   UNL     1      -4.663  23.673  41.305  1.00  0.00     0.027 C 
BRANCH   3   4
ATOM      4  C   UNL     1      -5.809  22.984  40.549  1.00  0.00     0.004 C 
BRANCH   4   5
ATOM      5  C   UNL     1      -5.436  22.671  39.092  1.00  0.00     0.000 C 
BRANCH   5   6
ATOM      6  C   UNL     1      -3.910  22.629  38.914  1.00  0.00     0.000 C 
BRANCH   6   7
ATOM      7  C   UNL     1      -3.349  23.915  38.288  1.00  0.00     0.000 C 
BRANCH   7   8
ATOM      8  C   UNL     1      -2.316  24.610  39.187  1.00  0.00     0.006 C 
BRANCH   8   9
ATOM      9  C   UNL     1      -2.766  26.032  39.541  1.00  0.00     0.053 C 
BRANCH   9  10
ATOM     10  C   UNL     1      -1.956  27.041  38.791  1.00  0.00     0.041 C 
ATOM     11  O   UNL     1      -0.887  27.490  39.285  1.00  0.00    -0.550 OA
ATOM     12  O   UNL     1      -2.356  27.455  37.526  1.00  0.00    -0.550 OA
ENDBRANCH   9  10
ENDBRANCH   8   9
ENDBRANCH   7   8
ENDBRANCH   6   7
ENDBRANCH   5   6
ENDBRANCH   4   5
ENDBRANCH   3   4
ENDBRANCH   1   3
BRANCH   2  13
ATOM     13  C   UNL     1      -1.907  22.373  41.593  1.00  0.00     0.027 C 
BRANCH  13  14
ATOM     14  C   UNL     1      -1.979  21.217  40.586  1.00  0.00     0.004 C 
BRANCH  14  15
ATOM     15  C   UNL     1      -0.885  21.299  39.503  1.00  0.00     0.000 C 
BRANCH  15  16
ATOM     16  C   UNL     1      -0.885  20.134  38.495  1.00  0.00     0.000 C 
BRANCH  16  17
ATOM     17  C   UNL     1       0.456  19.388  38.370  1.00  0.00    -0.000 C 
BRANCH  17  18
ATOM     18  C   UNL     1       0.515  18.078  39.189  1.00  0.00    -0.000 C 
BRANCH  18  19
ATOM     19  C   UNL     1      -0.854  17.624  39.725  1.00  0.00    -0.003 C 
ATOM     20  C   UNL     1      -0.850  17.416  41.239  1.00  0.00     0.004 C 
ENDBRANCH  18  19
ENDBRANCH  17  18
ENDBRANCH  16  17
ENDBRANCH  15  16
ENDBRANCH  14  15
ENDBRANCH  13  14
ENDBRANCH   2  13
TORSDOF 15
ENDMDL
