MODEL 1
REMARK VINA RESULT:    -4.548      0.000      0.000
REMARK INTER + INTRA:          -7.679
REMARK INTER:                  -7.473
REMARK INTRA:                  -0.205
REMARK UNBOUND:                -0.205
REMARK SMILES COc1ccc([C@@H]2CC(=O)c3c(O)cc(O[C@H]4O[C@H](CO[C@H]5O[C@@H](C)[C@@H](O)[C@@H](O)[C@@H]5O)[C@H](O)[C@@H](O)[C@@H]4O)cc3O2)cc1O
REMARK SMILES IDX 19 1 32 2 34 3 36 4 17 5 18 6 20 7 21 8 22 9 25 10 24 11
REMARK SMILES IDX 26 12 23 13 28 14 30 15 27 16 29 18 31 20 33 22 35 24 16 26
REMARK SMILES IDX 15 27 14 28 38 29 12 30 39 31 11 32 40 33 9 34 7 35 10 36
REMARK SMILES IDX 8 37 13 38 6 40 41 41 5 42 42 43 4 44 3 45 43 46 2 48 1 49
REMARK SMILES IDX 37 50
REMARK H PARENT 27 17 29 19 31 21 33 23 35 25 13 39 43 47 37 51
REMARK Flexibility Score: inf
ROOT
ATOM      1  C   UNL     1      39.943  18.344  -3.931  1.00  0.00     0.180 C 
ATOM      2  C   UNL     1      40.121  18.443  -5.468  1.00  0.00     0.177 C 
ATOM      3  C   UNL     1      40.844  17.197  -6.032  1.00  0.00     0.180 C 
ATOM      4  C   UNL     1      40.314  15.878  -5.410  1.00  0.00     0.214 C 
ATOM      5  C   UNL     1      40.049  16.008  -3.890  1.00  0.00     0.339 C 
ATOM      6  O   UNL     1      39.259  17.151  -3.584  1.00  0.00    -0.332 OA
ENDROOT
BRANCH   1   7
ATOM      7  C   UNL     1      39.172  19.552  -3.383  1.00  0.00     0.198 C 
BRANCH   7   8
ATOM      8  O   UNL     1      39.904  20.109  -2.311  1.00  0.00    -0.347 OA
BRANCH   8   9
ATOM      9  C   UNL     1      40.772  19.149  -1.743  1.00  0.00     0.281 C 
ATOM     10  C   UNL     1      42.246  20.981  -3.800  1.00  0.00     0.041 C 
ATOM     11  C   UNL     1      42.774  19.946  -2.786  1.00  0.00     0.150 C 
ATOM     12  C   UNL     1      43.293  20.547  -1.453  1.00  0.00     0.174 C 
ATOM     13  O   UNL     1      41.876  18.858  -2.597  1.00  0.00    -0.344 OA
ATOM     14  C   UNL     1      42.158  20.839  -0.461  1.00  0.00     0.179 C 
ATOM     15  C   UNL     1      41.236  19.616  -0.347  1.00  0.00     0.202 C 
BRANCH  12  16
ATOM     16  O   UNL     1      44.033  21.716  -1.683  1.00  0.00    -0.388 OA
ATOM     17  H   UNL     1      44.067  21.853  -2.667  1.00  0.00     0.211 HD
ENDBRANCH  12  16
BRANCH  14  18
ATOM     18  O   UNL     1      41.434  21.976  -0.860  1.00  0.00    -0.387 OA
ATOM     19  H   UNL     1      41.730  22.194  -1.785  1.00  0.00     0.211 HD
ENDBRANCH  14  18
BRANCH  15  20
ATOM     20  O   UNL     1      41.928  18.578   0.304  1.00  0.00    -0.385 OA
ATOM     21  H   UNL     1      41.520  17.722   0.011  1.00  0.00     0.211 HD
ENDBRANCH  15  20
ENDBRANCH   8   9
ENDBRANCH   7   8
ENDBRANCH   1   7
BRANCH   2  22
ATOM     22  O   UNL     1      38.888  18.638  -6.124  1.00  0.00    -0.387 OA
ATOM     23  H   UNL     1      38.371  19.310  -5.609  1.00  0.00     0.211 HD
ENDBRANCH   2  22
BRANCH   3  24
ATOM     24  O   UNL     1      42.242  17.313  -5.886  1.00  0.00    -0.387 OA
ATOM     25  H   UNL     1      42.621  16.407  -5.760  1.00  0.00     0.211 HD
ENDBRANCH   3  24
BRANCH   5  26
ATOM     26  O   UNL     1      41.284  16.015  -3.167  1.00  0.00    -0.462 OA
BRANCH  26  27
ATOM     27  C   UNL     1      42.231  14.979  -3.144  1.00  0.00     0.130 A 
ATOM     28  C   UNL     1      41.881  13.614  -3.143  1.00  0.00     0.093 A 
ATOM     29  C   UNL     1      43.582  15.332  -3.165  1.00  0.00     0.094 A 
ATOM     30  C   UNL     1      42.863  12.617  -3.258  1.00  0.00     0.133 A 
ATOM     31  C   UNL     1      44.572  14.358  -3.269  1.00  0.00     0.138 A 
ATOM     32  C   UNL     1      44.229  12.992  -3.326  1.00  0.00     0.102 A 
ATOM     33  O   UNL     1      45.908  14.772  -3.371  1.00  0.00    -0.484 OA
ATOM     34  C   UNL     1      45.344  12.052  -3.529  1.00  0.00     0.174 C 
ATOM     35  C   UNL     1      47.018  13.874  -3.518  1.00  0.00     0.211 C 
ATOM     36  O   UNL     1      45.320  10.875  -3.086  1.00  0.00    -0.294 OA
ATOM     37  C   UNL     1      46.575  12.571  -4.207  1.00  0.00     0.131 C 
BRANCH  30  38
ATOM     38  O   UNL     1      42.428  11.291  -3.350  1.00  0.00    -0.507 OA
ATOM     39  H   UNL     1      43.045  10.493  -3.346  1.00  0.00     0.293 HD
ENDBRANCH  30  38
BRANCH  35  40
ATOM     40  C   UNL     1      48.137  14.539  -4.305  1.00  0.00    -0.003 A 
ATOM     41  C   UNL     1      48.061  15.910  -4.622  1.00  0.00     0.057 A 
ATOM     42  C   UNL     1      49.286  13.817  -4.679  1.00  0.00     0.011 A 
ATOM     43  C   UNL     1      49.142  16.559  -5.236  1.00  0.00     0.158 A 
ATOM     44  C   UNL     1      50.354  14.457  -5.313  1.00  0.00     0.051 A 
ATOM     45  C   UNL     1      50.303  15.838  -5.566  1.00  0.00     0.160 A 
BRANCH  43  46
ATOM     46  O   UNL     1      49.081  17.924  -5.499  1.00  0.00    -0.504 OA
ATOM     47  H   UNL     1      48.516  18.542  -4.930  1.00  0.00     0.293 HD
ENDBRANCH  43  46
BRANCH  45  48
ATOM     48  O   UNL     1      51.391  16.534  -6.125  1.00  0.00    -0.493 OA
ATOM     49  C   UNL     1      52.751  16.147  -5.975  1.00  0.00     0.278 C 
ENDBRANCH  45  48
ENDBRANCH  35  40
ENDBRANCH  26  27
ENDBRANCH   5  26
BRANCH   4  50
ATOM     50  O   UNL     1      39.128  15.508  -6.063  1.00  0.00    -0.384 OA
ATOM     51  H   UNL     1      39.094  16.017  -6.913  1.00  0.00     0.211 HD
ENDBRANCH   4  50
TORSDOF 15
ENDMDL
MODEL 2
REMARK VINA RESULT:    -4.547      4.032      8.263
REMARK INTER + INTRA:          -7.676
REMARK INTER:                  -5.562
REMARK INTRA:                  -2.113
REMARK UNBOUND:                -0.205
REMARK SMILES COc1ccc([C@@H]2CC(=O)c3c(O)cc(O[C@H]4O[C@H](CO[C@H]5O[C@@H](C)[C@@H](O)[C@@H](O)[C@@H]5O)[C@H](O)[C@@H](O)[C@@H]4O)cc3O2)cc1O
REMARK SMILES IDX 19 1 32 2 34 3 36 4 17 5 18 6 20 7 21 8 22 9 25 10 24 11
REMARK SMILES IDX 26 12 23 13 28 14 30 15 27 16 29 18 31 20 33 22 35 24 16 26
REMARK SMILES IDX 15 27 14 28 38 29 12 30 39 31 11 32 40 33 9 34 7 35 10 36
REMARK SMILES IDX 8 37 13 38 6 40 41 41 5 42 42 43 4 44 3 45 43 46 2 48 1 49
REMARK SMILES IDX 37 50
REMARK H PARENT 27 17 29 19 31 21 33 23 35 25 13 39 43 47 37 51
REMARK Flexibility Score: inf
ROOT
ATOM      1  C   UNL     1      43.058  18.735  -2.731  1.00  0.00     0.180 C 
ATOM      2  C   UNL     1      42.813  20.256  -2.900  1.00  0.00     0.177 C 
ATOM      3  C   UNL     1      41.302  20.588  -2.878  1.00  0.00     0.180 C 
ATOM      4  C   UNL     1      40.546  19.813  -1.766  1.00  0.00     0.214 C 
ATOM      5  C   UNL     1      41.027  18.347  -1.639  1.00  0.00     0.339 C 
ATOM      6  O   UNL     1      42.443  18.258  -1.545  1.00  0.00    -0.332 OA
ENDROOT
BRANCH   1   7
ATOM      7  C   UNL     1      44.557  18.415  -2.693  1.00  0.00     0.198 C 
BRANCH   7   8
ATOM      8  O   UNL     1      44.853  17.497  -3.725  1.00  0.00    -0.347 OA
BRANCH   8   9
ATOM      9  C   UNL     1      43.936  16.421  -3.717  1.00  0.00     0.281 C 
ATOM     10  C   UNL     1      46.102  16.094  -5.946  1.00  0.00     0.041 C 
ATOM     11  C   UNL     1      45.033  15.123  -5.405  1.00  0.00     0.150 C 
ATOM     12  C   UNL     1      45.551  14.102  -4.358  1.00  0.00     0.174 C 
ATOM     13  O   UNL     1      43.845  15.791  -4.994  1.00  0.00    -0.344 OA
ATOM     14  C   UNL     1      45.627  14.699  -2.945  1.00  0.00     0.179 C 
ATOM     15  C   UNL     1      44.310  15.414  -2.609  1.00  0.00     0.202 C 
BRANCH  12  16
ATOM     16  O   UNL     1      46.807  13.598  -4.726  1.00  0.00    -0.388 OA
ATOM     17  H   UNL     1      47.013  12.845  -4.111  1.00  0.00     0.211 HD
ENDBRANCH  12  16
BRANCH  14  18
ATOM     18  O   UNL     1      46.717  15.580  -2.840  1.00  0.00    -0.387 OA
ATOM     19  H   UNL     1      47.322  15.207  -2.143  1.00  0.00     0.211 HD
ENDBRANCH  14  18
BRANCH  15  20
ATOM     20  O   UNL     1      43.291  14.456  -2.462  1.00  0.00    -0.385 OA
ATOM     21  H   UNL     1      42.580  14.677  -3.119  1.00  0.00     0.211 HD
ENDBRANCH  15  20
ENDBRANCH   8   9
ENDBRANCH   7   8
ENDBRANCH   1   7
BRANCH   2  22
ATOM     22  O   UNL     1      43.498  21.005  -1.922  1.00  0.00    -0.387 OA
ATOM     23  H   UNL     1      44.420  21.165  -2.250  1.00  0.00     0.211 HD
ENDBRANCH   2  22
BRANCH   3  24
ATOM     24  O   UNL     1      40.717  20.377  -4.144  1.00  0.00    -0.387 OA
ATOM     25  H   UNL     1      39.832  19.954  -4.015  1.00  0.00     0.211 HD
ENDBRANCH   3  24
BRANCH   5  26
ATOM     26  O   UNL     1      40.522  17.560  -2.722  1.00  0.00    -0.462 OA
BRANCH  26  27
ATOM     27  C   UNL     1      40.187  16.199  -2.666  1.00  0.00     0.130 A 
ATOM     28  C   UNL     1      40.263  15.340  -3.780  1.00  0.00     0.093 A 
ATOM     29  C   UNL     1      39.802  15.674  -1.431  1.00  0.00     0.094 A 
ATOM     30  C   UNL     1      40.050  13.959  -3.644  1.00  0.00     0.133 A 
ATOM     31  C   UNL     1      39.577  14.307  -1.275  1.00  0.00     0.138 A 
ATOM     32  C   UNL     1      39.705  13.432  -2.373  1.00  0.00     0.102 A 
ATOM     33  O   UNL     1      39.275  13.821   0.005  1.00  0.00    -0.484 OA
ATOM     34  C   UNL     1      39.537  11.999  -2.080  1.00  0.00     0.174 C 
ATOM     35  C   UNL     1      39.056  12.435   0.307  1.00  0.00     0.211 C 
ATOM     36  O   UNL     1      39.097  11.186  -2.934  1.00  0.00    -0.294 OA
ATOM     37  C   UNL     1      39.818  11.537  -0.683  1.00  0.00     0.131 C 
BRANCH  30  38
ATOM     38  O   UNL     1      40.241  13.161  -4.776  1.00  0.00    -0.507 OA
ATOM     39  H   UNL     1      40.622  12.227  -4.752  1.00  0.00     0.293 HD
ENDBRANCH  30  38
BRANCH  35  40
ATOM     40  C   UNL     1      39.478  12.131   1.736  1.00  0.00    -0.003 A 
ATOM     41  C   UNL     1      40.445  12.933   2.375  1.00  0.00     0.057 A 
ATOM     42  C   UNL     1      38.876  11.086   2.461  1.00  0.00     0.011 A 
ATOM     43  C   UNL     1      40.749  12.739   3.730  1.00  0.00     0.158 A 
ATOM     44  C   UNL     1      39.195  10.875   3.804  1.00  0.00     0.051 A 
ATOM     45  C   UNL     1      40.109  11.720   4.457  1.00  0.00     0.160 A 
BRANCH  43  46
ATOM     46  O   UNL     1      41.666  13.568   4.367  1.00  0.00    -0.504 OA
ATOM     47  H   UNL     1      41.686  14.564   4.186  1.00  0.00     0.293 HD
ENDBRANCH  43  46
BRANCH  45  48
ATOM     48  O   UNL     1      40.392  11.593   5.829  1.00  0.00    -0.493 OA
ATOM     49  C   UNL     1      39.410  11.363   6.831  1.00  0.00     0.278 C 
ENDBRANCH  45  48
ENDBRANCH  35  40
ENDBRANCH  26  27
ENDBRANCH   5  26
BRANCH   4  50
ATOM     50  O   UNL     1      40.728  20.475  -0.542  1.00  0.00    -0.384 OA
ATOM     51  H   UNL     1      41.432  19.981  -0.048  1.00  0.00     0.211 HD
ENDBRANCH   4  50
TORSDOF 15
ENDMDL
MODEL 3
REMARK VINA RESULT:    -3.966      1.867      2.904
REMARK INTER + INTRA:          -6.723
REMARK INTER:                  -5.444
REMARK INTRA:                  -1.278
REMARK UNBOUND:                -0.205
REMARK SMILES COc1ccc([C@@H]2CC(=O)c3c(O)cc(O[C@H]4O[C@H](CO[C@H]5O[C@@H](C)[C@@H](O)[C@@H](O)[C@@H]5O)[C@H](O)[C@@H](O)[C@@H]4O)cc3O2)cc1O
REMARK SMILES IDX 19 1 32 2 34 3 36 4 17 5 18 6 20 7 21 8 22 9 25 10 24 11
REMARK SMILES IDX 26 12 23 13 28 14 30 15 27 16 29 18 31 20 33 22 35 24 16 26
REMARK SMILES IDX 15 27 14 28 38 29 12 30 39 31 11 32 40 33 9 34 7 35 10 36
REMARK SMILES IDX 8 37 13 38 6 40 41 41 5 42 42 43 4 44 3 45 43 46 2 48 1 49
REMARK SMILES IDX 37 50
REMARK H PARENT 27 17 29 19 31 21 33 23 35 25 13 39 43 47 37 51
REMARK Flexibility Score: inf
ROOT
ATOM      1  C   UNL     1      40.932  18.345  -2.500  1.00  0.00     0.180 C 
ATOM      2  C   UNL     1      39.476  17.878  -2.246  1.00  0.00     0.177 C 
ATOM      3  C   UNL     1      39.328  16.354  -2.466  1.00  0.00     0.180 C 
ATOM      4  C   UNL     1      40.504  15.553  -1.847  1.00  0.00     0.214 C 
ATOM      5  C   UNL     1      41.870  16.247  -2.068  1.00  0.00     0.339 C 
ATOM      6  O   UNL     1      41.839  17.617  -1.687  1.00  0.00    -0.332 OA
ENDROOT
BRANCH   1   7
ATOM      7  C   UNL     1      41.089  19.846  -2.222  1.00  0.00     0.198 C 
BRANCH   7   8
ATOM      8  O   UNL     1      41.298  20.515  -3.449  1.00  0.00    -0.347 OA
BRANCH   8   9
ATOM      9  C   UNL     1      41.670  19.602  -4.462  1.00  0.00     0.281 C 
ATOM     10  C   UNL     1      41.826  22.564  -5.444  1.00  0.00     0.041 C 
ATOM     11  C   UNL     1      42.311  21.246  -6.081  1.00  0.00     0.150 C 
ATOM     12  C   UNL     1      43.818  20.939  -5.874  1.00  0.00     0.174 C 
ATOM     13  O   UNL     1      41.467  20.144  -5.766  1.00  0.00    -0.344 OA
ATOM     14  C   UNL     1      44.105  20.305  -4.506  1.00  0.00     0.179 C 
ATOM     15  C   UNL     1      43.130  19.145  -4.254  1.00  0.00     0.202 C 
BRANCH  12  16
ATOM     16  O   UNL     1      44.593  22.098  -6.030  1.00  0.00    -0.388 OA
ATOM     17  H   UNL     1      45.481  21.914  -5.621  1.00  0.00     0.211 HD
ENDBRANCH  12  16
BRANCH  14  18
ATOM     18  O   UNL     1      44.012  21.268  -3.486  1.00  0.00    -0.387 OA
ATOM     19  H   UNL     1      44.735  21.931  -3.651  1.00  0.00     0.211 HD
ENDBRANCH  14  18
BRANCH  15  20
ATOM     20  O   UNL     1      43.435  18.089  -5.130  1.00  0.00    -0.385 OA
ATOM     21  H   UNL     1      42.615  17.538  -5.227  1.00  0.00     0.211 HD
ENDBRANCH  15  20
ENDBRANCH   8   9
ENDBRANCH   7   8
ENDBRANCH   1   7
BRANCH   2  22
ATOM     22  O   UNL     1      39.031  18.236  -0.957  1.00  0.00    -0.387 OA
ATOM     23  H   UNL     1      39.638  18.940  -0.610  1.00  0.00     0.211 HD
ENDBRANCH   2  22
BRANCH   3  24
ATOM     24  O   UNL     1      39.162  16.053  -3.834  1.00  0.00    -0.387 OA
ATOM     25  H   UNL     1      39.388  16.858  -4.364  1.00  0.00     0.211 HD
ENDBRANCH   3  24
BRANCH   5  26
ATOM     26  O   UNL     1      42.296  16.088  -3.425  1.00  0.00    -0.462 OA
BRANCH  26  27
ATOM     27  C   UNL     1      43.029  15.007  -3.937  1.00  0.00     0.130 A 
ATOM     28  C   UNL     1      42.435  13.926  -4.617  1.00  0.00     0.093 A 
ATOM     29  C   UNL     1      44.418  15.037  -3.796  1.00  0.00     0.094 A 
ATOM     30  C   UNL     1      43.221  12.937  -5.230  1.00  0.00     0.133 A 
ATOM     31  C   UNL     1      45.217  14.062  -4.390  1.00  0.00     0.138 A 
ATOM     32  C   UNL     1      44.634  13.007  -5.119  1.00  0.00     0.102 A 
ATOM     33  O   UNL     1      46.610  14.187  -4.288  1.00  0.00    -0.484 OA
ATOM     34  C   UNL     1      45.570  12.083  -5.782  1.00  0.00     0.174 C 
ATOM     35  C   UNL     1      47.544  13.272  -4.882  1.00  0.00     0.211 C 
ATOM     36  O   UNL     1      45.288  10.875  -5.990  1.00  0.00    -0.294 OA
ATOM     37  C   UNL     1      46.932  12.603  -6.125  1.00  0.00     0.131 C 
BRANCH  30  38
ATOM     38  O   UNL     1      42.560  11.952  -5.970  1.00  0.00    -0.507 OA
ATOM     39  H   UNL     1      42.027  12.137  -6.806  1.00  0.00     0.293 HD
ENDBRANCH  30  38
BRANCH  35  40
ATOM     40  C   UNL     1      48.834  13.992  -5.243  1.00  0.00    -0.003 A 
ATOM     41  C   UNL     1      48.817  15.371  -5.535  1.00  0.00     0.057 A 
ATOM     42  C   UNL     1      50.067  13.313  -5.239  1.00  0.00     0.011 A 
ATOM     43  C   UNL     1      50.016  16.068  -5.747  1.00  0.00     0.158 A 
ATOM     44  C   UNL     1      51.259  14.001  -5.474  1.00  0.00     0.051 A 
ATOM     45  C   UNL     1      51.245  15.388  -5.697  1.00  0.00     0.160 A 
BRANCH  43  46
ATOM     46  O   UNL     1      49.995  17.439  -5.982  1.00  0.00    -0.504 OA
ATOM     47  H   UNL     1      49.150  17.980  -5.852  1.00  0.00     0.293 HD
ENDBRANCH  43  46
BRANCH  45  48
ATOM     48  O   UNL     1      52.430  16.130  -5.852  1.00  0.00    -0.493 OA
ATOM     49  C   UNL     1      53.724  15.554  -5.983  1.00  0.00     0.278 C 
ENDBRANCH  45  48
ENDBRANCH  35  40
ENDBRANCH  26  27
ENDBRANCH   5  26
BRANCH   4  50
ATOM     50  O   UNL     1      40.275  15.396  -0.470  1.00  0.00    -0.384 OA
ATOM     51  H   UNL     1      40.531  16.249  -0.035  1.00  0.00     0.211 HD
ENDBRANCH   4  50
TORSDOF 15
ENDMDL
MODEL 4
REMARK VINA RESULT:    -2.117      2.258      6.323
REMARK INTER + INTRA:          -3.684
REMARK INTER:                  -5.453
REMARK INTRA:                   1.769
REMARK UNBOUND:                -0.205
REMARK SMILES COc1ccc([C@@H]2CC(=O)c3c(O)cc(O[C@H]4O[C@H](CO[C@H]5O[C@@H](C)[C@@H](O)[C@@H](O)[C@@H]5O)[C@H](O)[C@@H](O)[C@@H]4O)cc3O2)cc1O
REMARK SMILES IDX 19 1 32 2 34 3 36 4 17 5 18 6 20 7 21 8 22 9 25 10 24 11
REMARK SMILES IDX 26 12 23 13 28 14 30 15 27 16 29 18 31 20 33 22 35 24 16 26
REMARK SMILES IDX 15 27 14 28 38 29 12 30 39 31 11 32 40 33 9 34 7 35 10 36
REMARK SMILES IDX 8 37 13 38 6 40 41 41 5 42 42 43 4 44 3 45 43 46 2 48 1 49
REMARK SMILES IDX 37 50
REMARK H PARENT 27 17 29 19 31 21 33 23 35 25 13 39 43 47 37 51
REMARK Flexibility Score: inf
ROOT
ATOM      1  C   UNL     1      40.354  14.741  -3.404  1.00  0.00     0.180 C 
ATOM      2  C   UNL     1      41.119  15.371  -2.213  1.00  0.00     0.177 C 
ATOM      3  C   UNL     1      41.088  16.917  -2.278  1.00  0.00     0.180 C 
ATOM      4  C   UNL     1      39.684  17.461  -2.655  1.00  0.00     0.214 C 
ATOM      5  C   UNL     1      39.002  16.616  -3.759  1.00  0.00     0.339 C 
ATOM      6  O   UNL     1      39.022  15.227  -3.455  1.00  0.00    -0.332 OA
ENDROOT
BRANCH   1   7
ATOM      7  C   UNL     1      40.335  13.210  -3.304  1.00  0.00     0.198 C 
BRANCH   7   8
ATOM      8  O   UNL     1      41.644  12.726  -3.519  1.00  0.00    -0.347 OA
BRANCH   8   9
ATOM      9  C   UNL     1      42.479  13.743  -4.033  1.00  0.00     0.281 C 
ATOM     10  C   UNL     1      44.126  11.439  -2.714  1.00  0.00     0.041 C 
ATOM     11  C   UNL     1      44.556  12.643  -3.576  1.00  0.00     0.150 C 
ATOM     12  C   UNL     1      44.778  12.322  -5.078  1.00  0.00     0.174 C 
ATOM     13  O   UNL     1      43.738  13.788  -3.364  1.00  0.00    -0.344 OA
ATOM     14  C   UNL     1      43.465  12.307  -5.874  1.00  0.00     0.179 C 
ATOM     15  C   UNL     1      42.648  13.569  -5.557  1.00  0.00     0.202 C 
BRANCH  12  16
ATOM     16  O   UNL     1      45.441  11.097  -5.238  1.00  0.00    -0.388 OA
ATOM     17  H   UNL     1      46.028  10.975  -4.444  1.00  0.00     0.211 HD
ENDBRANCH  12  16
BRANCH  14  18
ATOM     18  O   UNL     1      42.726  11.147  -5.585  1.00  0.00    -0.387 OA
ATOM     19  H   UNL     1      43.234  10.649  -4.890  1.00  0.00     0.211 HD
ENDBRANCH  14  18
BRANCH  15  20
ATOM     20  O   UNL     1      43.303  14.689  -6.102  1.00  0.00    -0.385 OA
ATOM     21  H   UNL     1      43.091  15.466  -5.522  1.00  0.00     0.211 HD
ENDBRANCH  15  20
ENDBRANCH   8   9
ENDBRANCH   7   8
ENDBRANCH   1   7
BRANCH   2  22
ATOM     22  O   UNL     1      40.620  14.919  -0.975  1.00  0.00    -0.387 OA
ATOM     23  H   UNL     1      41.078  15.428  -0.257  1.00  0.00     0.211 HD
ENDBRANCH   2  22
BRANCH   3  24
ATOM     24  O   UNL     1      42.083  17.408  -3.149  1.00  0.00    -0.387 OA
ATOM     25  H   UNL     1      42.908  16.877  -3.016  1.00  0.00     0.211 HD
ENDBRANCH   3  24
BRANCH   5  26
ATOM     26  O   UNL     1      39.599  16.884  -5.032  1.00  0.00    -0.462 OA
BRANCH  26  27
ATOM     27  C   UNL     1      40.631  17.801  -5.281  1.00  0.00     0.130 A 
ATOM     28  C   UNL     1      40.467  19.195  -5.174  1.00  0.00     0.093 A 
ATOM     29  C   UNL     1      41.889  17.290  -5.611  1.00  0.00     0.094 A 
ATOM     30  C   UNL     1      41.563  20.064  -5.300  1.00  0.00     0.133 A 
ATOM     31  C   UNL     1      42.988  18.135  -5.749  1.00  0.00     0.138 A 
ATOM     32  C   UNL     1      42.844  19.528  -5.588  1.00  0.00     0.102 A 
ATOM     33  O   UNL     1      44.244  17.563  -5.997  1.00  0.00    -0.484 OA
ATOM     34  C   UNL     1      44.083  20.320  -5.663  1.00  0.00     0.174 C 
ATOM     35  C   UNL     1      45.459  18.316  -6.125  1.00  0.00     0.211 C 
ATOM     36  O   UNL     1      44.096  21.511  -6.068  1.00  0.00    -0.294 OA
ATOM     37  C   UNL     1      45.369  19.630  -5.328  1.00  0.00     0.131 C 
BRANCH  30  38
ATOM     38  O   UNL     1      41.335  21.426  -5.082  1.00  0.00    -0.507 OA
ATOM     39  H   UNL     1      40.811  21.793  -4.302  1.00  0.00     0.293 HD
ENDBRANCH  30  38
BRANCH  35  40
ATOM     40  C   UNL     1      46.647  17.489  -5.659  1.00  0.00    -0.003 A 
ATOM     41  C   UNL     1      47.946  17.800  -6.109  1.00  0.00     0.057 A 
ATOM     42  C   UNL     1      46.481  16.441  -4.735  1.00  0.00     0.011 A 
ATOM     43  C   UNL     1      49.060  17.125  -5.590  1.00  0.00     0.158 A 
ATOM     44  C   UNL     1      47.587  15.751  -4.234  1.00  0.00     0.051 A 
ATOM     45  C   UNL     1      48.886  16.109  -4.634  1.00  0.00     0.160 A 
BRANCH  43  46
ATOM     46  O   UNL     1      50.343  17.473  -6.000  1.00  0.00    -0.504 OA
ATOM     47  H   UNL     1      50.754  17.073  -6.834  1.00  0.00     0.293 HD
ENDBRANCH  43  46
BRANCH  45  48
ATOM     48  O   UNL     1      50.029  15.495  -4.089  1.00  0.00    -0.493 OA
ATOM     49  C   UNL     1      50.319  14.107  -4.195  1.00  0.00     0.278 C 
ENDBRANCH  45  48
ENDBRANCH  35  40
ENDBRANCH  26  27
ENDBRANCH   5  26
BRANCH   4  50
ATOM     50  O   UNL     1      38.875  17.474  -1.508  1.00  0.00    -0.384 OA
ATOM     51  H   UNL     1      39.251  16.804  -0.881  1.00  0.00     0.211 HD
ENDBRANCH   4  50
TORSDOF 15
ENDMDL
MODEL 5
REMARK VINA RESULT:    -1.567      2.049      3.798
REMARK INTER + INTRA:          -2.779
REMARK INTER:                  -6.584
REMARK INTRA:                   3.804
REMARK UNBOUND:                -0.205
REMARK SMILES COc1ccc([C@@H]2CC(=O)c3c(O)cc(O[C@H]4O[C@H](CO[C@H]5O[C@@H](C)[C@@H](O)[C@@H](O)[C@@H]5O)[C@H](O)[C@@H](O)[C@@H]4O)cc3O2)cc1O
REMARK SMILES IDX 19 1 32 2 34 3 36 4 17 5 18 6 20 7 21 8 22 9 25 10 24 11
REMARK SMILES IDX 26 12 23 13 28 14 30 15 27 16 29 18 31 20 33 22 35 24 16 26
REMARK SMILES IDX 15 27 14 28 38 29 12 30 39 31 11 32 40 33 9 34 7 35 10 36
REMARK SMILES IDX 8 37 13 38 6 40 41 41 5 42 42 43 4 44 3 45 43 46 2 48 1 49
REMARK SMILES IDX 37 50
REMARK H PARENT 27 17 29 19 31 21 33 23 35 25 13 39 43 47 37 51
REMARK Flexibility Score: inf
ROOT
ATOM      1  C   UNL     1      40.961  14.007  -3.152  1.00  0.00     0.180 C 
ATOM      2  C   UNL     1      40.623  14.000  -4.666  1.00  0.00     0.177 C 
ATOM      3  C   UNL     1      41.352  12.850  -5.399  1.00  0.00     0.180 C 
ATOM      4  C   UNL     1      41.303  11.520  -4.602  1.00  0.00     0.214 C 
ATOM      5  C   UNL     1      41.512  11.735  -3.083  1.00  0.00     0.339 C 
ATOM      6  O   UNL     1      40.659  12.751  -2.568  1.00  0.00    -0.332 OA
ENDROOT
BRANCH   1   7
ATOM      7  C   UNL     1      40.190  15.111  -2.417  1.00  0.00     0.198 C 
BRANCH   7   8
ATOM      8  O   UNL     1      40.326  16.318  -3.139  1.00  0.00    -0.347 OA
BRANCH   8   9
ATOM      9  C   UNL     1      40.416  17.421  -2.260  1.00  0.00     0.281 C 
ATOM     10  C   UNL     1      42.075  17.868  -4.870  1.00  0.00     0.041 C 
ATOM     11  C   UNL     1      41.691  18.825  -3.723  1.00  0.00     0.150 C 
ATOM     12  C   UNL     1      40.462  19.728  -4.013  1.00  0.00     0.174 C 
ATOM     13  O   UNL     1      41.615  18.166  -2.463  1.00  0.00    -0.344 OA
ATOM     14  C   UNL     1      39.131  19.004  -3.766  1.00  0.00     0.179 C 
ATOM     15  C   UNL     1      39.162  18.310  -2.396  1.00  0.00     0.202 C 
BRANCH  12  16
ATOM     16  O   UNL     1      40.498  20.217  -5.327  1.00  0.00    -0.388 OA
ATOM     17  H   UNL     1      39.643  19.953  -5.761  1.00  0.00     0.211 HD
ENDBRANCH  12  16
BRANCH  14  18
ATOM     18  O   UNL     1      38.875  18.077  -4.791  1.00  0.00    -0.387 OA
ATOM     19  H   UNL     1      38.458  17.282  -4.362  1.00  0.00     0.211 HD
ENDBRANCH  14  18
BRANCH  15  20
ATOM     20  O   UNL     1      39.149  19.287  -1.385  1.00  0.00    -0.385 OA
ATOM     21  H   UNL     1      39.838  19.963  -1.619  1.00  0.00     0.211 HD
ENDBRANCH  15  20
ENDBRANCH   8   9
ENDBRANCH   7   8
ENDBRANCH   1   7
BRANCH   2  22
ATOM     22  O   UNL     1      39.233  13.926  -4.889  1.00  0.00    -0.387 OA
ATOM     23  H   UNL     1      38.935  14.802  -5.246  1.00  0.00     0.211 HD
ENDBRANCH   2  22
BRANCH   3  24
ATOM     24  O   UNL     1      42.677  13.212  -5.720  1.00  0.00    -0.387 OA
ATOM     25  H   UNL     1      42.654  13.881  -6.449  1.00  0.00     0.211 HD
ENDBRANCH   3  24
BRANCH   5  26
ATOM     26  O   UNL     1      42.887  12.013  -2.803  1.00  0.00    -0.462 OA
BRANCH  26  27
ATOM     27  C   UNL     1      43.580  13.182  -3.152  1.00  0.00     0.130 A 
ATOM     28  C   UNL     1      43.280  14.447  -2.612  1.00  0.00     0.093 A 
ATOM     29  C   UNL     1      44.643  13.063  -4.050  1.00  0.00     0.094 A 
ATOM     30  C   UNL     1      44.089  15.561  -2.888  1.00  0.00     0.133 A 
ATOM     31  C   UNL     1      45.453  14.158  -4.346  1.00  0.00     0.138 A 
ATOM     32  C   UNL     1      45.194  15.416  -3.765  1.00  0.00     0.102 A 
ATOM     33  O   UNL     1      46.557  13.965  -5.188  1.00  0.00    -0.484 OA
ATOM     34  C   UNL     1      46.163  16.482  -4.072  1.00  0.00     0.174 C 
ATOM     35  C   UNL     1      47.487  14.999  -5.543  1.00  0.00     0.211 C 
ATOM     36  O   UNL     1      45.837  17.696  -4.107  1.00  0.00    -0.294 OA
ATOM     37  C   UNL     1      47.555  16.069  -4.440  1.00  0.00     0.131 C 
BRANCH  30  38
ATOM     38  O   UNL     1      43.783  16.759  -2.234  1.00  0.00    -0.507 OA
ATOM     39  H   UNL     1      43.257  16.815  -1.376  1.00  0.00     0.293 HD
ENDBRANCH  30  38
BRANCH  35  40
ATOM     40  C   UNL     1      48.865  14.407  -5.798  1.00  0.00    -0.003 A 
ATOM     41  C   UNL     1      50.004  15.237  -5.788  1.00  0.00     0.057 A 
ATOM     42  C   UNL     1      49.034  13.023  -5.991  1.00  0.00     0.011 A 
ATOM     43  C   UNL     1      51.289  14.683  -5.897  1.00  0.00     0.158 A 
ATOM     44  C   UNL     1      50.310  12.473  -6.125  1.00  0.00     0.051 A 
ATOM     45  C   UNL     1      51.448  13.295  -6.046  1.00  0.00     0.160 A 
BRANCH  43  46
ATOM     46  O   UNL     1      52.411  15.503  -5.833  1.00  0.00    -0.504 OA
ATOM     47  H   UNL     1      52.803  15.921  -6.668  1.00  0.00     0.293 HD
ENDBRANCH  43  46
BRANCH  45  48
ATOM     48  O   UNL     1      52.751  12.768  -6.090  1.00  0.00    -0.493 OA
ATOM     49  C   UNL     1      53.935  13.553  -6.029  1.00  0.00     0.278 C 
ENDBRANCH  45  48
ENDBRANCH  35  40
ENDBRANCH  26  27
ENDBRANCH   5  26
BRANCH   4  50
ATOM     50  O   UNL     1      40.063  10.900  -4.822  1.00  0.00    -0.384 OA
ATOM     51  H   UNL     1      39.483  11.130  -4.051  1.00  0.00     0.211 HD
ENDBRANCH   4  50
TORSDOF 15
ENDMDL
