MODEL 1
REMARK VINA RESULT:    -3.691      0.000      0.000
REMARK INTER + INTRA:          -7.599
REMARK INTER:                  -6.712
REMARK INTRA:                  -0.887
REMARK UNBOUND:                -0.887
REMARK SMILES CCCCCCCCCCCCCC[C@H](C)C(=O)[O-]
REMARK SMILES IDX 9 1 10 2 11 3 12 4 13 5 14 6 15 7 16 8 17 9 18 10 19 11 8 12
REMARK SMILES IDX 7 13 6 14 5 15 4 16 3 17 2 18 1 19
REMARK H PARENT
REMARK Flexibility Score: inf
ROOT
ATOM      1  C   UNL     1      11.385  -7.140   6.093  1.00  0.00     0.000 C 
ENDROOT
BRANCH   1   2
ATOM      2  C   UNL     1      12.599  -7.514   5.225  1.00  0.00     0.000 C 
BRANCH   2   3
ATOM      3  C   UNL     1      13.889  -7.662   6.047  1.00  0.00     0.000 C 
BRANCH   3   4
ATOM      4  C   UNL     1      15.150  -7.278   5.254  1.00  0.00     0.000 C 
BRANCH   4   5
ATOM      5  C   UNL     1      16.395  -7.182   6.159  1.00  0.00     0.001 C 
BRANCH   5   6
ATOM      6  C   UNL     1      17.726  -7.464   5.433  1.00  0.00     0.009 C 
BRANCH   6   7
ATOM      7  C   UNL     1      18.959  -6.777   6.075  1.00  0.00     0.032 C 
ATOM      8  C   UNL     1      20.218  -7.043   5.242  1.00  0.00     0.014 C 
BRANCH   7   9
ATOM      9  C   UNL     1      19.201  -7.238   7.488  1.00  0.00     0.044 C 
ATOM     10  O   UNL     1      19.729  -8.359   7.717  1.00  0.00    -0.550 OA
ATOM     11  O   UNL     1      18.915  -6.390   8.551  1.00  0.00    -0.550 OA
ENDBRANCH   7   9
ENDBRANCH   6   7
ENDBRANCH   5   6
ENDBRANCH   4   5
ENDBRANCH   3   4
ENDBRANCH   2   3
ENDBRANCH   1   2
BRANCH   1  12
ATOM     12  C   UNL     1      10.094  -7.830   5.627  1.00  0.00     0.000 C 
BRANCH  12  13
ATOM     13  C   UNL     1       9.139  -6.869   4.894  1.00  0.00    -0.000 C 
BRANCH  13  14
ATOM     14  C   UNL     1       7.902  -7.586   4.330  1.00  0.00    -0.000 C 
BRANCH  14  15
ATOM     15  C   UNL     1       6.628  -7.297   5.144  1.00  0.00    -0.000 C 
BRANCH  15  16
ATOM     16  C   UNL     1       5.846  -8.586   5.474  1.00  0.00    -0.000 C 
BRANCH  16  17
ATOM     17  C   UNL     1       6.744  -9.762   5.895  1.00  0.00    -0.000 C 
BRANCH  17  18
ATOM     18  C   UNL     1       6.675 -10.056   7.400  1.00  0.00    -0.003 C 
ATOM     19  C   UNL     1       7.799  -9.348   8.151  1.00  0.00     0.004 C 
ENDBRANCH  17  18
ENDBRANCH  16  17
ENDBRANCH  15  16
ENDBRANCH  14  15
ENDBRANCH  13  14
ENDBRANCH  12  13
ENDBRANCH   1  12
TORSDOF 14
ENDMDL
MODEL 2
REMARK VINA RESULT:    -3.672      1.066      2.283
REMARK INTER + INTRA:          -7.564
REMARK INTER:                  -6.301
REMARK INTRA:                  -1.263
REMARK UNBOUND:                -0.887
REMARK SMILES CCCCCCCCCCCCCC[C@H](C)C(=O)[O-]
REMARK SMILES IDX 9 1 10 2 11 3 12 4 13 5 14 6 15 7 16 8 17 9 18 10 19 11 8 12
REMARK SMILES IDX 7 13 6 14 5 15 4 16 3 17 2 18 1 19
REMARK H PARENT
REMARK Flexibility Score: inf
ROOT
ATOM      1  C   UNL     1      11.236  -7.130   5.849  1.00  0.00     0.000 C 
ENDROOT
BRANCH   1   2
ATOM      2  C   UNL     1      12.065  -7.058   4.555  1.00  0.00     0.000 C 
BRANCH   2   3
ATOM      3  C   UNL     1      13.513  -7.531   4.755  1.00  0.00     0.000 C 
BRANCH   3   4
ATOM      4  C   UNL     1      13.853  -7.808   6.231  1.00  0.00     0.000 C 
BRANCH   4   5
ATOM      5  C   UNL     1      15.361  -8.052   6.441  1.00  0.00     0.001 C 
BRANCH   5   6
ATOM      6  C   UNL     1      16.188  -6.764   6.626  1.00  0.00     0.009 C 
BRANCH   6   7
ATOM      7  C   UNL     1      17.589  -6.808   5.965  1.00  0.00     0.032 C 
ATOM      8  C   UNL     1      17.572  -7.708   4.724  1.00  0.00     0.014 C 
BRANCH   7   9
ATOM      9  C   UNL     1      18.655  -7.298   6.909  1.00  0.00     0.044 C 
ATOM     10  O   UNL     1      19.015  -6.598   7.893  1.00  0.00    -0.550 OA
ATOM     11  O   UNL     1      19.195  -8.568   6.744  1.00  0.00    -0.550 OA
ENDBRANCH   7   9
ENDBRANCH   6   7
ENDBRANCH   5   6
ENDBRANCH   4   5
ENDBRANCH   3   4
ENDBRANCH   2   3
ENDBRANCH   1   2
BRANCH   1  12
ATOM     12  C   UNL     1       9.742  -7.363   5.579  1.00  0.00     0.000 C 
BRANCH  12  13
ATOM     13  C   UNL     1       9.322  -8.830   5.787  1.00  0.00    -0.000 C 
BRANCH  13  14
ATOM     14  C   UNL     1       8.733  -9.081   7.183  1.00  0.00    -0.000 C 
BRANCH  14  15
ATOM     15  C   UNL     1       7.193  -9.078   7.184  1.00  0.00    -0.000 C 
BRANCH  15  16
ATOM     16  C   UNL     1       6.611  -9.681   5.889  1.00  0.00    -0.000 C 
BRANCH  16  17
ATOM     17  C   UNL     1       5.675  -8.725   5.129  1.00  0.00    -0.000 C 
BRANCH  17  18
ATOM     18  C   UNL     1       5.851  -7.259   5.548  1.00  0.00    -0.003 C 
ATOM     19  C   UNL     1       6.386  -6.418   4.392  1.00  0.00     0.004 C 
ENDBRANCH  17  18
ENDBRANCH  16  17
ENDBRANCH  15  16
ENDBRANCH  14  15
ENDBRANCH  13  14
ENDBRANCH  12  13
ENDBRANCH   1  12
TORSDOF 14
ENDMDL
MODEL 3
REMARK VINA RESULT:    -3.484      1.147      2.015
REMARK INTER + INTRA:          -7.222
REMARK INTER:                  -6.240
REMARK INTRA:                  -0.983
REMARK UNBOUND:                -0.887
REMARK SMILES CCCCCCCCCCCCCC[C@H](C)C(=O)[O-]
REMARK SMILES IDX 9 1 10 2 11 3 12 4 13 5 14 6 15 7 16 8 17 9 18 10 19 11 8 12
REMARK SMILES IDX 7 13 6 14 5 15 4 16 3 17 2 18 1 19
REMARK H PARENT
REMARK Flexibility Score: inf
ROOT
ATOM      1  C   UNL     1      13.231  -7.821   6.145  1.00  0.00     0.000 C 
ENDROOT
BRANCH   1   2
ATOM      2  C   UNL     1      14.638  -8.101   6.700  1.00  0.00     0.000 C 
BRANCH   2   3
ATOM      3  C   UNL     1      15.266  -9.370   6.101  1.00  0.00     0.000 C 
BRANCH   3   4
ATOM      4  C   UNL     1      16.501  -9.073   5.233  1.00  0.00     0.000 C 
BRANCH   4   5
ATOM      5  C   UNL     1      16.983  -7.617   5.391  1.00  0.00     0.001 C 
BRANCH   5   6
ATOM      6  C   UNL     1      18.360  -7.335   4.757  1.00  0.00     0.009 C 
BRANCH   6   7
ATOM      7  C   UNL     1      19.382  -6.679   5.720  1.00  0.00     0.032 C 
ATOM      8  C   UNL     1      20.805  -6.805   5.163  1.00  0.00     0.014 C 
BRANCH   7   9
ATOM      9  C   UNL     1      19.342  -7.284   7.099  1.00  0.00     0.044 C 
ATOM     10  O   UNL     1      19.697  -8.478   7.288  1.00  0.00    -0.550 OA
ATOM     11  O   UNL     1      18.985  -6.499   8.189  1.00  0.00    -0.550 OA
ENDBRANCH   7   9
ENDBRANCH   6   7
ENDBRANCH   5   6
ENDBRANCH   4   5
ENDBRANCH   3   4
ENDBRANCH   2   3
ENDBRANCH   1   2
BRANCH   1  12
ATOM     12  C   UNL     1      13.264  -7.200   4.741  1.00  0.00     0.000 C 
BRANCH  12  13
ATOM     13  C   UNL     1      11.860  -6.856   4.210  1.00  0.00    -0.000 C 
BRANCH  13  14
ATOM     14  C   UNL     1      10.807  -6.796   5.328  1.00  0.00    -0.000 C 
BRANCH  14  15
ATOM     15  C   UNL     1       9.384  -6.571   4.788  1.00  0.00    -0.000 C 
BRANCH  15  16
ATOM     16  C   UNL     1       8.488  -7.813   4.976  1.00  0.00    -0.000 C 
BRANCH  16  17
ATOM     17  C   UNL     1       8.871  -8.670   6.195  1.00  0.00    -0.000 C 
BRANCH  17  18
ATOM     18  C   UNL     1       7.652  -9.263   6.916  1.00  0.00    -0.003 C 
ATOM     19  C   UNL     1       8.077 -10.086   8.129  1.00  0.00     0.004 C 
ENDBRANCH  17  18
ENDBRANCH  16  17
ENDBRANCH  15  16
ENDBRANCH  14  15
ENDBRANCH  13  14
ENDBRANCH  12  13
ENDBRANCH   1  12
TORSDOF 14
ENDMDL
MODEL 4
REMARK VINA RESULT:    -3.363      1.163      2.684
REMARK INTER + INTRA:          -7.002
REMARK INTER:                  -6.085
REMARK INTRA:                  -0.917
REMARK UNBOUND:                -0.887
REMARK SMILES CCCCCCCCCCCCCC[C@H](C)C(=O)[O-]
REMARK SMILES IDX 9 1 10 2 11 3 12 4 13 5 14 6 15 7 16 8 17 9 18 10 19 11 8 12
REMARK SMILES IDX 7 13 6 14 5 15 4 16 3 17 2 18 1 19
REMARK H PARENT
REMARK Flexibility Score: inf
ROOT
ATOM      1  C   UNL     1      14.514  -8.134   5.768  1.00  0.00     0.000 C 
ENDROOT
BRANCH   1   2
ATOM      2  C   UNL     1      15.627  -7.305   6.432  1.00  0.00     0.000 C 
BRANCH   2   3
ATOM      3  C   UNL     1      16.385  -6.424   5.427  1.00  0.00     0.000 C 
BRANCH   3   4
ATOM      4  C   UNL     1      16.954  -7.224   4.241  1.00  0.00     0.000 C 
BRANCH   4   5
ATOM      5  C   UNL     1      18.484  -7.384   4.332  1.00  0.00     0.001 C 
BRANCH   5   6
ATOM      6  C   UNL     1      19.105  -6.800   5.617  1.00  0.00     0.009 C 
BRANCH   6   7
ATOM      7  C   UNL     1      19.707  -7.862   6.573  1.00  0.00     0.032 C 
ATOM      8  C   UNL     1      19.157  -9.255   6.246  1.00  0.00     0.014 C 
BRANCH   7   9
ATOM      9  C   UNL     1      19.431  -7.554   8.021  1.00  0.00     0.044 C 
ATOM     10  O   UNL     1      18.767  -6.534   8.346  1.00  0.00    -0.550 OA
ATOM     11  O   UNL     1      19.842  -8.442   9.008  1.00  0.00    -0.550 OA
ENDBRANCH   7   9
ENDBRANCH   6   7
ENDBRANCH   5   6
ENDBRANCH   4   5
ENDBRANCH   3   4
ENDBRANCH   2   3
ENDBRANCH   1   2
BRANCH   1  12
ATOM     12  C   UNL     1      13.526  -7.265   4.975  1.00  0.00     0.000 C 
BRANCH  12  13
ATOM     13  C   UNL     1      12.115  -7.880   4.911  1.00  0.00    -0.000 C 
BRANCH  13  14
ATOM     14  C   UNL     1      11.137  -7.212   5.891  1.00  0.00    -0.000 C 
BRANCH  14  15
ATOM     15  C   UNL     1       9.668  -7.373   5.462  1.00  0.00    -0.000 C 
BRANCH  15  16
ATOM     16  C   UNL     1       9.004  -8.602   6.118  1.00  0.00    -0.000 C 
BRANCH  16  17
ATOM     17  C   UNL     1       7.922  -9.259   5.242  1.00  0.00    -0.000 C 
BRANCH  17  18
ATOM     18  C   UNL     1       6.502  -9.039   5.781  1.00  0.00    -0.003 C 
ATOM     19  C   UNL     1       6.075  -7.582   5.628  1.00  0.00     0.004 C 
ENDBRANCH  17  18
ENDBRANCH  16  17
ENDBRANCH  15  16
ENDBRANCH  14  15
ENDBRANCH  13  14
ENDBRANCH  12  13
ENDBRANCH   1  12
TORSDOF 14
ENDMDL
MODEL 5
REMARK VINA RESULT:    -3.361      2.055      3.580
REMARK INTER + INTRA:          -7.000
REMARK INTER:                  -5.865
REMARK INTRA:                  -1.134
REMARK UNBOUND:                -0.887
REMARK SMILES CCCCCCCCCCCCCC[C@H](C)C(=O)[O-]
REMARK SMILES IDX 9 1 10 2 11 3 12 4 13 5 14 6 15 7 16 8 17 9 18 10 19 11 8 12
REMARK SMILES IDX 7 13 6 14 5 15 4 16 3 17 2 18 1 19
REMARK H PARENT
REMARK Flexibility Score: inf
ROOT
ATOM      1  C   UNL     1       8.185  -7.018   4.419  1.00  0.00     0.000 C 
ENDROOT
BRANCH   1   2
ATOM      2  C   UNL     1       9.236  -5.912   4.619  1.00  0.00     0.000 C 
BRANCH   2   3
ATOM      3  C   UNL     1      10.651  -6.367   4.230  1.00  0.00     0.000 C 
BRANCH   3   4
ATOM      4  C   UNL     1      11.228  -7.416   5.197  1.00  0.00     0.000 C 
BRANCH   4   5
ATOM      5  C   UNL     1      12.493  -8.092   4.629  1.00  0.00     0.001 C 
BRANCH   5   6
ATOM      6  C   UNL     1      13.755  -7.207   4.674  1.00  0.00     0.009 C 
BRANCH   6   7
ATOM      7  C   UNL     1      14.902  -7.779   5.545  1.00  0.00     0.032 C 
ATOM      8  C   UNL     1      14.365  -8.251   6.902  1.00  0.00     0.014 C 
BRANCH   7   9
ATOM      9  C   UNL     1      16.002  -6.778   5.777  1.00  0.00     0.044 C 
ATOM     10  O   UNL     1      16.587  -6.229   4.805  1.00  0.00    -0.550 OA
ATOM     11  O   UNL     1      16.326  -6.392   7.073  1.00  0.00    -0.550 OA
ENDBRANCH   7   9
ENDBRANCH   6   7
ENDBRANCH   5   6
ENDBRANCH   4   5
ENDBRANCH   3   4
ENDBRANCH   2   3
ENDBRANCH   1   2
BRANCH   1  12
ATOM     12  C   UNL     1       6.797  -6.456   4.076  1.00  0.00     0.000 C 
BRANCH  12  13
ATOM     13  C   UNL     1       5.652  -7.300   4.667  1.00  0.00    -0.000 C 
BRANCH  13  14
ATOM     14  C   UNL     1       5.837  -8.803   4.409  1.00  0.00    -0.000 C 
BRANCH  14  15
ATOM     15  C   UNL     1       5.069  -9.675   5.418  1.00  0.00    -0.000 C 
BRANCH  15  16
ATOM     16  C   UNL     1       5.962 -10.124   6.594  1.00  0.00    -0.000 C 
BRANCH  16  17
ATOM     17  C   UNL     1       7.467 -10.055   6.287  1.00  0.00    -0.000 C 
BRANCH  17  18
ATOM     18  C   UNL     1       8.303  -9.597   7.490  1.00  0.00    -0.003 C 
ATOM     19  C   UNL     1       7.427  -9.402   8.725  1.00  0.00     0.004 C 
ENDBRANCH  17  18
ENDBRANCH  16  17
ENDBRANCH  15  16
ENDBRANCH  14  15
ENDBRANCH  13  14
ENDBRANCH  12  13
ENDBRANCH   1  12
TORSDOF 14
ENDMDL
MODEL 6
REMARK VINA RESULT:    -3.286      4.034     10.011
REMARK INTER + INTRA:          -6.862
REMARK INTER:                  -5.751
REMARK INTRA:                  -1.111
REMARK UNBOUND:                -0.887
REMARK SMILES CCCCCCCCCCCCCC[C@H](C)C(=O)[O-]
REMARK SMILES IDX 9 1 10 2 11 3 12 4 13 5 14 6 15 7 16 8 17 9 18 10 19 11 8 12
REMARK SMILES IDX 7 13 6 14 5 15 4 16 3 17 2 18 1 19
REMARK H PARENT
REMARK Flexibility Score: inf
ROOT
ATOM      1  C   UNL     1      12.828  -7.821   4.137  1.00  0.00     0.000 C 
ENDROOT
BRANCH   1   2
ATOM      2  C   UNL     1      12.175  -7.131   5.347  1.00  0.00     0.000 C 
BRANCH   2   3
ATOM      3  C   UNL     1      10.712  -7.554   5.549  1.00  0.00     0.000 C 
BRANCH   3   4
ATOM      4  C   UNL     1       9.710  -6.534   4.978  1.00  0.00     0.000 C 
BRANCH   4   5
ATOM      5  C   UNL     1       8.454  -7.218   4.403  1.00  0.00     0.001 C 
BRANCH   5   6
ATOM      6  C   UNL     1       8.287  -8.691   4.825  1.00  0.00     0.009 C 
BRANCH   6   7
ATOM      7  C   UNL     1       6.992  -8.981   5.626  1.00  0.00     0.032 C 
ATOM      8  C   UNL     1       6.088  -7.743   5.655  1.00  0.00     0.014 C 
BRANCH   7   9
ATOM      9  C   UNL     1       7.275  -9.412   7.040  1.00  0.00     0.044 C 
ATOM     10  O   UNL     1       6.450 -10.124   7.673  1.00  0.00    -0.550 OA
ATOM     11  O   UNL     1       8.491  -9.090   7.632  1.00  0.00    -0.550 OA
ENDBRANCH   7   9
ENDBRANCH   6   7
ENDBRANCH   5   6
ENDBRANCH   4   5
ENDBRANCH   3   4
ENDBRANCH   2   3
ENDBRANCH   1   2
BRANCH   1  12
ATOM     12  C   UNL     1      14.352  -7.636   4.105  1.00  0.00     0.000 C 
BRANCH  12  13
ATOM     13  C   UNL     1      14.975  -7.596   5.513  1.00  0.00    -0.000 C 
BRANCH  13  14
ATOM     14  C   UNL     1      16.012  -6.473   5.665  1.00  0.00    -0.000 C 
BRANCH  14  15
ATOM     15  C   UNL     1      16.540  -5.967   4.310  1.00  0.00    -0.000 C 
BRANCH  15  16
ATOM     16  C   UNL     1      17.931  -6.546   3.977  1.00  0.00    -0.000 C 
BRANCH  16  17
ATOM     17  C   UNL     1      18.659  -7.141   5.194  1.00  0.00    -0.000 C 
BRANCH  17  18
ATOM     18  C   UNL     1      19.895  -6.330   5.607  1.00  0.00    -0.003 C 
ATOM     19  C   UNL     1      20.494  -5.595   4.412  1.00  0.00     0.004 C 
ENDBRANCH  17  18
ENDBRANCH  16  17
ENDBRANCH  15  16
ENDBRANCH  14  15
ENDBRANCH  13  14
ENDBRANCH  12  13
ENDBRANCH   1  12
TORSDOF 14
ENDMDL
MODEL 7
REMARK VINA RESULT:    -3.219      4.387      9.932
REMARK INTER + INTRA:          -6.740
REMARK INTER:                  -5.658
REMARK INTRA:                  -1.082
REMARK UNBOUND:                -0.887
REMARK SMILES CCCCCCCCCCCCCC[C@H](C)C(=O)[O-]
REMARK SMILES IDX 9 1 10 2 11 3 12 4 13 5 14 6 15 7 16 8 17 9 18 10 19 11 8 12
REMARK SMILES IDX 7 13 6 14 5 15 4 16 3 17 2 18 1 19
REMARK H PARENT
REMARK Flexibility Score: inf
ROOT
ATOM      1  C   UNL     1      12.170  -6.762   4.282  1.00  0.00     0.000 C 
ENDROOT
BRANCH   1   2
ATOM      2  C   UNL     1      10.683  -6.809   4.673  1.00  0.00     0.000 C 
BRANCH   2   3
ATOM      3  C   UNL     1      10.202  -8.234   4.988  1.00  0.00     0.000 C 
BRANCH   3   4
ATOM      4  C   UNL     1       9.502  -8.340   6.355  1.00  0.00     0.000 C 
BRANCH   4   5
ATOM      5  C   UNL     1       8.390  -9.408   6.354  1.00  0.00     0.001 C 
BRANCH   5   6
ATOM      6  C   UNL     1       6.981  -8.852   6.639  1.00  0.00     0.009 C 
BRANCH   6   7
ATOM      7  C   UNL     1       6.191  -8.439   5.370  1.00  0.00     0.032 C 
ATOM      8  C   UNL     1       6.639  -9.272   4.163  1.00  0.00     0.014 C 
BRANCH   7   9
ATOM      9  C   UNL     1       6.352  -6.978   5.043  1.00  0.00     0.044 C 
ATOM     10  O   UNL     1       7.165  -6.604   4.156  1.00  0.00    -0.550 OA
ATOM     11  O   UNL     1       5.542  -6.036   5.666  1.00  0.00    -0.550 OA
ENDBRANCH   7   9
ENDBRANCH   6   7
ENDBRANCH   5   6
ENDBRANCH   4   5
ENDBRANCH   3   4
ENDBRANCH   2   3
ENDBRANCH   1   2
BRANCH   1  12
ATOM     12  C   UNL     1      12.876  -8.111   4.484  1.00  0.00     0.000 C 
BRANCH  12  13
ATOM     13  C   UNL     1      14.404  -7.969   4.608  1.00  0.00    -0.000 C 
BRANCH  13  14
ATOM     14  C   UNL     1      14.906  -8.246   6.034  1.00  0.00    -0.000 C 
BRANCH  14  15
ATOM     15  C   UNL     1      15.711  -7.070   6.616  1.00  0.00    -0.000 C 
BRANCH  15  16
ATOM     16  C   UNL     1      17.041  -6.848   5.865  1.00  0.00    -0.000 C 
BRANCH  16  17
ATOM     17  C   UNL     1      18.158  -7.816   6.292  1.00  0.00    -0.000 C 
BRANCH  17  18
ATOM     18  C   UNL     1      19.344  -7.103   6.956  1.00  0.00    -0.003 C 
ATOM     19  C   UNL     1      18.962  -6.565   8.332  1.00  0.00     0.004 C 
ENDBRANCH  17  18
ENDBRANCH  16  17
ENDBRANCH  15  16
ENDBRANCH  14  15
ENDBRANCH  13  14
ENDBRANCH  12  13
ENDBRANCH   1  12
TORSDOF 14
ENDMDL
MODEL 8
REMARK VINA RESULT:    -3.187      4.308     10.354
REMARK INTER + INTRA:          -6.683
REMARK INTER:                  -5.781
REMARK INTRA:                  -0.902
REMARK UNBOUND:                -0.887
REMARK SMILES CCCCCCCCCCCCCC[C@H](C)C(=O)[O-]
REMARK SMILES IDX 9 1 10 2 11 3 12 4 13 5 14 6 15 7 16 8 17 9 18 10 19 11 8 12
REMARK SMILES IDX 7 13 6 14 5 15 4 16 3 17 2 18 1 19
REMARK H PARENT
REMARK Flexibility Score: inf
ROOT
ATOM      1  C   UNL     1      15.059  -7.921   5.957  1.00  0.00     0.000 C 
ENDROOT
BRANCH   1   2
ATOM      2  C   UNL     1      13.899  -7.847   4.950  1.00  0.00     0.000 C 
BRANCH   2   3
ATOM      3  C   UNL     1      12.570  -7.445   5.609  1.00  0.00     0.000 C 
BRANCH   3   4
ATOM      4  C   UNL     1      11.603  -6.755   4.631  1.00  0.00     0.000 C 
BRANCH   4   5
ATOM      5  C   UNL     1      10.132  -7.116   4.922  1.00  0.00     0.001 C 
BRANCH   5   6
ATOM      6  C   UNL     1       9.940  -8.063   6.124  1.00  0.00     0.009 C 
BRANCH   6   7
ATOM      7  C   UNL     1       8.488  -8.572   6.307  1.00  0.00     0.032 C 
ATOM      8  C   UNL     1       8.481 -10.061   6.671  1.00  0.00     0.014 C 
BRANCH   7   9
ATOM      9  C   UNL     1       7.647  -8.366   5.075  1.00  0.00     0.044 C 
ATOM     10  O   UNL     1       7.654  -9.214   4.143  1.00  0.00    -0.550 OA
ATOM     11  O   UNL     1       6.793  -7.272   4.994  1.00  0.00    -0.550 OA
ENDBRANCH   7   9
ENDBRANCH   6   7
ENDBRANCH   5   6
ENDBRANCH   4   5
ENDBRANCH   3   4
ENDBRANCH   2   3
ENDBRANCH   1   2
BRANCH   1  12
ATOM     12  C   UNL     1      15.960  -6.678   5.911  1.00  0.00     0.000 C 
BRANCH  12  13
ATOM     13  C   UNL     1      16.243  -6.203   4.473  1.00  0.00    -0.000 C 
BRANCH  13  14
ATOM     14  C   UNL     1      17.742  -6.209   4.136  1.00  0.00    -0.000 C 
BRANCH  14  15
ATOM     15  C   UNL     1      18.403  -7.574   4.405  1.00  0.00    -0.000 C 
BRANCH  15  16
ATOM     16  C   UNL     1      19.716  -7.435   5.203  1.00  0.00    -0.000 C 
BRANCH  16  17
ATOM     17  C   UNL     1      20.148  -5.976   5.431  1.00  0.00    -0.000 C 
BRANCH  17  18
ATOM     18  C   UNL     1      21.372  -5.577   4.594  1.00  0.00    -0.003 C 
ATOM     19  C   UNL     1      21.258  -4.137   4.105  1.00  0.00     0.004 C 
ENDBRANCH  17  18
ENDBRANCH  16  17
ENDBRANCH  15  16
ENDBRANCH  14  15
ENDBRANCH  13  14
ENDBRANCH  12  13
ENDBRANCH   1  12
TORSDOF 14
ENDMDL
MODEL 9
REMARK VINA RESULT:    -3.143      5.213     10.513
REMARK INTER + INTRA:          -6.602
REMARK INTER:                  -5.746
REMARK INTRA:                  -0.857
REMARK UNBOUND:                -0.887
REMARK SMILES CCCCCCCCCCCCCC[C@H](C)C(=O)[O-]
REMARK SMILES IDX 9 1 10 2 11 3 12 4 13 5 14 6 15 7 16 8 17 9 18 10 19 11 8 12
REMARK SMILES IDX 7 13 6 14 5 15 4 16 3 17 2 18 1 19
REMARK H PARENT
REMARK Flexibility Score: inf
ROOT
ATOM      1  C   UNL     1      12.679  -8.035   4.858  1.00  0.00     0.000 C 
ENDROOT
BRANCH   1   2
ATOM      2  C   UNL     1      11.874  -7.169   5.842  1.00  0.00     0.000 C 
BRANCH   2   3
ATOM      3  C   UNL     1      10.362  -7.424   5.750  1.00  0.00     0.000 C 
BRANCH   3   4
ATOM      4  C   UNL     1       9.682  -6.599   4.643  1.00  0.00     0.000 C 
BRANCH   4   5
ATOM      5  C   UNL     1       8.425  -7.299   4.089  1.00  0.00     0.001 C 
BRANCH   5   6
ATOM      6  C   UNL     1       7.123  -6.493   4.271  1.00  0.00     0.009 C 
BRANCH   6   7
ATOM      7  C   UNL     1       6.181  -7.046   5.371  1.00  0.00     0.032 C 
ATOM      8  C   UNL     1       6.622  -8.449   5.803  1.00  0.00     0.014 C 
BRANCH   7   9
ATOM      9  C   UNL     1       4.745  -7.102   4.922  1.00  0.00     0.044 C 
ATOM     10  O   UNL     1       4.108  -8.190   4.938  1.00  0.00    -0.550 OA
ATOM     11  O   UNL     1       4.085  -5.933   4.560  1.00  0.00    -0.550 OA
ENDBRANCH   7   9
ENDBRANCH   6   7
ENDBRANCH   5   6
ENDBRANCH   4   5
ENDBRANCH   3   4
ENDBRANCH   2   3
ENDBRANCH   1   2
BRANCH   1  12
ATOM     12  C   UNL     1      14.154  -8.172   5.265  1.00  0.00     0.000 C 
BRANCH  12  13
ATOM     13  C   UNL     1      15.103  -7.407   4.323  1.00  0.00    -0.000 C 
BRANCH  13  14
ATOM     14  C   UNL     1      15.938  -6.350   5.062  1.00  0.00    -0.000 C 
BRANCH  14  15
ATOM     15  C   UNL     1      16.262  -6.758   6.510  1.00  0.00    -0.000 C 
BRANCH  15  16
ATOM     16  C   UNL     1      17.771  -7.009   6.718  1.00  0.00    -0.000 C 
BRANCH  16  17
ATOM     17  C   UNL     1      18.317  -8.194   5.903  1.00  0.00    -0.000 C 
BRANCH  17  18
ATOM     18  C   UNL     1      19.692  -8.672   6.391  1.00  0.00    -0.003 C 
ATOM     19  C   UNL     1      19.817  -8.529   7.905  1.00  0.00     0.004 C 
ENDBRANCH  17  18
ENDBRANCH  16  17
ENDBRANCH  15  16
ENDBRANCH  14  15
ENDBRANCH  13  14
ENDBRANCH  12  13
ENDBRANCH   1  12
TORSDOF 14
ENDMDL
