MODEL 1
REMARK VINA RESULT:    -4.607      0.000      0.000
REMARK INTER + INTRA:          -6.521
REMARK INTER:                  -7.031
REMARK INTRA:                   0.510
REMARK UNBOUND:                 0.510
REMARK SMILES CC1=CCC[C@H](C)C(=O)C[C@@H](C(C)C)C(=O)C1
REMARK SMILES IDX 8 1 9 2 6 3 7 4 5 5 4 6 3 7 2 8 1 9 10 11 11 12 15 13 16 14
REMARK SMILES IDX 17 15 12 17 13 18 14 19
REMARK H PARENT
REMARK Flexibility Score: 70.00
ROOT
ATOM      1  C   UNL     1       5.336  -2.577  46.479  1.00  0.00     0.136 C 
ATOM      2  O   UNL     1       4.828  -2.061  45.492  1.00  0.00    -0.299 OA
ENDROOT
BRANCH   1   3
ATOM      3  C   UNL     1       6.269  -1.773  47.371  1.00  0.00     0.053 C 
ATOM      4  C   UNL     1       6.651  -0.407  46.776  1.00  0.00     0.016 C 
BRANCH   3   5
ATOM      5  C   UNL     1       5.763  -1.654  48.831  1.00  0.00     0.015 C 
BRANCH   5   6
ATOM      6  C   UNL     1       6.723  -2.062  49.971  1.00  0.00     0.028 C 
BRANCH   6   7
ATOM      7  C   UNL     1       8.168  -2.315  49.608  1.00  0.00    -0.028 C 
ATOM      8  C   UNL     1       8.715  -3.504  49.267  1.00  0.00    -0.070 CG0
ATOM      9  C   UNL     1      10.112  -3.478  48.689  1.00  0.00     0.039 C 
ATOM     10  G   UNL     1       7.984  -4.832  49.381  1.00  0.00     0.000 G0
ENDBRANCH   6   7
ENDBRANCH   5   6
ENDBRANCH   3   5
ENDBRANCH   1   3
BRANCH   1  11
ATOM     11  C   UNL     1       5.129  -4.053  46.740  1.00  0.00     0.087 C 
BRANCH  11  12
ATOM     12  C   UNL     1       5.607  -4.541  48.133  1.00  0.00     0.066 C 
BRANCH  12  13
ATOM     13  C   UNL     1       7.046  -5.055  48.199  1.00  0.00     0.140 C 
ATOM     14  O   UNL     1       7.471  -5.680  47.237  1.00  0.00    -0.299 OA
BRANCH  13  15
ATOM     15  C   UNL     1       7.981  -4.849  49.373  1.00  0.00     0.106 CG0
ATOM     16  G   UNL     1       8.711  -3.520  49.267  1.00  0.00     0.000 G0
ENDBRANCH  13  15
ENDBRANCH  12  13
BRANCH  12  17
ATOM     17  C   UNL     1       4.592  -5.575  48.721  1.00  0.00    -0.006 C 
ATOM     18  C   UNL     1       3.566  -6.043  47.677  1.00  0.00     0.008 C 
ATOM     19  C   UNL     1       3.867  -5.064  49.979  1.00  0.00     0.008 C 
ENDBRANCH  12  17
ENDBRANCH  11  12
ENDBRANCH   1  11
TORSDOF 1
ENDMDL
MODEL 2
REMARK VINA RESULT:    -3.990      2.170      4.275
REMARK INTER + INTRA:          -5.580
REMARK INTER:                  -6.298
REMARK INTRA:                   0.718
REMARK UNBOUND:                 0.510
REMARK SMILES CC1=CCC[C@H](C)C(=O)C[C@@H](C(C)C)C(=O)C1
REMARK SMILES IDX 8 1 9 2 6 3 7 4 5 5 4 6 3 7 2 8 1 9 10 11 11 12 15 13 16 14
REMARK SMILES IDX 17 15 12 17 13 18 14 19
REMARK H PARENT
REMARK Flexibility Score: 70.00
ROOT
ATOM      1  C   UNL     1       5.622  -4.603  50.306  1.00  0.00     0.136 C 
ATOM      2  O   UNL     1       5.714  -5.399  51.231  1.00  0.00    -0.299 OA
ENDROOT
BRANCH   1   3
ATOM      3  C   UNL     1       4.639  -4.853  49.173  1.00  0.00     0.053 C 
ATOM      4  C   UNL     1       3.498  -5.808  49.559  1.00  0.00     0.016 C 
BRANCH   3   5
ATOM      5  C   UNL     1       4.115  -3.547  48.523  1.00  0.00     0.015 C 
BRANCH   5   6
ATOM      6  C   UNL     1       4.757  -3.085  47.195  1.00  0.00     0.028 C 
BRANCH   6   7
ATOM      7  C   UNL     1       5.444  -1.739  47.185  1.00  0.00    -0.028 C 
ATOM      8  C   UNL     1       6.774  -1.515  47.077  1.00  0.00    -0.070 CG0
ATOM      9  C   UNL     1       7.214  -0.092  46.824  1.00  0.00     0.039 C 
ATOM     10  G   UNL     1       7.821  -2.616  47.138  1.00  0.00     0.000 G0
ENDBRANCH   6   7
ENDBRANCH   5   6
ENDBRANCH   3   5
ENDBRANCH   1   3
BRANCH   1  11
ATOM     11  C   UNL     1       6.576  -3.430  50.233  1.00  0.00     0.087 C 
BRANCH  11  12
ATOM     12  C   UNL     1       7.951  -3.749  49.588  1.00  0.00     0.066 C 
BRANCH  12  13
ATOM     13  C   UNL     1       8.426  -2.766  48.517  1.00  0.00     0.140 C 
ATOM     14  O   UNL     1       9.361  -2.029  48.798  1.00  0.00    -0.299 OA
BRANCH  13  15
ATOM     15  C   UNL     1       7.816  -2.635  47.137  1.00  0.00     0.106 CG0
ATOM     16  G   UNL     1       6.783  -1.520  47.097  1.00  0.00     0.000 G0
ENDBRANCH  13  15
ENDBRANCH  12  13
BRANCH  12  17
ATOM     17  C   UNL     1       7.979  -5.226  49.076  1.00  0.00    -0.006 C 
ATOM     18  C   UNL     1       8.977  -6.095  49.859  1.00  0.00     0.008 C 
ATOM     19  C   UNL     1       8.253  -5.340  47.566  1.00  0.00     0.008 C 
ENDBRANCH  12  17
ENDBRANCH  11  12
ENDBRANCH   1  11
TORSDOF 1
ENDMDL
MODEL 3
REMARK VINA RESULT:    -3.959      8.779     11.058
REMARK INTER + INTRA:          -5.531
REMARK INTER:                  -5.638
REMARK INTRA:                   0.107
REMARK UNBOUND:                 0.510
REMARK SMILES CC1=CCC[C@H](C)C(=O)C[C@@H](C(C)C)C(=O)C1
REMARK SMILES IDX 8 1 9 2 6 3 7 4 5 5 4 6 3 7 2 8 1 9 10 11 11 12 15 13 16 14
REMARK SMILES IDX 17 15 12 17 13 18 14 19
REMARK H PARENT
REMARK Flexibility Score: 70.00
ROOT
ATOM      1  C   UNL     1      10.418   1.976  54.773  1.00  0.00     0.136 C 
ATOM      2  O   UNL     1      10.840   1.671  55.880  1.00  0.00    -0.299 OA
ENDROOT
BRANCH   1   3
ATOM      3  C   UNL     1       9.039   1.521  54.323  1.00  0.00     0.053 C 
ATOM      4  C   UNL     1       8.649   0.137  54.867  1.00  0.00     0.016 C 
BRANCH   3   5
ATOM      5  C   UNL     1       7.936   2.581  54.575  1.00  0.00     0.015 C 
BRANCH   5   6
ATOM      6  C   UNL     1       7.484   3.459  53.387  1.00  0.00     0.028 C 
BRANCH   6   7
ATOM      7  C   UNL     1       7.738   4.946  53.483  1.00  0.00    -0.028 C 
ATOM      8  C   UNL     1       8.537   5.679  52.675  1.00  0.00    -0.070 CG0
ATOM      9  C   UNL     1       8.437   7.182  52.789  1.00  0.00     0.039 C 
ATOM     10  G   UNL     1       9.469   5.074  51.637  1.00  0.00     0.000 G0
ENDBRANCH   6   7
ENDBRANCH   5   6
ENDBRANCH   3   5
ENDBRANCH   1   3
BRANCH   1  11
ATOM     11  C   UNL     1      11.324   2.708  53.806  1.00  0.00     0.087 C 
BRANCH  11  12
ATOM     12  C   UNL     1      11.047   4.229  53.679  1.00  0.00     0.066 C 
BRANCH  12  13
ATOM     13  C   UNL     1      10.838   4.750  52.256  1.00  0.00     0.140 C 
ATOM     14  O   UNL     1      11.832   4.941  51.570  1.00  0.00    -0.299 OA
BRANCH  13  15
ATOM     15  C   UNL     1       9.488   5.053  51.640  1.00  0.00     0.106 CG0
ATOM     16  G   UNL     1       8.547   5.676  52.658  1.00  0.00     0.000 G0
ENDBRANCH  13  15
ENDBRANCH  12  13
BRANCH  12  17
ATOM     17  C   UNL     1      12.142   5.044  54.443  1.00  0.00    -0.006 C 
ATOM     18  C   UNL     1      13.449   4.251  54.608  1.00  0.00     0.008 C 
ATOM     19  C   UNL     1      11.666   5.564  55.811  1.00  0.00     0.008 C 
ENDBRANCH  12  17
ENDBRANCH  11  12
ENDBRANCH   1  11
TORSDOF 1
ENDMDL
MODEL 4
REMARK VINA RESULT:    -3.914      9.651     10.764
REMARK INTER + INTRA:          -5.464
REMARK INTER:                  -5.688
REMARK INTRA:                   0.225
REMARK UNBOUND:                 0.510
REMARK SMILES CC1=CCC[C@H](C)C(=O)C[C@@H](C(C)C)C(=O)C1
REMARK SMILES IDX 8 1 9 2 6 3 7 4 5 5 4 6 3 7 2 8 1 9 10 11 11 12 15 13 16 14
REMARK SMILES IDX 17 15 12 17 13 18 14 19
REMARK H PARENT
REMARK Flexibility Score: 70.00
ROOT
ATOM      1  C   UNL     1       7.789   5.898  52.873  1.00  0.00     0.136 C 
ATOM      2  O   UNL     1       7.785   7.011  53.382  1.00  0.00    -0.299 OA
ENDROOT
BRANCH   1   3
ATOM      3  C   UNL     1       6.911   4.792  53.438  1.00  0.00     0.053 C 
ATOM      4  C   UNL     1       5.540   4.695  52.750  1.00  0.00     0.016 C 
BRANCH   3   5
ATOM      5  C   UNL     1       7.630   3.420  53.507  1.00  0.00     0.015 C 
BRANCH   5   6
ATOM      6  C   UNL     1       8.268   2.999  54.851  1.00  0.00     0.028 C 
BRANCH   6   7
ATOM      7  C   UNL     1       9.748   2.690  54.852  1.00  0.00    -0.028 C 
ATOM      8  C   UNL     1      10.756   3.587  54.940  1.00  0.00    -0.070 CG0
ATOM      9  C   UNL     1      12.143   3.041  55.189  1.00  0.00     0.039 C 
ATOM     10  G   UNL     1      10.554   5.092  54.860  1.00  0.00     0.000 G0
ENDBRANCH   6   7
ENDBRANCH   5   6
ENDBRANCH   3   5
ENDBRANCH   1   3
BRANCH   1  11
ATOM     11  C   UNL     1       8.761   5.592  51.755  1.00  0.00     0.087 C 
BRANCH  11  12
ATOM     12  C   UNL     1      10.115   4.989  52.215  1.00  0.00     0.066 C 
BRANCH  12  13
ATOM     13  C   UNL     1      10.741   5.630  53.454  1.00  0.00     0.140 C 
ATOM     14  O   UNL     1      11.424   6.631  53.291  1.00  0.00    -0.299 OA
BRANCH  13  15
ATOM     15  C   UNL     1      10.581   5.109  54.867  1.00  0.00     0.106 CG0
ATOM     16  G   UNL     1      10.780   3.603  54.923  1.00  0.00     0.000 G0
ENDBRANCH  13  15
ENDBRANCH  12  13
BRANCH  12  17
ATOM     17  C   UNL     1      11.118   4.934  51.016  1.00  0.00    -0.006 C 
ATOM     18  C   UNL     1      10.404   4.999  49.656  1.00  0.00     0.008 C 
ATOM     19  C   UNL     1      12.051   3.711  51.062  1.00  0.00     0.008 C 
ENDBRANCH  12  17
ENDBRANCH  11  12
ENDBRANCH   1  11
TORSDOF 1
ENDMDL
MODEL 5
REMARK VINA RESULT:    -3.791     12.152     14.857
REMARK INTER + INTRA:          -5.276
REMARK INTER:                  -4.959
REMARK INTRA:                  -0.316
REMARK UNBOUND:                 0.510
REMARK SMILES CC1=CCC[C@H](C)C(=O)C[C@@H](C(C)C)C(=O)C1
REMARK SMILES IDX 8 1 9 2 6 3 7 4 5 5 4 6 3 7 2 8 1 9 10 11 11 12 15 13 16 14
REMARK SMILES IDX 17 15 12 17 13 18 14 19
REMARK H PARENT
REMARK Flexibility Score: 70.00
ROOT
ATOM      1  C   UNL     1       7.314  10.199  48.733  1.00  0.00     0.136 C 
ATOM      2  O   UNL     1       7.821  10.005  49.830  1.00  0.00    -0.299 OA
ENDROOT
BRANCH   1   3
ATOM      3  C   UNL     1       6.268  11.288  48.552  1.00  0.00     0.053 C 
ATOM      4  C   UNL     1       5.245  11.343  49.699  1.00  0.00     0.016 C 
BRANCH   3   5
ATOM      5  C   UNL     1       6.881  12.678  48.247  1.00  0.00     0.015 C 
BRANCH   5   6
ATOM      6  C   UNL     1       7.118  13.062  46.769  1.00  0.00     0.028 C 
BRANCH   6   7
ATOM      7  C   UNL     1       8.549  13.153  46.292  1.00  0.00    -0.028 C 
ATOM      8  C   UNL     1       9.174  12.293  45.456  1.00  0.00    -0.070 CG0
ATOM      9  C   UNL     1      10.516  12.720  44.908  1.00  0.00     0.039 C 
ATOM     10  G   UNL     1       8.575  10.971  45.004  1.00  0.00     0.000 G0
ENDBRANCH   6   7
ENDBRANCH   5   6
ENDBRANCH   3   5
ENDBRANCH   1   3
BRANCH   1  11
ATOM     11  C   UNL     1       7.645   9.272  47.584  1.00  0.00     0.087 C 
BRANCH  11  12
ATOM     12  C   UNL     1       9.111   9.356  47.081  1.00  0.00     0.066 C 
BRANCH  12  13
ATOM     13  C   UNL     1       9.291   9.787  45.625  1.00  0.00     0.140 C 
ATOM     14  O   UNL     1      10.071   9.147  44.935  1.00  0.00    -0.299 OA
BRANCH  13  15
ATOM     15  C   UNL     1       8.575  10.955  44.979  1.00  0.00     0.106 CG0
ATOM     16  G   UNL     1       9.149  12.281  45.453  1.00  0.00     0.000 G0
ENDBRANCH  13  15
ENDBRANCH  12  13
BRANCH  12  17
ATOM     17  C   UNL     1       9.866   8.022  47.391  1.00  0.00    -0.006 C 
ATOM     18  C   UNL     1       8.906   6.830  47.540  1.00  0.00     0.008 C 
ATOM     19  C   UNL     1      10.783   8.116  48.624  1.00  0.00     0.008 C 
ENDBRANCH  12  17
ENDBRANCH  11  12
ENDBRANCH   1  11
TORSDOF 1
ENDMDL
MODEL 6
REMARK VINA RESULT:    -3.772      8.682     10.718
REMARK INTER + INTRA:          -5.246
REMARK INTER:                  -5.309
REMARK INTRA:                   0.063
REMARK UNBOUND:                 0.510
REMARK SMILES CC1=CCC[C@H](C)C(=O)C[C@@H](C(C)C)C(=O)C1
REMARK SMILES IDX 8 1 9 2 6 3 7 4 5 5 4 6 3 7 2 8 1 9 10 11 11 12 15 13 16 14
REMARK SMILES IDX 17 15 12 17 13 18 14 19
REMARK H PARENT
REMARK Flexibility Score: 70.00
ROOT
ATOM      1  C   UNL     1      11.322   3.147  55.408  1.00  0.00     0.136 C 
ATOM      2  O   UNL     1      11.702   2.136  55.982  1.00  0.00    -0.299 OA
ENDROOT
BRANCH   1   3
ATOM      3  C   UNL     1      12.327   4.087  54.761  1.00  0.00     0.053 C 
ATOM      4  C   UNL     1      13.493   4.461  55.690  1.00  0.00     0.016 C 
BRANCH   3   5
ATOM      5  C   UNL     1      12.818   3.594  53.376  1.00  0.00     0.015 C 
BRANCH   5   6
ATOM      6  C   UNL     1      12.002   3.999  52.127  1.00  0.00     0.028 C 
BRANCH   6   7
ATOM      7  C   UNL     1      11.409   5.388  52.103  1.00  0.00    -0.028 C 
ATOM      8  C   UNL     1      10.094   5.702  52.137  1.00  0.00    -0.070 CG0
ATOM      9  C   UNL     1       9.739   7.153  52.370  1.00  0.00     0.039 C 
ATOM     10  G   UNL     1       8.979   4.676  52.014  1.00  0.00     0.000 G0
ENDBRANCH   6   7
ENDBRANCH   5   6
ENDBRANCH   3   5
ENDBRANCH   1   3
BRANCH   1  11
ATOM     11  C   UNL     1       9.856   3.522  55.448  1.00  0.00     0.087 C 
BRANCH  11  12
ATOM     12  C   UNL     1       9.043   3.105  54.193  1.00  0.00     0.066 C 
BRANCH  12  13
ATOM     13  C   UNL     1       8.450   4.253  53.375  1.00  0.00     0.140 C 
ATOM     14  O   UNL     1       7.498   4.855  53.849  1.00  0.00    -0.299 OA
BRANCH  13  15
ATOM     15  C   UNL     1       8.954   4.691  52.015  1.00  0.00     0.106 CG0
ATOM     16  G   UNL     1      10.091   5.691  52.148  1.00  0.00     0.000 G0
ENDBRANCH  13  15
ENDBRANCH  12  13
BRANCH  12  17
ATOM     17  C   UNL     1       7.962   2.043  54.578  1.00  0.00    -0.006 C 
ATOM     18  C   UNL     1       8.543   0.622  54.654  1.00  0.00     0.008 C 
ATOM     19  C   UNL     1       6.736   2.061  53.647  1.00  0.00     0.008 C 
ENDBRANCH  12  17
ENDBRANCH  11  12
ENDBRANCH   1  11
TORSDOF 1
ENDMDL
MODEL 7
REMARK VINA RESULT:    -3.712      9.114     10.707
REMARK INTER + INTRA:          -5.155
REMARK INTER:                  -4.969
REMARK INTRA:                  -0.187
REMARK UNBOUND:                 0.510
REMARK SMILES CC1=CCC[C@H](C)C(=O)C[C@@H](C(C)C)C(=O)C1
REMARK SMILES IDX 8 1 9 2 6 3 7 4 5 5 4 6 3 7 2 8 1 9 10 11 11 12 15 13 16 14
REMARK SMILES IDX 17 15 12 17 13 18 14 19
REMARK H PARENT
REMARK Flexibility Score: 70.00
ROOT
ATOM      1  C   UNL     1      10.299   4.029  52.019  1.00  0.00     0.136 C 
ATOM      2  O   UNL     1       9.196   4.495  51.767  1.00  0.00    -0.299 OA
ENDROOT
BRANCH   1   3
ATOM      3  C   UNL     1      11.522   4.483  51.236  1.00  0.00     0.053 C 
ATOM      4  C   UNL     1      11.313   4.454  49.713  1.00  0.00     0.016 C 
BRANCH   3   5
ATOM      5  C   UNL     1      12.086   5.842  51.724  1.00  0.00     0.015 C 
BRANCH   5   6
ATOM      6  C   UNL     1      12.097   6.124  53.243  1.00  0.00     0.028 C 
BRANCH   6   7
ATOM      7  C   UNL     1      13.199   5.491  54.061  1.00  0.00    -0.028 C 
ATOM      8  C   UNL     1      13.045   4.760  55.188  1.00  0.00    -0.070 CG0
ATOM      9  C   UNL     1      14.255   4.006  55.690  1.00  0.00     0.039 C 
ATOM     10  G   UNL     1      11.723   4.616  55.926  1.00  0.00     0.000 G0
ENDBRANCH   6   7
ENDBRANCH   5   6
ENDBRANCH   3   5
ENDBRANCH   1   3
BRANCH   1  11
ATOM     11  C   UNL     1      10.424   2.910  53.030  1.00  0.00     0.087 C 
BRANCH  11  12
ATOM     12  C   UNL     1       9.924   3.262  54.456  1.00  0.00     0.066 C 
BRANCH  12  13
ATOM     13  C   UNL     1      11.000   3.332  55.540  1.00  0.00     0.140 C 
ATOM     14  O   UNL     1      11.287   2.295  56.122  1.00  0.00    -0.299 OA
BRANCH  13  15
ATOM     15  C   UNL     1      11.731   4.594  55.948  1.00  0.00     0.106 CG0
ATOM     16  G   UNL     1      13.026   4.754  55.169  1.00  0.00     0.000 G0
ENDBRANCH  13  15
ENDBRANCH  12  13
BRANCH  12  17
ATOM     17  C   UNL     1       8.745   2.319  54.864  1.00  0.00    -0.006 C 
ATOM     18  C   UNL     1       8.927   0.892  54.322  1.00  0.00     0.008 C 
ATOM     19  C   UNL     1       7.364   2.864  54.459  1.00  0.00     0.008 C 
ENDBRANCH  12  17
ENDBRANCH  11  12
ENDBRANCH   1  11
TORSDOF 1
ENDMDL
MODEL 8
REMARK VINA RESULT:    -3.707     12.874     14.997
REMARK INTER + INTRA:          -5.147
REMARK INTER:                  -4.906
REMARK INTRA:                  -0.241
REMARK UNBOUND:                 0.510
REMARK SMILES CC1=CCC[C@H](C)C(=O)C[C@@H](C(C)C)C(=O)C1
REMARK SMILES IDX 8 1 9 2 6 3 7 4 5 5 4 6 3 7 2 8 1 9 10 11 11 12 15 13 16 14
REMARK SMILES IDX 17 15 12 17 13 18 14 19
REMARK H PARENT
REMARK Flexibility Score: 70.00
ROOT
ATOM      1  C   UNL     1       8.214  10.128  49.194  1.00  0.00     0.136 C 
ATOM      2  O   UNL     1       7.879   9.799  50.324  1.00  0.00    -0.299 OA
ENDROOT
BRANCH   1   3
ATOM      3  C   UNL     1       9.188   9.271  48.401  1.00  0.00     0.053 C 
ATOM      4  C   UNL     1      10.293   8.648  49.268  1.00  0.00     0.016 C 
BRANCH   3   5
ATOM      5  C   UNL     1       8.484   8.219  47.506  1.00  0.00     0.015 C 
BRANCH   5   6
ATOM      6  C   UNL     1       8.654   8.335  45.974  1.00  0.00     0.028 C 
BRANCH   6   7
ATOM      7  C   UNL     1       9.768   9.219  45.461  1.00  0.00    -0.028 C 
ATOM      8  C   UNL     1       9.650  10.499  45.043  1.00  0.00    -0.070 CG0
ATOM      9  C   UNL     1      10.931  11.271  44.824  1.00  0.00     0.039 C 
ATOM     10  G   UNL     1       8.316  11.202  44.844  1.00  0.00     0.000 G0
ENDBRANCH   6   7
ENDBRANCH   5   6
ENDBRANCH   3   5
ENDBRANCH   1   3
BRANCH   1  11
ATOM     11  C   UNL     1       7.747  11.455  48.634  1.00  0.00     0.087 C 
BRANCH  11  12
ATOM     12  C   UNL     1       7.087  11.374  47.233  1.00  0.00     0.066 C 
BRANCH  12  13
ATOM     13  C   UNL     1       7.897  11.972  46.081  1.00  0.00     0.140 C 
ATOM     14  O   UNL     1       8.232  13.145  46.172  1.00  0.00    -0.299 OA
BRANCH  13  15
ATOM     15  C   UNL     1       8.307  11.217  44.834  1.00  0.00     0.106 CG0
ATOM     16  G   UNL     1       9.629  10.494  45.041  1.00  0.00     0.000 G0
ENDBRANCH  13  15
ENDBRANCH  12  13
BRANCH  12  17
ATOM     17  C   UNL     1       5.635  11.951  47.285  1.00  0.00    -0.006 C 
ATOM     18  C   UNL     1       5.269  12.482  48.681  1.00  0.00     0.008 C 
ATOM     19  C   UNL     1       4.567  10.951  46.807  1.00  0.00     0.008 C 
ENDBRANCH  12  17
ENDBRANCH  11  12
ENDBRANCH   1  11
TORSDOF 1
ENDMDL
MODEL 9
REMARK VINA RESULT:    -3.586     11.419     14.198
REMARK INTER + INTRA:          -4.963
REMARK INTER:                  -5.081
REMARK INTRA:                   0.118
REMARK UNBOUND:                 0.510
REMARK SMILES CC1=CCC[C@H](C)C(=O)C[C@@H](C(C)C)C(=O)C1
REMARK SMILES IDX 8 1 9 2 6 3 7 4 5 5 4 6 3 7 2 8 1 9 10 11 11 12 15 13 16 14
REMARK SMILES IDX 17 15 12 17 13 18 14 19
REMARK H PARENT
REMARK Flexibility Score: 70.00
ROOT
ATOM      1  C   UNL     1       9.822   8.395  48.329  1.00  0.00     0.136 C 
ATOM      2  O   UNL     1      10.840   9.032  48.565  1.00  0.00    -0.299 OA
ENDROOT
BRANCH   1   3
ATOM      3  C   UNL     1       9.910   6.982  47.775  1.00  0.00     0.053 C 
ATOM      4  C   UNL     1       8.583   6.211  47.865  1.00  0.00     0.016 C 
BRANCH   3   5
ATOM      5  C   UNL     1      10.527   6.922  46.354  1.00  0.00     0.015 C 
BRANCH   5   6
ATOM      6  C   UNL     1       9.992   7.903  45.286  1.00  0.00     0.028 C 
BRANCH   6   7
ATOM      7  C   UNL     1      10.901   9.033  44.860  1.00  0.00    -0.028 C 
ATOM      8  C   UNL     1      10.600  10.351  44.864  1.00  0.00    -0.070 CG0
ATOM      9  C   UNL     1      11.742  11.318  44.651  1.00  0.00     0.039 C 
ATOM     10  G   UNL     1       9.205  10.897  45.126  1.00  0.00     0.000 G0
ENDBRANCH   6   7
ENDBRANCH   5   6
ENDBRANCH   3   5
ENDBRANCH   1   3
BRANCH   1  11
ATOM     11  C   UNL     1       8.472   9.065  48.476  1.00  0.00     0.087 C 
BRANCH  11  12
ATOM     12  C   UNL     1       7.937   9.741  47.186  1.00  0.00     0.066 C 
BRANCH  12  13
ATOM     13  C   UNL     1       8.830  10.827  46.585  1.00  0.00     0.140 C 
ATOM     14  O   UNL     1       9.265  11.686  47.339  1.00  0.00    -0.299 OA
BRANCH  13  15
ATOM     15  C   UNL     1       9.210  10.917  45.121  1.00  0.00     0.106 CG0
ATOM     16  G   UNL     1      10.602  10.355  44.880  1.00  0.00     0.000 G0
ENDBRANCH  13  15
ENDBRANCH  12  13
BRANCH  12  17
ATOM     17  C   UNL     1       6.474  10.247  47.408  1.00  0.00    -0.006 C 
ATOM     18  C   UNL     1       6.002  11.179  46.280  1.00  0.00     0.008 C 
ATOM     19  C   UNL     1       6.267  10.927  48.774  1.00  0.00     0.008 C 
ENDBRANCH  12  17
ENDBRANCH  11  12
ENDBRANCH   1  11
TORSDOF 1
ENDMDL
