MODEL 1
REMARK VINA RESULT:    -2.671      0.000      0.000
REMARK INTER + INTRA:          -2.964
REMARK INTER:                  -2.906
REMARK INTRA:                  -0.059
REMARK UNBOUND:                -0.059
REMARK SMILES COc1cc2ccc(=O)oc2cc1O
REMARK SMILES IDX 3 1 13 2 12 3 11 4 5 5 4 6 6 7 7 8 8 9 9 10 10 11 2 12 1 13
REMARK SMILES IDX 14 14
REMARK H PARENT 14 15
REMARK Flexibility Score: inf
ROOT
ATOM      1  C   UNL     1     146.464 159.882 161.826  1.00  0.00     0.161 A 
ATOM      2  C   UNL     1     147.611 159.300 161.252  1.00  0.00     0.161 A 
ATOM      3  C   UNL     1     148.493 160.077 160.495  1.00  0.00     0.098 A 
ATOM      4  C   UNL     1     148.247 161.438 160.298  1.00  0.00     0.142 A 
ATOM      5  C   UNL     1     147.101 162.031 160.867  1.00  0.00     0.022 A 
ATOM      6  C   UNL     1     146.215 161.255 161.628  1.00  0.00     0.062 A 
ATOM      7  C   UNL     1     146.881 163.395 160.653  1.00  0.00     0.019 A 
ATOM      8  C   UNL     1     147.793 164.125 159.889  1.00  0.00     0.094 A 
ATOM      9  C   UNL     1     148.907 163.468 159.356  1.00  0.00     0.336 A 
ATOM     10  O   UNL     1     149.740 164.109 158.663  1.00  0.00    -0.246 OA
ATOM     11  O   UNL     1     149.092 162.169 159.575  1.00  0.00    -0.423 OA
ENDROOT
BRANCH   1  12
ATOM     12  O   UNL     1     145.600 159.073 162.581  1.00  0.00    -0.493 OA
ATOM     13  C   UNL     1     145.322 159.258 163.965  1.00  0.00     0.278 C 
ENDBRANCH   1  12
BRANCH   2  14
ATOM     14  O   UNL     1     147.892 157.944 161.426  1.00  0.00    -0.504 OA
ATOM     15  H   UNL     1     147.713 157.462 162.299  1.00  0.00     0.293 HD
ENDBRANCH   2  14
TORSDOF 2
ENDMDL
MODEL 2
REMARK VINA RESULT:    -2.435     13.287     14.372
REMARK INTER + INTRA:          -2.707
REMARK INTER:                  -2.658
REMARK INTRA:                  -0.048
REMARK UNBOUND:                -0.059
REMARK SMILES COc1cc2ccc(=O)oc2cc1O
REMARK SMILES IDX 3 1 13 2 12 3 11 4 5 5 4 6 6 7 7 8 8 9 9 10 10 11 2 12 1 13
REMARK SMILES IDX 14 14
REMARK H PARENT 14 15
REMARK Flexibility Score: inf
ROOT
ATOM      1  C   UNL     1     159.839 163.703 165.628  1.00  0.00     0.161 A 
ATOM      2  C   UNL     1     160.875 162.894 166.135  1.00  0.00     0.161 A 
ATOM      3  C   UNL     1     161.937 162.508 165.311  1.00  0.00     0.098 A 
ATOM      4  C   UNL     1     161.983 162.919 163.977  1.00  0.00     0.142 A 
ATOM      5  C   UNL     1     160.952 163.729 163.458  1.00  0.00     0.022 A 
ATOM      6  C   UNL     1     159.886 164.118 164.281  1.00  0.00     0.062 A 
ATOM      7  C   UNL     1     161.025 164.125 162.119  1.00  0.00     0.019 A 
ATOM      8  C   UNL     1     162.106 163.712 161.341  1.00  0.00     0.094 A 
ATOM      9  C   UNL     1     163.092 162.908 161.924  1.00  0.00     0.336 A 
ATOM     10  O   UNL     1     164.076 162.524 161.238  1.00  0.00    -0.246 OA
ATOM     11  O   UNL     1     162.998 162.546 163.200  1.00  0.00    -0.423 OA
ENDROOT
BRANCH   1  12
ATOM     12  O   UNL     1     158.789 164.072 166.483  1.00  0.00    -0.493 OA
ATOM     13  C   UNL     1     157.418 164.125 166.101  1.00  0.00     0.278 C 
ENDBRANCH   1  12
BRANCH   2  14
ATOM     14  O   UNL     1     160.865 162.463 167.462  1.00  0.00    -0.504 OA
ATOM     15  H   UNL     1     160.675 161.501 167.717  1.00  0.00     0.293 HD
ENDBRANCH   2  14
TORSDOF 2
ENDMDL
MODEL 3
REMARK VINA RESULT:    -2.204     13.549     14.925
REMARK INTER + INTRA:          -2.456
REMARK INTER:                  -2.407
REMARK INTRA:                  -0.050
REMARK UNBOUND:                -0.059
REMARK SMILES COc1cc2ccc(=O)oc2cc1O
REMARK SMILES IDX 3 1 13 2 12 3 11 4 5 5 4 6 6 7 7 8 8 9 9 10 10 11 2 12 1 13
REMARK SMILES IDX 14 14
REMARK H PARENT 14 15
REMARK Flexibility Score: inf
ROOT
ATOM      1  C   UNL     1     161.724 163.740 161.843  1.00  0.00     0.161 A 
ATOM      2  C   UNL     1     162.768 162.982 162.410  1.00  0.00     0.161 A 
ATOM      3  C   UNL     1     162.723 162.617 163.759  1.00  0.00     0.098 A 
ATOM      4  C   UNL     1     161.643 162.999 164.559  1.00  0.00     0.142 A 
ATOM      5  C   UNL     1     160.593 163.757 164.002  1.00  0.00     0.022 A 
ATOM      6  C   UNL     1     160.634 164.125 162.650  1.00  0.00     0.062 A 
ATOM      7  C   UNL     1     159.525 164.125 164.828  1.00  0.00     0.019 A 
ATOM      8  C   UNL     1     159.529 163.734 166.167  1.00  0.00     0.094 A 
ATOM      9  C   UNL     1     160.606 162.983 166.650  1.00  0.00     0.336 A 
ATOM     10  O   UNL     1     160.629 162.622 167.856  1.00  0.00    -0.246 OA
ATOM     11  O   UNL     1     161.608 162.647 165.842  1.00  0.00    -0.423 OA
ENDROOT
BRANCH   1  12
ATOM     12  O   UNL     1     161.802 164.089 160.485  1.00  0.00    -0.493 OA
ATOM     13  C   UNL     1     160.718 164.003 159.566  1.00  0.00     0.278 C 
ENDBRANCH   1  12
BRANCH   2  14
ATOM     14  O   UNL     1     163.863 162.582 161.644  1.00  0.00    -0.504 OA
ATOM     15  H   UNL     1     164.818 162.694 161.964  1.00  0.00     0.293 HD
ENDBRANCH   2  14
TORSDOF 2
ENDMDL
MODEL 4
REMARK VINA RESULT:    -1.878      1.479      5.350
REMARK INTER + INTRA:          -2.101
REMARK INTER:                  -2.049
REMARK INTRA:                  -0.052
REMARK UNBOUND:                -0.059
REMARK SMILES COc1cc2ccc(=O)oc2cc1O
REMARK SMILES IDX 3 1 13 2 12 3 11 4 5 5 4 6 6 7 7 8 8 9 9 10 10 11 2 12 1 13
REMARK SMILES IDX 14 14
REMARK H PARENT 14 15
REMARK Flexibility Score: inf
ROOT
ATOM      1  C   UNL     1     147.992 162.707 160.022  1.00  0.00     0.161 A 
ATOM      2  C   UNL     1     146.713 162.893 160.582  1.00  0.00     0.161 A 
ATOM      3  C   UNL     1     146.070 161.839 161.238  1.00  0.00     0.098 A 
ATOM      4  C   UNL     1     146.687 160.590 161.344  1.00  0.00     0.142 A 
ATOM      5  C   UNL     1     147.967 160.392 160.787  1.00  0.00     0.022 A 
ATOM      6  C   UNL     1     148.615 161.447 160.129  1.00  0.00     0.062 A 
ATOM      7  C   UNL     1     148.560 159.132 160.909  1.00  0.00     0.019 A 
ATOM      8  C   UNL     1     147.874 158.114 161.574  1.00  0.00     0.094 A 
ATOM      9  C   UNL     1     146.607 158.384 162.101  1.00  0.00     0.336 A 
ATOM     10  O   UNL     1     145.972 157.479 162.703  1.00  0.00    -0.246 OA
ATOM     11  O   UNL     1     146.067 159.593 161.971  1.00  0.00    -0.423 OA
ENDROOT
BRANCH   1  12
ATOM     12  O   UNL     1     148.609 163.787 159.370  1.00  0.00    -0.493 OA
ATOM     13  C   UNL     1     148.475 164.076 157.983  1.00  0.00     0.278 C 
ENDBRANCH   1  12
BRANCH   2  14
ATOM     14  O   UNL     1     146.064 164.125 160.496  1.00  0.00    -0.504 OA
ATOM     15  H   UNL     1     146.086 164.802 161.249  1.00  0.00     0.293 HD
ENDBRANCH   2  14
TORSDOF 2
ENDMDL
MODEL 5
REMARK VINA RESULT:    -1.868     13.215     14.335
REMARK INTER + INTRA:          -2.091
REMARK INTER:                  -2.051
REMARK INTRA:                  -0.040
REMARK UNBOUND:                -0.059
REMARK SMILES COc1cc2ccc(=O)oc2cc1O
REMARK SMILES IDX 3 1 13 2 12 3 11 4 5 5 4 6 6 7 7 8 8 9 9 10 10 11 2 12 1 13
REMARK SMILES IDX 14 14
REMARK H PARENT 14 15
REMARK Flexibility Score: inf
ROOT
ATOM      1  C   UNL     1     160.596 163.148 166.516  1.00  0.00     0.161 A 
ATOM      2  C   UNL     1     159.502 163.782 165.893  1.00  0.00     0.161 A 
ATOM      3  C   UNL     1     159.551 164.096 164.531  1.00  0.00     0.098 A 
ATOM      4  C   UNL     1     160.682 163.784 163.774  1.00  0.00     0.142 A 
ATOM      5  C   UNL     1     161.782 163.150 164.386  1.00  0.00     0.022 A 
ATOM      6  C   UNL     1     161.738 162.834 165.751  1.00  0.00     0.062 A 
ATOM      7  C   UNL     1     162.901 162.851 163.602  1.00  0.00     0.019 A 
ATOM      8  C   UNL     1     162.897 163.185 162.247  1.00  0.00     0.094 A 
ATOM      9  C   UNL     1     161.769 163.814 161.709  1.00  0.00     0.336 A 
ATOM     10  O   UNL     1     161.746 164.125 160.489  1.00  0.00    -0.246 OA
ATOM     11  O   UNL     1     160.718 164.087 162.478  1.00  0.00    -0.423 OA
ENDROOT
BRANCH   1  12
ATOM     12  O   UNL     1     160.514 162.848 167.885  1.00  0.00    -0.493 OA
ATOM     13  C   UNL     1     159.953 161.652 168.418  1.00  0.00     0.278 C 
ENDBRANCH   1  12
BRANCH   2  14
ATOM     14  O   UNL     1     158.355 164.109 166.617  1.00  0.00    -0.504 OA
ATOM     15  H   UNL     1     157.430 164.081 166.206  1.00  0.00     0.293 HD
ENDBRANCH   2  14
TORSDOF 2
ENDMDL
MODEL 6
REMARK VINA RESULT:    -1.700     22.358     24.255
REMARK INTER + INTRA:          -1.908
REMARK INTER:                  -1.863
REMARK INTRA:                  -0.045
REMARK UNBOUND:                -0.059
REMARK SMILES COc1cc2ccc(=O)oc2cc1O
REMARK SMILES IDX 3 1 13 2 12 3 11 4 5 5 4 6 6 7 7 8 8 9 9 10 10 11 2 12 1 13
REMARK SMILES IDX 14 14
REMARK H PARENT 14 15
REMARK Flexibility Score: inf
ROOT
ATOM      1  C   UNL     1     161.672 145.466 174.788  1.00  0.00     0.161 A 
ATOM      2  C   UNL     1     160.625 144.537 174.949  1.00  0.00     0.161 A 
ATOM      3  C   UNL     1     159.757 144.261 173.887  1.00  0.00     0.098 A 
ATOM      4  C   UNL     1     159.919 144.903 172.657  1.00  0.00     0.142 A 
ATOM      5  C   UNL     1     160.962 145.835 172.485  1.00  0.00     0.022 A 
ATOM      6  C   UNL     1     161.834 146.114 173.547  1.00  0.00     0.062 A 
ATOM      7  C   UNL     1     161.099 146.462 171.243  1.00  0.00     0.019 A 
ATOM      8  C   UNL     1     160.206 146.150 170.216  1.00  0.00     0.094 A 
ATOM      9  C   UNL     1     159.194 145.215 170.461  1.00  0.00     0.336 A 
ATOM     10  O   UNL     1     158.378 144.922 169.548  1.00  0.00    -0.246 OA
ATOM     11  O   UNL     1     159.088 144.634 171.652  1.00  0.00    -0.423 OA
ENDROOT
BRANCH   1  12
ATOM     12  O   UNL     1     162.524 145.719 175.875  1.00  0.00    -0.493 OA
ATOM     13  C   UNL     1     163.877 146.145 175.758  1.00  0.00     0.278 C 
ENDBRANCH   1  12
BRANCH   2  14
ATOM     14  O   UNL     1     160.431 143.875 176.162  1.00  0.00    -0.504 OA
ATOM     15  H   UNL     1     161.051 144.004 176.953  1.00  0.00     0.293 HD
ENDBRANCH   2  14
TORSDOF 2
ENDMDL
MODEL 7
REMARK VINA RESULT:    -1.507     22.116     24.106
REMARK INTER + INTRA:          -1.698
REMARK INTER:                  -1.640
REMARK INTRA:                  -0.058
REMARK UNBOUND:                -0.059
REMARK SMILES COc1cc2ccc(=O)oc2cc1O
REMARK SMILES IDX 3 1 13 2 12 3 11 4 5 5 4 6 6 7 7 8 8 9 9 10 10 11 2 12 1 13
REMARK SMILES IDX 14 14
REMARK H PARENT 14 15
REMARK Flexibility Score: inf
ROOT
ATOM      1  C   UNL     1     159.463 144.986 171.231  1.00  0.00     0.161 A 
ATOM      2  C   UNL     1     160.473 145.927 170.947  1.00  0.00     0.161 A 
ATOM      3  C   UNL     1     161.396 146.290 171.934  1.00  0.00     0.098 A 
ATOM      4  C   UNL     1     161.326 145.726 173.209  1.00  0.00     0.142 A 
ATOM      5  C   UNL     1     160.320 144.784 173.505  1.00  0.00     0.022 A 
ATOM      6  C   UNL     1     159.393 144.417 172.519  1.00  0.00     0.062 A 
ATOM      7  C   UNL     1     160.275 144.237 174.791  1.00  0.00     0.019 A 
ATOM      8  C   UNL     1     161.221 144.634 175.737  1.00  0.00     0.094 A 
ATOM      9  C   UNL     1     162.190 145.574 175.372  1.00  0.00     0.336 A 
ATOM     10  O   UNL     1     163.051 145.946 176.212  1.00  0.00    -0.246 OA
ATOM     11  O   UNL     1     162.210 146.078 174.141  1.00  0.00    -0.423 OA
ENDROOT
BRANCH   1  12
ATOM     12  O   UNL     1     158.553 144.645 170.218  1.00  0.00    -0.493 OA
ATOM     13  C   UNL     1     157.297 145.283 170.012  1.00  0.00     0.278 C 
ENDBRANCH   1  12
BRANCH   2  14
ATOM     14  O   UNL     1     160.575 146.513 169.686  1.00  0.00    -0.504 OA
ATOM     15  H   UNL     1     160.181 147.423 169.478  1.00  0.00     0.293 HD
ENDBRANCH   2  14
TORSDOF 2
ENDMDL
MODEL 8
REMARK VINA RESULT:    -1.155     20.931     22.633
REMARK INTER + INTRA:          -1.314
REMARK INTER:                  -1.267
REMARK INTRA:                  -0.047
REMARK UNBOUND:                -0.059
REMARK SMILES COc1cc2ccc(=O)oc2cc1O
REMARK SMILES IDX 3 1 13 2 12 3 11 4 5 5 4 6 6 7 7 8 8 9 9 10 10 11 2 12 1 13
REMARK SMILES IDX 14 14
REMARK H PARENT 14 15
REMARK Flexibility Score: inf
ROOT
ATOM      1  C   UNL     1     159.103 145.444 168.638  1.00  0.00     0.161 A 
ATOM      2  C   UNL     1     158.105 145.160 169.590  1.00  0.00     0.161 A 
ATOM      3  C   UNL     1     158.413 145.147 170.954  1.00  0.00     0.098 A 
ATOM      4  C   UNL     1     159.714 145.416 171.388  1.00  0.00     0.142 A 
ATOM      5  C   UNL     1     160.721 145.702 170.444  1.00  0.00     0.022 A 
ATOM      6  C   UNL     1     160.416 145.716 169.075  1.00  0.00     0.062 A 
ATOM      7  C   UNL     1     162.014 145.967 170.907  1.00  0.00     0.019 A 
ATOM      8  C   UNL     1     162.268 145.942 172.279  1.00  0.00     0.094 A 
ATOM      9  C   UNL     1     161.218 145.650 173.157  1.00  0.00     0.336 A 
ATOM     10  O   UNL     1     161.427 145.622 174.398  1.00  0.00    -0.246 OA
ATOM     11  O   UNL     1     159.998 145.402 172.688  1.00  0.00    -0.423 OA
ENDROOT
BRANCH   1  12
ATOM     12  O   UNL     1     158.759 145.448 167.277  1.00  0.00    -0.493 OA
ATOM     13  C   UNL     1     159.606 144.990 166.228  1.00  0.00     0.278 C 
ENDBRANCH   1  12
BRANCH   2  14
ATOM     14  O   UNL     1     156.795 144.886 169.197  1.00  0.00    -0.504 OA
ATOM     15  H   UNL     1     156.385 145.288 168.362  1.00  0.00     0.293 HD
ENDBRANCH   2  14
TORSDOF 2
ENDMDL
