MODEL 1
REMARK VINA RESULT:    -4.004      0.000      0.000
REMARK INTER + INTRA:          -9.290
REMARK INTER:                  -7.280
REMARK INTRA:                  -2.010
REMARK UNBOUND:                -2.010
REMARK SMILES CCCCCCCCCCCCCCCC(=O)[O-]
REMARK SMILES IDX 9 1 10 2 11 3 12 4 13 5 14 6 15 7 16 8 17 9 18 10 8 11 7 12
REMARK SMILES IDX 6 13 5 14 4 15 3 16 2 17 1 18
REMARK H PARENT
REMARK Flexibility Score: inf
ROOT
ATOM      1  C   UNL     1      26.529  -1.436   7.693  1.00  0.00     0.000 C 
ENDROOT
BRANCH   1   2
ATOM      2  C   UNL     1      26.352  -0.837   6.291  1.00  0.00     0.000 C 
BRANCH   2   3
ATOM      3  C   UNL     1      27.694  -0.340   5.733  1.00  0.00     0.000 C 
BRANCH   3   4
ATOM      4  C   UNL     1      27.672   1.154   5.363  1.00  0.00     0.000 C 
BRANCH   4   5
ATOM      5  C   UNL     1      27.875   2.122   6.546  1.00  0.00     0.000 C 
BRANCH   5   6
ATOM      6  C   UNL     1      26.579   2.612   7.222  1.00  0.00     0.006 C 
BRANCH   6   7
ATOM      7  C   UNL     1      26.430   2.186   8.691  1.00  0.00     0.053 C 
BRANCH   7   8
ATOM      8  C   UNL     1      25.050   1.689   8.993  1.00  0.00     0.041 C 
ATOM      9  O   UNL     1      24.072   2.071   8.298  1.00  0.00    -0.550 OA
ATOM     10  O   UNL     1      24.838   0.832  10.065  1.00  0.00    -0.550 OA
ENDBRANCH   7   8
ENDBRANCH   6   7
ENDBRANCH   5   6
ENDBRANCH   4   5
ENDBRANCH   3   4
ENDBRANCH   2   3
ENDBRANCH   1   2
BRANCH   1  11
ATOM     11  C   UNL     1      27.949  -1.236   8.254  1.00  0.00     0.000 C 
BRANCH  11  12
ATOM     12  C   UNL     1      28.702  -2.534   8.609  1.00  0.00    -0.000 C 
BRANCH  12  13
ATOM     13  C   UNL     1      29.067  -3.433   7.413  1.00  0.00    -0.000 C 
BRANCH  13  14
ATOM     14  C   UNL     1      28.422  -4.826   7.493  1.00  0.00    -0.000 C 
BRANCH  14  15
ATOM     15  C   UNL     1      27.937  -5.337   6.126  1.00  0.00    -0.000 C 
BRANCH  15  16
ATOM     16  C   UNL     1      27.039  -4.333   5.372  1.00  0.00    -0.000 C 
BRANCH  16  17
ATOM     17  C   UNL     1      27.630  -3.939   4.010  1.00  0.00    -0.003 C 
ATOM     18  C   UNL     1      27.244  -4.946   2.929  1.00  0.00     0.004 C 
ENDBRANCH  16  17
ENDBRANCH  15  16
ENDBRANCH  14  15
ENDBRANCH  13  14
ENDBRANCH  12  13
ENDBRANCH  11  12
ENDBRANCH   1  11
TORSDOF 14
ENDMDL
MODEL 2
REMARK VINA RESULT:    -3.879      3.387      6.234
REMARK INTER + INTRA:          -9.063
REMARK INTER:                  -6.814
REMARK INTRA:                  -2.249
REMARK UNBOUND:                -2.010
REMARK SMILES CCCCCCCCCCCCCCCC(=O)[O-]
REMARK SMILES IDX 9 1 10 2 11 3 12 4 13 5 14 6 15 7 16 8 17 9 18 10 8 11 7 12
REMARK SMILES IDX 6 13 5 14 4 15 3 16 2 17 1 18
REMARK H PARENT
REMARK Flexibility Score: inf
ROOT
ATOM      1  C   UNL     1      28.800  -0.283   9.070  1.00  0.00     0.000 C 
ENDROOT
BRANCH   1   2
ATOM      2  C   UNL     1      28.731  -1.235   7.867  1.00  0.00     0.000 C 
BRANCH   2   3
ATOM      3  C   UNL     1      28.337  -2.651   8.311  1.00  0.00     0.000 C 
BRANCH   3   4
ATOM      4  C   UNL     1      27.923  -3.553   7.135  1.00  0.00     0.000 C 
BRANCH   4   5
ATOM      5  C   UNL     1      27.454  -2.803   5.872  1.00  0.00     0.000 C 
BRANCH   5   6
ATOM      6  C   UNL     1      27.966  -3.383   4.538  1.00  0.00     0.006 C 
BRANCH   6   7
ATOM      7  C   UNL     1      27.580  -4.849   4.293  1.00  0.00     0.053 C 
BRANCH   7   8
ATOM      8  C   UNL     1      26.564  -4.986   3.201  1.00  0.00     0.041 C 
ATOM      9  O   UNL     1      25.340  -4.838   3.452  1.00  0.00    -0.550 OA
ATOM     10  O   UNL     1      26.966  -5.315   1.912  1.00  0.00    -0.550 OA
ENDBRANCH   7   8
ENDBRANCH   6   7
ENDBRANCH   5   6
ENDBRANCH   4   5
ENDBRANCH   3   4
ENDBRANCH   2   3
ENDBRANCH   1   2
BRANCH   1  11
ATOM     11  C   UNL     1      27.597  -0.429  10.019  1.00  0.00     0.000 C 
BRANCH  11  12
ATOM     12  C   UNL     1      26.387   0.468   9.686  1.00  0.00    -0.000 C 
BRANCH  12  13
ATOM     13  C   UNL     1      25.151  -0.269   9.137  1.00  0.00    -0.000 C 
BRANCH  13  14
ATOM     14  C   UNL     1      25.128  -0.336   7.601  1.00  0.00    -0.000 C 
BRANCH  14  15
ATOM     15  C   UNL     1      25.780   0.892   6.941  1.00  0.00    -0.000 C 
BRANCH  15  16
ATOM     16  C   UNL     1      26.411   0.594   5.565  1.00  0.00    -0.000 C 
BRANCH  16  17
ATOM     17  C   UNL     1      27.717   1.373   5.347  1.00  0.00    -0.003 C 
ATOM     18  C   UNL     1      28.050   2.241   6.558  1.00  0.00     0.004 C 
ENDBRANCH  16  17
ENDBRANCH  15  16
ENDBRANCH  14  15
ENDBRANCH  13  14
ENDBRANCH  12  13
ENDBRANCH  11  12
ENDBRANCH   1  11
TORSDOF 14
ENDMDL
MODEL 3
REMARK VINA RESULT:    -3.875      2.282      3.308
REMARK INTER + INTRA:          -9.057
REMARK INTER:                  -6.837
REMARK INTRA:                  -2.220
REMARK UNBOUND:                -2.010
REMARK SMILES CCCCCCCCCCCCCCCC(=O)[O-]
REMARK SMILES IDX 9 1 10 2 11 3 12 4 13 5 14 6 15 7 16 8 17 9 18 10 8 11 7 12
REMARK SMILES IDX 6 13 5 14 4 15 3 16 2 17 1 18
REMARK H PARENT
REMARK Flexibility Score: inf
ROOT
ATOM      1  C   UNL     1      27.007  -0.040  10.526  1.00  0.00     0.000 C 
ENDROOT
BRANCH   1   2
ATOM      2  C   UNL     1      25.933  -1.096  10.824  1.00  0.00     0.000 C 
BRANCH   2   3
ATOM      3  C   UNL     1      25.175  -1.482   9.546  1.00  0.00     0.000 C 
BRANCH   3   4
ATOM      4  C   UNL     1      24.475  -0.284   8.880  1.00  0.00     0.000 C 
BRANCH   4   5
ATOM      5  C   UNL     1      25.113   0.194   7.560  1.00  0.00     0.000 C 
BRANCH   5   6
ATOM      6  C   UNL     1      25.426   1.702   7.491  1.00  0.00     0.006 C 
BRANCH   6   7
ATOM      7  C   UNL     1      26.816   2.037   6.932  1.00  0.00     0.053 C 
BRANCH   7   8
ATOM      8  C   UNL     1      26.976   1.580   5.515  1.00  0.00     0.041 C 
ATOM      9  O   UNL     1      26.087   1.837   4.662  1.00  0.00    -0.550 OA
ATOM     10  O   UNL     1      28.090   0.837   5.144  1.00  0.00    -0.550 OA
ENDBRANCH   7   8
ENDBRANCH   6   7
ENDBRANCH   5   6
ENDBRANCH   4   5
ENDBRANCH   3   4
ENDBRANCH   2   3
ENDBRANCH   1   2
BRANCH   1  11
ATOM     11  C   UNL     1      28.395  -0.654  10.271  1.00  0.00     0.000 C 
BRANCH  11  12
ATOM     12  C   UNL     1      28.955  -0.439   8.850  1.00  0.00    -0.000 C 
BRANCH  12  13
ATOM     13  C   UNL     1      28.451  -1.431   7.785  1.00  0.00    -0.000 C 
BRANCH  13  14
ATOM     14  C   UNL     1      28.744  -2.897   8.148  1.00  0.00    -0.000 C 
BRANCH  14  15
ATOM     15  C   UNL     1      27.786  -3.884   7.457  1.00  0.00    -0.000 C 
BRANCH  15  16
ATOM     16  C   UNL     1      26.544  -3.210   6.837  1.00  0.00    -0.000 C 
BRANCH  16  17
ATOM     17  C   UNL     1      26.329  -3.630   5.375  1.00  0.00    -0.003 C 
ATOM     18  C   UNL     1      27.645  -4.040   4.719  1.00  0.00     0.004 C 
ENDBRANCH  16  17
ENDBRANCH  15  16
ENDBRANCH  14  15
ENDBRANCH  13  14
ENDBRANCH  12  13
ENDBRANCH  11  12
ENDBRANCH   1  11
TORSDOF 14
ENDMDL
MODEL 4
REMARK VINA RESULT:    -3.843     11.634     13.743
REMARK INTER + INTRA:          -8.998
REMARK INTER:                  -6.517
REMARK INTRA:                  -2.481
REMARK UNBOUND:                -2.010
REMARK SMILES CCCCCCCCCCCCCCCC(=O)[O-]
REMARK SMILES IDX 9 1 10 2 11 3 12 4 13 5 14 6 15 7 16 8 17 9 18 10 8 11 7 12
REMARK SMILES IDX 6 13 5 14 4 15 3 16 2 17 1 18
REMARK H PARENT
REMARK Flexibility Score: inf
ROOT
ATOM      1  C   UNL     1      25.412  -2.535  17.872  1.00  0.00     0.000 C 
ENDROOT
BRANCH   1   2
ATOM      2  C   UNL     1      25.291  -3.957  17.305  1.00  0.00     0.000 C 
BRANCH   2   3
ATOM      3  C   UNL     1      25.127  -4.985  18.433  1.00  0.00     0.000 C 
BRANCH   3   4
ATOM      4  C   UNL     1      24.363  -6.245  17.989  1.00  0.00     0.000 C 
BRANCH   4   5
ATOM      5  C   UNL     1      23.511  -6.075  16.715  1.00  0.00     0.000 C 
BRANCH   5   6
ATOM      6  C   UNL     1      23.170  -7.385  15.975  1.00  0.00     0.006 C 
BRANCH   6   7
ATOM      7  C   UNL     1      22.746  -8.541  16.893  1.00  0.00     0.053 C 
BRANCH   7   8
ATOM      8  C   UNL     1      23.655  -9.724  16.762  1.00  0.00     0.041 C 
ATOM      9  O   UNL     1      24.884  -9.608  17.004  1.00  0.00    -0.550 OA
ATOM     10  O   UNL     1      23.150 -10.947  16.338  1.00  0.00    -0.550 OA
ENDBRANCH   7   8
ENDBRANCH   6   7
ENDBRANCH   5   6
ENDBRANCH   4   5
ENDBRANCH   3   4
ENDBRANCH   2   3
ENDBRANCH   1   2
BRANCH   1  11
ATOM     11  C   UNL     1      24.048  -1.847  18.058  1.00  0.00     0.000 C 
BRANCH  11  12
ATOM     12  C   UNL     1      22.942  -2.311  17.089  1.00  0.00    -0.000 C 
BRANCH  12  13
ATOM     13  C   UNL     1      21.745  -3.024  17.745  1.00  0.00    -0.000 C 
BRANCH  13  14
ATOM     14  C   UNL     1      21.825  -3.036  19.280  1.00  0.00    -0.000 C 
BRANCH  14  15
ATOM     15  C   UNL     1      21.737  -4.454  19.870  1.00  0.00    -0.000 C 
BRANCH  15  16
ATOM     16  C   UNL     1      20.360  -5.123  19.674  1.00  0.00    -0.000 C 
BRANCH  16  17
ATOM     17  C   UNL     1      20.453  -6.401  18.827  1.00  0.00    -0.003 C 
ATOM     18  C   UNL     1      19.790  -6.210  17.466  1.00  0.00     0.004 C 
ENDBRANCH  16  17
ENDBRANCH  15  16
ENDBRANCH  14  15
ENDBRANCH  13  14
ENDBRANCH  12  13
ENDBRANCH  11  12
ENDBRANCH   1  11
TORSDOF 14
ENDMDL
MODEL 5
REMARK VINA RESULT:    -3.796      2.510      5.674
REMARK INTER + INTRA:          -8.912
REMARK INTER:                  -7.000
REMARK INTRA:                  -1.912
REMARK UNBOUND:                -2.010
REMARK SMILES CCCCCCCCCCCCCCCC(=O)[O-]
REMARK SMILES IDX 9 1 10 2 11 3 12 4 13 5 14 6 15 7 16 8 17 9 18 10 8 11 7 12
REMARK SMILES IDX 6 13 5 14 4 15 3 16 2 17 1 18
REMARK H PARENT
REMARK Flexibility Score: inf
ROOT
ATOM      1  C   UNL     1      25.370  -0.283  11.170  1.00  0.00     0.000 C 
ENDROOT
BRANCH   1   2
ATOM      2  C   UNL     1      26.530  -1.091  10.569  1.00  0.00     0.000 C 
BRANCH   2   3
ATOM      3  C   UNL     1      27.840  -0.292  10.623  1.00  0.00     0.000 C 
BRANCH   3   4
ATOM      4  C   UNL     1      29.038  -1.068  10.047  1.00  0.00     0.000 C 
BRANCH   4   5
ATOM      5  C   UNL     1      28.982  -1.319   8.527  1.00  0.00     0.000 C 
BRANCH   5   6
ATOM      6  C   UNL     1      28.999  -2.803   8.107  1.00  0.00     0.006 C 
BRANCH   6   7
ATOM      7  C   UNL     1      28.257  -3.100   6.796  1.00  0.00     0.053 C 
BRANCH   7   8
ATOM      8  C   UNL     1      26.771  -3.002   6.957  1.00  0.00     0.041 C 
ATOM      9  O   UNL     1      26.079  -2.399   6.096  1.00  0.00    -0.550 OA
ATOM     10  O   UNL     1      26.155  -3.546   8.077  1.00  0.00    -0.550 OA
ENDBRANCH   7   8
ENDBRANCH   6   7
ENDBRANCH   5   6
ENDBRANCH   4   5
ENDBRANCH   3   4
ENDBRANCH   2   3
ENDBRANCH   1   2
BRANCH   1  11
ATOM     11  C   UNL     1      24.299   0.090  10.129  1.00  0.00     0.000 C 
BRANCH  11  12
ATOM     12  C   UNL     1      24.606  -0.355   8.684  1.00  0.00    -0.000 C 
BRANCH  12  13
ATOM     13  C   UNL     1      24.872   0.786   7.685  1.00  0.00    -0.000 C 
BRANCH  13  14
ATOM     14  C   UNL     1      25.460   2.040   8.352  1.00  0.00    -0.000 C 
BRANCH  14  15
ATOM     15  C   UNL     1      26.696   2.583   7.614  1.00  0.00    -0.000 C 
BRANCH  15  16
ATOM     16  C   UNL     1      27.615   1.480   7.050  1.00  0.00    -0.000 C 
BRANCH  16  17
ATOM     17  C   UNL     1      27.925   1.691   5.560  1.00  0.00    -0.003 C 
ATOM     18  C   UNL     1      26.667   2.076   4.784  1.00  0.00     0.004 C 
ENDBRANCH  16  17
ENDBRANCH  15  16
ENDBRANCH  14  15
ENDBRANCH  13  14
ENDBRANCH  12  13
ENDBRANCH  11  12
ENDBRANCH   1  11
TORSDOF 14
ENDMDL
MODEL 6
REMARK VINA RESULT:    -3.730      3.167      5.925
REMARK INTER + INTRA:          -8.792
REMARK INTER:                  -6.875
REMARK INTRA:                  -1.916
REMARK UNBOUND:                -2.010
REMARK SMILES CCCCCCCCCCCCCCCC(=O)[O-]
REMARK SMILES IDX 9 1 10 2 11 3 12 4 13 5 14 6 15 7 16 8 17 9 18 10 8 11 7 12
REMARK SMILES IDX 6 13 5 14 4 15 3 16 2 17 1 18
REMARK H PARENT
REMARK Flexibility Score: inf
ROOT
ATOM      1  C   UNL     1      26.709   2.516   6.614  1.00  0.00     0.000 C 
ENDROOT
BRANCH   1   2
ATOM      2  C   UNL     1      27.974   1.679   6.375  1.00  0.00     0.000 C 
BRANCH   2   3
ATOM      3  C   UNL     1      27.658   0.437   5.528  1.00  0.00     0.000 C 
BRANCH   3   4
ATOM      4  C   UNL     1      27.363  -0.809   6.382  1.00  0.00     0.000 C 
BRANCH   4   5
ATOM      5  C   UNL     1      28.115  -0.871   7.726  1.00  0.00     0.000 C 
BRANCH   5   6
ATOM      6  C   UNL     1      28.121  -2.254   8.410  1.00  0.00     0.006 C 
BRANCH   6   7
ATOM      7  C   UNL     1      29.016  -3.297   7.725  1.00  0.00     0.053 C 
BRANCH   7   8
ATOM      8  C   UNL     1      28.218  -4.407   7.114  1.00  0.00     0.041 C 
ATOM      9  O   UNL     1      27.879  -4.350   5.903  1.00  0.00    -0.550 OA
ATOM     10  O   UNL     1      27.816  -5.486   7.891  1.00  0.00    -0.550 OA
ENDBRANCH   7   8
ENDBRANCH   6   7
ENDBRANCH   5   6
ENDBRANCH   4   5
ENDBRANCH   3   4
ENDBRANCH   2   3
ENDBRANCH   1   2
BRANCH   1  11
ATOM     11  C   UNL     1      26.494   2.866   8.097  1.00  0.00     0.000 C 
BRANCH  11  12
ATOM     12  C   UNL     1      25.177   2.348   8.709  1.00  0.00    -0.000 C 
BRANCH  12  13
ATOM     13  C   UNL     1      25.181   0.865   9.125  1.00  0.00    -0.000 C 
BRANCH  13  14
ATOM     14  C   UNL     1      24.283  -0.009   8.233  1.00  0.00    -0.000 C 
BRANCH  14  15
ATOM     15  C   UNL     1      23.334   0.820   7.350  1.00  0.00    -0.000 C 
BRANCH  15  16
ATOM     16  C   UNL     1      23.324   0.381   5.870  1.00  0.00    -0.000 C 
BRANCH  16  17
ATOM     17  C   UNL     1      21.922  -0.037   5.401  1.00  0.00    -0.003 C 
ATOM     18  C   UNL     1      20.875   0.240   6.478  1.00  0.00     0.004 C 
ENDBRANCH  16  17
ENDBRANCH  15  16
ENDBRANCH  14  15
ENDBRANCH  13  14
ENDBRANCH  12  13
ENDBRANCH  11  12
ENDBRANCH   1  11
TORSDOF 14
ENDMDL
MODEL 7
REMARK VINA RESULT:    -3.727      3.699      7.080
REMARK INTER + INTRA:          -8.787
REMARK INTER:                  -6.922
REMARK INTRA:                  -1.865
REMARK UNBOUND:                -2.010
REMARK SMILES CCCCCCCCCCCCCCCC(=O)[O-]
REMARK SMILES IDX 9 1 10 2 11 3 12 4 13 5 14 6 15 7 16 8 17 9 18 10 8 11 7 12
REMARK SMILES IDX 6 13 5 14 4 15 3 16 2 17 1 18
REMARK H PARENT
REMARK Flexibility Score: inf
ROOT
ATOM      1  C   UNL     1      27.869  -0.705   6.427  1.00  0.00     0.000 C 
ENDROOT
BRANCH   1   2
ATOM      2  C   UNL     1      28.342  -0.298   7.830  1.00  0.00     0.000 C 
BRANCH   2   3
ATOM      3  C   UNL     1      28.749  -1.531   8.650  1.00  0.00     0.000 C 
BRANCH   3   4
ATOM      4  C   UNL     1      28.095  -2.829   8.144  1.00  0.00     0.000 C 
BRANCH   4   5
ATOM      5  C   UNL     1      29.044  -4.041   8.044  1.00  0.00     0.000 C 
BRANCH   5   6
ATOM      6  C   UNL     1      28.631  -5.113   7.015  1.00  0.00     0.006 C 
BRANCH   6   7
ATOM      7  C   UNL     1      27.680  -6.187   7.565  1.00  0.00     0.053 C 
BRANCH   7   8
ATOM      8  C   UNL     1      28.421  -7.374   8.097  1.00  0.00     0.041 C 
ATOM      9  O   UNL     1      28.722  -7.438   9.318  1.00  0.00    -0.550 OA
ATOM     10  O   UNL     1      28.812  -8.394   7.239  1.00  0.00    -0.550 OA
ENDBRANCH   7   8
ENDBRANCH   6   7
ENDBRANCH   5   6
ENDBRANCH   4   5
ENDBRANCH   3   4
ENDBRANCH   2   3
ENDBRANCH   1   2
BRANCH   1  11
ATOM     11  C   UNL     1      27.631   0.502   5.502  1.00  0.00     0.000 C 
BRANCH  11  12
ATOM     12  C   UNL     1      27.840   1.882   6.160  1.00  0.00    -0.000 C 
BRANCH  12  13
ATOM     13  C   UNL     1      26.551   2.625   6.558  1.00  0.00    -0.000 C 
BRANCH  13  14
ATOM     14  C   UNL     1      26.474   2.923   8.064  1.00  0.00    -0.000 C 
BRANCH  14  15
ATOM     15  C   UNL     1      25.546   1.953   8.816  1.00  0.00    -0.000 C 
BRANCH  15  16
ATOM     16  C   UNL     1      24.660   1.097   7.887  1.00  0.00    -0.000 C 
BRANCH  16  17
ATOM     17  C   UNL     1      24.674  -0.388   8.281  1.00  0.00    -0.003 C 
ATOM     18  C   UNL     1      25.087  -0.567   9.740  1.00  0.00     0.004 C 
ENDBRANCH  16  17
ENDBRANCH  15  16
ENDBRANCH  14  15
ENDBRANCH  13  14
ENDBRANCH  12  13
ENDBRANCH  11  12
ENDBRANCH   1  11
TORSDOF 14
ENDMDL
MODEL 8
REMARK VINA RESULT:    -3.723      3.244      6.116
REMARK INTER + INTRA:          -8.779
REMARK INTER:                  -6.641
REMARK INTRA:                  -2.139
REMARK UNBOUND:                -2.010
REMARK SMILES CCCCCCCCCCCCCCCC(=O)[O-]
REMARK SMILES IDX 9 1 10 2 11 3 12 4 13 5 14 6 15 7 16 8 17 9 18 10 8 11 7 12
REMARK SMILES IDX 6 13 5 14 4 15 3 16 2 17 1 18
REMARK H PARENT
REMARK Flexibility Score: inf
ROOT
ATOM      1  C   UNL     1      26.717  -0.980  10.796  1.00  0.00     0.000 C 
ENDROOT
BRANCH   1   2
ATOM      2  C   UNL     1      27.871  -0.086  10.320  1.00  0.00     0.000 C 
BRANCH   2   3
ATOM      3  C   UNL     1      28.922  -0.907   9.558  1.00  0.00     0.000 C 
BRANCH   3   4
ATOM      4  C   UNL     1      28.698  -0.899   8.035  1.00  0.00     0.000 C 
BRANCH   4   5
ATOM      5  C   UNL     1      27.982  -2.144   7.475  1.00  0.00     0.000 C 
BRANCH   5   6
ATOM      6  C   UNL     1      27.932  -2.234   5.936  1.00  0.00     0.006 C 
BRANCH   6   7
ATOM      7  C   UNL     1      26.868  -3.198   5.391  1.00  0.00     0.053 C 
BRANCH   7   8
ATOM      8  C   UNL     1      27.470  -4.286   4.556  1.00  0.00     0.041 C 
ATOM      9  O   UNL     1      27.522  -4.168   3.304  1.00  0.00    -0.550 OA
ATOM     10  O   UNL     1      27.941  -5.446   5.158  1.00  0.00    -0.550 OA
ENDBRANCH   7   8
ENDBRANCH   6   7
ENDBRANCH   5   6
ENDBRANCH   4   5
ENDBRANCH   3   4
ENDBRANCH   2   3
ENDBRANCH   1   2
BRANCH   1  11
ATOM     11  C   UNL     1      25.475  -0.887   9.892  1.00  0.00     0.000 C 
BRANCH  11  12
ATOM     12  C   UNL     1      24.546   0.311  10.176  1.00  0.00    -0.000 C 
BRANCH  12  13
ATOM     13  C   UNL     1      24.305   1.257   8.985  1.00  0.00    -0.000 C 
BRANCH  13  14
ATOM     14  C   UNL     1      25.395   2.332   8.844  1.00  0.00    -0.000 C 
BRANCH  14  15
ATOM     15  C   UNL     1      26.385   2.031   7.706  1.00  0.00    -0.000 C 
BRANCH  15  16
ATOM     16  C   UNL     1      25.815   1.094   6.620  1.00  0.00    -0.000 C 
BRANCH  16  17
ATOM     17  C   UNL     1      26.632   1.151   5.320  1.00  0.00    -0.003 C 
ATOM     18  C   UNL     1      28.002   1.780   5.557  1.00  0.00     0.004 C 
ENDBRANCH  16  17
ENDBRANCH  15  16
ENDBRANCH  14  15
ENDBRANCH  13  14
ENDBRANCH  12  13
ENDBRANCH  11  12
ENDBRANCH   1  11
TORSDOF 14
ENDMDL
MODEL 9
REMARK VINA RESULT:    -3.713      3.103      6.137
REMARK INTER + INTRA:          -8.762
REMARK INTER:                  -6.408
REMARK INTRA:                  -2.354
REMARK UNBOUND:                -2.010
REMARK SMILES CCCCCCCCCCCCCCCC(=O)[O-]
REMARK SMILES IDX 9 1 10 2 11 3 12 4 13 5 14 6 15 7 16 8 17 9 18 10 8 11 7 12
REMARK SMILES IDX 6 13 5 14 4 15 3 16 2 17 1 18
REMARK H PARENT
REMARK Flexibility Score: inf
ROOT
ATOM      1  C   UNL     1      27.679   0.734   5.499  1.00  0.00     0.000 C 
ENDROOT
BRANCH   1   2
ATOM      2  C   UNL     1      27.563  -0.647   6.159  1.00  0.00     0.000 C 
BRANCH   2   3
ATOM      3  C   UNL     1      28.164  -0.631   7.573  1.00  0.00     0.000 C 
BRANCH   3   4
ATOM      4  C   UNL     1      27.812  -1.889   8.386  1.00  0.00     0.000 C 
BRANCH   4   5
ATOM      5  C   UNL     1      28.104  -3.227   7.677  1.00  0.00     0.000 C 
BRANCH   5   6
ATOM      6  C   UNL     1      26.885  -4.153   7.497  1.00  0.00     0.006 C 
BRANCH   6   7
ATOM      7  C   UNL     1      26.336  -4.208   6.064  1.00  0.00     0.053 C 
BRANCH   7   8
ATOM      8  C   UNL     1      27.402  -4.544   5.067  1.00  0.00     0.041 C 
ATOM      9  O   UNL     1      27.763  -3.692   4.214  1.00  0.00    -0.550 OA
ATOM     10  O   UNL     1      27.972  -5.811   5.057  1.00  0.00    -0.550 OA
ENDBRANCH   7   8
ENDBRANCH   6   7
ENDBRANCH   5   6
ENDBRANCH   4   5
ENDBRANCH   3   4
ENDBRANCH   2   3
ENDBRANCH   1   2
BRANCH   1  11
ATOM     11  C   UNL     1      27.934   1.863   6.514  1.00  0.00     0.000 C 
BRANCH  11  12
ATOM     12  C   UNL     1      26.676   2.630   6.969  1.00  0.00    -0.000 C 
BRANCH  12  13
ATOM     13  C   UNL     1      26.362   2.549   8.475  1.00  0.00    -0.000 C 
BRANCH  13  14
ATOM     14  C   UNL     1      24.905   2.151   8.761  1.00  0.00    -0.000 C 
BRANCH  14  15
ATOM     15  C   UNL     1      24.402   1.027   7.839  1.00  0.00    -0.000 C 
BRANCH  15  16
ATOM     16  C   UNL     1      24.400  -0.365   8.504  1.00  0.00    -0.000 C 
BRANCH  16  17
ATOM     17  C   UNL     1      24.179  -1.493   7.483  1.00  0.00    -0.003 C 
ATOM     18  C   UNL     1      23.530  -2.709   8.138  1.00  0.00     0.004 C 
ENDBRANCH  16  17
ENDBRANCH  15  16
ENDBRANCH  14  15
ENDBRANCH  13  14
ENDBRANCH  12  13
ENDBRANCH  11  12
ENDBRANCH   1  11
TORSDOF 14
ENDMDL
