MODEL 1
REMARK VINA RESULT:    -4.340      0.000      0.000
REMARK INTER + INTRA:          -5.238
REMARK INTER:                  -4.975
REMARK INTRA:                  -0.263
REMARK UNBOUND:                -0.263
REMARK SMILES COc1ccc(C(C)=O)c(O)c1
REMARK SMILES IDX 6 1 10 2 12 3 3 4 4 5 5 6 7 7 8 8 9 9 11 10 2 12 1 13
REMARK H PARENT 11 11
REMARK Flexibility Score: inf
ROOT
ATOM      1  C   UNL     1      26.198 -38.851   0.444  1.00  0.00     0.059 A 
ATOM      2  C   UNL     1      26.682 -38.188  -0.710  1.00  0.00     0.130 A 
ATOM      3  C   UNL     1      26.980 -38.924  -1.863  1.00  0.00     0.093 A 
ATOM      4  C   UNL     1      26.773 -40.314  -1.903  1.00  0.00     0.122 A 
ATOM      5  C   UNL     1      26.266 -40.959  -0.773  1.00  0.00     0.047 A 
ATOM      6  C   UNL     1      25.982 -40.239   0.389  1.00  0.00     0.019 A 
ENDROOT
BRANCH   1   7
ATOM      7  C   UNL     1      25.948 -38.133   1.717  1.00  0.00     0.163 C 
ATOM      8  C   UNL     1      25.875 -38.870   3.018  1.00  0.00     0.093 C 
ATOM      9  O   UNL     1      25.875 -36.875   1.725  1.00  0.00    -0.294 OA
ENDBRANCH   1   7
BRANCH   2  10
ATOM     10  O   UNL     1      26.852 -36.802  -0.760  1.00  0.00    -0.507 OA
ATOM     11  H   UNL     1      26.160 -36.171  -1.144  1.00  0.00     0.293 HD
ENDBRANCH   2  10
BRANCH   4  12
ATOM     12  O   UNL     1      27.052 -41.085  -3.042  1.00  0.00    -0.497 OA
ATOM     13  C   UNL     1      26.137 -41.307  -4.109  1.00  0.00     0.278 C 
ENDBRANCH   4  12
TORSDOF 3
ENDMDL
MODEL 2
REMARK VINA RESULT:    -4.157     21.806     23.181
REMARK INTER + INTRA:          -5.028
REMARK INTER:                  -4.693
REMARK INTRA:                  -0.335
REMARK UNBOUND:                -0.263
REMARK SMILES COc1ccc(C(C)=O)c(O)c1
REMARK SMILES IDX 6 1 10 2 12 3 3 4 4 5 5 6 7 7 8 8 9 9 11 10 2 12 1 13
REMARK H PARENT 11 11
REMARK Flexibility Score: inf
ROOT
ATOM      1  C   UNL     1      44.800 -33.018  11.779  1.00  0.00     0.059 A 
ATOM      2  C   UNL     1      44.233 -32.761  10.507  1.00  0.00     0.130 A 
ATOM      3  C   UNL     1      44.331 -31.482   9.947  1.00  0.00     0.093 A 
ATOM      4  C   UNL     1      45.017 -30.452  10.618  1.00  0.00     0.122 A 
ATOM      5  C   UNL     1      45.600 -30.720  11.858  1.00  0.00     0.047 A 
ATOM      6  C   UNL     1      45.494 -31.986  12.435  1.00  0.00     0.019 A 
ENDROOT
BRANCH   1   7
ATOM      7  C   UNL     1      44.652 -34.330  12.455  1.00  0.00     0.163 C 
ATOM      8  C   UNL     1      45.816 -34.990  13.125  1.00  0.00     0.093 C 
ATOM      9  O   UNL     1      43.515 -34.866  12.544  1.00  0.00    -0.294 OA
ENDBRANCH   1   7
BRANCH   2  10
ATOM     10  O   UNL     1      43.594 -33.753   9.758  1.00  0.00    -0.507 OA
ATOM     11  H   UNL     1      42.615 -33.715   9.507  1.00  0.00     0.293 HD
ENDBRANCH   2  10
BRANCH   4  12
ATOM     12  O   UNL     1      45.142 -29.160  10.086  1.00  0.00    -0.497 OA
ATOM     13  C   UNL     1      45.457 -28.875   8.727  1.00  0.00     0.278 C 
ENDBRANCH   4  12
TORSDOF 3
ENDMDL
MODEL 3
REMARK VINA RESULT:    -3.986      1.592      5.032
REMARK INTER + INTRA:          -4.832
REMARK INTER:                  -4.491
REMARK INTRA:                  -0.341
REMARK UNBOUND:                -0.263
REMARK SMILES COc1ccc(C(C)=O)c(O)c1
REMARK SMILES IDX 6 1 10 2 12 3 3 4 4 5 5 6 7 7 8 8 9 9 11 10 2 12 1 13
REMARK H PARENT 11 11
REMARK Flexibility Score: inf
ROOT
ATOM      1  C   UNL     1      26.333 -39.929  -1.246  1.00  0.00     0.059 A 
ATOM      2  C   UNL     1      26.126 -40.866  -0.204  1.00  0.00     0.130 A 
ATOM      3  C   UNL     1      25.988 -40.420   1.116  1.00  0.00     0.093 A 
ATOM      4  C   UNL     1      26.017 -39.047   1.419  1.00  0.00     0.122 A 
ATOM      5  C   UNL     1      26.191 -38.125   0.384  1.00  0.00     0.047 A 
ATOM      6  C   UNL     1      26.349 -38.558  -0.933  1.00  0.00     0.019 A 
ENDROOT
BRANCH   1   7
ATOM      7  C   UNL     1      26.571 -40.351  -2.647  1.00  0.00     0.163 C 
ATOM      8  C   UNL     1      27.692 -39.768  -3.451  1.00  0.00     0.093 C 
ATOM      9  O   UNL     1      25.875 -41.272  -3.153  1.00  0.00    -0.294 OA
ENDBRANCH   1   7
BRANCH   2  10
ATOM     10  O   UNL     1      26.023 -42.239  -0.442  1.00  0.00    -0.507 OA
ATOM     11  H   UNL     1      25.403 -42.847   0.075  1.00  0.00     0.293 HD
ENDBRANCH   2  10
BRANCH   4  12
ATOM     12  O   UNL     1      25.875 -38.561   2.728  1.00  0.00    -0.497 OA
ATOM     13  C   UNL     1      25.947 -39.368   3.898  1.00  0.00     0.278 C 
ENDBRANCH   4  12
TORSDOF 3
ENDMDL
MODEL 4
REMARK VINA RESULT:    -3.944     21.401     22.610
REMARK INTER + INTRA:          -4.784
REMARK INTER:                  -4.540
REMARK INTRA:                  -0.243
REMARK UNBOUND:                -0.263
REMARK SMILES COc1ccc(C(C)=O)c(O)c1
REMARK SMILES IDX 6 1 10 2 12 3 3 4 4 5 5 6 7 7 8 8 9 9 11 10 2 12 1 13
REMARK H PARENT 11 11
REMARK Flexibility Score: inf
ROOT
ATOM      1  C   UNL     1      44.271 -33.023  11.940  1.00  0.00     0.059 A 
ATOM      2  C   UNL     1      43.753 -32.832  10.636  1.00  0.00     0.130 A 
ATOM      3  C   UNL     1      43.295 -31.568  10.247  1.00  0.00     0.093 A 
ATOM      4  C   UNL     1      43.373 -30.472  11.124  1.00  0.00     0.122 A 
ATOM      5  C   UNL     1      43.913 -30.659  12.399  1.00  0.00     0.047 A 
ATOM      6  C   UNL     1      44.356 -31.918  12.805  1.00  0.00     0.019 A 
ENDROOT
BRANCH   1   7
ATOM      7  C   UNL     1      44.690 -34.358  12.432  1.00  0.00     0.163 C 
ATOM      8  C   UNL     1      46.125 -34.652  12.740  1.00  0.00     0.093 C 
ATOM      9  O   UNL     1      43.822 -35.238  12.676  1.00  0.00    -0.294 OA
ENDBRANCH   1   7
BRANCH   2  10
ATOM     10  O   UNL     1      43.704 -33.862   9.692  1.00  0.00    -0.507 OA
ATOM     11  H   UNL     1      42.840 -34.259   9.347  1.00  0.00     0.293 HD
ENDBRANCH   2  10
BRANCH   4  12
ATOM     12  O   UNL     1      42.931 -29.189  10.769  1.00  0.00    -0.497 OA
ATOM     13  C   UNL     1      42.132 -28.900   9.626  1.00  0.00     0.278 C 
ENDBRANCH   4  12
TORSDOF 3
ENDMDL
MODEL 5
REMARK VINA RESULT:    -3.796     11.607     13.407
REMARK INTER + INTRA:          -4.614
REMARK INTER:                  -4.366
REMARK INTRA:                  -0.248
REMARK UNBOUND:                -0.263
REMARK SMILES COc1ccc(C(C)=O)c(O)c1
REMARK SMILES IDX 6 1 10 2 12 3 3 4 4 5 5 6 7 7 8 8 9 9 11 10 2 12 1 13
REMARK H PARENT 11 11
REMARK Flexibility Score: inf
ROOT
ATOM      1  C   UNL     1      27.802 -36.750  11.768  1.00  0.00     0.059 A 
ATOM      2  C   UNL     1      28.481 -36.316  10.603  1.00  0.00     0.130 A 
ATOM      3  C   UNL     1      29.569 -35.442  10.716  1.00  0.00     0.093 A 
ATOM      4  C   UNL     1      30.021 -35.015  11.978  1.00  0.00     0.122 A 
ATOM      5  C   UNL     1      29.367 -35.471  13.125  1.00  0.00     0.047 A 
ATOM      6  C   UNL     1      28.269 -36.327  13.024  1.00  0.00     0.019 A 
ENDROOT
BRANCH   1   7
ATOM      7  C   UNL     1      26.592 -37.605  11.700  1.00  0.00     0.163 C 
ATOM      8  C   UNL     1      25.911 -38.081  12.945  1.00  0.00     0.093 C 
ATOM      9  O   UNL     1      26.075 -37.875  10.583  1.00  0.00    -0.294 OA
ENDBRANCH   1   7
BRANCH   2  10
ATOM     10  O   UNL     1      28.125 -36.750   9.324  1.00  0.00    -0.507 OA
ATOM     11  H   UNL     1      28.764 -37.228   8.702  1.00  0.00     0.293 HD
ENDBRANCH   2  10
BRANCH   4  12
ATOM     12  O   UNL     1      31.112 -34.146  12.133  1.00  0.00    -0.497 OA
ATOM     13  C   UNL     1      31.166 -33.082  13.077  1.00  0.00     0.278 C 
ENDBRANCH   4  12
TORSDOF 3
ENDMDL
MODEL 6
REMARK VINA RESULT:    -3.667     21.039     22.544
REMARK INTER + INTRA:          -4.465
REMARK INTER:                  -4.291
REMARK INTRA:                  -0.174
REMARK UNBOUND:                -0.263
REMARK SMILES COc1ccc(C(C)=O)c(O)c1
REMARK SMILES IDX 6 1 10 2 12 3 3 4 4 5 5 6 7 7 8 8 9 9 11 10 2 12 1 13
REMARK H PARENT 11 11
REMARK Flexibility Score: inf
ROOT
ATOM      1  C   UNL     1      44.311 -32.830  11.946  1.00  0.00     0.059 A 
ATOM      2  C   UNL     1      43.749 -32.755  10.648  1.00  0.00     0.130 A 
ATOM      3  C   UNL     1      43.139 -31.569  10.221  1.00  0.00     0.093 A 
ATOM      4  C   UNL     1      43.106 -30.436  11.054  1.00  0.00     0.122 A 
ATOM      5  C   UNL     1      43.689 -30.506  12.321  1.00  0.00     0.047 A 
ATOM      6  C   UNL     1      44.284 -31.688  12.765  1.00  0.00     0.019 A 
ENDROOT
BRANCH   1   7
ATOM      7  C   UNL     1      44.892 -34.086  12.479  1.00  0.00     0.163 C 
ATOM      8  C   UNL     1      44.029 -35.125  13.124  1.00  0.00     0.093 C 
ATOM      9  O   UNL     1      46.119 -34.328  12.319  1.00  0.00    -0.294 OA
ENDBRANCH   1   7
BRANCH   2  10
ATOM     10  O   UNL     1      43.802 -33.821   9.747  1.00  0.00    -0.507 OA
ATOM     11  H   UNL     1      44.104 -33.722   8.786  1.00  0.00     0.293 HD
ENDBRANCH   2  10
BRANCH   4  12
ATOM     12  O   UNL     1      42.511 -29.228  10.660  1.00  0.00    -0.497 OA
ATOM     13  C   UNL     1      41.484 -29.119   9.680  1.00  0.00     0.278 C 
ENDBRANCH   4  12
TORSDOF 3
ENDMDL
MODEL 7
REMARK VINA RESULT:    -3.592     21.317     22.761
REMARK INTER + INTRA:          -4.380
REMARK INTER:                  -4.053
REMARK INTRA:                  -0.327
REMARK UNBOUND:                -0.263
REMARK SMILES COc1ccc(C(C)=O)c(O)c1
REMARK SMILES IDX 6 1 10 2 12 3 3 4 4 5 5 6 7 7 8 8 9 9 11 10 2 12 1 13
REMARK H PARENT 11 11
REMARK Flexibility Score: inf
ROOT
ATOM      1  C   UNL     1      43.700 -30.861  10.571  1.00  0.00     0.059 A 
ATOM      2  C   UNL     1      43.245 -32.174  10.841  1.00  0.00     0.130 A 
ATOM      3  C   UNL     1      44.049 -33.052  11.576  1.00  0.00     0.093 A 
ATOM      4  C   UNL     1      45.294 -32.636  12.083  1.00  0.00     0.122 A 
ATOM      5  C   UNL     1      45.725 -31.330  11.839  1.00  0.00     0.047 A 
ATOM      6  C   UNL     1      44.940 -30.451  11.092  1.00  0.00     0.019 A 
ENDROOT
BRANCH   1   7
ATOM      7  C   UNL     1      42.927 -29.919   9.725  1.00  0.00     0.163 C 
ATOM      8  C   UNL     1      43.615 -28.992   8.772  1.00  0.00     0.093 C 
ATOM      9  O   UNL     1      41.668 -29.947   9.743  1.00  0.00    -0.294 OA
ENDBRANCH   1   7
BRANCH   2  10
ATOM     10  O   UNL     1      41.993 -32.633  10.423  1.00  0.00    -0.507 OA
ATOM     11  H   UNL     1      41.683 -32.604   9.460  1.00  0.00     0.293 HD
ENDBRANCH   2  10
BRANCH   4  12
ATOM     12  O   UNL     1      46.125 -33.484  12.830  1.00  0.00    -0.497 OA
ATOM     13  C   UNL     1      46.057 -34.906  12.803  1.00  0.00     0.278 C 
ENDBRANCH   4  12
TORSDOF 3
ENDMDL
MODEL 8
REMARK VINA RESULT:    -1.502      1.281      4.479
REMARK INTER + INTRA:          -1.984
REMARK INTER:                  -1.642
REMARK INTRA:                  -0.342
REMARK UNBOUND:                -0.263
REMARK SMILES COc1ccc(C(C)=O)c(O)c1
REMARK SMILES IDX 6 1 10 2 12 3 3 4 4 5 5 6 7 7 8 8 9 9 11 10 2 12 1 13
REMARK H PARENT 11 11
REMARK Flexibility Score: inf
ROOT
ATOM      1  C   UNL     1      26.561 -39.532  -1.029  1.00  0.00     0.059 A 
ATOM      2  C   UNL     1      26.841 -38.234  -0.537  1.00  0.00     0.130 A 
ATOM      3  C   UNL     1      26.603 -37.934   0.809  1.00  0.00     0.093 A 
ATOM      4  C   UNL     1      26.120 -38.917   1.692  1.00  0.00     0.122 A 
ATOM      5  C   UNL     1      25.875 -40.204   1.208  1.00  0.00     0.047 A 
ATOM      6  C   UNL     1      26.091 -40.511  -0.136  1.00  0.00     0.019 A 
ENDROOT
BRANCH   1   7
ATOM      7  C   UNL     1      26.714 -39.879  -2.463  1.00  0.00     0.163 C 
ATOM      8  C   UNL     1      27.379 -41.152  -2.884  1.00  0.00     0.093 C 
ATOM      9  O   UNL     1      26.207 -39.137  -3.346  1.00  0.00    -0.294 OA
ENDBRANCH   1   7
BRANCH   2  10
ATOM     10  O   UNL     1      27.381 -37.228  -1.343  1.00  0.00    -0.507 OA
ATOM     11  H   UNL     1      27.914 -37.415  -2.182  1.00  0.00     0.293 HD
ENDBRANCH   2  10
BRANCH   4  12
ATOM     12  O   UNL     1      25.876 -38.657   3.049  1.00  0.00    -0.497 OA
ATOM     13  C   UNL     1      25.900 -39.644   4.075  1.00  0.00     0.278 C 
ENDBRANCH   4  12
TORSDOF 3
ENDMDL
