MODEL 1
REMARK VINA RESULT:    -3.781      0.000      0.000
REMARK INTER + INTRA:          -8.110
REMARK INTER:                  -7.097
REMARK INTRA:                  -1.013
REMARK UNBOUND:                -1.013
REMARK SMILES O=C([O-])CCCCCCCCCCCCCCC(=O)[O-]
REMARK SMILES IDX 10 1 9 2 8 3 7 4 6 5 5 6 4 7 2 8 1 9 3 10 11 11 12 12 13 13
REMARK SMILES IDX 14 14 15 15 16 16 17 17 18 18 19 19 20 20
REMARK H PARENT
REMARK Flexibility Score: inf
ROOT
ATOM      1  C   UNL     1      13.031   4.634  -1.588  1.00  0.00     0.000 C 
ENDROOT
BRANCH   1   2
ATOM      2  C   UNL     1      11.934   5.102  -0.623  1.00  0.00     0.000 C 
BRANCH   2   3
ATOM      3  C   UNL     1      10.545   4.953  -1.254  1.00  0.00     0.000 C 
BRANCH   3   4
ATOM      4  C   UNL     1      10.101   6.260  -1.922  1.00  0.00     0.000 C 
BRANCH   4   5
ATOM      5  C   UNL     1      10.646   7.478  -1.162  1.00  0.00     0.000 C 
BRANCH   5   6
ATOM      6  C   UNL     1      11.236   8.550  -2.095  1.00  0.00     0.006 C 
BRANCH   6   7
ATOM      7  C   UNL     1      12.700   8.307  -2.492  1.00  0.00     0.053 C 
BRANCH   7   8
ATOM      8  C   UNL     1      13.533   9.544  -2.343  1.00  0.00     0.041 C 
ATOM      9  O   UNL     1      12.985  10.678  -2.323  1.00  0.00    -0.550 OA
ATOM     10  O   UNL     1      14.910   9.442  -2.195  1.00  0.00    -0.550 OA
ENDBRANCH   7   8
ENDBRANCH   6   7
ENDBRANCH   5   6
ENDBRANCH   4   5
ENDBRANCH   3   4
ENDBRANCH   2   3
ENDBRANCH   1   2
BRANCH   1  11
ATOM     11  C   UNL     1      12.451   3.740  -2.689  1.00  0.00     0.000 C 
BRANCH  11  12
ATOM     12  C   UNL     1      13.421   2.608  -3.047  1.00  0.00     0.000 C 
BRANCH  12  13
ATOM     13  C   UNL     1      14.704   2.697  -2.211  1.00  0.00     0.000 C 
BRANCH  13  14
ATOM     14  C   UNL     1      15.522   1.404  -2.319  1.00  0.00     0.000 C 
BRANCH  14  15
ATOM     15  C   UNL     1      16.987   1.646  -1.927  1.00  0.00     0.000 C 
BRANCH  15  16
ATOM     16  C   UNL     1      17.945   1.550  -3.124  1.00  0.00     0.006 C 
BRANCH  16  17
ATOM     17  C   UNL     1      19.041   0.497  -2.920  1.00  0.00     0.053 C 
BRANCH  17  18
ATOM     18  C   UNL     1      20.253   1.119  -2.301  1.00  0.00     0.041 C 
ATOM     19  O   UNL     1      20.526   2.329  -2.517  1.00  0.00    -0.550 OA
ATOM     20  O   UNL     1      21.110   0.349  -1.524  1.00  0.00    -0.550 OA
ENDBRANCH  17  18
ENDBRANCH  16  17
ENDBRANCH  15  16
ENDBRANCH  14  15
ENDBRANCH  13  14
ENDBRANCH  12  13
ENDBRANCH  11  12
ENDBRANCH   1  11
TORSDOF 15
ENDMDL
MODEL 2
REMARK VINA RESULT:    -3.735      1.731      3.517
REMARK INTER + INTRA:          -8.023
REMARK INTER:                  -6.654
REMARK INTRA:                  -1.369
REMARK UNBOUND:                -1.013
REMARK SMILES O=C([O-])CCCCCCCCCCCCCCC(=O)[O-]
REMARK SMILES IDX 10 1 9 2 8 3 7 4 6 5 5 6 4 7 2 8 1 9 3 10 11 11 12 12 13 13
REMARK SMILES IDX 14 14 15 15 16 16 17 17 18 18 19 19 20 20
REMARK H PARENT
REMARK Flexibility Score: inf
ROOT
ATOM      1  C   UNL     1       9.981   6.811  -1.684  1.00  0.00     0.000 C 
ENDROOT
BRANCH   1   2
ATOM      2  C   UNL     1       8.899   7.791  -1.214  1.00  0.00     0.000 C 
BRANCH   2   3
ATOM      3  C   UNL     1       8.666   8.893  -2.253  1.00  0.00     0.000 C 
BRANCH   3   4
ATOM      4  C   UNL     1       9.995   9.398  -2.828  1.00  0.00     0.000 C 
BRANCH   4   5
ATOM      5  C   UNL     1      10.612  10.474  -1.923  1.00  0.00     0.000 C 
BRANCH   5   6
ATOM      6  C   UNL     1      11.945  10.031  -1.292  1.00  0.00     0.006 C 
BRANCH   6   7
ATOM      7  C   UNL     1      12.893   9.305  -2.259  1.00  0.00     0.053 C 
BRANCH   7   8
ATOM      8  C   UNL     1      14.148  10.087  -2.504  1.00  0.00     0.041 C 
ATOM      9  O   UNL     1      15.274   9.547  -2.335  1.00  0.00    -0.550 OA
ATOM     10  O   UNL     1      14.074  11.401  -2.948  1.00  0.00    -0.550 OA
ENDBRANCH   7   8
ENDBRANCH   6   7
ENDBRANCH   5   6
ENDBRANCH   4   5
ENDBRANCH   3   4
ENDBRANCH   2   3
ENDBRANCH   1   2
BRANCH   1  11
ATOM     11  C   UNL     1      10.931   6.449  -0.538  1.00  0.00     0.000 C 
BRANCH  11  12
ATOM     12  C   UNL     1      11.502   5.037  -0.721  1.00  0.00     0.000 C 
BRANCH  12  13
ATOM     13  C   UNL     1      11.069   4.438  -2.065  1.00  0.00     0.000 C 
BRANCH  13  14
ATOM     14  C   UNL     1      12.216   3.652  -2.712  1.00  0.00     0.000 C 
BRANCH  14  15
ATOM     15  C   UNL     1      13.529   3.863  -1.942  1.00  0.00     0.000 C 
BRANCH  15  16
ATOM     16  C   UNL     1      14.719   3.137  -2.590  1.00  0.00     0.006 C 
BRANCH  16  17
ATOM     17  C   UNL     1      15.487   2.259  -1.595  1.00  0.00     0.053 C 
BRANCH  17  18
ATOM     18  C   UNL     1      16.522   1.447  -2.308  1.00  0.00     0.041 C 
ATOM     19  O   UNL     1      16.208   0.356  -2.852  1.00  0.00    -0.550 OA
ATOM     20  O   UNL     1      17.845   1.871  -2.330  1.00  0.00    -0.550 OA
ENDBRANCH  17  18
ENDBRANCH  16  17
ENDBRANCH  15  16
ENDBRANCH  14  15
ENDBRANCH  13  14
ENDBRANCH  12  13
ENDBRANCH  11  12
ENDBRANCH   1  11
TORSDOF 15
ENDMDL
MODEL 3
REMARK VINA RESULT:    -3.652      1.540      9.345
REMARK INTER + INTRA:          -7.868
REMARK INTER:                  -7.071
REMARK INTRA:                  -0.796
REMARK UNBOUND:                -1.013
REMARK SMILES O=C([O-])CCCCCCCCCCCCCCC(=O)[O-]
REMARK SMILES IDX 10 1 9 2 8 3 7 4 6 5 5 6 4 7 2 8 1 9 3 10 11 11 12 12 13 13
REMARK SMILES IDX 14 14 15 15 16 16 17 17 18 18 19 19 20 20
REMARK H PARENT
REMARK Flexibility Score: inf
ROOT
ATOM      1  C   UNL     1      13.130   4.956  -1.483  1.00  0.00     0.000 C 
ENDROOT
BRANCH   1   2
ATOM      2  C   UNL     1      12.970   3.710  -2.362  1.00  0.00     0.000 C 
BRANCH   2   3
ATOM      3  C   UNL     1      14.336   3.157  -2.787  1.00  0.00     0.000 C 
BRANCH   3   4
ATOM      4  C   UNL     1      15.168   2.747  -1.566  1.00  0.00     0.000 C 
BRANCH   4   5
ATOM      5  C   UNL     1      15.992   1.485  -1.860  1.00  0.00     0.000 C 
BRANCH   5   6
ATOM      6  C   UNL     1      17.212   1.764  -2.756  1.00  0.00     0.006 C 
BRANCH   6   7
ATOM      7  C   UNL     1      18.117   0.544  -2.991  1.00  0.00     0.053 C 
BRANCH   7   8
ATOM      8  C   UNL     1      19.531   0.806  -2.570  1.00  0.00     0.041 C 
ATOM      9  O   UNL     1      19.980   1.983  -2.556  1.00  0.00    -0.550 OA
ATOM     10  O   UNL     1      20.342  -0.246  -2.163  1.00  0.00    -0.550 OA
ENDBRANCH   7   8
ENDBRANCH   6   7
ENDBRANCH   5   6
ENDBRANCH   4   5
ENDBRANCH   3   4
ENDBRANCH   2   3
ENDBRANCH   1   2
BRANCH   1  11
ATOM     11  C   UNL     1      11.975   5.077  -0.484  1.00  0.00     0.000 C 
BRANCH  11  12
ATOM     12  C   UNL     1      10.619   5.013  -1.198  1.00  0.00     0.000 C 
BRANCH  12  13
ATOM     13  C   UNL     1      10.007   6.412  -1.346  1.00  0.00     0.000 C 
BRANCH  13  14
ATOM     14  C   UNL     1      10.301   6.996  -2.733  1.00  0.00     0.000 C 
BRANCH  14  15
ATOM     15  C   UNL     1      10.454   8.523  -2.665  1.00  0.00     0.000 C 
BRANCH  15  16
ATOM     16  C   UNL     1      11.551   8.965  -1.684  1.00  0.00     0.006 C 
BRANCH  16  17
ATOM     17  C   UNL     1      12.012  10.408  -1.925  1.00  0.00     0.053 C 
BRANCH  17  18
ATOM     18  C   UNL     1      11.032  11.373  -1.337  1.00  0.00     0.041 C 
ATOM     19  O   UNL     1      11.266  11.919  -0.227  1.00  0.00    -0.550 OA
ATOM     20  O   UNL     1       9.834  11.633  -1.992  1.00  0.00    -0.550 OA
ENDBRANCH  17  18
ENDBRANCH  16  17
ENDBRANCH  15  16
ENDBRANCH  14  15
ENDBRANCH  13  14
ENDBRANCH  12  13
ENDBRANCH  11  12
ENDBRANCH   1  11
TORSDOF 15
ENDMDL
MODEL 4
REMARK VINA RESULT:    -3.607      2.872      9.772
REMARK INTER + INTRA:          -7.782
REMARK INTER:                  -6.697
REMARK INTRA:                  -1.085
REMARK UNBOUND:                -1.013
REMARK SMILES O=C([O-])CCCCCCCCCCCCCCC(=O)[O-]
REMARK SMILES IDX 10 1 9 2 8 3 7 4 6 5 5 6 4 7 2 8 1 9 3 10 11 11 12 12 13 13
REMARK SMILES IDX 14 14 15 15 16 16 17 17 18 18 19 19 20 20
REMARK H PARENT
REMARK Flexibility Score: inf
ROOT
ATOM      1  C   UNL     1      10.915   6.491  -0.482  1.00  0.00     0.000 C 
ENDROOT
BRANCH   1   2
ATOM      2  C   UNL     1      11.180   4.988  -0.628  1.00  0.00     0.000 C 
BRANCH   2   3
ATOM      3  C   UNL     1      10.762   4.488  -2.016  1.00  0.00     0.000 C 
BRANCH   3   4
ATOM      4  C   UNL     1      11.920   3.762  -2.711  1.00  0.00     0.000 C 
BRANCH   4   5
ATOM      5  C   UNL     1      13.219   3.899  -1.902  1.00  0.00     0.000 C 
BRANCH   5   6
ATOM      6  C   UNL     1      14.389   3.107  -2.514  1.00  0.00     0.006 C 
BRANCH   6   7
ATOM      7  C   UNL     1      15.503   2.753  -1.517  1.00  0.00     0.053 C 
BRANCH   7   8
ATOM      8  C   UNL     1      16.387   1.657  -2.030  1.00  0.00     0.041 C 
ATOM      9  O   UNL     1      15.881   0.602  -2.498  1.00  0.00    -0.550 OA
ATOM     10  O   UNL     1      17.767   1.814  -2.022  1.00  0.00    -0.550 OA
ENDBRANCH   7   8
ENDBRANCH   6   7
ENDBRANCH   5   6
ENDBRANCH   4   5
ENDBRANCH   3   4
ENDBRANCH   2   3
ENDBRANCH   1   2
BRANCH   1  11
ATOM     11  C   UNL     1       9.768   6.940  -1.394  1.00  0.00     0.000 C 
BRANCH  11  12
ATOM     12  C   UNL     1      10.191   8.126  -2.269  1.00  0.00     0.000 C 
BRANCH  12  13
ATOM     13  C   UNL     1      11.719   8.243  -2.338  1.00  0.00     0.000 C 
BRANCH  13  14
ATOM     14  C   UNL     1      12.181   9.655  -1.958  1.00  0.00     0.000 C 
BRANCH  14  15
ATOM     15  C   UNL     1      10.979  10.564  -1.658  1.00  0.00     0.000 C 
BRANCH  15  16
ATOM     16  C   UNL     1      11.391  12.016  -1.372  1.00  0.00     0.006 C 
BRANCH  16  17
ATOM     17  C   UNL     1      10.502  12.684  -0.315  1.00  0.00     0.053 C 
BRANCH  17  18
ATOM     18  C   UNL     1       9.277  13.258  -0.953  1.00  0.00     0.041 C 
ATOM     19  O   UNL     1       9.367  13.918  -2.022  1.00  0.00    -0.550 OA
ATOM     20  O   UNL     1       8.038  13.106  -0.341  1.00  0.00    -0.550 OA
ENDBRANCH  17  18
ENDBRANCH  16  17
ENDBRANCH  15  16
ENDBRANCH  14  15
ENDBRANCH  13  14
ENDBRANCH  12  13
ENDBRANCH  11  12
ENDBRANCH   1  11
TORSDOF 15
ENDMDL
MODEL 5
REMARK VINA RESULT:    -3.581      2.680      4.380
REMARK INTER + INTRA:          -7.734
REMARK INTER:                  -6.597
REMARK INTRA:                  -1.137
REMARK UNBOUND:                -1.013
REMARK SMILES O=C([O-])CCCCCCCCCCCCCCC(=O)[O-]
REMARK SMILES IDX 10 1 9 2 8 3 7 4 6 5 5 6 4 7 2 8 1 9 3 10 11 11 12 12 13 13
REMARK SMILES IDX 14 14 15 15 16 16 17 17 18 18 19 19 20 20
REMARK H PARENT
REMARK Flexibility Score: inf
ROOT
ATOM      1  C   UNL     1       9.557   7.100  -1.329  1.00  0.00     0.000 C 
ENDROOT
BRANCH   1   2
ATOM      2  C   UNL     1      10.048   8.308  -2.135  1.00  0.00     0.000 C 
BRANCH   2   3
ATOM      3  C   UNL     1      11.523   8.605  -1.840  1.00  0.00     0.000 C 
BRANCH   3   4
ATOM      4  C   UNL     1      12.031   9.771  -2.697  1.00  0.00     0.000 C 
BRANCH   4   5
ATOM      5  C   UNL     1      11.301  11.074  -2.340  1.00  0.00     0.000 C 
BRANCH   5   6
ATOM      6  C   UNL     1      11.391  11.420  -0.843  1.00  0.00     0.006 C 
BRANCH   6   7
ATOM      7  C   UNL     1      10.660  12.711  -0.446  1.00  0.00     0.053 C 
BRANCH   7   8
ATOM      8  C   UNL     1      11.244  13.915  -1.122  1.00  0.00     0.041 C 
ATOM      9  O   UNL     1      12.400  14.313  -0.820  1.00  0.00    -0.550 OA
ATOM     10  O   UNL     1      10.523  14.578  -2.107  1.00  0.00    -0.550 OA
ENDBRANCH   7   8
ENDBRANCH   6   7
ENDBRANCH   5   6
ENDBRANCH   4   5
ENDBRANCH   3   4
ENDBRANCH   2   3
ENDBRANCH   1   2
BRANCH   1  11
ATOM     11  C   UNL     1      10.694   6.493  -0.499  1.00  0.00     0.000 C 
BRANCH  11  12
ATOM     12  C   UNL     1      10.818   4.986  -0.754  1.00  0.00     0.000 C 
BRANCH  12  13
ATOM     13  C   UNL     1      11.191   4.703  -2.215  1.00  0.00     0.000 C 
BRANCH  13  14
ATOM     14  C   UNL     1      12.673   5.002  -2.473  1.00  0.00     0.000 C 
BRANCH  14  15
ATOM     15  C   UNL     1      13.566   4.257  -1.470  1.00  0.00     0.000 C 
BRANCH  15  16
ATOM     16  C   UNL     1      14.349   3.104  -2.117  1.00  0.00     0.006 C 
BRANCH  16  17
ATOM     17  C   UNL     1      15.629   2.755  -1.347  1.00  0.00     0.053 C 
BRANCH  17  18
ATOM     18  C   UNL     1      16.435   1.748  -2.105  1.00  0.00     0.041 C 
ATOM     19  O   UNL     1      15.909   0.669  -2.485  1.00  0.00    -0.550 OA
ATOM     20  O   UNL     1      17.783   1.979  -2.351  1.00  0.00    -0.550 OA
ENDBRANCH  17  18
ENDBRANCH  16  17
ENDBRANCH  15  16
ENDBRANCH  14  15
ENDBRANCH  13  14
ENDBRANCH  12  13
ENDBRANCH  11  12
ENDBRANCH   1  11
TORSDOF 15
ENDMDL
MODEL 6
REMARK VINA RESULT:    -3.520      2.507      9.879
REMARK INTER + INTRA:          -7.619
REMARK INTER:                  -6.901
REMARK INTRA:                  -0.718
REMARK UNBOUND:                -1.013
REMARK SMILES O=C([O-])CCCCCCCCCCCCCCC(=O)[O-]
REMARK SMILES IDX 10 1 9 2 8 3 7 4 6 5 5 6 4 7 2 8 1 9 3 10 11 11 12 12 13 13
REMARK SMILES IDX 14 14 15 15 16 16 17 17 18 18 19 19 20 20
REMARK H PARENT
REMARK Flexibility Score: inf
ROOT
ATOM      1  C   UNL     1      15.171   2.737  -1.664  1.00  0.00     0.000 C 
ENDROOT
BRANCH   1   2
ATOM      2  C   UNL     1      15.070   1.257  -2.053  1.00  0.00     0.000 C 
BRANCH   2   3
ATOM      3  C   UNL     1      16.398   0.747  -2.626  1.00  0.00     0.000 C 
BRANCH   3   4
ATOM      4  C   UNL     1      17.556   1.677  -2.243  1.00  0.00     0.000 C 
BRANCH   4   5
ATOM      5  C   UNL     1      18.786   1.415  -3.125  1.00  0.00     0.000 C 
BRANCH   5   6
ATOM      6  C   UNL     1      20.063   2.079  -2.580  1.00  0.00     0.006 C 
BRANCH   6   7
ATOM      7  C   UNL     1      21.313   1.187  -2.638  1.00  0.00     0.053 C 
BRANCH   7   8
ATOM      8  C   UNL     1      21.560   0.484  -1.338  1.00  0.00     0.041 C 
ATOM      9  O   UNL     1      22.683   0.571  -0.774  1.00  0.00    -0.550 OA
ATOM     10  O   UNL     1      20.540  -0.240  -0.734  1.00  0.00    -0.550 OA
ENDBRANCH   7   8
ENDBRANCH   6   7
ENDBRANCH   5   6
ENDBRANCH   4   5
ENDBRANCH   3   4
ENDBRANCH   2   3
ENDBRANCH   1   2
BRANCH   1  11
ATOM     11  C   UNL     1      14.417   3.622  -2.663  1.00  0.00     0.000 C 
BRANCH  11  12
ATOM     12  C   UNL     1      12.917   3.306  -2.655  1.00  0.00     0.000 C 
BRANCH  12  13
ATOM     13  C   UNL     1      12.087   4.576  -2.424  1.00  0.00     0.000 C 
BRANCH  13  14
ATOM     14  C   UNL     1      12.102   4.981  -0.945  1.00  0.00     0.000 C 
BRANCH  14  15
ATOM     15  C   UNL     1      10.686   5.318  -0.454  1.00  0.00     0.000 C 
BRANCH  15  16
ATOM     16  C   UNL     1      10.232   6.725  -0.874  1.00  0.00     0.006 C 
BRANCH  16  17
ATOM     17  C   UNL     1       9.091   6.695  -1.899  1.00  0.00     0.053 C 
BRANCH  17  18
ATOM     18  C   UNL     1       8.273   7.944  -1.802  1.00  0.00     0.041 C 
ATOM     19  O   UNL     1       7.426   8.078  -0.880  1.00  0.00    -0.550 OA
ATOM     20  O   UNL     1       8.410   8.941  -2.761  1.00  0.00    -0.550 OA
ENDBRANCH  17  18
ENDBRANCH  16  17
ENDBRANCH  15  16
ENDBRANCH  14  15
ENDBRANCH  13  14
ENDBRANCH  12  13
ENDBRANCH  11  12
ENDBRANCH   1  11
TORSDOF 15
ENDMDL
MODEL 7
REMARK VINA RESULT:    -3.468      4.888     10.998
REMARK INTER + INTRA:          -7.521
REMARK INTER:                  -6.655
REMARK INTRA:                  -0.866
REMARK UNBOUND:                -1.013
REMARK SMILES O=C([O-])CCCCCCCCCCCCCCC(=O)[O-]
REMARK SMILES IDX 10 1 9 2 8 3 7 4 6 5 5 6 4 7 2 8 1 9 3 10 11 11 12 12 13 13
REMARK SMILES IDX 14 14 15 15 16 16 17 17 18 18 19 19 20 20
REMARK H PARENT
REMARK Flexibility Score: inf
ROOT
ATOM      1  C   UNL     1      11.720   9.829  -1.608  1.00  0.00     0.000 C 
ENDROOT
BRANCH   1   2
ATOM      2  C   UNL     1      10.227   9.584  -1.859  1.00  0.00     0.000 C 
BRANCH   2   3
ATOM      3  C   UNL     1       9.947   8.097  -2.107  1.00  0.00     0.000 C 
BRANCH   3   4
ATOM      4  C   UNL     1      11.143   7.234  -1.682  1.00  0.00     0.000 C 
BRANCH   4   5
ATOM      5  C   UNL     1      10.756   6.281  -0.542  1.00  0.00     0.000 C 
BRANCH   5   6
ATOM      6  C   UNL     1      11.648   5.029  -0.482  1.00  0.00     0.006 C 
BRANCH   6   7
ATOM      7  C   UNL     1      12.914   5.111  -1.350  1.00  0.00     0.053 C 
BRANCH   7   8
ATOM      8  C   UNL     1      13.141   3.850  -2.128  1.00  0.00     0.041 C 
ATOM      9  O   UNL     1      14.292   3.343  -2.189  1.00  0.00    -0.550 OA
ATOM     10  O   UNL     1      12.076   3.220  -2.759  1.00  0.00    -0.550 OA
ENDBRANCH   7   8
ENDBRANCH   6   7
ENDBRANCH   5   6
ENDBRANCH   4   5
ENDBRANCH   3   4
ENDBRANCH   2   3
ENDBRANCH   1   2
BRANCH   1  11
ATOM     11  C   UNL     1      12.055  11.322  -1.698  1.00  0.00     0.000 C 
BRANCH  11  12
ATOM     12  C   UNL     1      11.172  12.143  -0.750  1.00  0.00     0.000 C 
BRANCH  12  13
ATOM     13  C   UNL     1      11.519  13.635  -0.828  1.00  0.00     0.000 C 
BRANCH  13  14
ATOM     14  C   UNL     1      12.615  13.892  -1.870  1.00  0.00     0.000 C 
BRANCH  14  15
ATOM     15  C   UNL     1      13.136  15.334  -1.776  1.00  0.00     0.000 C 
BRANCH  15  16
ATOM     16  C   UNL     1      14.037  15.560  -0.552  1.00  0.00     0.006 C 
BRANCH  16  17
ATOM     17  C   UNL     1      13.986  17.006  -0.041  1.00  0.00     0.053 C 
BRANCH  17  18
ATOM     18  C   UNL     1      12.833  17.188   0.895  1.00  0.00     0.041 C 
ATOM     19  O   UNL     1      13.002  17.080   2.138  1.00  0.00    -0.550 OA
ATOM     20  O   UNL     1      11.560  17.428   0.391  1.00  0.00    -0.550 OA
ENDBRANCH  17  18
ENDBRANCH  16  17
ENDBRANCH  15  16
ENDBRANCH  14  15
ENDBRANCH  13  14
ENDBRANCH  12  13
ENDBRANCH  11  12
ENDBRANCH   1  11
TORSDOF 15
ENDMDL
MODEL 8
REMARK VINA RESULT:    -3.401      3.538     10.070
REMARK INTER + INTRA:          -7.396
REMARK INTER:                  -6.450
REMARK INTRA:                  -0.946
REMARK UNBOUND:                -1.013
REMARK SMILES O=C([O-])CCCCCCCCCCCCCCC(=O)[O-]
REMARK SMILES IDX 10 1 9 2 8 3 7 4 6 5 5 6 4 7 2 8 1 9 3 10 11 11 12 12 13 13
REMARK SMILES IDX 14 14 15 15 16 16 17 17 18 18 19 19 20 20
REMARK H PARENT
REMARK Flexibility Score: inf
ROOT
ATOM      1  C   UNL     1      10.200   7.060  -1.654  1.00  0.00     0.000 C 
ENDROOT
BRANCH   1   2
ATOM      2  C   UNL     1      10.986   6.514  -0.456  1.00  0.00     0.000 C 
BRANCH   2   3
ATOM      3  C   UNL     1      11.329   5.033  -0.652  1.00  0.00     0.000 C 
BRANCH   3   4
ATOM      4  C   UNL     1      10.889   4.545  -2.038  1.00  0.00     0.000 C 
BRANCH   4   5
ATOM      5  C   UNL     1      11.998   3.721  -2.709  1.00  0.00     0.000 C 
BRANCH   5   6
ATOM      6  C   UNL     1      13.357   3.859  -1.999  1.00  0.00     0.006 C 
BRANCH   6   7
ATOM      7  C   UNL     1      14.510   3.114  -2.689  1.00  0.00     0.053 C 
BRANCH   7   8
ATOM      8  C   UNL     1      15.412   2.439  -1.700  1.00  0.00     0.041 C 
ATOM      9  O   UNL     1      15.447   1.182  -1.630  1.00  0.00    -0.550 OA
ATOM     10  O   UNL     1      16.235   3.199  -0.877  1.00  0.00    -0.550 OA
ENDBRANCH   7   8
ENDBRANCH   6   7
ENDBRANCH   5   6
ENDBRANCH   4   5
ENDBRANCH   3   4
ENDBRANCH   2   3
ENDBRANCH   1   2
BRANCH   1  11
ATOM     11  C   UNL     1      10.622   8.497  -1.980  1.00  0.00     0.000 C 
BRANCH  11  12
ATOM     12  C   UNL     1      12.148   8.617  -2.068  1.00  0.00     0.000 C 
BRANCH  12  13
ATOM     13  C   UNL     1      12.588  10.087  -2.042  1.00  0.00     0.000 C 
BRANCH  13  14
ATOM     14  C   UNL     1      11.451  10.993  -1.551  1.00  0.00     0.000 C 
BRANCH  14  15
ATOM     15  C   UNL     1      11.688  12.450  -1.976  1.00  0.00     0.000 C 
BRANCH  15  16
ATOM     16  C   UNL     1      11.728  13.416  -0.781  1.00  0.00     0.006 C 
BRANCH  16  17
ATOM     17  C   UNL     1      12.624  14.634  -1.037  1.00  0.00     0.053 C 
BRANCH  17  18
ATOM     18  C   UNL     1      11.900  15.896  -0.689  1.00  0.00     0.041 C 
ATOM     19  O   UNL     1      12.316  16.630   0.245  1.00  0.00    -0.550 OA
ATOM     20  O   UNL     1      10.734  16.237  -1.364  1.00  0.00    -0.550 OA
ENDBRANCH  17  18
ENDBRANCH  16  17
ENDBRANCH  15  16
ENDBRANCH  14  15
ENDBRANCH  13  14
ENDBRANCH  12  13
ENDBRANCH  11  12
ENDBRANCH   1  11
TORSDOF 15
ENDMDL
MODEL 9
REMARK VINA RESULT:    -3.371      4.296     10.759
REMARK INTER + INTRA:          -7.340
REMARK INTER:                  -6.644
REMARK INTRA:                  -0.696
REMARK UNBOUND:                -1.013
REMARK SMILES O=C([O-])CCCCCCCCCCCCCCC(=O)[O-]
REMARK SMILES IDX 10 1 9 2 8 3 7 4 6 5 5 6 4 7 2 8 1 9 3 10 11 11 12 12 13 13
REMARK SMILES IDX 14 14 15 15 16 16 17 17 18 18 19 19 20 20
REMARK H PARENT
REMARK Flexibility Score: inf
ROOT
ATOM      1  C   UNL     1      10.836   8.934  -1.802  1.00  0.00     0.000 C 
ENDROOT
BRANCH   1   2
ATOM      2  C   UNL     1      11.344   7.502  -2.011  1.00  0.00     0.000 C 
BRANCH   2   3
ATOM      3  C   UNL     1      10.989   6.612  -0.814  1.00  0.00     0.000 C 
BRANCH   3   4
ATOM      4  C   UNL     1      11.786   5.302  -0.847  1.00  0.00     0.000 C 
BRANCH   4   5
ATOM      5  C   UNL     1      12.650   5.216  -2.114  1.00  0.00     0.000 C 
BRANCH   5   6
ATOM      6  C   UNL     1      13.287   3.828  -2.309  1.00  0.00     0.006 C 
BRANCH   6   7
ATOM      7  C   UNL     1      14.409   3.501  -1.311  1.00  0.00     0.053 C 
BRANCH   7   8
ATOM      8  C   UNL     1      15.338   2.450  -1.839  1.00  0.00     0.041 C 
ATOM      9  O   UNL     1      14.926   1.600  -2.672  1.00  0.00    -0.550 OA
ATOM     10  O   UNL     1      16.667   2.429  -1.435  1.00  0.00    -0.550 OA
ENDBRANCH   7   8
ENDBRANCH   6   7
ENDBRANCH   5   6
ENDBRANCH   4   5
ENDBRANCH   3   4
ENDBRANCH   2   3
ENDBRANCH   1   2
BRANCH   1  11
ATOM     11  C   UNL     1      12.002   9.910  -1.614  1.00  0.00     0.000 C 
BRANCH  11  12
ATOM     12  C   UNL     1      11.589  11.340  -1.981  1.00  0.00     0.000 C 
BRANCH  12  13
ATOM     13  C   UNL     1      10.923  12.044  -0.792  1.00  0.00     0.000 C 
BRANCH  13  14
ATOM     14  C   UNL     1      11.222  13.548  -0.804  1.00  0.00     0.000 C 
BRANCH  14  15
ATOM     15  C   UNL     1      12.519  13.843  -1.573  1.00  0.00     0.000 C 
BRANCH  15  16
ATOM     16  C   UNL     1      12.844  15.344  -1.631  1.00  0.00     0.006 C 
BRANCH  16  17
ATOM     17  C   UNL     1      13.659  15.819  -0.421  1.00  0.00     0.053 C 
BRANCH  17  18
ATOM     18  C   UNL     1      12.872  16.805   0.382  1.00  0.00     0.041 C 
ATOM     19  O   UNL     1      11.771  17.240  -0.048  1.00  0.00    -0.550 OA
ATOM     20  O   UNL     1      13.377  17.282   1.586  1.00  0.00    -0.550 OA
ENDBRANCH  17  18
ENDBRANCH  16  17
ENDBRANCH  15  16
ENDBRANCH  14  15
ENDBRANCH  13  14
ENDBRANCH  12  13
ENDBRANCH  11  12
ENDBRANCH   1  11
TORSDOF 15
ENDMDL
