MODEL 1
REMARK VINA RESULT:     6.052      0.000      0.000
REMARK INTER + INTRA:           8.335
REMARK INTER:                   8.352
REMARK INTRA:                  -0.017
REMARK UNBOUND:                -0.017
REMARK SMILES C[C@@H]1C(=O)O[C@H](C)[C@H]1C[C@H](O)[C@](C)(O)[C@@H]1CC[C@@]2(O)C3=CC(=O)[C@H]4C[C@@H](O)[C@@H](O)C[C@]4(C)[C@@H]3CC[C@@]12C
REMARK SMILES IDX 12 1 13 2 10 3 9 4 8 5 1 6 2 7 3 8 6 9 5 10 4 11 7 12 11 13
REMARK SMILES IDX 15 15 16 16 36 17 17 18 18 19 35 20 37 21 20 22 34 23 33 24
REMARK SMILES IDX 21 25 31 26 22 27 24 28 30 29 32 30 23 31 25 32 28 33 26 34
REMARK SMILES IDX 19 35 29 37 27 39 14 41
REMARK H PARENT 11 14 19 36 29 38 27 40 14 42
REMARK Flexibility Score: inf
ROOT
ATOM      1  C   UNL     1      -2.294  12.366  45.915  1.00  0.00     0.091 C 
ATOM      2  C   UNL     1      -2.994  11.209  45.147  1.00  0.00     0.045 C 
ENDROOT
BRANCH   1   3
ATOM      3  C   UNL     1      -3.090  13.700  45.608  1.00  0.00     0.146 C 
BRANCH   3   4
ATOM      4  C   UNL     1      -2.661  14.495  44.334  1.00  0.00     0.043 C 
BRANCH   4   5
ATOM      5  C   UNL     1      -2.540  16.048  44.458  1.00  0.00     0.046 C 
ATOM      6  C   UNL     1      -3.082  17.804  46.266  1.00  0.00     0.020 C 
ATOM      7  C   UNL     1      -2.322  16.511  45.928  1.00  0.00     0.103 C 
ATOM      8  C   UNL     1      -0.866  16.780  45.961  1.00  0.00     0.309 C 
ATOM      9  C   UNL     1      -1.258  16.539  43.701  1.00  0.00     0.177 C 
ATOM     10  O   UNL     1      -0.300  16.813  44.707  1.00  0.00    -0.462 OA
ATOM     11  O   UNL     1      -0.205  16.980  47.014  1.00  0.00    -0.252 OA
ATOM     12  C   UNL     1      -1.518  17.801  42.876  1.00  0.00     0.053 C 
ENDBRANCH   4   5
ENDBRANCH   3   4
BRANCH   3  13
ATOM     13  O   UNL     1      -3.125  14.548  46.735  1.00  0.00    -0.390 OA
ATOM     14  H   UNL     1      -3.628  14.074  47.448  1.00  0.00     0.211 HD
ENDBRANCH   3  13
ENDBRANCH   1   3
BRANCH   1  15
ATOM     15  C   UNL     1      -0.777  12.437  45.425  1.00  0.00     0.032 C 
ATOM     16  C   UNL     1      -0.317  11.061  44.860  1.00  0.00     0.010 C 
ATOM     17  C   UNL     1       0.440  12.911  46.351  1.00  0.00     0.006 C 
ATOM     18  C   UNL     1       1.098  10.798  45.349  1.00  0.00     0.041 C 
ATOM     19  C   UNL     1       1.205  11.588  46.659  1.00  0.00     0.092 C 
ATOM     20  C   UNL     1       1.339  13.868  45.482  1.00  0.00     0.011 C 
ATOM     21  C   UNL     1       0.129  13.670  47.679  1.00  0.00     0.015 C 
ATOM     22  C   UNL     1       2.657  11.867  47.089  1.00  0.00    -0.031 C 
ATOM     23  C   UNL     1       2.759  14.099  46.032  1.00  0.00     0.009 C 
ATOM     24  C   UNL     1       3.508  12.758  46.176  1.00  0.00     0.025 C 
ATOM     25  C   UNL     1       3.069  11.572  48.346  1.00  0.00     0.050 C 
ATOM     26  C   UNL     1       5.025  12.843  46.624  1.00  0.00    -0.013 C 
ATOM     27  C   UNL     1       4.330  12.078  48.902  1.00  0.00     0.159 C 
ATOM     28  C   UNL     1       5.091  13.135  48.151  1.00  0.00     0.070 C 
ATOM     29  C   UNL     1       5.796  13.973  45.865  1.00  0.00     0.042 C 
ATOM     30  C   UNL     1       5.670  11.464  46.275  1.00  0.00     0.013 C 
ATOM     31  O   UNL     1       4.711  11.685  50.037  1.00  0.00    -0.295 OA
ATOM     32  C   UNL     1       6.536  13.319  48.669  1.00  0.00     0.047 C 
ATOM     33  C   UNL     1       7.241  14.209  46.369  1.00  0.00     0.143 C 
ATOM     34  C   UNL     1       7.257  14.439  47.896  1.00  0.00     0.143 C 
BRANCH  19  35
ATOM     35  O   UNL     1       0.500  10.885  47.664  1.00  0.00    -0.385 OA
ATOM     36  H   UNL     1       0.601  11.379  48.521  1.00  0.00     0.211 HD
ENDBRANCH  19  35
BRANCH  33  37
ATOM     37  O   UNL     1       8.088  13.148  46.015  1.00  0.00    -0.390 OA
ATOM     38  H   UNL     1       8.555  13.419  45.182  1.00  0.00     0.211 HD
ENDBRANCH  33  37
BRANCH  34  39
ATOM     39  O   UNL     1       8.572  14.614  48.365  1.00  0.00    -0.390 OA
ATOM     40  H   UNL     1       9.057  13.756  48.240  1.00  0.00     0.211 HD
ENDBRANCH  34  39
ENDBRANCH   1  15
BRANCH   1  41
ATOM     41  O   UNL     1      -2.362  12.004  47.276  1.00  0.00    -0.387 OA
ATOM     42  H   UNL     1      -1.498  12.179  47.709  1.00  0.00     0.211 HD
ENDBRANCH   1  41
TORSDOF 9
ENDMDL
MODEL 2
REMARK VINA RESULT:     6.290      1.348      2.062
REMARK INTER + INTRA:           8.662
REMARK INTER:                   7.038
REMARK INTRA:                   1.624
REMARK UNBOUND:                -0.017
REMARK SMILES C[C@@H]1C(=O)O[C@H](C)[C@H]1C[C@H](O)[C@](C)(O)[C@@H]1CC[C@@]2(O)C3=CC(=O)[C@H]4C[C@@H](O)[C@@H](O)C[C@]4(C)[C@@H]3CC[C@@]12C
REMARK SMILES IDX 12 1 13 2 10 3 9 4 8 5 1 6 2 7 3 8 6 9 5 10 4 11 7 12 11 13
REMARK SMILES IDX 15 15 16 16 36 17 17 18 18 19 35 20 37 21 20 22 34 23 33 24
REMARK SMILES IDX 21 25 31 26 22 27 24 28 30 29 32 30 23 31 25 32 28 33 26 34
REMARK SMILES IDX 19 35 29 37 27 39 14 41
REMARK H PARENT 11 14 19 36 29 38 27 40 14 42
REMARK Flexibility Score: inf
ROOT
ATOM      1  C   UNL     1      -2.175  14.746  46.198  1.00  0.00     0.091 C 
ATOM      2  C   UNL     1      -3.121  14.915  44.977  1.00  0.00     0.045 C 
ENDROOT
BRANCH   1   3
ATOM      3  C   UNL     1      -2.347  16.022  47.122  1.00  0.00     0.146 C 
BRANCH   3   4
ATOM      4  C   UNL     1      -3.125  17.230  46.510  1.00  0.00     0.043 C 
BRANCH   4   5
ATOM      5  C   UNL     1      -2.303  18.281  45.698  1.00  0.00     0.046 C 
ATOM      6  C   UNL     1       0.189  18.662  45.161  1.00  0.00     0.020 C 
ATOM      7  C   UNL     1      -0.994  17.683  45.105  1.00  0.00     0.103 C 
ATOM      8  C   UNL     1      -1.367  17.451  43.691  1.00  0.00     0.309 C 
ATOM      9  C   UNL     1      -3.125  18.739  44.444  1.00  0.00     0.177 C 
ATOM     10  O   UNL     1      -2.546  18.068  43.340  1.00  0.00    -0.462 OA
ATOM     11  O   UNL     1      -0.679  16.780  42.877  1.00  0.00    -0.252 OA
ATOM     12  C   UNL     1      -3.057  20.252  44.224  1.00  0.00     0.053 C 
ENDBRANCH   4   5
ENDBRANCH   3   4
BRANCH   3  13
ATOM     13  O   UNL     1      -1.109  16.443  47.650  1.00  0.00    -0.390 OA
ATOM     14  H   UNL     1      -0.550  15.632  47.782  1.00  0.00     0.211 HD
ENDBRANCH   3  13
ENDBRANCH   1   3
BRANCH   1  15
ATOM     15  C   UNL     1      -0.684  14.589  45.650  1.00  0.00     0.032 C 
ATOM     16  C   UNL     1      -0.569  13.348  44.717  1.00  0.00     0.010 C 
ATOM     17  C   UNL     1       0.609  14.500  46.589  1.00  0.00     0.006 C 
ATOM     18  C   UNL     1       0.739  12.641  45.031  1.00  0.00     0.041 C 
ATOM     19  C   UNL     1       1.030  13.002  46.493  1.00  0.00     0.092 C 
ATOM     20  C   UNL     1       1.715  15.417  45.945  1.00  0.00     0.011 C 
ATOM     21  C   UNL     1       0.488  14.926  48.086  1.00  0.00     0.015 C 
ATOM     22  C   UNL     1       2.506  12.809  46.888  1.00  0.00    -0.031 C 
ATOM     23  C   UNL     1       3.148  15.154  46.446  1.00  0.00     0.009 C 
ATOM     24  C   UNL     1       3.550  13.687  46.188  1.00  0.00     0.025 C 
ATOM     25  C   UNL     1       2.832  12.099  47.996  1.00  0.00     0.050 C 
ATOM     26  C   UNL     1       5.041  13.292  46.546  1.00  0.00    -0.013 C 
ATOM     27  C   UNL     1       4.177  12.128  48.585  1.00  0.00     0.159 C 
ATOM     28  C   UNL     1       5.172  13.140  48.089  1.00  0.00     0.070 C 
ATOM     29  C   UNL     1       6.065  14.372  46.062  1.00  0.00     0.042 C 
ATOM     30  C   UNL     1       5.334  11.946  45.810  1.00  0.00     0.013 C 
ATOM     31  O   UNL     1       4.449  11.367  49.551  1.00  0.00    -0.295 OA
ATOM     32  C   UNL     1       6.618  12.836  48.546  1.00  0.00     0.047 C 
ATOM     33  C   UNL     1       7.522  14.120  46.518  1.00  0.00     0.143 C 
ATOM     34  C   UNL     1       7.590  13.921  48.048  1.00  0.00     0.143 C 
BRANCH  19  35
ATOM     35  O   UNL     1       0.174  12.241  47.322  1.00  0.00    -0.385 OA
ATOM     36  H   UNL     1       0.623  11.378  47.527  1.00  0.00     0.211 HD
ENDBRANCH  19  35
BRANCH  33  37
ATOM     37  O   UNL     1       8.088  13.025  45.847  1.00  0.00    -0.390 OA
ATOM     38  H   UNL     1       7.610  12.941  44.981  1.00  0.00     0.211 HD
ENDBRANCH  33  37
BRANCH  34  39
ATOM     39  O   UNL     1       8.907  13.652  48.463  1.00  0.00    -0.390 OA
ATOM     40  H   UNL     1       9.193  12.801  48.036  1.00  0.00     0.211 HD
ENDBRANCH  34  39
ENDBRANCH   1  15
BRANCH   1  41
ATOM     41  O   UNL     1      -2.598  13.562  46.837  1.00  0.00    -0.387 OA
ATOM     42  H   UNL     1      -1.997  13.358  47.588  1.00  0.00     0.211 HD
ENDBRANCH   1  41
TORSDOF 9
ENDMDL
