MODEL 1
REMARK VINA RESULT:    -2.598      0.000      0.000
REMARK INTER + INTRA:          -3.824
REMARK INTER:                  -3.510
REMARK INTRA:                  -0.315
REMARK UNBOUND:                -0.315
REMARK SMILES CCCCCCC=CC(=O)[O-]
REMARK SMILES IDX 5 1 6 2 7 3 8 4 9 5 10 6 11 7 4 8 3 9 2 10 1 11
REMARK H PARENT
REMARK Flexibility Score: inf
ROOT
ATOM      1  C   UNL     1      -0.049  -2.128  32.186  1.00  0.00     0.004 C 
ENDROOT
BRANCH   1   2
ATOM      2  C   UNL     1      -0.331  -2.780  30.823  1.00  0.00     0.027 C 
BRANCH   2   3
ATOM      3  C   UNL     1      -1.434  -2.059  30.095  1.00  0.00    -0.025 C 
ATOM      4  C   UNL     1      -1.673  -2.112  28.774  1.00  0.00     0.020 C 
BRANCH   4   5
ATOM      5  C   UNL     1      -0.879  -2.842  27.764  1.00  0.00     0.064 C 
ATOM      6  O   UNL     1       0.138  -2.287  27.273  1.00  0.00    -0.545 OA
ATOM      7  O   UNL     1      -1.199  -4.131  27.359  1.00  0.00    -0.545 OA
ENDBRANCH   4   5
ENDBRANCH   2   3
ENDBRANCH   1   2
BRANCH   1   8
ATOM      8  C   UNL     1       1.346  -2.483  32.735  1.00  0.00     0.000 C 
BRANCH   8   9
ATOM      9  C   UNL     1       2.046  -1.327  33.473  1.00  0.00    -0.000 C 
BRANCH   9  10
ATOM     10  C   UNL     1       1.125  -0.116  33.686  1.00  0.00    -0.003 C 
ATOM     11  C   UNL     1       1.897   1.193  33.541  1.00  0.00     0.004 C 
ENDBRANCH   9  10
ENDBRANCH   8   9
ENDBRANCH   1   8
TORSDOF 6
ENDMDL
MODEL 2
REMARK VINA RESULT:    -2.422     17.290     18.932
REMARK INTER + INTRA:          -3.586
REMARK INTER:                  -2.998
REMARK INTRA:                  -0.587
REMARK UNBOUND:                -0.315
REMARK SMILES CCCCCCC=CC(=O)[O-]
REMARK SMILES IDX 5 1 6 2 7 3 8 4 9 5 10 6 11 7 4 8 3 9 2 10 1 11
REMARK H PARENT
REMARK Flexibility Score: inf
ROOT
ATOM      1  C   UNL     1      -0.054   7.946  16.368  1.00  0.00     0.004 C 
ENDROOT
BRANCH   1   2
ATOM      2  C   UNL     1       0.396   8.274  14.935  1.00  0.00     0.027 C 
BRANCH   2   3
ATOM      3  C   UNL     1       1.897   8.289  14.829  1.00  0.00    -0.025 C 
ATOM      4  C   UNL     1       2.686   9.366  14.971  1.00  0.00     0.020 C 
BRANCH   4   5
ATOM      5  C   UNL     1       2.245  10.757  15.212  1.00  0.00     0.064 C 
ATOM      6  O   UNL     1       2.060  11.515  14.225  1.00  0.00    -0.545 OA
ATOM      7  O   UNL     1       1.999  11.246  16.488  1.00  0.00    -0.545 OA
ENDBRANCH   4   5
ENDBRANCH   2   3
ENDBRANCH   1   2
BRANCH   1   8
ATOM      8  C   UNL     1      -1.273   7.005  16.406  1.00  0.00     0.000 C 
BRANCH   8   9
ATOM      9  C   UNL     1      -1.247   5.896  15.337  1.00  0.00    -0.000 C 
BRANCH   9  10
ATOM     10  C   UNL     1      -0.571   4.610  15.835  1.00  0.00    -0.003 C 
ATOM     11  C   UNL     1       0.882   4.539  15.370  1.00  0.00     0.004 C 
ENDBRANCH   9  10
ENDBRANCH   8   9
ENDBRANCH   1   8
TORSDOF 6
ENDMDL
MODEL 3
REMARK VINA RESULT:    -2.400     16.190     18.260
REMARK INTER + INTRA:          -3.557
REMARK INTER:                  -2.764
REMARK INTRA:                  -0.793
REMARK UNBOUND:                -0.315
REMARK SMILES CCCCCCC=CC(=O)[O-]
REMARK SMILES IDX 5 1 6 2 7 3 8 4 9 5 10 6 11 7 4 8 3 9 2 10 1 11
REMARK H PARENT
REMARK Flexibility Score: inf
ROOT
ATOM      1  C   UNL     1      -0.748   6.385  14.962  1.00  0.00     0.004 C 
ENDROOT
BRANCH   1   2
ATOM      2  C   UNL     1      -0.055   7.704  14.584  1.00  0.00     0.027 C 
BRANCH   2   3
ATOM      3  C   UNL     1       1.442   7.553  14.592  1.00  0.00    -0.025 C 
ATOM      4  C   UNL     1       2.326   8.480  14.994  1.00  0.00     0.020 C 
BRANCH   4   5
ATOM      5  C   UNL     1       2.017   9.848  15.461  1.00  0.00     0.064 C 
ATOM      6  O   UNL     1       2.048  10.795  14.634  1.00  0.00    -0.545 OA
ATOM      7  O   UNL     1       1.665  10.120  16.777  1.00  0.00    -0.545 OA
ENDBRANCH   4   5
ENDBRANCH   2   3
ENDBRANCH   1   2
BRANCH   1   8
ATOM      8  C   UNL     1      -1.152   6.332  16.447  1.00  0.00     0.000 C 
BRANCH   8   9
ATOM      9  C   UNL     1      -1.517   7.701  17.051  1.00  0.00    -0.000 C 
BRANCH   9  10
ATOM     10  C   UNL     1      -0.662   8.054  18.277  1.00  0.00    -0.003 C 
ATOM     11  C   UNL     1       0.540   7.120  18.395  1.00  0.00     0.004 C 
ENDBRANCH   9  10
ENDBRANCH   8   9
ENDBRANCH   1   8
TORSDOF 6
ENDMDL
MODEL 4
REMARK VINA RESULT:    -2.371     16.138     17.714
REMARK INTER + INTRA:          -3.517
REMARK INTER:                  -2.652
REMARK INTRA:                  -0.865
REMARK UNBOUND:                -0.315
REMARK SMILES CCCCCCC=CC(=O)[O-]
REMARK SMILES IDX 5 1 6 2 7 3 8 4 9 5 10 6 11 7 4 8 3 9 2 10 1 11
REMARK H PARENT
REMARK Flexibility Score: inf
ROOT
ATOM      1  C   UNL     1       0.029   5.121  15.635  1.00  0.00     0.004 C 
ENDROOT
BRANCH   1   2
ATOM      2  C   UNL     1       0.739   5.986  14.581  1.00  0.00     0.027 C 
BRANCH   2   3
ATOM      3  C   UNL     1       0.091   7.338  14.462  1.00  0.00    -0.025 C 
ATOM      4  C   UNL     1       0.541   8.480  15.007  1.00  0.00     0.020 C 
BRANCH   4   5
ATOM      5  C   UNL     1       1.731   8.633  15.872  1.00  0.00     0.064 C 
ATOM      6  O   UNL     1       1.590   8.554  17.119  1.00  0.00    -0.545 OA
ATOM      7  O   UNL     1       3.003   8.834  15.353  1.00  0.00    -0.545 OA
ENDBRANCH   4   5
ENDBRANCH   2   3
ENDBRANCH   1   2
BRANCH   1   8
ATOM      8  C   UNL     1      -1.478   5.420  15.728  1.00  0.00     0.000 C 
BRANCH   8   9
ATOM      9  C   UNL     1      -2.001   5.584  17.168  1.00  0.00    -0.000 C 
BRANCH   9  10
ATOM     10  C   UNL     1      -1.344   6.761  17.905  1.00  0.00    -0.003 C 
ATOM     11  C   UNL     1      -2.068   8.071  17.602  1.00  0.00     0.004 C 
ENDBRANCH   9  10
ENDBRANCH   8   9
ENDBRANCH   1   8
TORSDOF 6
ENDMDL
MODEL 5
REMARK VINA RESULT:    -2.363     17.350     19.068
REMARK INTER + INTRA:          -3.506
REMARK INTER:                  -2.922
REMARK INTRA:                  -0.585
REMARK UNBOUND:                -0.315
REMARK SMILES CCCCCCC=CC(=O)[O-]
REMARK SMILES IDX 5 1 6 2 7 3 8 4 9 5 10 6 11 7 4 8 3 9 2 10 1 11
REMARK H PARENT
REMARK Flexibility Score: inf
ROOT
ATOM      1  C   UNL     1       1.076   6.624  14.356  1.00  0.00     0.004 C 
ENDROOT
BRANCH   1   2
ATOM      2  C   UNL     1       2.088   7.752  14.613  1.00  0.00     0.027 C 
BRANCH   2   3
ATOM      3  C   UNL     1       1.745   8.514  15.865  1.00  0.00    -0.025 C 
ATOM      4  C   UNL     1       2.004   9.811  16.093  1.00  0.00     0.020 C 
BRANCH   4   5
ATOM      5  C   UNL     1       2.717  10.740  15.191  1.00  0.00     0.064 C 
ATOM      6  O   UNL     1       3.973  10.790  15.239  1.00  0.00    -0.545 OA
ATOM      7  O   UNL     1       2.050  11.538  14.271  1.00  0.00    -0.545 OA
ENDBRANCH   4   5
ENDBRANCH   2   3
ENDBRANCH   1   2
BRANCH   1   8
ATOM      8  C   UNL     1      -0.368   7.034  14.697  1.00  0.00     0.000 C 
BRANCH   8   9
ATOM      9  C   UNL     1      -1.206   5.915  15.344  1.00  0.00    -0.000 C 
BRANCH   9  10
ATOM     10  C   UNL     1      -1.574   6.220  16.804  1.00  0.00    -0.003 C 
ATOM     11  C   UNL     1      -1.621   7.724  17.056  1.00  0.00     0.004 C 
ENDBRANCH   9  10
ENDBRANCH   8   9
ENDBRANCH   1   8
TORSDOF 6
ENDMDL
MODEL 6
REMARK VINA RESULT:    -2.328     16.282     18.036
REMARK INTER + INTRA:          -3.460
REMARK INTER:                  -2.916
REMARK INTRA:                  -0.544
REMARK UNBOUND:                -0.315
REMARK SMILES CCCCCCC=CC(=O)[O-]
REMARK SMILES IDX 5 1 6 2 7 3 8 4 9 5 10 6 11 7 4 8 3 9 2 10 1 11
REMARK H PARENT
REMARK Flexibility Score: inf
ROOT
ATOM      1  C   UNL     1       0.871   6.212  14.624  1.00  0.00     0.004 C 
ENDROOT
BRANCH   1   2
ATOM      2  C   UNL     1      -0.606   6.626  14.714  1.00  0.00     0.027 C 
BRANCH   2   3
ATOM      3  C   UNL     1      -1.347   5.783  15.717  1.00  0.00    -0.025 C 
ATOM      4  C   UNL     1      -1.667   6.146  16.969  1.00  0.00     0.020 C 
BRANCH   4   5
ATOM      5  C   UNL     1      -1.319   7.420  17.633  1.00  0.00     0.064 C 
ATOM      6  O   UNL     1      -0.182   7.541  18.159  1.00  0.00    -0.545 OA
ATOM      7  O   UNL     1      -2.192   8.499  17.672  1.00  0.00    -0.545 OA
ENDBRANCH   4   5
ENDBRANCH   2   3
ENDBRANCH   1   2
BRANCH   1   8
ATOM      8  C   UNL     1       1.833   7.399  14.813  1.00  0.00     0.000 C 
BRANCH   8   9
ATOM      9  C   UNL     1       1.129   8.746  15.066  1.00  0.00    -0.000 C 
BRANCH   9  10
ATOM     10  C   UNL     1       2.073   9.805  15.655  1.00  0.00    -0.003 C 
ATOM     11  C   UNL     1       2.071  11.075  14.808  1.00  0.00     0.004 C 
ENDBRANCH   9  10
ENDBRANCH   8   9
ENDBRANCH   1   8
TORSDOF 6
ENDMDL
MODEL 7
REMARK VINA RESULT:    -2.286     17.040     18.855
REMARK INTER + INTRA:          -3.403
REMARK INTER:                  -2.813
REMARK INTRA:                  -0.589
REMARK UNBOUND:                -0.315
REMARK SMILES CCCCCCC=CC(=O)[O-]
REMARK SMILES IDX 5 1 6 2 7 3 8 4 9 5 10 6 11 7 4 8 3 9 2 10 1 11
REMARK H PARENT
REMARK Flexibility Score: inf
ROOT
ATOM      1  C   UNL     1       2.890   7.165  14.547  1.00  0.00     0.004 C 
ENDROOT
BRANCH   1   2
ATOM      2  C   UNL     1       1.447   6.887  14.097  1.00  0.00     0.027 C 
BRANCH   2   3
ATOM      3  C   UNL     1       0.497   7.913  14.655  1.00  0.00    -0.025 C 
ATOM      4  C   UNL     1      -0.545   7.664  15.465  1.00  0.00     0.020 C 
BRANCH   4   5
ATOM      5  C   UNL     1      -1.001   6.337  15.931  1.00  0.00     0.064 C 
ATOM      6  O   UNL     1      -1.690   5.625  15.157  1.00  0.00    -0.545 OA
ATOM      7  O   UNL     1      -0.670   5.838  17.184  1.00  0.00    -0.545 OA
ENDBRANCH   4   5
ENDBRANCH   2   3
ENDBRANCH   1   2
BRANCH   1   8
ATOM      8  C   UNL     1       3.060   8.565  15.163  1.00  0.00     0.000 C 
BRANCH   8   9
ATOM      9  C   UNL     1       3.959   9.510  14.344  1.00  0.00    -0.000 C 
BRANCH   9  10
ATOM     10  C   UNL     1       3.287  10.860  14.052  1.00  0.00    -0.003 C 
ATOM     11  C   UNL     1       2.167  11.144  15.049  1.00  0.00     0.004 C 
ENDBRANCH   9  10
ENDBRANCH   8   9
ENDBRANCH   1   8
TORSDOF 6
ENDMDL
MODEL 8
REMARK VINA RESULT:    -2.244     16.274     17.635
REMARK INTER + INTRA:          -3.346
REMARK INTER:                  -2.489
REMARK INTRA:                  -0.857
REMARK UNBOUND:                -0.315
REMARK SMILES CCCCCCC=CC(=O)[O-]
REMARK SMILES IDX 5 1 6 2 7 3 8 4 9 5 10 6 11 7 4 8 3 9 2 10 1 11
REMARK H PARENT
REMARK Flexibility Score: inf
ROOT
ATOM      1  C   UNL     1       2.277   7.881  14.855  1.00  0.00     0.004 C 
ENDROOT
BRANCH   1   2
ATOM      2  C   UNL     1       1.257   6.920  14.224  1.00  0.00     0.027 C 
BRANCH   2   3
ATOM      3  C   UNL     1      -0.150   7.294  14.606  1.00  0.00    -0.025 C 
ATOM      4  C   UNL     1      -0.951   6.605  15.434  1.00  0.00     0.020 C 
BRANCH   4   5
ATOM      5  C   UNL     1      -0.639   5.321  16.096  1.00  0.00     0.064 C 
ATOM      6  O   UNL     1       0.063   5.330  17.140  1.00  0.00    -0.545 OA
ATOM      7  O   UNL     1      -1.118   4.107  15.622  1.00  0.00    -0.545 OA
ENDBRANCH   4   5
ENDBRANCH   2   3
ENDBRANCH   1   2
BRANCH   1   8
ATOM      8  C   UNL     1       1.693   9.282  15.109  1.00  0.00     0.000 C 
BRANCH   8   9
ATOM      9  C   UNL     1       1.862   9.784  16.555  1.00  0.00    -0.000 C 
BRANCH   9  10
ATOM     10  C   UNL     1       1.651   8.673  17.595  1.00  0.00    -0.003 C 
ATOM     11  C   UNL     1       0.261   8.762  18.219  1.00  0.00     0.004 C 
ENDBRANCH   9  10
ENDBRANCH   8   9
ENDBRANCH   1   8
TORSDOF 6
ENDMDL
MODEL 9
REMARK VINA RESULT:    -2.231     16.541     18.370
REMARK INTER + INTRA:          -3.328
REMARK INTER:                  -2.665
REMARK INTRA:                  -0.663
REMARK UNBOUND:                -0.315
REMARK SMILES CCCCCCC=CC(=O)[O-]
REMARK SMILES IDX 5 1 6 2 7 3 8 4 9 5 10 6 11 7 4 8 3 9 2 10 1 11
REMARK H PARENT
REMARK Flexibility Score: inf
ROOT
ATOM      1  C   UNL     1      -0.796   7.290  15.935  1.00  0.00     0.004 C 
ENDROOT
BRANCH   1   2
ATOM      2  C   UNL     1      -0.167   7.777  14.620  1.00  0.00     0.027 C 
BRANCH   2   3
ATOM      3  C   UNL     1       1.324   7.573  14.623  1.00  0.00    -0.025 C 
ATOM      4  C   UNL     1       2.241   8.461  15.040  1.00  0.00     0.020 C 
BRANCH   4   5
ATOM      5  C   UNL     1       1.980   9.831  15.532  1.00  0.00     0.064 C 
ATOM      6  O   UNL     1       1.765  10.005  16.759  1.00  0.00    -0.545 OA
ATOM      7  O   UNL     1       1.994  10.935  14.691  1.00  0.00    -0.545 OA
ENDBRANCH   4   5
ENDBRANCH   2   3
ENDBRANCH   1   2
BRANCH   1   8
ATOM      8  C   UNL     1      -1.295   5.836  15.851  1.00  0.00     0.000 C 
BRANCH   8   9
ATOM      9  C   UNL     1      -0.434   4.828  16.635  1.00  0.00    -0.000 C 
BRANCH   9  10
ATOM     10  C   UNL     1       0.380   3.905  15.716  1.00  0.00    -0.003 C 
ATOM     11  C   UNL     1       1.878   4.140  15.892  1.00  0.00     0.004 C 
ENDBRANCH   9  10
ENDBRANCH   8   9
ENDBRANCH   1   8
TORSDOF 6
ENDMDL
