MODEL 1
REMARK VINA RESULT:    -3.322      0.000      0.000
REMARK INTER + INTRA:          -4.399
REMARK INTER:                  -4.098
REMARK INTRA:                  -0.300
REMARK UNBOUND:                -0.300
REMARK SMILES CCCCC=CC(C)=O
REMARK SMILES IDX 4 1 3 2 2 3 1 4 5 5 6 6 7 7 9 8 8 9
REMARK H PARENT
REMARK Flexibility Score: inf
ROOT
ATOM      1  C   UNL     1      -0.323 -10.447 -40.368  1.00  0.00     0.027 C 
ENDROOT
BRANCH   1   2
ATOM      2  C   UNL     1      -0.730  -9.809 -39.030  1.00  0.00     0.004 C 
BRANCH   2   3
ATOM      3  C   UNL     1      -1.090  -8.324 -39.185  1.00  0.00    -0.003 C 
ATOM      4  C   UNL     1      -0.583  -7.509 -37.999  1.00  0.00     0.004 C 
ENDBRANCH   2   3
ENDBRANCH   1   2
BRANCH   1   5
ATOM      5  C   UNL     1       0.013  -9.423 -41.422  1.00  0.00    -0.023 C 
ATOM      6  C   UNL     1       0.951  -9.551 -42.374  1.00  0.00     0.042 C 
BRANCH   6   7
ATOM      7  C   UNL     1       1.769 -10.751 -42.641  1.00  0.00     0.152 C 
ATOM      8  O   UNL     1       1.294 -11.649 -43.384  1.00  0.00    -0.295 OA
ATOM      9  C   UNL     1       3.110 -10.974 -42.011  1.00  0.00     0.093 C 
ENDBRANCH   6   7
ENDBRANCH   1   5
TORSDOF 4
ENDMDL
MODEL 2
REMARK VINA RESULT:    -3.282      2.483      2.685
REMARK INTER + INTRA:          -4.350
REMARK INTER:                  -4.062
REMARK INTRA:                  -0.288
REMARK UNBOUND:                -0.300
REMARK SMILES CCCCC=CC(C)=O
REMARK SMILES IDX 4 1 3 2 2 3 1 4 5 5 6 6 7 7 9 8 8 9
REMARK H PARENT
REMARK Flexibility Score: inf
ROOT
ATOM      1  C   UNL     1      -0.624 -10.765 -42.375  1.00  0.00     0.027 C 
ENDROOT
BRANCH   1   2
ATOM      2  C   UNL     1      -2.098 -10.331 -42.421  1.00  0.00     0.004 C 
BRANCH   2   3
ATOM      3  C   UNL     1      -2.249  -8.833 -42.727  1.00  0.00    -0.003 C 
ATOM      4  C   UNL     1      -3.127  -8.145 -41.686  1.00  0.00     0.004 C 
ENDBRANCH   2   3
ENDBRANCH   1   2
BRANCH   1   5
ATOM      5  C   UNL     1       0.324  -9.596 -42.289  1.00  0.00    -0.023 C 
ATOM      6  C   UNL     1       1.662  -9.659 -42.378  1.00  0.00     0.042 C 
BRANCH   6   7
ATOM      7  C   UNL     1       2.464 -10.863 -42.674  1.00  0.00     0.152 C 
ATOM      8  O   UNL     1       3.059 -11.438 -41.724  1.00  0.00    -0.295 OA
ATOM      9  C   UNL     1       2.654 -11.388 -44.064  1.00  0.00     0.093 C 
ENDBRANCH   6   7
ENDBRANCH   1   5
TORSDOF 4
ENDMDL
MODEL 3
REMARK VINA RESULT:    -3.255      2.035      4.567
REMARK INTER + INTRA:          -4.316
REMARK INTER:                  -3.925
REMARK INTRA:                  -0.391
REMARK UNBOUND:                -0.300
REMARK SMILES CCCCC=CC(C)=O
REMARK SMILES IDX 4 1 3 2 2 3 1 4 5 5 6 6 7 7 9 8 8 9
REMARK H PARENT
REMARK Flexibility Score: inf
ROOT
ATOM      1  C   UNL     1       1.232  -9.557 -42.042  1.00  0.00     0.027 C 
ENDROOT
BRANCH   1   2
ATOM      2  C   UNL     1       2.459 -10.478 -42.135  1.00  0.00     0.004 C 
BRANCH   2   3
ATOM      3  C   UNL     1       2.068 -11.928 -42.460  1.00  0.00    -0.003 C 
ATOM      4  C   UNL     1       2.093 -12.180 -43.964  1.00  0.00     0.004 C 
ENDBRANCH   2   3
ENDBRANCH   1   2
BRANCH   1   5
ATOM      5  C   UNL     1       0.344  -9.888 -40.869  1.00  0.00    -0.023 C 
ATOM      6  C   UNL     1      -0.942 -10.266 -40.937  1.00  0.00     0.042 C 
BRANCH   6   7
ATOM      7  C   UNL     1      -1.713 -10.530 -42.169  1.00  0.00     0.152 C 
ATOM      8  O   UNL     1      -1.586 -11.651 -42.730  1.00  0.00    -0.295 OA
ATOM      9  C   UNL     1      -2.585  -9.498 -42.815  1.00  0.00     0.093 C 
ENDBRANCH   6   7
ENDBRANCH   1   5
TORSDOF 4
ENDMDL
MODEL 4
REMARK VINA RESULT:    -3.206      1.517      2.173
REMARK INTER + INTRA:          -4.256
REMARK INTER:                  -3.998
REMARK INTRA:                  -0.258
REMARK UNBOUND:                -0.300
REMARK SMILES CCCCC=CC(C)=O
REMARK SMILES IDX 4 1 3 2 2 3 1 4 5 5 6 6 7 7 9 8 8 9
REMARK H PARENT
REMARK Flexibility Score: inf
ROOT
ATOM      1  C   UNL     1      -1.496  -8.973 -39.701  1.00  0.00     0.027 C 
ENDROOT
BRANCH   1   2
ATOM      2  C   UNL     1      -1.167  -7.684 -38.930  1.00  0.00     0.004 C 
BRANCH   2   3
ATOM      3  C   UNL     1      -0.396  -7.968 -37.633  1.00  0.00    -0.003 C 
ATOM      4  C   UNL     1      -0.749  -9.343 -37.073  1.00  0.00     0.004 C 
ENDBRANCH   2   3
ENDBRANCH   1   2
BRANCH   1   5
ATOM      5  C   UNL     1      -2.036  -8.704 -41.083  1.00  0.00    -0.023 C 
ATOM      6  C   UNL     1      -1.488  -9.115 -42.237  1.00  0.00     0.042 C 
BRANCH   6   7
ATOM      7  C   UNL     1      -0.308  -9.991 -42.382  1.00  0.00     0.152 C 
ATOM      8  O   UNL     1      -0.491 -11.232 -42.491  1.00  0.00    -0.295 OA
ATOM      9  C   UNL     1       1.097  -9.472 -42.338  1.00  0.00     0.093 C 
ENDBRANCH   6   7
ENDBRANCH   1   5
TORSDOF 4
ENDMDL
MODEL 5
REMARK VINA RESULT:    -3.202      1.815      4.132
REMARK INTER + INTRA:          -4.251
REMARK INTER:                  -3.734
REMARK INTRA:                  -0.517
REMARK UNBOUND:                -0.300
REMARK SMILES CCCCC=CC(C)=O
REMARK SMILES IDX 4 1 3 2 2 3 1 4 5 5 6 6 7 7 9 8 8 9
REMARK H PARENT
REMARK Flexibility Score: inf
ROOT
ATOM      1  C   UNL     1      -0.018  -9.452 -42.294  1.00  0.00     0.027 C 
ENDROOT
BRANCH   1   2
ATOM      2  C   UNL     1       1.440  -9.373 -42.773  1.00  0.00     0.004 C 
BRANCH   2   3
ATOM      3  C   UNL     1       2.093 -10.760 -42.865  1.00  0.00    -0.003 C 
ATOM      4  C   UNL     1       3.192 -10.921 -41.820  1.00  0.00     0.004 C 
ENDBRANCH   2   3
ENDBRANCH   1   2
BRANCH   1   5
ATOM      5  C   UNL     1      -0.140  -9.416 -40.791  1.00  0.00    -0.023 C 
ATOM      6  C   UNL     1      -0.446 -10.457 -40.000  1.00  0.00     0.042 C 
BRANCH   6   7
ATOM      7  C   UNL     1      -0.627 -11.858 -40.429  1.00  0.00     0.152 C 
ATOM      8  O   UNL     1       0.370 -12.628 -40.402  1.00  0.00    -0.295 OA
ATOM      9  C   UNL     1      -1.926 -12.383 -40.957  1.00  0.00     0.093 C 
ENDBRANCH   6   7
ENDBRANCH   1   5
TORSDOF 4
ENDMDL
MODEL 6
REMARK VINA RESULT:    -3.192      2.417      2.759
REMARK INTER + INTRA:          -4.238
REMARK INTER:                  -3.890
REMARK INTRA:                  -0.348
REMARK UNBOUND:                -0.300
REMARK SMILES CCCCC=CC(C)=O
REMARK SMILES IDX 4 1 3 2 2 3 1 4 5 5 6 6 7 7 9 8 8 9
REMARK H PARENT
REMARK Flexibility Score: inf
ROOT
ATOM      1  C   UNL     1      -1.004 -11.263 -42.346  1.00  0.00     0.027 C 
ENDROOT
BRANCH   1   2
ATOM      2  C   UNL     1      -2.350 -10.521 -42.381  1.00  0.00     0.004 C 
BRANCH   2   3
ATOM      3  C   UNL     1      -2.171  -9.012 -42.607  1.00  0.00    -0.003 C 
ATOM      4  C   UNL     1      -2.890  -8.206 -41.529  1.00  0.00     0.004 C 
ENDBRANCH   2   3
ENDBRANCH   1   2
BRANCH   1   5
ATOM      5  C   UNL     1      -0.010 -10.621 -41.411  1.00  0.00    -0.023 C 
ATOM      6  C   UNL     1       1.125 -10.001 -41.773  1.00  0.00     0.042 C 
BRANCH   6   7
ATOM      7  C   UNL     1       1.575  -9.736 -43.154  1.00  0.00     0.152 C 
ATOM      8  O   UNL     1       1.345  -8.604 -43.655  1.00  0.00    -0.295 OA
ATOM      9  C   UNL     1       2.233 -10.778 -44.005  1.00  0.00     0.093 C 
ENDBRANCH   6   7
ENDBRANCH   1   5
TORSDOF 4
ENDMDL
MODEL 7
REMARK VINA RESULT:    -3.171     15.587     16.800
REMARK INTER + INTRA:          -4.212
REMARK INTER:                  -3.620
REMARK INTRA:                  -0.592
REMARK UNBOUND:                -0.300
REMARK SMILES CCCCC=CC(C)=O
REMARK SMILES IDX 4 1 3 2 2 3 1 4 5 5 6 6 7 7 9 8 8 9
REMARK H PARENT
REMARK Flexibility Score: inf
ROOT
ATOM      1  C   UNL     1      -0.976 -26.559 -46.616  1.00  0.00     0.027 C 
ENDROOT
BRANCH   1   2
ATOM      2  C   UNL     1      -1.460 -25.197 -47.139  1.00  0.00     0.004 C 
BRANCH   2   3
ATOM      3  C   UNL     1      -1.429 -24.116 -46.048  1.00  0.00    -0.003 C 
ATOM      4  C   UNL     1      -1.512 -24.738 -44.657  1.00  0.00     0.004 C 
ENDBRANCH   2   3
ENDBRANCH   1   2
BRANCH   1   5
ATOM      5  C   UNL     1       0.291 -27.024 -47.290  1.00  0.00    -0.023 C 
ATOM      6  C   UNL     1       1.536 -26.621 -46.992  1.00  0.00     0.042 C 
BRANCH   6   7
ATOM      7  C   UNL     1       1.923 -25.722 -45.886  1.00  0.00     0.152 C 
ATOM      8  O   UNL     1       1.856 -26.157 -44.706  1.00  0.00    -0.295 OA
ATOM      9  C   UNL     1       2.326 -24.296 -46.105  1.00  0.00     0.093 C 
ENDBRANCH   6   7
ENDBRANCH   1   5
TORSDOF 4
ENDMDL
MODEL 8
REMARK VINA RESULT:    -3.140      2.255      4.652
REMARK INTER + INTRA:          -4.175
REMARK INTER:                  -3.922
REMARK INTRA:                  -0.253
REMARK UNBOUND:                -0.300
REMARK SMILES CCCCC=CC(C)=O
REMARK SMILES IDX 4 1 3 2 2 3 1 4 5 5 6 6 7 7 9 8 8 9
REMARK H PARENT
REMARK Flexibility Score: inf
ROOT
ATOM      1  C   UNL     1      -0.466 -10.124 -42.339  1.00  0.00     0.027 C 
ENDROOT
BRANCH   1   2
ATOM      2  C   UNL     1       0.919  -9.458 -42.380  1.00  0.00     0.004 C 
BRANCH   2   3
ATOM      3  C   UNL     1       1.987 -10.385 -42.977  1.00  0.00    -0.003 C 
ATOM      4  C   UNL     1       2.954 -10.874 -41.903  1.00  0.00     0.004 C 
ENDBRANCH   2   3
ENDBRANCH   1   2
BRANCH   1   5
ATOM      5  C   UNL     1      -1.594  -9.125 -42.394  1.00  0.00    -0.023 C 
ATOM      6  C   UNL     1      -2.242  -8.608 -41.338  1.00  0.00     0.042 C 
BRANCH   6   7
ATOM      7  C   UNL     1      -1.918  -8.836 -39.916  1.00  0.00     0.152 C 
ATOM      8  O   UNL     1      -2.364  -9.872 -39.356  1.00  0.00    -0.295 OA
ATOM      9  C   UNL     1      -1.139  -7.854 -39.095  1.00  0.00     0.093 C 
ENDBRANCH   6   7
ENDBRANCH   1   5
TORSDOF 4
ENDMDL
MODEL 9
REMARK VINA RESULT:    -3.080      2.503      4.337
REMARK INTER + INTRA:          -4.100
REMARK INTER:                  -3.620
REMARK INTRA:                  -0.480
REMARK UNBOUND:                -0.300
REMARK SMILES CCCCC=CC(C)=O
REMARK SMILES IDX 4 1 3 2 2 3 1 4 5 5 6 6 7 7 9 8 8 9
REMARK H PARENT
REMARK Flexibility Score: inf
ROOT
ATOM      1  C   UNL     1      -0.284 -11.070 -40.476  1.00  0.00     0.027 C 
ENDROOT
BRANCH   1   2
ATOM      2  C   UNL     1       0.602 -11.142 -41.730  1.00  0.00     0.004 C 
BRANCH   2   3
ATOM      3  C   UNL     1       1.581  -9.962 -41.812  1.00  0.00    -0.003 C 
ATOM      4  C   UNL     1       1.370  -9.160 -43.092  1.00  0.00     0.004 C 
ENDBRANCH   2   3
ENDBRANCH   1   2
BRANCH   1   5
ATOM      5  C   UNL     1      -0.332  -9.688 -39.875  1.00  0.00    -0.023 C 
ATOM      6  C   UNL     1      -1.236  -8.736 -40.159  1.00  0.00     0.042 C 
BRANCH   6   7
ATOM      7  C   UNL     1      -2.415  -8.883 -41.036  1.00  0.00     0.152 C 
ATOM      8  O   UNL     1      -3.509  -9.229 -40.519  1.00  0.00    -0.295 OA
ATOM      9  C   UNL     1      -2.346  -8.704 -42.522  1.00  0.00     0.093 C 
ENDBRANCH   6   7
ENDBRANCH   1   5
TORSDOF 4
ENDMDL
