MODEL 1
REMARK VINA RESULT:    -3.423      0.000      0.000
REMARK INTER + INTRA:          -4.049
REMARK INTER:                  -4.023
REMARK INTRA:                  -0.026
REMARK UNBOUND:                -0.026
REMARK SMILES O=C([O-])CCC(=O)[O-]
REMARK SMILES IDX 4 1 2 2 1 3 3 4 5 5 6 6 7 7 8 8
REMARK H PARENT
REMARK Flexibility Score: inf
ROOT
ATOM      1  C   UNL     1      24.162   5.859  14.264  1.00  0.00     0.059 C 
ENDROOT
BRANCH   1   2
ATOM      2  C   UNL     1      25.107   6.665  13.429  1.00  0.00     0.042 C 
ATOM      3  O   UNL     1      25.829   7.550  13.963  1.00  0.00    -0.550 OA
ATOM      4  O   UNL     1      25.222   6.414  12.067  1.00  0.00    -0.550 OA
ENDBRANCH   1   2
BRANCH   1   5
ATOM      5  C   UNL     1      24.905   4.850  15.145  1.00  0.00     0.059 C 
BRANCH   5   6
ATOM      6  C   UNL     1      23.967   3.852  15.755  1.00  0.00     0.042 C 
ATOM      7  O   UNL     1      23.774   2.741  15.196  1.00  0.00    -0.550 OA
ATOM      8  O   UNL     1      23.337   4.136  16.960  1.00  0.00    -0.550 OA
ENDBRANCH   5   6
ENDBRANCH   1   5
TORSDOF 3
ENDMDL
MODEL 2
REMARK VINA RESULT:    -3.404      0.070      4.293
REMARK INTER + INTRA:          -4.028
REMARK INTER:                  -4.002
REMARK INTRA:                  -0.026
REMARK UNBOUND:                -0.026
REMARK SMILES O=C([O-])CCC(=O)[O-]
REMARK SMILES IDX 4 1 2 2 1 3 3 4 5 5 6 6 7 7 8 8
REMARK H PARENT
REMARK Flexibility Score: inf
ROOT
ATOM      1  C   UNL     1      24.913   4.838  15.132  1.00  0.00     0.059 C 
ENDROOT
BRANCH   1   2
ATOM      2  C   UNL     1      23.978   3.852  15.761  1.00  0.00     0.042 C 
ATOM      3  O   UNL     1      23.383   4.138  16.835  1.00  0.00    -0.550 OA
ATOM      4  O   UNL     1      23.733   2.632  15.143  1.00  0.00    -0.550 OA
ENDBRANCH   1   2
BRANCH   1   5
ATOM      5  C   UNL     1      24.162   5.858  14.270  1.00  0.00     0.059 C 
BRANCH   5   6
ATOM      6  C   UNL     1      25.103   6.685  13.448  1.00  0.00     0.042 C 
ATOM      7  O   UNL     1      25.806   7.575  13.993  1.00  0.00    -0.550 OA
ATOM      8  O   UNL     1      25.232   6.444  12.086  1.00  0.00    -0.550 OA
ENDBRANCH   5   6
ENDBRANCH   1   5
TORSDOF 3
ENDMDL
MODEL 3
REMARK VINA RESULT:    -3.400      0.049      4.430
REMARK INTER + INTRA:          -4.022
REMARK INTER:                  -3.996
REMARK INTRA:                  -0.026
REMARK UNBOUND:                -0.026
REMARK SMILES O=C([O-])CCC(=O)[O-]
REMARK SMILES IDX 4 1 2 2 1 3 3 4 5 5 6 6 7 7 8 8
REMARK H PARENT
REMARK Flexibility Score: inf
ROOT
ATOM      1  C   UNL     1      24.887   4.856  15.143  1.00  0.00     0.059 C 
ENDROOT
BRANCH   1   2
ATOM      2  C   UNL     1      23.932   3.878  15.754  1.00  0.00     0.042 C 
ATOM      3  O   UNL     1      23.749   2.752  15.220  1.00  0.00    -0.550 OA
ATOM      4  O   UNL     1      23.274   4.193  16.937  1.00  0.00    -0.550 OA
ENDBRANCH   1   2
BRANCH   1   5
ATOM      5  C   UNL     1      24.158   5.900  14.290  1.00  0.00     0.059 C 
BRANCH   5   6
ATOM      6  C   UNL     1      25.114   6.696  13.454  1.00  0.00     0.042 C 
ATOM      7  O   UNL     1      25.827   7.588  13.983  1.00  0.00    -0.550 OA
ATOM      8  O   UNL     1      25.247   6.422  12.099  1.00  0.00    -0.550 OA
ENDBRANCH   5   6
ENDBRANCH   1   5
TORSDOF 3
ENDMDL
MODEL 4
REMARK VINA RESULT:    -3.386      0.088      1.147
REMARK INTER + INTRA:          -4.006
REMARK INTER:                  -3.980
REMARK INTRA:                  -0.026
REMARK UNBOUND:                -0.026
REMARK SMILES O=C([O-])CCC(=O)[O-]
REMARK SMILES IDX 4 1 2 2 1 3 3 4 5 5 6 6 7 7 8 8
REMARK H PARENT
REMARK Flexibility Score: inf
ROOT
ATOM      1  C   UNL     1      24.184   5.911  14.292  1.00  0.00     0.059 C 
ENDROOT
BRANCH   1   2
ATOM      2  C   UNL     1      25.108   6.711  13.427  1.00  0.00     0.042 C 
ATOM      3  O   UNL     1      25.827   7.614  13.932  1.00  0.00    -0.550 OA
ATOM      4  O   UNL     1      25.206   6.434  12.069  1.00  0.00    -0.550 OA
ENDBRANCH   1   2
BRANCH   1   5
ATOM      5  C   UNL     1      24.942   4.855  15.104  1.00  0.00     0.059 C 
BRANCH   5   6
ATOM      6  C   UNL     1      24.007   3.868  15.735  1.00  0.00     0.042 C 
ATOM      7  O   UNL     1      23.414   4.153  16.808  1.00  0.00    -0.550 OA
ATOM      8  O   UNL     1      23.760   2.650  15.114  1.00  0.00    -0.550 OA
ENDBRANCH   5   6
ENDBRANCH   1   5
TORSDOF 3
ENDMDL
MODEL 5
REMARK VINA RESULT:    -3.233      2.096      2.726
REMARK INTER + INTRA:          -3.827
REMARK INTER:                  -3.758
REMARK INTRA:                  -0.069
REMARK UNBOUND:                -0.026
REMARK SMILES O=C([O-])CCC(=O)[O-]
REMARK SMILES IDX 4 1 2 2 1 3 3 4 5 5 6 6 7 7 8 8
REMARK H PARENT
REMARK Flexibility Score: inf
ROOT
ATOM      1  C   UNL     1      24.096   6.169  13.750  1.00  0.00     0.059 C 
ENDROOT
BRANCH   1   2
ATOM      2  C   UNL     1      23.057   6.859  14.579  1.00  0.00     0.042 C 
ATOM      3  O   UNL     1      22.166   6.188  15.166  1.00  0.00    -0.550 OA
ATOM      4  O   UNL     1      23.094   8.238  14.737  1.00  0.00    -0.550 OA
ENDBRANCH   1   2
BRANCH   1   5
ATOM      5  C   UNL     1      25.433   6.066  14.490  1.00  0.00     0.059 C 
BRANCH   5   6
ATOM      6  C   UNL     1      25.477   4.866  15.388  1.00  0.00     0.042 C 
ATOM      7  O   UNL     1      26.380   4.759  16.258  1.00  0.00    -0.550 OA
ATOM      8  O   UNL     1      24.495   3.888  15.289  1.00  0.00    -0.550 OA
ENDBRANCH   5   6
ENDBRANCH   1   5
TORSDOF 3
ENDMDL
MODEL 6
REMARK VINA RESULT:    -3.207      2.107      3.375
REMARK INTER + INTRA:          -3.796
REMARK INTER:                  -3.740
REMARK INTRA:                  -0.056
REMARK UNBOUND:                -0.026
REMARK SMILES O=C([O-])CCC(=O)[O-]
REMARK SMILES IDX 4 1 2 2 1 3 3 4 5 5 6 6 7 7 8 8
REMARK H PARENT
REMARK Flexibility Score: inf
ROOT
ATOM      1  C   UNL     1      25.463   6.133  14.483  1.00  0.00     0.059 C 
ENDROOT
BRANCH   1   2
ATOM      2  C   UNL     1      25.531   4.924  15.364  1.00  0.00     0.042 C 
ATOM      3  O   UNL     1      26.476   4.793  16.188  1.00  0.00    -0.550 OA
ATOM      4  O   UNL     1      24.532   3.960  15.305  1.00  0.00    -0.550 OA
ENDBRANCH   1   2
BRANCH   1   5
ATOM      5  C   UNL     1      24.135   6.203  13.721  1.00  0.00     0.059 C 
BRANCH   5   6
ATOM      6  C   UNL     1      23.068   6.875  14.531  1.00  0.00     0.042 C 
ATOM      7  O   UNL     1      22.156   6.193  15.067  1.00  0.00    -0.550 OA
ATOM      8  O   UNL     1      23.107   8.249  14.728  1.00  0.00    -0.550 OA
ENDBRANCH   5   6
ENDBRANCH   1   5
TORSDOF 3
ENDMDL
MODEL 7
REMARK VINA RESULT:    -3.097      2.213      3.546
REMARK INTER + INTRA:          -3.666
REMARK INTER:                  -3.589
REMARK INTRA:                  -0.078
REMARK UNBOUND:                -0.026
REMARK SMILES O=C([O-])CCC(=O)[O-]
REMARK SMILES IDX 4 1 2 2 1 3 3 4 5 5 6 6 7 7 8 8
REMARK H PARENT
REMARK Flexibility Score: inf
ROOT
ATOM      1  C   UNL     1      24.527   4.486  15.433  1.00  0.00     0.059 C 
ENDROOT
BRANCH   1   2
ATOM      2  C   UNL     1      25.857   4.752  16.067  1.00  0.00     0.042 C 
ATOM      3  O   UNL     1      26.762   5.342  15.418  1.00  0.00    -0.550 OA
ATOM      4  O   UNL     1      26.086   4.385  17.388  1.00  0.00    -0.550 OA
ENDBRANCH   1   2
BRANCH   1   5
ATOM      5  C   UNL     1      24.283   5.398  14.226  1.00  0.00     0.059 C 
BRANCH   5   6
ATOM      6  C   UNL     1      23.318   6.498  14.552  1.00  0.00     0.042 C 
ATOM      7  O   UNL     1      23.602   7.692  14.274  1.00  0.00    -0.550 OA
ATOM      8  O   UNL     1      22.090   6.198  15.126  1.00  0.00    -0.550 OA
ENDBRANCH   5   6
ENDBRANCH   1   5
TORSDOF 3
ENDMDL
MODEL 8
REMARK VINA RESULT:    -3.094      1.465      1.975
REMARK INTER + INTRA:          -3.663
REMARK INTER:                  -3.599
REMARK INTRA:                  -0.064
REMARK UNBOUND:                -0.026
REMARK SMILES O=C([O-])CCC(=O)[O-]
REMARK SMILES IDX 4 1 2 2 1 3 3 4 5 5 6 6 7 7 8 8
REMARK H PARENT
REMARK Flexibility Score: inf
ROOT
ATOM      1  C   UNL     1      24.978   5.137  14.883  1.00  0.00     0.059 C 
ENDROOT
BRANCH   1   2
ATOM      2  C   UNL     1      24.256   6.100  13.992  1.00  0.00     0.042 C 
ATOM      3  O   UNL     1      24.706   6.362  12.844  1.00  0.00    -0.550 OA
ATOM      4  O   UNL     1      23.064   6.678  14.410  1.00  0.00    -0.550 OA
ENDBRANCH   1   2
BRANCH   1   5
ATOM      5  C   UNL     1      24.015   4.142  15.539  1.00  0.00     0.059 C 
BRANCH   5   6
ATOM      6  C   UNL     1      24.112   4.183  17.034  1.00  0.00     0.042 C 
ATOM      7  O   UNL     1      25.238   4.204  17.595  1.00  0.00    -0.550 OA
ATOM      8  O   UNL     1      22.958   4.239  17.805  1.00  0.00    -0.550 OA
ENDBRANCH   5   6
ENDBRANCH   1   5
TORSDOF 3
ENDMDL
MODEL 9
REMARK VINA RESULT:    -2.947      2.254      3.198
REMARK INTER + INTRA:          -3.490
REMARK INTER:                  -3.464
REMARK INTRA:                  -0.026
REMARK UNBOUND:                -0.026
REMARK SMILES O=C([O-])CCC(=O)[O-]
REMARK SMILES IDX 4 1 2 2 1 3 3 4 5 5 6 6 7 7 8 8
REMARK H PARENT
REMARK Flexibility Score: inf
ROOT
ATOM      1  C   UNL     1      24.750   6.184  11.528  1.00  0.00     0.059 C 
ENDROOT
BRANCH   1   2
ATOM      2  C   UNL     1      25.806   6.202  10.466  1.00  0.00     0.042 C 
ATOM      3  O   UNL     1      26.276   7.298  10.058  1.00  0.00    -0.550 OA
ATOM      4  O   UNL     1      26.300   5.009   9.954  1.00  0.00    -0.550 OA
ENDBRANCH   1   2
BRANCH   1   5
ATOM      5  C   UNL     1      25.325   6.544  12.902  1.00  0.00     0.059 C 
BRANCH   5   6
ATOM      6  C   UNL     1      24.402   6.136  14.011  1.00  0.00     0.042 C 
ATOM      7  O   UNL     1      23.335   6.773  14.213  1.00  0.00    -0.550 OA
ATOM      8  O   UNL     1      24.702   5.028  14.792  1.00  0.00    -0.550 OA
ENDBRANCH   5   6
ENDBRANCH   1   5
TORSDOF 3
ENDMDL
