MODEL 1
REMARK VINA RESULT:     3.038      0.000      0.000
REMARK INTER + INTRA:           4.398
REMARK INTER:                   4.459
REMARK INTRA:                  -0.061
REMARK UNBOUND:                -0.061
REMARK SMILES O=C([O-])CCCCCCCC(=O)[O-]
REMARK SMILES IDX 7 1 6 2 5 3 4 4 2 5 1 6 3 7 8 8 9 9 10 10 11 11 12 12 13 13
REMARK H PARENT
REMARK Flexibility Score: inf
ROOT
ATOM      1  C   UNL     1      -2.559  50.811  10.105  1.00  0.00     0.000 C 
ENDROOT
BRANCH   1   2
ATOM      2  C   UNL     1      -2.867  51.677   8.872  1.00  0.00     0.000 C 
BRANCH   2   3
ATOM      3  C   UNL     1      -3.315  53.103   9.244  1.00  0.00     0.006 C 
BRANCH   3   4
ATOM      4  C   UNL     1      -4.570  53.585   8.498  1.00  0.00     0.053 C 
BRANCH   4   5
ATOM      5  C   UNL     1      -5.558  54.231   9.421  1.00  0.00     0.041 C 
ATOM      6  O   UNL     1      -5.222  55.231  10.109  1.00  0.00    -0.550 OA
ATOM      7  O   UNL     1      -6.860  53.749   9.496  1.00  0.00    -0.550 OA
ENDBRANCH   4   5
ENDBRANCH   3   4
ENDBRANCH   2   3
ENDBRANCH   1   2
BRANCH   1   8
ATOM      8  C   UNL     1      -1.150  50.199  10.062  1.00  0.00     0.000 C 
BRANCH   8   9
ATOM      9  C   UNL     1      -0.498  50.317   8.673  1.00  0.00     0.006 C 
BRANCH   9  10
ATOM     10  C   UNL     1       0.851  51.047   8.727  1.00  0.00     0.053 C 
BRANCH  10  11
ATOM     11  C   UNL     1       0.686  52.501   9.050  1.00  0.00     0.041 C 
ATOM     12  O   UNL     1       0.131  52.853  10.123  1.00  0.00    -0.550 OA
ATOM     13  O   UNL     1       1.118  53.468   8.150  1.00  0.00    -0.550 OA
ENDBRANCH  10  11
ENDBRANCH   9  10
ENDBRANCH   8   9
ENDBRANCH   1   8
TORSDOF 8
ENDMDL
