MODEL 1
REMARK VINA RESULT:    -7.422      0.000      0.000
REMARK INTER + INTRA:          -9.263
REMARK INTER:                  -8.941
REMARK INTRA:                  -0.322
REMARK UNBOUND:                -0.322
REMARK SMILES Oc1cc(O)c2cc(O)c(-c3ccc(O)c(O)c3)[o+]c2c1.[Cl-]
REMARK SMILES IDX 10 1 19 2 20 3 21 4 2 5 3 6 4 7 6 8 7 9 8 10 11 11 12 12
REMARK SMILES IDX 13 13 14 14 18 15 16 16 15 17 17 19 9 21 1 23 5 25
REMARK H PARENT 15 18 17 20 9 22 1 24 5 26
REMARK Flexibility Score: inf
ROOT
ATOM      1  C   UNL     1      10.615  15.590 164.767  1.00  0.00     0.402 A 
ATOM      2  O   UNL     1      10.123  14.879 163.756  1.00  0.00    -0.202 OA
ATOM      3  C   UNL     1      10.847  14.018 163.048  1.00  0.00     0.368 A 
ATOM      4  C   UNL     1      10.241  13.319 162.000  1.00  0.00     0.162 A 
ATOM      5  C   UNL     1      10.977  12.411 161.239  1.00  0.00     0.128 A 
ATOM      6  C   UNL     1      12.330  12.201 161.522  1.00  0.00     0.093 A 
ATOM      7  C   UNL     1      12.962  12.889 162.566  1.00  0.00     0.136 A 
ATOM      8  C   UNL     1      12.215  13.810 163.346  1.00  0.00     0.125 A 
ATOM      9  C   UNL     1      12.761  14.534 164.419  1.00  0.00     0.078 A 
ATOM     10  C   UNL     1      11.960  15.422 165.144  1.00  0.00     0.223 A 
ENDROOT
BRANCH   1  11
ATOM     11  C   UNL     1       9.708  16.524 165.472  1.00  0.00     0.087 A 
ATOM     12  C   UNL     1       9.398  17.786 164.937  1.00  0.00     0.022 A 
ATOM     13  C   UNL     1       8.521  18.642 165.610  1.00  0.00     0.051 A 
ATOM     14  C   UNL     1       7.934  18.248 166.817  1.00  0.00     0.157 A 
ATOM     15  C   UNL     1       9.101  16.123 166.673  1.00  0.00     0.068 A 
ATOM     16  C   UNL     1       8.221  16.981 167.350  1.00  0.00     0.158 A 
BRANCH  14  17
ATOM     17  O   UNL     1       7.064  19.125 167.466  1.00  0.00    -0.504 OA
ATOM     18  H   UNL     1       6.438  19.736 166.957  1.00  0.00     0.293 HD
ENDBRANCH  14  17
BRANCH  16  19
ATOM     19  O   UNL     1       7.634  16.578 168.549  1.00  0.00    -0.504 OA
ATOM     20  H   UNL     1       6.969  15.814 168.585  1.00  0.00     0.293 HD
ENDBRANCH  16  19
ENDBRANCH   1  11
BRANCH  10  21
ATOM     21  O   UNL     1      12.488  16.103 166.241  1.00  0.00    -0.500 OA
ATOM     22  H   UNL     1      12.094  16.005 167.169  1.00  0.00     0.294 HD
ENDBRANCH  10  21
BRANCH   5  23
ATOM     23  O   UNL     1      10.354  11.724 160.199  1.00  0.00    -0.507 OA
ATOM     24  H   UNL     1      10.672  10.808 159.904  1.00  0.00     0.293 HD
ENDBRANCH   5  23
BRANCH   7  25
ATOM     25  O   UNL     1      14.317  12.625 162.785  1.00  0.00    -0.507 OA
ATOM     26  H   UNL     1      14.954  13.257 163.247  1.00  0.00     0.293 HD
ENDBRANCH   7  25
TORSDOF 6
ENDMDL
MODEL 2
REMARK VINA RESULT:    -6.777      1.903      2.054
REMARK INTER + INTRA:          -8.485
REMARK INTER:                  -8.757
REMARK INTRA:                   0.272
REMARK UNBOUND:                -0.322
REMARK SMILES Oc1cc(O)c2cc(O)c(-c3ccc(O)c(O)c3)[o+]c2c1.[Cl-]
REMARK SMILES IDX 10 1 19 2 20 3 21 4 2 5 3 6 4 7 6 8 7 9 8 10 11 11 12 12
REMARK SMILES IDX 13 13 14 14 18 15 16 16 15 17 17 19 9 21 1 23 5 25
REMARK H PARENT 15 18 17 20 9 22 1 24 5 26
REMARK Flexibility Score: inf
ROOT
ATOM      1  C   UNL     1      10.003  16.434 165.131  1.00  0.00     0.402 A 
ATOM      2  O   UNL     1      10.079  16.694 163.828  1.00  0.00    -0.202 OA
ATOM      3  C   UNL     1      10.979  16.139 163.024  1.00  0.00     0.368 A 
ATOM      4  C   UNL     1      10.981  16.479 161.668  1.00  0.00     0.162 A 
ATOM      5  C   UNL     1      11.917  15.914 160.801  1.00  0.00     0.128 A 
ATOM      6  C   UNL     1      12.860  15.005 161.290  1.00  0.00     0.093 A 
ATOM      7  C   UNL     1      12.880  14.648 162.644  1.00  0.00     0.136 A 
ATOM      8  C   UNL     1      11.927  15.218 163.529  1.00  0.00     0.125 A 
ATOM      9  C   UNL     1      11.864  14.909 164.898  1.00  0.00     0.078 A 
ATOM     10  C   UNL     1      10.893  15.508 165.707  1.00  0.00     0.223 A 
ENDROOT
BRANCH   1  11
ATOM     11  C   UNL     1       8.961  17.124 165.923  1.00  0.00     0.087 A 
ATOM     12  C   UNL     1       8.498  18.403 165.568  1.00  0.00     0.022 A 
ATOM     13  C   UNL     1       7.496  19.025 166.318  1.00  0.00     0.051 A 
ATOM     14  C   UNL     1       6.935  18.379 167.423  1.00  0.00     0.157 A 
ATOM     15  C   UNL     1       8.380  16.469 167.021  1.00  0.00     0.068 A 
ATOM     16  C   UNL     1       7.375  17.093 167.776  1.00  0.00     0.158 A 
BRANCH  14  17
ATOM     17  O   UNL     1       5.938  19.026 168.154  1.00  0.00    -0.504 OA
ATOM     18  H   UNL     1       6.116  19.882 168.665  1.00  0.00     0.293 HD
ENDBRANCH  14  17
BRANCH  16  19
ATOM     19  O   UNL     1       6.815  16.438 168.872  1.00  0.00    -0.504 OA
ATOM     20  H   UNL     1       6.094  15.735 168.759  1.00  0.00     0.293 HD
ENDBRANCH  16  19
ENDBRANCH   1  11
BRANCH  10  21
ATOM     21  O   UNL     1      10.798  15.165 167.055  1.00  0.00    -0.500 OA
ATOM     22  H   UNL     1      10.318  14.325 167.358  1.00  0.00     0.294 HD
ENDBRANCH  10  21
BRANCH   5  23
ATOM     23  O   UNL     1      11.901  16.266 159.452  1.00  0.00    -0.507 OA
ATOM     24  H   UNL     1      11.093  16.710 159.031  1.00  0.00     0.293 HD
ENDBRANCH   5  23
BRANCH   7  25
ATOM     25  O   UNL     1      13.856  13.735 163.056  1.00  0.00    -0.507 OA
ATOM     26  H   UNL     1      13.863  13.275 163.954  1.00  0.00     0.293 HD
ENDBRANCH   7  25
TORSDOF 6
ENDMDL
MODEL 3
REMARK VINA RESULT:    -6.062      1.968      6.984
REMARK INTER + INTRA:          -7.625
REMARK INTER:                  -7.628
REMARK INTRA:                   0.004
REMARK UNBOUND:                -0.322
REMARK SMILES Oc1cc(O)c2cc(O)c(-c3ccc(O)c(O)c3)[o+]c2c1.[Cl-]
REMARK SMILES IDX 10 1 19 2 20 3 21 4 2 5 3 6 4 7 6 8 7 9 8 10 11 11 12 12
REMARK SMILES IDX 13 13 14 14 18 15 16 16 15 17 17 19 9 21 1 23 5 25
REMARK H PARENT 15 18 17 20 9 22 1 24 5 26
REMARK Flexibility Score: inf
ROOT
ATOM      1  C   UNL     1      10.614  16.633 164.905  1.00  0.00     0.402 A 
ATOM      2  O   UNL     1      10.111  16.001 165.963  1.00  0.00    -0.202 OA
ATOM      3  C   UNL     1       9.026  16.412 166.610  1.00  0.00     0.368 A 
ATOM      4  C   UNL     1       8.575  15.683 167.714  1.00  0.00     0.162 A 
ATOM      5  C   UNL     1       7.441  16.092 168.415  1.00  0.00     0.128 A 
ATOM      6  C   UNL     1       6.750  17.240 168.013  1.00  0.00     0.093 A 
ATOM      7  C   UNL     1       7.181  17.989 166.910  1.00  0.00     0.136 A 
ATOM      8  C   UNL     1       8.333  17.574 166.193  1.00  0.00     0.125 A 
ATOM      9  C   UNL     1       8.830  18.254 165.069  1.00  0.00     0.078 A 
ATOM     10  C   UNL     1       9.969  17.782 164.411  1.00  0.00     0.223 A 
ENDROOT
BRANCH   1  11
ATOM     11  C   UNL     1      11.835  16.081 164.276  1.00  0.00     0.087 A 
ATOM     12  C   UNL     1      12.899  16.914 163.887  1.00  0.00     0.022 A 
ATOM     13  C   UNL     1      14.052  16.367 163.316  1.00  0.00     0.051 A 
ATOM     14  C   UNL     1      14.166  14.986 163.135  1.00  0.00     0.157 A 
ATOM     15  C   UNL     1      11.961  14.692 164.111  1.00  0.00     0.068 A 
ATOM     16  C   UNL     1      13.117  14.142 163.537  1.00  0.00     0.158 A 
BRANCH  14  17
ATOM     17  O   UNL     1      15.327  14.470 162.560  1.00  0.00    -0.504 OA
ATOM     18  H   UNL     1      15.408  14.307 161.564  1.00  0.00     0.293 HD
ENDBRANCH  14  17
BRANCH  16  19
ATOM     19  O   UNL     1      13.226  12.763 163.367  1.00  0.00    -0.504 OA
ATOM     20  H   UNL     1      14.075  12.263 163.604  1.00  0.00     0.293 HD
ENDBRANCH  16  19
ENDBRANCH   1  11
BRANCH  10  21
ATOM     21  O   UNL     1      10.433  18.428 163.265  1.00  0.00    -0.500 OA
ATOM     22  H   UNL     1      11.253  19.023 163.284  1.00  0.00     0.294 HD
ENDBRANCH  10  21
BRANCH   5  23
ATOM     23  O   UNL     1       7.008  15.350 169.512  1.00  0.00    -0.507 OA
ATOM     24  H   UNL     1       6.636  15.800 170.341  1.00  0.00     0.293 HD
ENDBRANCH   5  23
BRANCH   7  25
ATOM     25  O   UNL     1       6.439  19.125 166.574  1.00  0.00    -0.507 OA
ATOM     26  H   UNL     1       5.452  19.235 166.753  1.00  0.00     0.293 HD
ENDBRANCH   7  25
TORSDOF 6
ENDMDL
MODEL 4
REMARK VINA RESULT:    -5.603      1.966      6.958
REMARK INTER + INTRA:          -7.071
REMARK INTER:                  -6.997
REMARK INTRA:                  -0.074
REMARK UNBOUND:                -0.322
REMARK SMILES Oc1cc(O)c2cc(O)c(-c3ccc(O)c(O)c3)[o+]c2c1.[Cl-]
REMARK SMILES IDX 10 1 19 2 20 3 21 4 2 5 3 6 4 7 6 8 7 9 8 10 11 11 12 12
REMARK SMILES IDX 13 13 14 14 18 15 16 16 15 17 17 19 9 21 1 23 5 25
REMARK H PARENT 15 18 17 20 9 22 1 24 5 26
REMARK Flexibility Score: inf
ROOT
ATOM      1  C   UNL     1      11.473  16.390 164.297  1.00  0.00     0.402 A 
ATOM      2  O   UNL     1      10.950  15.850 165.395  1.00  0.00    -0.202 OA
ATOM      3  C   UNL     1       9.840  16.298 165.972  1.00  0.00     0.368 A 
ATOM      4  C   UNL     1       9.370  15.665 167.126  1.00  0.00     0.162 A 
ATOM      5  C   UNL     1       8.209  16.116 167.755  1.00  0.00     0.128 A 
ATOM      6  C   UNL     1       7.512  17.209 167.229  1.00  0.00     0.093 A 
ATOM      7  C   UNL     1       7.962  17.861 166.074  1.00  0.00     0.136 A 
ATOM      8  C   UNL     1       9.141  17.403 165.430  1.00  0.00     0.125 A 
ATOM      9  C   UNL     1       9.658  17.986 164.262  1.00  0.00     0.078 A 
ATOM     10  C   UNL     1      10.823  17.476 163.681  1.00  0.00     0.223 A 
ENDROOT
BRANCH   1  11
ATOM     11  C   UNL     1      12.720  15.806 163.755  1.00  0.00     0.087 A 
ATOM     12  C   UNL     1      13.829  16.611 163.439  1.00  0.00     0.022 A 
ATOM     13  C   UNL     1      15.004  16.034 162.951  1.00  0.00     0.051 A 
ATOM     14  C   UNL     1      15.096  14.649 162.780  1.00  0.00     0.157 A 
ATOM     15  C   UNL     1      12.823  14.414 163.603  1.00  0.00     0.068 A 
ATOM     16  C   UNL     1      14.001  13.833 163.111  1.00  0.00     0.158 A 
BRANCH  14  17
ATOM     17  O   UNL     1      16.281  14.103 162.289  1.00  0.00    -0.504 OA
ATOM     18  H   UNL     1      16.325  13.164 161.912  1.00  0.00     0.293 HD
ENDBRANCH  14  17
BRANCH  16  19
ATOM     19  O   UNL     1      14.087  12.451 162.952  1.00  0.00    -0.504 OA
ATOM     20  H   UNL     1      14.575  11.868 163.622  1.00  0.00     0.293 HD
ENDBRANCH  16  19
ENDBRANCH   1  11
BRANCH  10  21
ATOM     21  O   UNL     1      11.310  18.023 162.494  1.00  0.00    -0.500 OA
ATOM     22  H   UNL     1      11.943  18.813 162.491  1.00  0.00     0.294 HD
ENDBRANCH  10  21
BRANCH   5  23
ATOM     23  O   UNL     1       7.757  15.470 168.904  1.00  0.00    -0.507 OA
ATOM     24  H   UNL     1       8.333  15.408 169.736  1.00  0.00     0.293 HD
ENDBRANCH   5  23
BRANCH   7  25
ATOM     25  O   UNL     1       7.211  18.947 165.614  1.00  0.00    -0.507 OA
ATOM     26  H   UNL     1       6.212  18.930 165.473  1.00  0.00     0.293 HD
ENDBRANCH   7  25
TORSDOF 6
ENDMDL
MODEL 5
REMARK VINA RESULT:    -5.578      1.552      1.598
REMARK INTER + INTRA:          -7.041
REMARK INTER:                  -7.045
REMARK INTRA:                   0.004
REMARK UNBOUND:                -0.322
REMARK SMILES Oc1cc(O)c2cc(O)c(-c3ccc(O)c(O)c3)[o+]c2c1.[Cl-]
REMARK SMILES IDX 10 1 19 2 20 3 21 4 2 5 3 6 4 7 6 8 7 9 8 10 11 11 12 12
REMARK SMILES IDX 13 13 14 14 18 15 16 16 15 17 17 19 9 21 1 23 5 25
REMARK H PARENT 15 18 17 20 9 22 1 24 5 26
REMARK Flexibility Score: inf
ROOT
ATOM      1  C   UNL     1      10.279  16.458 163.936  1.00  0.00     0.402 A 
ATOM      2  O   UNL     1       9.968  15.196 163.648  1.00  0.00    -0.202 OA
ATOM      3  C   UNL     1      10.627  14.469 162.752  1.00  0.00     0.368 A 
ATOM      4  C   UNL     1      10.223  13.151 162.516  1.00  0.00     0.162 A 
ATOM      5  C   UNL     1      10.894  12.365 161.578  1.00  0.00     0.128 A 
ATOM      6  C   UNL     1      11.974  12.898 160.868  1.00  0.00     0.093 A 
ATOM      7  C   UNL     1      12.398  14.216 161.085  1.00  0.00     0.136 A 
ATOM      8  C   UNL     1      11.721  15.017 162.041  1.00  0.00     0.125 A 
ATOM      9  C   UNL     1      12.084  16.342 162.333  1.00  0.00     0.078 A 
ATOM     10  C   UNL     1      11.371  17.068 163.292  1.00  0.00     0.223 A 
ENDROOT
BRANCH   1  11
ATOM     11  C   UNL     1       9.463  17.166 164.948  1.00  0.00     0.087 A 
ATOM     12  C   UNL     1       9.023  18.485 164.741  1.00  0.00     0.022 A 
ATOM     13  C   UNL     1       8.234  19.125 165.701  1.00  0.00     0.051 A 
ATOM     14  C   UNL     1       7.863  18.458 166.872  1.00  0.00     0.157 A 
ATOM     15  C   UNL     1       9.070  16.491 166.115  1.00  0.00     0.068 A 
ATOM     16  C   UNL     1       8.279  17.132 167.080  1.00  0.00     0.158 A 
BRANCH  14  17
ATOM     17  O   UNL     1       7.076  19.123 167.812  1.00  0.00    -0.504 OA
ATOM     18  H   UNL     1       7.234  20.094 168.055  1.00  0.00     0.293 HD
ENDBRANCH  14  17
BRANCH  16  19
ATOM     19  O   UNL     1       7.907  16.457 168.241  1.00  0.00    -0.504 OA
ATOM     20  H   UNL     1       6.951  16.160 168.400  1.00  0.00     0.293 HD
ENDBRANCH  16  19
ENDBRANCH   1  11
BRANCH  10  21
ATOM     21  O   UNL     1      11.762  18.366 163.619  1.00  0.00    -0.500 OA
ATOM     22  H   UNL     1      11.395  19.173 163.128  1.00  0.00     0.294 HD
ENDBRANCH  10  21
BRANCH   5  23
ATOM     23  O   UNL     1      10.476  11.054 161.359  1.00  0.00    -0.507 OA
ATOM     24  H   UNL     1      10.179  10.459 162.123  1.00  0.00     0.293 HD
ENDBRANCH   5  23
BRANCH   7  25
ATOM     25  O   UNL     1      13.484  14.675 160.334  1.00  0.00    -0.507 OA
ATOM     26  H   UNL     1      14.416  14.805 160.699  1.00  0.00     0.293 HD
ENDBRANCH   7  25
TORSDOF 6
ENDMDL
MODEL 6
REMARK VINA RESULT:    -4.919      2.223      3.138
REMARK INTER + INTRA:          -6.248
REMARK INTER:                  -6.276
REMARK INTRA:                   0.029
REMARK UNBOUND:                -0.322
REMARK SMILES Oc1cc(O)c2cc(O)c(-c3ccc(O)c(O)c3)[o+]c2c1.[Cl-]
REMARK SMILES IDX 10 1 19 2 20 3 21 4 2 5 3 6 4 7 6 8 7 9 8 10 11 11 12 12
REMARK SMILES IDX 13 13 14 14 18 15 16 16 15 17 17 19 9 21 1 23 5 25
REMARK H PARENT 15 18 17 20 9 22 1 24 5 26
REMARK Flexibility Score: inf
ROOT
ATOM      1  C   UNL     1      11.128  16.613 163.707  1.00  0.00     0.402 A 
ATOM      2  O   UNL     1      12.127  15.954 164.288  1.00  0.00    -0.202 OA
ATOM      3  C   UNL     1      13.094  15.346 163.609  1.00  0.00     0.368 A 
ATOM      4  C   UNL     1      14.100  14.676 164.309  1.00  0.00     0.162 A 
ATOM      5  C   UNL     1      15.126  14.026 163.622  1.00  0.00     0.128 A 
ATOM      6  C   UNL     1      15.146  14.042 162.224  1.00  0.00     0.093 A 
ATOM      7  C   UNL     1      14.149  14.706 161.497  1.00  0.00     0.136 A 
ATOM      8  C   UNL     1      13.106  15.371 162.193  1.00  0.00     0.125 A 
ATOM      9  C   UNL     1      12.074  16.072 161.549  1.00  0.00     0.078 A 
ATOM     10  C   UNL     1      11.082  16.708 162.304  1.00  0.00     0.223 A 
ENDROOT
BRANCH   1  11
ATOM     11  C   UNL     1      10.106  17.241 164.574  1.00  0.00     0.087 A 
ATOM     12  C   UNL     1       9.674  18.561 164.358  1.00  0.00     0.022 A 
ATOM     13  C   UNL     1       8.690  19.125 165.176  1.00  0.00     0.051 A 
ATOM     14  C   UNL     1       8.117  18.380 166.211  1.00  0.00     0.157 A 
ATOM     15  C   UNL     1       9.513  16.488 165.601  1.00  0.00     0.068 A 
ATOM     16  C   UNL     1       8.527  17.053 166.423  1.00  0.00     0.158 A 
BRANCH  14  17
ATOM     17  O   UNL     1       7.139  18.970 167.011  1.00  0.00    -0.504 OA
ATOM     18  H   UNL     1       6.949  18.649 167.953  1.00  0.00     0.293 HD
ENDBRANCH  14  17
BRANCH  16  19
ATOM     19  O   UNL     1       7.955  16.301 167.448  1.00  0.00    -0.504 OA
ATOM     20  H   UNL     1       7.406  16.733 168.182  1.00  0.00     0.293 HD
ENDBRANCH  16  19
ENDBRANCH   1  11
BRANCH  10  21
ATOM     21  O   UNL     1      10.085  17.446 161.667  1.00  0.00    -0.500 OA
ATOM     22  H   UNL     1       9.216  17.679 162.132  1.00  0.00     0.294 HD
ENDBRANCH  10  21
BRANCH   5  23
ATOM     23  O   UNL     1      16.120  13.364 164.340  1.00  0.00    -0.507 OA
ATOM     24  H   UNL     1      17.085  13.677 164.319  1.00  0.00     0.293 HD
ENDBRANCH   5  23
BRANCH   7  25
ATOM     25  O   UNL     1      14.239  14.674 160.103  1.00  0.00    -0.507 OA
ATOM     26  H   UNL     1      14.348  15.491 159.519  1.00  0.00     0.293 HD
ENDBRANCH   7  25
TORSDOF 6
ENDMDL
MODEL 7
REMARK VINA RESULT:    -4.490      3.260      6.606
REMARK INTER + INTRA:          -5.731
REMARK INTER:                  -6.032
REMARK INTRA:                   0.301
REMARK UNBOUND:                -0.322
REMARK SMILES Oc1cc(O)c2cc(O)c(-c3ccc(O)c(O)c3)[o+]c2c1.[Cl-]
REMARK SMILES IDX 10 1 19 2 20 3 21 4 2 5 3 6 4 7 6 8 7 9 8 10 11 11 12 12
REMARK SMILES IDX 13 13 14 14 18 15 16 16 15 17 17 19 9 21 1 23 5 25
REMARK H PARENT 15 18 17 20 9 22 1 24 5 26
REMARK Flexibility Score: inf
ROOT
ATOM      1  C   UNL     1      10.737  16.818 163.292  1.00  0.00     0.402 A 
ATOM      2  O   UNL     1       9.799  17.469 163.975  1.00  0.00    -0.202 OA
ATOM      3  C   UNL     1       9.394  17.106 165.187  1.00  0.00     0.368 A 
ATOM      4  C   UNL     1       8.399  17.853 165.824  1.00  0.00     0.162 A 
ATOM      5  C   UNL     1       7.953  17.494 167.096  1.00  0.00     0.128 A 
ATOM      6  C   UNL     1       8.501  16.379 167.738  1.00  0.00     0.093 A 
ATOM      7  C   UNL     1       9.499  15.613 167.121  1.00  0.00     0.136 A 
ATOM      8  C   UNL     1       9.958  15.978 165.829  1.00  0.00     0.125 A 
ATOM      9  C   UNL     1      10.962  15.277 165.141  1.00  0.00     0.078 A 
ATOM     10  C   UNL     1      11.366  15.700 163.870  1.00  0.00     0.223 A 
ENDROOT
BRANCH   1  11
ATOM     11  C   UNL     1      11.094  17.315 161.944  1.00  0.00     0.087 A 
ATOM     12  C   UNL     1      10.965  18.674 161.607  1.00  0.00     0.022 A 
ATOM     13  C   UNL     1      11.330  19.124 160.336  1.00  0.00     0.051 A 
ATOM     14  C   UNL     1      11.839  18.232 159.388  1.00  0.00     0.157 A 
ATOM     15  C   UNL     1      11.626  16.425 160.997  1.00  0.00     0.068 A 
ATOM     16  C   UNL     1      11.992  16.875 159.720  1.00  0.00     0.158 A 
BRANCH  14  17
ATOM     17  O   UNL     1      12.194  18.710 158.127  1.00  0.00    -0.504 OA
ATOM     18  H   UNL     1      12.418  18.089 157.359  1.00  0.00     0.293 HD
ENDBRANCH  14  17
BRANCH  16  19
ATOM     19  O   UNL     1      12.506  15.980 158.783  1.00  0.00    -0.504 OA
ATOM     20  H   UNL     1      13.251  15.335 159.018  1.00  0.00     0.293 HD
ENDBRANCH  16  19
ENDBRANCH   1  11
BRANCH  10  21
ATOM     21  O   UNL     1      12.398  15.035 163.208  1.00  0.00    -0.500 OA
ATOM     22  H   UNL     1      12.968  15.498 162.510  1.00  0.00     0.294 HD
ENDBRANCH  10  21
BRANCH   5  23
ATOM     23  O   UNL     1       6.960  18.252 167.714  1.00  0.00    -0.507 OA
ATOM     24  H   UNL     1       7.069  19.251 167.857  1.00  0.00     0.293 HD
ENDBRANCH   5  23
BRANCH   7  25
ATOM     25  O   UNL     1       9.994  14.512 167.826  1.00  0.00    -0.507 OA
ATOM     26  H   UNL     1       9.652  13.568 167.723  1.00  0.00     0.293 HD
ENDBRANCH   7  25
TORSDOF 6
ENDMDL
