MODEL 1
REMARK VINA RESULT:    -7.732      0.000      0.000
REMARK INTER + INTRA:          -9.380
REMARK INTER:                  -9.088
REMARK INTRA:                  -0.291
REMARK UNBOUND:                -0.291
REMARK SMILES O=c1cc(-c2ccc(O)c(O)c2)oc2cc(O)cc(O)c12
REMARK SMILES IDX 4 1 3 2 2 3 1 4 21 5 19 6 18 7 16 8 15 9 14 10 13 11 5 12
REMARK SMILES IDX 6 13 7 14 8 15 12 16 10 17 9 18 11 20 20 22 17 24
REMARK H PARENT 9 19 11 21 20 23 17 25
REMARK Flexibility Score: inf
ROOT
ATOM      1  C   UNL     1      17.642  22.529  40.138  1.00  0.00     0.138 A 
ATOM      2  C   UNL     1      17.352  23.602  39.280  1.00  0.00     0.100 A 
ATOM      3  C   UNL     1      16.229  24.393  39.525  1.00  0.00     0.197 A 
ATOM      4  O   UNL     1      15.976  25.354  38.747  1.00  0.00    -0.289 OA
ATOM      5  C   UNL     1      15.401  24.105  40.628  1.00  0.00     0.107 A 
ATOM      6  C   UNL     1      14.247  24.857  40.949  1.00  0.00     0.134 A 
ATOM      7  C   UNL     1      13.472  24.501  42.063  1.00  0.00     0.093 A 
ATOM      8  C   UNL     1      13.830  23.407  42.859  1.00  0.00     0.123 A 
ATOM      9  C   UNL     1      14.968  22.661  42.547  1.00  0.00     0.094 A 
ATOM     10  C   UNL     1      15.754  23.001  41.441  1.00  0.00     0.146 A 
ATOM     11  O   UNL     1      16.834  22.276  41.166  1.00  0.00    -0.456 OA
ENDROOT
BRANCH   1  12
ATOM     12  C   UNL     1      18.821  21.652  39.925  1.00  0.00     0.021 A 
ATOM     13  C   UNL     1      18.826  20.356  40.470  1.00  0.00     0.016 A 
ATOM     14  C   UNL     1      19.927  19.514  40.291  1.00  0.00     0.051 A 
ATOM     15  C   UNL     1      21.043  19.955  39.572  1.00  0.00     0.157 A 
ATOM     16  C   UNL     1      19.954  22.094  39.214  1.00  0.00     0.062 A 
ATOM     17  C   UNL     1      21.059  21.249  39.035  1.00  0.00     0.158 A 
BRANCH  15  18
ATOM     18  O   UNL     1      22.142  19.118  39.390  1.00  0.00    -0.504 OA
ATOM     19  H   UNL     1      22.153  18.172  39.752  1.00  0.00     0.293 HD
ENDBRANCH  15  18
BRANCH  17  20
ATOM     20  O   UNL     1      22.177  21.688  38.329  1.00  0.00    -0.504 OA
ATOM     21  H   UNL     1      22.317  21.449  37.355  1.00  0.00     0.293 HD
ENDBRANCH  17  20
ENDBRANCH   1  12
BRANCH   6  22
ATOM     22  O   UNL     1      13.866  25.952  40.172  1.00  0.00    -0.507 OA
ATOM     23  H   UNL     1      14.160  26.050  39.207  1.00  0.00     0.293 HD
ENDBRANCH   6  22
BRANCH   8  24
ATOM     24  O   UNL     1      13.060  23.052  43.965  1.00  0.00    -0.508 OA
ATOM     25  H   UNL     1      12.100  22.743  43.865  1.00  0.00     0.293 HD
ENDBRANCH   8  24
TORSDOF 5
ENDMDL
MODEL 2
REMARK VINA RESULT:    -7.298      1.899      3.097
REMARK INTER + INTRA:          -8.870
REMARK INTER:                  -8.567
REMARK INTRA:                  -0.302
REMARK UNBOUND:                -0.291
REMARK SMILES O=c1cc(-c2ccc(O)c(O)c2)oc2cc(O)cc(O)c12
REMARK SMILES IDX 4 1 3 2 2 3 1 4 21 5 19 6 18 7 16 8 15 9 14 10 13 11 5 12
REMARK SMILES IDX 6 13 7 14 8 15 12 16 10 17 9 18 11 20 20 22 17 24
REMARK H PARENT 9 19 11 21 20 23 17 25
REMARK Flexibility Score: inf
ROOT
ATOM      1  C   UNL     1      15.559  23.168  41.099  1.00  0.00     0.138 A 
ATOM      2  C   UNL     1      14.919  24.349  40.688  1.00  0.00     0.100 A 
ATOM      3  C   UNL     1      13.918  24.902  41.487  1.00  0.00     0.197 A 
ATOM      4  O   UNL     1      13.348  25.961  41.109  1.00  0.00    -0.289 OA
ATOM      5  C   UNL     1      13.562  24.268  42.695  1.00  0.00     0.107 A 
ATOM      6  C   UNL     1      12.561  24.762  43.564  1.00  0.00     0.134 A 
ATOM      7  C   UNL     1      12.263  24.068  44.746  1.00  0.00     0.093 A 
ATOM      8  C   UNL     1      12.945  22.891  45.073  1.00  0.00     0.123 A 
ATOM      9  C   UNL     1      13.933  22.399  44.218  1.00  0.00     0.094 A 
ATOM     10  C   UNL     1      14.246  23.077  43.036  1.00  0.00     0.146 A 
ATOM     11  O   UNL     1      15.192  22.589  42.240  1.00  0.00    -0.456 OA
ENDROOT
BRANCH   1  12
ATOM     12  C   UNL     1      16.629  22.534  40.288  1.00  0.00     0.021 A 
ATOM     13  C   UNL     1      17.506  23.345  39.546  1.00  0.00     0.016 A 
ATOM     14  C   UNL     1      18.516  22.772  38.769  1.00  0.00     0.051 A 
ATOM     15  C   UNL     1      18.661  21.381  38.712  1.00  0.00     0.157 A 
ATOM     16  C   UNL     1      16.773  21.135  40.216  1.00  0.00     0.062 A 
ATOM     17  C   UNL     1      17.786  20.561  39.435  1.00  0.00     0.158 A 
BRANCH  15  18
ATOM     18  O   UNL     1      19.669  20.807  37.940  1.00  0.00    -0.504 OA
ATOM     19  H   UNL     1      20.364  20.192  38.347  1.00  0.00     0.293 HD
ENDBRANCH  15  18
BRANCH  17  20
ATOM     20  O   UNL     1      17.927  19.176  39.368  1.00  0.00    -0.504 OA
ATOM     21  H   UNL     1      17.971  18.689  38.480  1.00  0.00     0.293 HD
ENDBRANCH  17  20
ENDBRANCH   1  12
BRANCH   6  22
ATOM     22  O   UNL     1      11.865  25.933  43.263  1.00  0.00    -0.507 OA
ATOM     23  H   UNL     1      11.211  25.981  42.490  1.00  0.00     0.293 HD
ENDBRANCH   6  22
BRANCH   8  24
ATOM     24  O   UNL     1      12.647  22.200  46.246  1.00  0.00    -0.508 OA
ATOM     25  H   UNL     1      12.425  21.212  46.237  1.00  0.00     0.293 HD
ENDBRANCH   8  24
TORSDOF 5
ENDMDL
MODEL 3
REMARK VINA RESULT:    -7.296      1.600      7.320
REMARK INTER + INTRA:          -8.867
REMARK INTER:                  -8.597
REMARK INTRA:                  -0.270
REMARK UNBOUND:                -0.291
REMARK SMILES O=c1cc(-c2ccc(O)c(O)c2)oc2cc(O)cc(O)c12
REMARK SMILES IDX 4 1 3 2 2 3 1 4 21 5 19 6 18 7 16 8 15 9 14 10 13 11 5 12
REMARK SMILES IDX 6 13 7 14 8 15 12 16 10 17 9 18 11 20 20 22 17 24
REMARK H PARENT 9 19 11 21 20 23 17 25
REMARK Flexibility Score: inf
ROOT
ATOM      1  C   UNL     1      16.774  22.179  41.131  1.00  0.00     0.138 A 
ATOM      2  C   UNL     1      16.853  20.782  41.009  1.00  0.00     0.100 A 
ATOM      3  C   UNL     1      18.015  20.202  40.499  1.00  0.00     0.197 A 
ATOM      4  O   UNL     1      18.077  18.947  40.391  1.00  0.00    -0.289 OA
ATOM      5  C   UNL     1      19.092  21.025  40.111  1.00  0.00     0.107 A 
ATOM      6  C   UNL     1      20.305  20.519  39.587  1.00  0.00     0.134 A 
ATOM      7  C   UNL     1      21.327  21.407  39.220  1.00  0.00     0.093 A 
ATOM      8  C   UNL     1      21.157  22.789  39.366  1.00  0.00     0.123 A 
ATOM      9  C   UNL     1      19.962  23.293  39.883  1.00  0.00     0.094 A 
ATOM     10  C   UNL     1      18.932  22.424  40.256  1.00  0.00     0.146 A 
ATOM     11  O   UNL     1      17.805  22.929  40.747  1.00  0.00    -0.456 OA
ENDROOT
BRANCH   1  12
ATOM     12  C   UNL     1      15.563  22.851  41.665  1.00  0.00     0.021 A 
ATOM     13  C   UNL     1      14.905  23.815  40.882  1.00  0.00     0.016 A 
ATOM     14  C   UNL     1      13.768  24.468  41.365  1.00  0.00     0.051 A 
ATOM     15  C   UNL     1      13.274  24.174  42.641  1.00  0.00     0.157 A 
ATOM     16  C   UNL     1      15.068  22.570  42.954  1.00  0.00     0.062 A 
ATOM     17  C   UNL     1      13.926  23.226  43.439  1.00  0.00     0.158 A 
BRANCH  15  18
ATOM     18  O   UNL     1      12.139  24.822  43.125  1.00  0.00    -0.504 OA
ATOM     19  H   UNL     1      11.860  24.746  44.096  1.00  0.00     0.293 HD
ENDBRANCH  15  18
BRANCH  17  20
ATOM     20  O   UNL     1      13.438  22.945  44.713  1.00  0.00    -0.504 OA
ATOM     21  H   UNL     1      12.470  23.115  44.960  1.00  0.00     0.293 HD
ENDBRANCH  17  20
ENDBRANCH   1  12
BRANCH   6  22
ATOM     22  O   UNL     1      20.501  19.147  39.429  1.00  0.00    -0.507 OA
ATOM     23  H   UNL     1      20.183  18.480  40.122  1.00  0.00     0.293 HD
ENDBRANCH   6  22
BRANCH   8  24
ATOM     24  O   UNL     1      22.172  23.671  39.000  1.00  0.00    -0.508 OA
ATOM     25  H   UNL     1      22.368  24.506  39.539  1.00  0.00     0.293 HD
ENDBRANCH   8  24
TORSDOF 5
ENDMDL
MODEL 4
REMARK VINA RESULT:    -7.232      2.174      7.313
REMARK INTER + INTRA:          -8.791
REMARK INTER:                  -8.486
REMARK INTRA:                  -0.306
REMARK UNBOUND:                -0.291
REMARK SMILES O=c1cc(-c2ccc(O)c(O)c2)oc2cc(O)cc(O)c12
REMARK SMILES IDX 4 1 3 2 2 3 1 4 21 5 19 6 18 7 16 8 15 9 14 10 13 11 5 12
REMARK SMILES IDX 6 13 7 14 8 15 12 16 10 17 9 18 11 20 20 22 17 24
REMARK H PARENT 9 19 11 21 20 23 17 25
REMARK Flexibility Score: inf
ROOT
ATOM      1  C   UNL     1      13.994  23.523  42.690  1.00  0.00     0.138 A 
ATOM      2  C   UNL     1      13.732  24.619  41.851  1.00  0.00     0.100 A 
ATOM      3  C   UNL     1      14.523  24.821  40.719  1.00  0.00     0.197 A 
ATOM      4  O   UNL     1      14.281  25.808  39.972  1.00  0.00    -0.289 OA
ATOM      5  C   UNL     1      15.573  23.925  40.434  1.00  0.00     0.107 A 
ATOM      6  C   UNL     1      16.419  24.055  39.308  1.00  0.00     0.134 A 
ATOM      7  C   UNL     1      17.446  23.123  39.098  1.00  0.00     0.093 A 
ATOM      8  C   UNL     1      17.642  22.066  39.994  1.00  0.00     0.123 A 
ATOM      9  C   UNL     1      16.810  21.933  41.107  1.00  0.00     0.094 A 
ATOM     10  C   UNL     1      15.780  22.851  41.333  1.00  0.00     0.146 A 
ATOM     11  O   UNL     1      15.000  22.702  42.399  1.00  0.00    -0.456 OA
ENDROOT
BRANCH   1  12
ATOM     12  C   UNL     1      13.188  23.260  43.909  1.00  0.00     0.021 A 
ATOM     13  C   UNL     1      12.619  24.340  44.608  1.00  0.00     0.016 A 
ATOM     14  C   UNL     1      11.863  24.119  45.762  1.00  0.00     0.051 A 
ATOM     15  C   UNL     1      11.670  22.819  46.242  1.00  0.00     0.157 A 
ATOM     16  C   UNL     1      13.001  21.955  44.406  1.00  0.00     0.062 A 
ATOM     17  C   UNL     1      12.243  21.735  45.565  1.00  0.00     0.158 A 
BRANCH  15  18
ATOM     18  O   UNL     1      10.915  22.595  47.392  1.00  0.00    -0.504 OA
ATOM     19  H   UNL     1       9.931  22.834  47.434  1.00  0.00     0.293 HD
ENDBRANCH  15  18
BRANCH  17  20
ATOM     20  O   UNL     1      12.058  20.443  46.053  1.00  0.00    -0.504 OA
ATOM     21  H   UNL     1      11.461  20.257  46.850  1.00  0.00     0.293 HD
ENDBRANCH  17  20
ENDBRANCH   1  12
BRANCH   6  22
ATOM     22  O   UNL     1      16.247  25.100  38.399  1.00  0.00    -0.507 OA
ATOM     23  H   UNL     1      15.350  25.555  38.272  1.00  0.00     0.293 HD
ENDBRANCH   6  22
BRANCH   8  24
ATOM     24  O   UNL     1      18.663  21.140  39.787  1.00  0.00    -0.508 OA
ATOM     25  H   UNL     1      19.420  21.029  40.451  1.00  0.00     0.293 HD
ENDBRANCH   8  24
TORSDOF 5
ENDMDL
MODEL 5
REMARK VINA RESULT:    -6.940      1.483      6.919
REMARK INTER + INTRA:          -8.448
REMARK INTER:                  -8.132
REMARK INTRA:                  -0.316
REMARK UNBOUND:                -0.291
REMARK SMILES O=c1cc(-c2ccc(O)c(O)c2)oc2cc(O)cc(O)c12
REMARK SMILES IDX 4 1 3 2 2 3 1 4 21 5 19 6 18 7 16 8 15 9 14 10 13 11 5 12
REMARK SMILES IDX 6 13 7 14 8 15 12 16 10 17 9 18 11 20 20 22 17 24
REMARK H PARENT 9 19 11 21 20 23 17 25
REMARK Flexibility Score: inf
ROOT
ATOM      1  C   UNL     1      16.249  23.095  40.711  1.00  0.00     0.138 A 
ATOM      2  C   UNL     1      16.749  23.875  39.656  1.00  0.00     0.100 A 
ATOM      3  C   UNL     1      17.882  23.448  38.962  1.00  0.00     0.197 A 
ATOM      4  O   UNL     1      18.324  24.156  38.017  1.00  0.00    -0.289 OA
ATOM      5  C   UNL     1      18.509  22.241  39.330  1.00  0.00     0.107 A 
ATOM      6  C   UNL     1      19.658  21.734  38.678  1.00  0.00     0.134 A 
ATOM      7  C   UNL     1      20.226  20.526  39.110  1.00  0.00     0.093 A 
ATOM      8  C   UNL     1      19.667  19.818  40.180  1.00  0.00     0.123 A 
ATOM      9  C   UNL     1      18.533  20.313  40.826  1.00  0.00     0.094 A 
ATOM     10  C   UNL     1      17.952  21.515  40.410  1.00  0.00     0.146 A 
ATOM     11  O   UNL     1      16.871  21.965  41.041  1.00  0.00    -0.456 OA
ENDROOT
BRANCH   1  12
ATOM     12  C   UNL     1      15.050  23.501  41.486  1.00  0.00     0.021 A 
ATOM     13  C   UNL     1      14.262  24.572  41.029  1.00  0.00     0.016 A 
ATOM     14  C   UNL     1      13.132  24.979  41.744  1.00  0.00     0.051 A 
ATOM     15  C   UNL     1      12.776  24.329  42.931  1.00  0.00     0.157 A 
ATOM     16  C   UNL     1      14.693  22.861  42.689  1.00  0.00     0.062 A 
ATOM     17  C   UNL     1      13.559  23.270  43.407  1.00  0.00     0.158 A 
BRANCH  15  18
ATOM     18  O   UNL     1      11.650  24.731  43.646  1.00  0.00    -0.504 OA
ATOM     19  H   UNL     1      11.048  25.476  43.312  1.00  0.00     0.293 HD
ENDBRANCH  15  18
BRANCH  17  20
ATOM     20  O   UNL     1      13.208  22.633  44.595  1.00  0.00    -0.504 OA
ATOM     21  H   UNL     1      13.416  21.654  44.753  1.00  0.00     0.293 HD
ENDBRANCH  17  20
ENDBRANCH   1  12
BRANCH   6  22
ATOM     22  O   UNL     1      20.237  22.420  37.610  1.00  0.00    -0.507 OA
ATOM     23  H   UNL     1      19.677  22.815  36.863  1.00  0.00     0.293 HD
ENDBRANCH   6  22
BRANCH   8  24
ATOM     24  O   UNL     1      20.232  18.618  40.609  1.00  0.00    -0.508 OA
ATOM     25  H   UNL     1      21.036  18.602  41.226  1.00  0.00     0.293 HD
ENDBRANCH   8  24
TORSDOF 5
ENDMDL
MODEL 6
REMARK VINA RESULT:    -6.871      1.674      7.061
REMARK INTER + INTRA:          -8.367
REMARK INTER:                  -8.050
REMARK INTRA:                  -0.318
REMARK UNBOUND:                -0.291
REMARK SMILES O=c1cc(-c2ccc(O)c(O)c2)oc2cc(O)cc(O)c12
REMARK SMILES IDX 4 1 3 2 2 3 1 4 21 5 19 6 18 7 16 8 15 9 14 10 13 11 5 12
REMARK SMILES IDX 6 13 7 14 8 15 12 16 10 17 9 18 11 20 20 22 17 24
REMARK H PARENT 9 19 11 21 20 23 17 25
REMARK Flexibility Score: inf
ROOT
ATOM      1  C   UNL     1      14.932  23.469  41.708  1.00  0.00     0.138 A 
ATOM      2  C   UNL     1      15.005  24.433  40.689  1.00  0.00     0.100 A 
ATOM      3  C   UNL     1      16.017  24.346  39.732  1.00  0.00     0.197 A 
ATOM      4  O   UNL     1      16.074  25.217  38.821  1.00  0.00    -0.289 OA
ATOM      5  C   UNL     1      16.953  23.295  39.802  1.00  0.00     0.107 A 
ATOM      6  C   UNL     1      18.006  23.132  38.872  1.00  0.00     0.134 A 
ATOM      7  C   UNL     1      18.900  22.060  39.015  1.00  0.00     0.093 A 
ATOM      8  C   UNL     1      18.759  21.151  40.070  1.00  0.00     0.123 A 
ATOM      9  C   UNL     1      17.721  21.307  40.990  1.00  0.00     0.094 A 
ATOM     10  C   UNL     1      16.819  22.368  40.864  1.00  0.00     0.146 A 
ATOM     11  O   UNL     1      15.838  22.494  41.752  1.00  0.00    -0.456 OA
ENDROOT
BRANCH   1  12
ATOM     12  C   UNL     1      13.880  23.513  42.753  1.00  0.00     0.021 A 
ATOM     13  C   UNL     1      12.856  24.473  42.665  1.00  0.00     0.016 A 
ATOM     14  C   UNL     1      11.858  24.540  43.640  1.00  0.00     0.051 A 
ATOM     15  C   UNL     1      11.870  23.655  44.724  1.00  0.00     0.157 A 
ATOM     16  C   UNL     1      13.892  22.634  43.855  1.00  0.00     0.062 A 
ATOM     17  C   UNL     1      12.890  22.702  44.834  1.00  0.00     0.158 A 
BRANCH  15  18
ATOM     18  O   UNL     1      10.875  23.717  45.698  1.00  0.00    -0.504 OA
ATOM     19  H   UNL     1      10.037  24.271  45.564  1.00  0.00     0.293 HD
ENDBRANCH  15  18
BRANCH  17  20
ATOM     20  O   UNL     1      12.905  21.830  45.920  1.00  0.00    -0.504 OA
ATOM     21  H   UNL     1      13.773  21.496  46.321  1.00  0.00     0.293 HD
ENDBRANCH  17  20
ENDBRANCH   1  12
BRANCH   6  22
ATOM     22  O   UNL     1      18.171  24.024  37.812  1.00  0.00    -0.507 OA
ATOM     23  H   UNL     1      17.385  24.352  37.263  1.00  0.00     0.293 HD
ENDBRANCH   6  22
BRANCH   8  24
ATOM     24  O   UNL     1      19.648  20.087  40.213  1.00  0.00    -0.508 OA
ATOM     25  H   UNL     1      19.991  19.572  39.411  1.00  0.00     0.293 HD
ENDBRANCH   8  24
TORSDOF 5
ENDMDL
MODEL 7
REMARK VINA RESULT:    -6.359     14.242     17.385
REMARK INTER + INTRA:          -7.766
REMARK INTER:                  -7.470
REMARK INTRA:                  -0.295
REMARK UNBOUND:                -0.291
REMARK SMILES O=c1cc(-c2ccc(O)c(O)c2)oc2cc(O)cc(O)c12
REMARK SMILES IDX 4 1 3 2 2 3 1 4 21 5 19 6 18 7 16 8 15 9 14 10 13 11 5 12
REMARK SMILES IDX 6 13 7 14 8 15 12 16 10 17 9 18 11 20 20 22 17 24
REMARK H PARENT 9 19 11 21 20 23 17 25
REMARK Flexibility Score: inf
ROOT
ATOM      1  C   UNL     1      29.551  10.763  37.360  1.00  0.00     0.138 A 
ATOM      2  C   UNL     1      30.558  11.614  36.877  1.00  0.00     0.100 A 
ATOM      3  C   UNL     1      30.213  12.693  36.062  1.00  0.00     0.197 A 
ATOM      4  O   UNL     1      31.125  13.451  35.631  1.00  0.00    -0.289 OA
ATOM      5  C   UNL     1      28.861  12.912  35.733  1.00  0.00     0.107 A 
ATOM      6  C   UNL     1      28.425  13.982  34.916  1.00  0.00     0.134 A 
ATOM      7  C   UNL     1      27.059  14.128  34.631  1.00  0.00     0.093 A 
ATOM      8  C   UNL     1      26.123  13.224  35.147  1.00  0.00     0.123 A 
ATOM      9  C   UNL     1      26.548  12.167  35.954  1.00  0.00     0.094 A 
ATOM     10  C   UNL     1      27.905  12.005  36.250  1.00  0.00     0.146 A 
ATOM     11  O   UNL     1      28.284  10.992  37.022  1.00  0.00    -0.456 OA
ENDROOT
BRANCH   1  12
ATOM     12  C   UNL     1      29.859   9.600  38.228  1.00  0.00     0.021 A 
ATOM     13  C   UNL     1      30.808   9.736  39.257  1.00  0.00     0.016 A 
ATOM     14  C   UNL     1      31.122   8.654  40.083  1.00  0.00     0.051 A 
ATOM     15  C   UNL     1      30.500   7.415  39.891  1.00  0.00     0.157 A 
ATOM     16  C   UNL     1      29.247   8.346  38.032  1.00  0.00     0.062 A 
ATOM     17  C   UNL     1      29.563   7.259  38.861  1.00  0.00     0.158 A 
BRANCH  15  18
ATOM     18  O   UNL     1      30.809   6.334  40.714  1.00  0.00    -0.504 OA
ATOM     19  H   UNL     1      30.854   5.389  40.352  1.00  0.00     0.293 HD
ENDBRANCH  15  18
BRANCH  17  20
ATOM     20  O   UNL     1      28.954   6.022  38.666  1.00  0.00    -0.504 OA
ATOM     21  H   UNL     1      27.952   5.903  38.757  1.00  0.00     0.293 HD
ENDBRANCH  17  20
ENDBRANCH   1  12
BRANCH   6  22
ATOM     22  O   UNL     1      29.336  14.897  34.387  1.00  0.00    -0.507 OA
ATOM     23  H   UNL     1      29.040  15.801  34.035  1.00  0.00     0.293 HD
ENDBRANCH   6  22
BRANCH   8  24
ATOM     24  O   UNL     1      24.766  13.368  34.863  1.00  0.00    -0.508 OA
ATOM     25  H   UNL     1      24.443  13.621  33.937  1.00  0.00     0.293 HD
ENDBRANCH   8  24
TORSDOF 5
ENDMDL
MODEL 8
REMARK VINA RESULT:    -6.165     16.369     18.362
REMARK INTER + INTRA:          -7.538
REMARK INTER:                  -7.224
REMARK INTRA:                  -0.314
REMARK UNBOUND:                -0.291
REMARK SMILES O=c1cc(-c2ccc(O)c(O)c2)oc2cc(O)cc(O)c12
REMARK SMILES IDX 4 1 3 2 2 3 1 4 21 5 19 6 18 7 16 8 15 9 14 10 13 11 5 12
REMARK SMILES IDX 6 13 7 14 8 15 12 16 10 17 9 18 11 20 20 22 17 24
REMARK H PARENT 9 19 11 21 20 23 17 25
REMARK Flexibility Score: inf
ROOT
ATOM      1  C   UNL     1      30.622  10.901  39.853  1.00  0.00     0.138 A 
ATOM      2  C   UNL     1      30.870   9.731  39.117  1.00  0.00     0.100 A 
ATOM      3  C   UNL     1      30.898   9.790  37.723  1.00  0.00     0.197 A 
ATOM      4  O   UNL     1      31.120   8.733  37.071  1.00  0.00    -0.289 OA
ATOM      5  C   UNL     1      30.674  11.020  37.074  1.00  0.00     0.107 A 
ATOM      6  C   UNL     1      30.687  11.167  35.667  1.00  0.00     0.134 A 
ATOM      7  C   UNL     1      30.451  12.428  35.097  1.00  0.00     0.093 A 
ATOM      8  C   UNL     1      30.201  13.540  35.909  1.00  0.00     0.123 A 
ATOM      9  C   UNL     1      30.187  13.400  37.298  1.00  0.00     0.094 A 
ATOM     10  C   UNL     1      30.422  12.153  37.884  1.00  0.00     0.146 A 
ATOM     11  O   UNL     1      30.405  12.046  39.209  1.00  0.00    -0.456 OA
ENDROOT
BRANCH   1  12
ATOM     12  C   UNL     1      30.579  10.899  41.337  1.00  0.00     0.021 A 
ATOM     13  C   UNL     1      31.124   9.811  42.043  1.00  0.00     0.016 A 
ATOM     14  C   UNL     1      31.089   9.781  43.439  1.00  0.00     0.051 A 
ATOM     15  C   UNL     1      30.502  10.831  44.154  1.00  0.00     0.157 A 
ATOM     16  C   UNL     1      29.978  11.946  42.063  1.00  0.00     0.062 A 
ATOM     17  C   UNL     1      29.943  11.914  43.465  1.00  0.00     0.158 A 
BRANCH  15  18
ATOM     18  O   UNL     1      30.467  10.805  45.547  1.00  0.00    -0.504 OA
ATOM     19  H   UNL     1      31.053  10.173  46.080  1.00  0.00     0.293 HD
ENDBRANCH  15  18
BRANCH  17  20
ATOM     20  O   UNL     1      29.349  12.953  44.179  1.00  0.00    -0.504 OA
ATOM     21  H   UNL     1      28.352  13.127  44.133  1.00  0.00     0.293 HD
ENDBRANCH  17  20
ENDBRANCH   1  12
BRANCH   6  22
ATOM     22  O   UNL     1      30.933  10.075  34.834  1.00  0.00    -0.507 OA
ATOM     23  H   UNL     1      30.266   9.318  34.737  1.00  0.00     0.293 HD
ENDBRANCH   6  22
BRANCH   8  24
ATOM     24  O   UNL     1      29.964  14.792  35.343  1.00  0.00    -0.508 OA
ATOM     25  H   UNL     1      29.787  15.608  35.918  1.00  0.00     0.293 HD
ENDBRANCH   8  24
TORSDOF 5
ENDMDL
MODEL 9
REMARK VINA RESULT:    -6.057     14.458     16.471
REMARK INTER + INTRA:          -7.411
REMARK INTER:                  -7.145
REMARK INTRA:                  -0.266
REMARK UNBOUND:                -0.291
REMARK SMILES O=c1cc(-c2ccc(O)c(O)c2)oc2cc(O)cc(O)c12
REMARK SMILES IDX 4 1 3 2 2 3 1 4 21 5 19 6 18 7 16 8 15 9 14 10 13 11 5 12
REMARK SMILES IDX 6 13 7 14 8 15 12 16 10 17 9 18 11 20 20 22 17 24
REMARK H PARENT 9 19 11 21 20 23 17 25
REMARK Flexibility Score: inf
ROOT
ATOM      1  C   UNL     1      29.756  12.359  39.098  1.00  0.00     0.138 A 
ATOM      2  C   UNL     1      30.677  13.116  38.355  1.00  0.00     0.100 A 
ATOM      3  C   UNL     1      30.290  13.657  37.128  1.00  0.00     0.197 A 
ATOM      4  O   UNL     1      31.125  14.334  36.468  1.00  0.00    -0.289 OA
ATOM      5  C   UNL     1      28.984  13.435  36.650  1.00  0.00     0.107 A 
ATOM      6  C   UNL     1      28.511  13.948  35.419  1.00  0.00     0.134 A 
ATOM      7  C   UNL     1      27.196  13.677  35.012  1.00  0.00     0.093 A 
ATOM      8  C   UNL     1      26.348  12.902  35.812  1.00  0.00     0.123 A 
ATOM      9  C   UNL     1      26.810  12.393  37.027  1.00  0.00     0.094 A 
ATOM     10  C   UNL     1      28.117  12.653  37.451  1.00  0.00     0.146 A 
ATOM     11  O   UNL     1      28.532  12.159  38.613  1.00  0.00    -0.456 OA
ENDROOT
BRANCH   1  12
ATOM     12  C   UNL     1      30.111  11.758  40.407  1.00  0.00     0.021 A 
ATOM     13  C   UNL     1      30.760  10.511  40.443  1.00  0.00     0.016 A 
ATOM     14  C   UNL     1      31.099   9.921  41.663  1.00  0.00     0.051 A 
ATOM     15  C   UNL     1      30.787  10.560  42.868  1.00  0.00     0.157 A 
ATOM     16  C   UNL     1      29.789  12.390  41.625  1.00  0.00     0.062 A 
ATOM     17  C   UNL     1      30.128  11.796  42.849  1.00  0.00     0.158 A 
BRANCH  15  18
ATOM     18  O   UNL     1      31.125   9.975  44.086  1.00  0.00    -0.504 OA
ATOM     19  H   UNL     1      31.555   9.059  44.133  1.00  0.00     0.293 HD
ENDBRANCH  15  18
BRANCH  17  20
ATOM     20  O   UNL     1      29.809  12.425  44.051  1.00  0.00    -0.504 OA
ATOM     21  H   UNL     1      29.911  13.426  44.169  1.00  0.00     0.293 HD
ENDBRANCH  17  20
ENDBRANCH   1  12
BRANCH   6  22
ATOM     22  O   UNL     1      29.334  14.723  34.602  1.00  0.00    -0.507 OA
ATOM     23  H   UNL     1      30.066  15.310  34.985  1.00  0.00     0.293 HD
ENDBRANCH   6  22
BRANCH   8  24
ATOM     24  O   UNL     1      25.042  12.631  35.407  1.00  0.00    -0.508 OA
ATOM     25  H   UNL     1      24.842  12.237  34.495  1.00  0.00     0.293 HD
ENDBRANCH   8  24
TORSDOF 5
ENDMDL
