MODEL 1
REMARK VINA RESULT:    -7.117      0.000      0.000
REMARK INTER + INTRA:          -8.909
REMARK INTER:                  -8.574
REMARK INTRA:                  -0.336
REMARK UNBOUND:                -0.336
REMARK SMILES COc1ccc([C@H]2CC(=O)c3c(O)cc(O)cc3O2)cc1O
REMARK SMILES IDX 7 1 8 2 9 3 10 4 11 5 12 6 14 7 15 8 17 9 18 10 19 11 6 12
REMARK SMILES IDX 3 13 21 14 4 15 20 16 5 17 2 18 1 19 22 20 13 22 16 24
REMARK H PARENT 22 21 13 23 16 25
REMARK Flexibility Score: inf
ROOT
ATOM      1  C   UNL     1      39.073  31.950  64.095  1.00  0.00     0.211 C 
ATOM      2  C   UNL     1      38.195  30.742  63.729  1.00  0.00     0.131 C 
ATOM      3  C   UNL     1      36.749  31.147  63.695  1.00  0.00     0.174 C 
ATOM      4  O   UNL     1      35.971  30.589  62.875  1.00  0.00    -0.294 OA
ATOM      5  C   UNL     1      36.250  32.149  64.666  1.00  0.00     0.102 A 
ATOM      6  C   UNL     1      34.876  32.414  64.853  1.00  0.00     0.133 A 
ATOM      7  C   UNL     1      34.473  33.342  65.826  1.00  0.00     0.093 A 
ATOM      8  C   UNL     1      35.424  33.999  66.618  1.00  0.00     0.123 A 
ATOM      9  C   UNL     1      36.783  33.740  66.430  1.00  0.00     0.093 A 
ATOM     10  C   UNL     1      37.199  32.832  65.452  1.00  0.00     0.138 A 
ATOM     11  O   UNL     1      38.567  32.604  65.262  1.00  0.00    -0.484 OA
ENDROOT
BRANCH   1  12
ATOM     12  C   UNL     1      40.503  31.523  64.319  1.00  0.00    -0.003 A 
ATOM     13  C   UNL     1      43.178  30.764  64.799  1.00  0.00     0.160 A 
ATOM     14  C   UNL     1      42.890  31.871  63.980  1.00  0.00     0.158 A 
ATOM     15  C   UNL     1      42.115  30.049  65.384  1.00  0.00     0.051 A 
ATOM     16  C   UNL     1      41.562  32.247  63.748  1.00  0.00     0.057 A 
ATOM     17  C   UNL     1      40.792  30.429  65.149  1.00  0.00     0.011 A 
BRANCH  13  18
ATOM     18  O   UNL     1      44.520  30.409  65.013  1.00  0.00    -0.493 OA
ATOM     19  C   UNL     1      45.021  29.843  66.219  1.00  0.00     0.278 C 
ENDBRANCH  13  18
BRANCH  14  20
ATOM     20  O   UNL     1      43.912  32.613  63.387  1.00  0.00    -0.504 OA
ATOM     21  H   UNL     1      44.756  32.864  63.886  1.00  0.00     0.293 HD
ENDBRANCH  14  20
ENDBRANCH   1  12
BRANCH   6  22
ATOM     22  O   UNL     1      33.914  31.757  64.088  1.00  0.00    -0.507 OA
ATOM     23  H   UNL     1      33.689  32.053  63.144  1.00  0.00     0.293 HD
ENDBRANCH   6  22
BRANCH   8  24
ATOM     24  O   UNL     1      35.026  34.914  67.590  1.00  0.00    -0.508 OA
ATOM     25  H   UNL     1      34.773  34.618  68.525  1.00  0.00     0.293 HD
ENDBRANCH   8  24
TORSDOF 5
ENDMDL
MODEL 2
REMARK VINA RESULT:    -6.477      5.994      9.873
REMARK INTER + INTRA:          -8.138
REMARK INTER:                  -7.778
REMARK INTRA:                  -0.360
REMARK UNBOUND:                -0.336
REMARK SMILES COc1ccc([C@H]2CC(=O)c3c(O)cc(O)cc3O2)cc1O
REMARK SMILES IDX 7 1 8 2 9 3 10 4 11 5 12 6 14 7 15 8 17 9 18 10 19 11 6 12
REMARK SMILES IDX 3 13 21 14 4 15 20 16 5 17 2 18 1 19 22 20 13 22 16 24
REMARK H PARENT 22 21 13 23 16 25
REMARK Flexibility Score: inf
ROOT
ATOM      1  C   UNL     1      48.669  32.137  64.670  1.00  0.00     0.211 C 
ATOM      2  C   UNL     1      48.643  31.356  65.994  1.00  0.00     0.131 C 
ATOM      3  C   UNL     1      47.489  30.394  66.004  1.00  0.00     0.174 C 
ATOM      4  O   UNL     1      47.606  29.296  66.609  1.00  0.00    -0.294 OA
ATOM      5  C   UNL     1      46.213  30.782  65.356  1.00  0.00     0.102 A 
ATOM      6  C   UNL     1      45.020  30.045  65.515  1.00  0.00     0.133 A 
ATOM      7  C   UNL     1      43.837  30.497  64.911  1.00  0.00     0.093 A 
ATOM      8  C   UNL     1      43.830  31.679  64.159  1.00  0.00     0.123 A 
ATOM      9  C   UNL     1      45.011  32.407  63.999  1.00  0.00     0.093 A 
ATOM     10  C   UNL     1      46.201  31.957  64.579  1.00  0.00     0.138 A 
ATOM     11  O   UNL     1      47.379  32.687  64.387  1.00  0.00    -0.484 OA
ENDROOT
BRANCH   1  12
ATOM     12  C   UNL     1      49.702  33.235  64.717  1.00  0.00    -0.003 A 
ATOM     13  C   UNL     1      51.659  35.262  64.868  1.00  0.00     0.160 A 
ATOM     14  C   UNL     1      50.354  35.500  65.334  1.00  0.00     0.158 A 
ATOM     15  C   UNL     1      51.978  33.998  64.337  1.00  0.00     0.051 A 
ATOM     16  C   UNL     1      49.387  34.491  65.261  1.00  0.00     0.057 A 
ATOM     17  C   UNL     1      51.010  32.994  64.268  1.00  0.00     0.011 A 
BRANCH  13  18
ATOM     18  O   UNL     1      52.608  36.294  64.952  1.00  0.00    -0.493 OA
ATOM     19  C   UNL     1      53.522  36.464  66.031  1.00  0.00     0.278 C 
ENDBRANCH  13  18
BRANCH  14  20
ATOM     20  O   UNL     1      49.995  36.735  65.874  1.00  0.00    -0.504 OA
ATOM     21  H   UNL     1      50.277  37.019  66.804  1.00  0.00     0.293 HD
ENDBRANCH  14  20
ENDBRANCH   1  12
BRANCH   6  22
ATOM     22  O   UNL     1      45.002  28.875  66.274  1.00  0.00    -0.507 OA
ATOM     23  H   UNL     1      45.759  28.201  66.233  1.00  0.00     0.293 HD
ENDBRANCH   6  22
BRANCH   8  24
ATOM     24  O   UNL     1      42.656  32.136  63.566  1.00  0.00    -0.508 OA
ATOM     25  H   UNL     1      42.664  32.871  62.870  1.00  0.00     0.293 HD
ENDBRANCH   8  24
TORSDOF 5
ENDMDL
MODEL 3
REMARK VINA RESULT:    -6.316      7.293     12.732
REMARK INTER + INTRA:          -7.944
REMARK INTER:                  -7.586
REMARK INTRA:                  -0.359
REMARK UNBOUND:                -0.336
REMARK SMILES COc1ccc([C@H]2CC(=O)c3c(O)cc(O)cc3O2)cc1O
REMARK SMILES IDX 7 1 8 2 9 3 10 4 11 5 12 6 14 7 15 8 17 9 18 10 19 11 6 12
REMARK SMILES IDX 3 13 21 14 4 15 20 16 5 17 2 18 1 19 22 20 13 22 16 24
REMARK H PARENT 22 21 13 23 16 25
REMARK Flexibility Score: inf
ROOT
ATOM      1  C   UNL     1      49.964  33.604  65.459  1.00  0.00     0.211 C 
ATOM      2  C   UNL     1      50.810  32.975  64.341  1.00  0.00     0.131 C 
ATOM      3  C   UNL     1      51.992  33.851  64.033  1.00  0.00     0.174 C 
ATOM      4  O   UNL     1      53.075  33.320  63.670  1.00  0.00    -0.294 OA
ATOM      5  C   UNL     1      51.843  35.324  64.101  1.00  0.00     0.102 A 
ATOM      6  C   UNL     1      52.823  36.214  63.612  1.00  0.00     0.133 A 
ATOM      7  C   UNL     1      52.594  37.598  63.664  1.00  0.00     0.093 A 
ATOM      8  C   UNL     1      51.397  38.100  64.191  1.00  0.00     0.123 A 
ATOM      9  C   UNL     1      50.429  37.219  64.679  1.00  0.00     0.093 A 
ATOM     10  C   UNL     1      50.653  35.840  64.649  1.00  0.00     0.138 A 
ATOM     11  O   UNL     1      49.681  34.974  65.165  1.00  0.00    -0.484 OA
ENDROOT
BRANCH   1  12
ATOM     12  C   UNL     1      48.677  32.838  65.651  1.00  0.00    -0.003 A 
ATOM     13  C   UNL     1      46.268  31.432  66.078  1.00  0.00     0.160 A 
ATOM     14  C   UNL     1      47.507  30.793  66.267  1.00  0.00     0.158 A 
ATOM     15  C   UNL     1      46.248  32.785  65.684  1.00  0.00     0.051 A 
ATOM     16  C   UNL     1      48.699  31.494  66.058  1.00  0.00     0.057 A 
ATOM     17  C   UNL     1      47.441  33.480  65.479  1.00  0.00     0.011 A 
BRANCH  13  18
ATOM     18  O   UNL     1      45.088  30.703  66.293  1.00  0.00    -0.493 OA
ATOM     19  C   UNL     1      44.120  30.421  65.287  1.00  0.00     0.278 C 
ENDBRANCH  13  18
BRANCH  14  20
ATOM     20  O   UNL     1      47.574  29.457  66.663  1.00  0.00    -0.504 OA
ATOM     21  H   UNL     1      46.858  29.027  67.235  1.00  0.00     0.293 HD
ENDBRANCH  14  20
ENDBRANCH   1  12
BRANCH   6  22
ATOM     22  O   UNL     1      54.013  35.733  63.067  1.00  0.00    -0.507 OA
ATOM     23  H   UNL     1      54.021  35.138  62.247  1.00  0.00     0.293 HD
ENDBRANCH   6  22
BRANCH   8  24
ATOM     24  O   UNL     1      51.163  39.472  64.237  1.00  0.00    -0.508 OA
ATOM     25  H   UNL     1      50.701  39.905  65.027  1.00  0.00     0.293 HD
ENDBRANCH   8  24
TORSDOF 5
ENDMDL
MODEL 4
REMARK VINA RESULT:    -6.224     18.960     20.834
REMARK INTER + INTRA:          -7.833
REMARK INTER:                  -7.485
REMARK INTRA:                  -0.348
REMARK UNBOUND:                -0.336
REMARK SMILES COc1ccc([C@H]2CC(=O)c3c(O)cc(O)cc3O2)cc1O
REMARK SMILES IDX 7 1 8 2 9 3 10 4 11 5 12 6 14 7 15 8 17 9 18 10 19 11 6 12
REMARK SMILES IDX 3 13 21 14 4 15 20 16 5 17 2 18 1 19 22 20 13 22 16 24
REMARK H PARENT 22 21 13 23 16 25
REMARK Flexibility Score: inf
ROOT
ATOM      1  C   UNL     1      50.234  44.926  76.056  1.00  0.00     0.211 C 
ATOM      2  C   UNL     1      51.306  43.826  75.987  1.00  0.00     0.131 C 
ATOM      3  C   UNL     1      52.257  44.102  74.857  1.00  0.00     0.174 C 
ATOM      4  O   UNL     1      53.466  43.767  74.973  1.00  0.00    -0.294 OA
ATOM      5  C   UNL     1      51.743  44.706  73.604  1.00  0.00     0.102 A 
ATOM      6  C   UNL     1      52.512  44.786  72.424  1.00  0.00     0.133 A 
ATOM      7  C   UNL     1      51.945  45.326  71.259  1.00  0.00     0.093 A 
ATOM      8  C   UNL     1      50.619  45.778  71.259  1.00  0.00     0.123 A 
ATOM      9  C   UNL     1      49.859  45.702  72.429  1.00  0.00     0.093 A 
ATOM     10  C   UNL     1      50.418  45.183  73.600  1.00  0.00     0.138 A 
ATOM     11  O   UNL     1      49.648  45.138  74.768  1.00  0.00    -0.484 OA
ENDROOT
BRANCH   1  12
ATOM     12  C   UNL     1      49.165  44.569  77.059  1.00  0.00    -0.003 A 
ATOM     13  C   UNL     1      47.201  43.839  78.950  1.00  0.00     0.160 A 
ATOM     14  C   UNL     1      47.016  43.549  77.586  1.00  0.00     0.158 A 
ATOM     15  C   UNL     1      48.383  44.488  79.358  1.00  0.00     0.051 A 
ATOM     16  C   UNL     1      47.994  43.909  76.652  1.00  0.00     0.057 A 
ATOM     17  C   UNL     1      49.355  44.843  78.422  1.00  0.00     0.011 A 
BRANCH  13  18
ATOM     18  O   UNL     1      46.202  43.468  79.864  1.00  0.00    -0.493 OA
ATOM     19  C   UNL     1      46.204  43.813  81.245  1.00  0.00     0.278 C 
ENDBRANCH  13  18
BRANCH  14  20
ATOM     20  O   UNL     1      45.865  42.902  77.137  1.00  0.00    -0.504 OA
ATOM     21  H   UNL     1      45.819  41.897  77.028  1.00  0.00     0.293 HD
ENDBRANCH  14  20
ENDBRANCH   1  12
BRANCH   6  22
ATOM     22  O   UNL     1      53.828  44.325  72.399  1.00  0.00    -0.507 OA
ATOM     23  H   UNL     1      54.047  43.335  72.420  1.00  0.00     0.293 HD
ENDBRANCH   6  22
BRANCH   8  24
ATOM     24  O   UNL     1      50.050  46.306  70.103  1.00  0.00    -0.508 OA
ATOM     25  H   UNL     1      50.609  46.515  69.285  1.00  0.00     0.293 HD
ENDBRANCH   8  24
TORSDOF 5
ENDMDL
MODEL 5
REMARK VINA RESULT:    -6.158      7.336     11.602
REMARK INTER + INTRA:          -7.754
REMARK INTER:                  -7.389
REMARK INTRA:                  -0.365
REMARK UNBOUND:                -0.336
REMARK SMILES COc1ccc([C@H]2CC(=O)c3c(O)cc(O)cc3O2)cc1O
REMARK SMILES IDX 7 1 8 2 9 3 10 4 11 5 12 6 14 7 15 8 17 9 18 10 19 11 6 12
REMARK SMILES IDX 3 13 21 14 4 15 20 16 5 17 2 18 1 19 22 20 13 22 16 24
REMARK H PARENT 22 21 13 23 16 25
REMARK Flexibility Score: inf
ROOT
ATOM      1  C   UNL     1      49.972  33.701  65.299  1.00  0.00     0.211 C 
ATOM      2  C   UNL     1      50.318  32.824  66.513  1.00  0.00     0.131 C 
ATOM      3  C   UNL     1      49.545  31.536  66.456  1.00  0.00     0.174 C 
ATOM      4  O   UNL     1      50.066  30.484  66.912  1.00  0.00    -0.294 OA
ATOM      5  C   UNL     1      48.162  31.540  65.923  1.00  0.00     0.102 A 
ATOM      6  C   UNL     1      47.293  30.435  66.044  1.00  0.00     0.133 A 
ATOM      7  C   UNL     1      45.980  30.525  65.560  1.00  0.00     0.093 A 
ATOM      8  C   UNL     1      45.523  31.709  64.964  1.00  0.00     0.123 A 
ATOM      9  C   UNL     1      46.383  32.802  64.841  1.00  0.00     0.093 A 
ATOM     10  C   UNL     1      47.700  32.717  65.303  1.00  0.00     0.138 A 
ATOM     11  O   UNL     1      48.555  33.815  65.148  1.00  0.00    -0.484 OA
ENDROOT
BRANCH   1  12
ATOM     12  C   UNL     1      50.591  35.070  65.435  1.00  0.00    -0.003 A 
ATOM     13  C   UNL     1      51.778  37.624  65.623  1.00  0.00     0.160 A 
ATOM     14  C   UNL     1      52.430  36.497  66.154  1.00  0.00     0.158 A 
ATOM     15  C   UNL     1      50.532  37.458  64.987  1.00  0.00     0.051 A 
ATOM     16  C   UNL     1      51.841  35.231  66.055  1.00  0.00     0.057 A 
ATOM     17  C   UNL     1      49.949  36.193  64.890  1.00  0.00     0.011 A 
BRANCH  13  18
ATOM     18  O   UNL     1      52.393  38.881  65.738  1.00  0.00    -0.493 OA
ATOM     19  C   UNL     1      52.070  39.848  66.732  1.00  0.00     0.278 C 
ENDBRANCH  13  18
BRANCH  14  20
ATOM     20  O   UNL     1      53.669  36.613  66.786  1.00  0.00    -0.504 OA
ATOM     21  H   UNL     1      53.922  37.426  67.332  1.00  0.00     0.293 HD
ENDBRANCH  14  20
ENDBRANCH   1  12
BRANCH   6  22
ATOM     22  O   UNL     1      47.724  29.255  66.650  1.00  0.00    -0.507 OA
ATOM     23  H   UNL     1      48.708  29.050  66.778  1.00  0.00     0.293 HD
ENDBRANCH   6  22
BRANCH   8  24
ATOM     24  O   UNL     1      44.217  31.806  64.490  1.00  0.00    -0.508 OA
ATOM     25  H   UNL     1      44.018  32.079  63.535  1.00  0.00     0.293 HD
ENDBRANCH   8  24
TORSDOF 5
ENDMDL
MODEL 6
REMARK VINA RESULT:    -6.118     16.559     18.519
REMARK INTER + INTRA:          -7.705
REMARK INTER:                  -7.360
REMARK INTRA:                  -0.345
REMARK UNBOUND:                -0.336
REMARK SMILES COc1ccc([C@H]2CC(=O)c3c(O)cc(O)cc3O2)cc1O
REMARK SMILES IDX 7 1 8 2 9 3 10 4 11 5 12 6 14 7 15 8 17 9 18 10 19 11 6 12
REMARK SMILES IDX 3 13 21 14 4 15 20 16 5 17 2 18 1 19 22 20 13 22 16 24
REMARK H PARENT 22 21 13 23 16 25
REMARK Flexibility Score: inf
ROOT
ATOM      1  C   UNL     1      49.736  43.942  74.092  1.00  0.00     0.211 C 
ATOM      2  C   UNL     1      48.888  44.774  75.069  1.00  0.00     0.131 C 
ATOM      3  C   UNL     1      48.266  43.880  76.103  1.00  0.00     0.174 C 
ATOM      4  O   UNL     1      48.087  44.319  77.270  1.00  0.00    -0.294 OA
ATOM      5  C   UNL     1      47.818  42.521  75.716  1.00  0.00     0.102 A 
ATOM      6  C   UNL     1      47.025  41.709  76.555  1.00  0.00     0.133 A 
ATOM      7  C   UNL     1      46.595  40.452  76.105  1.00  0.00     0.093 A 
ATOM      8  C   UNL     1      46.941  40.001  74.824  1.00  0.00     0.123 A 
ATOM      9  C   UNL     1      47.729  40.802  73.994  1.00  0.00     0.093 A 
ATOM     10  C   UNL     1      48.179  42.048  74.439  1.00  0.00     0.138 A 
ATOM     11  O   UNL     1      48.988  42.826  73.602  1.00  0.00    -0.484 OA
ENDROOT
BRANCH   1  12
ATOM     12  C   UNL     1      50.213  44.792  72.940  1.00  0.00    -0.003 A 
ATOM     13  C   UNL     1      51.110  46.439  70.832  1.00  0.00     0.160 A 
ATOM     14  C   UNL     1      49.734  46.214  71.021  1.00  0.00     0.158 A 
ATOM     15  C   UNL     1      52.030  45.841  71.714  1.00  0.00     0.051 A 
ATOM     16  C   UNL     1      49.293  45.400  72.071  1.00  0.00     0.057 A 
ATOM     17  C   UNL     1      51.584  45.031  72.760  1.00  0.00     0.011 A 
BRANCH  13  18
ATOM     18  O   UNL     1      51.522  47.259  69.769  1.00  0.00    -0.493 OA
ATOM     19  C   UNL     1      51.937  46.779  68.494  1.00  0.00     0.278 C 
ENDBRANCH  13  18
BRANCH  14  20
ATOM     20  O   UNL     1      48.787  46.791  70.176  1.00  0.00    -0.504 OA
ATOM     21  H   UNL     1      47.912  46.333  69.953  1.00  0.00     0.293 HD
ENDBRANCH  14  20
ENDBRANCH   1  12
BRANCH   6  22
ATOM     22  O   UNL     1      46.655  42.149  77.826  1.00  0.00    -0.507 OA
ATOM     23  H   UNL     1      47.242  42.776  78.365  1.00  0.00     0.293 HD
ENDBRANCH   6  22
BRANCH   8  24
ATOM     24  O   UNL     1      46.510  38.757  74.370  1.00  0.00    -0.508 OA
ATOM     25  H   UNL     1      46.058  38.648  73.470  1.00  0.00     0.293 HD
ENDBRANCH   8  24
TORSDOF 5
ENDMDL
MODEL 7
REMARK VINA RESULT:    -5.882     18.150     20.234
REMARK INTER + INTRA:          -7.422
REMARK INTER:                  -7.085
REMARK INTRA:                  -0.337
REMARK UNBOUND:                -0.336
REMARK SMILES COc1ccc([C@H]2CC(=O)c3c(O)cc(O)cc3O2)cc1O
REMARK SMILES IDX 7 1 8 2 9 3 10 4 11 5 12 6 14 7 15 8 17 9 18 10 19 11 6 12
REMARK SMILES IDX 3 13 21 14 4 15 20 16 5 17 2 18 1 19 22 20 13 22 16 24
REMARK H PARENT 22 21 13 23 16 25
REMARK Flexibility Score: inf
ROOT
ATOM      1  C   UNL     1      51.530  44.150  75.161  1.00  0.00     0.211 C 
ATOM      2  C   UNL     1      51.419  45.456  75.964  1.00  0.00     0.131 C 
ATOM      3  C   UNL     1      50.630  45.223  77.222  1.00  0.00     0.174 C 
ATOM      4  O   UNL     1      50.916  45.877  78.259  1.00  0.00    -0.294 OA
ATOM      5  C   UNL     1      49.491  44.273  77.202  1.00  0.00     0.102 A 
ATOM      6  C   UNL     1      48.566  44.168  78.261  1.00  0.00     0.133 A 
ATOM      7  C   UNL     1      47.483  43.282  78.154  1.00  0.00     0.093 A 
ATOM      8  C   UNL     1      47.310  42.509  76.998  1.00  0.00     0.123 A 
ATOM      9  C   UNL     1      48.228  42.611  75.951  1.00  0.00     0.093 A 
ATOM     10  C   UNL     1      49.321  43.475  76.053  1.00  0.00     0.138 A 
ATOM     11  O   UNL     1      50.244  43.545  75.003  1.00  0.00    -0.484 OA
ENDROOT
BRANCH   1  12
ATOM     12  C   UNL     1      52.153  44.404  73.810  1.00  0.00    -0.003 A 
ATOM     13  C   UNL     1      53.354  44.937  71.313  1.00  0.00     0.160 A 
ATOM     14  C   UNL     1      52.075  45.443  71.608  1.00  0.00     0.158 A 
ATOM     15  C   UNL     1      54.029  44.172  72.283  1.00  0.00     0.051 A 
ATOM     16  C   UNL     1      51.485  45.180  72.850  1.00  0.00     0.057 A 
ATOM     17  C   UNL     1      53.436  43.914  73.520  1.00  0.00     0.011 A 
BRANCH  13  18
ATOM     18  O   UNL     1      53.920  45.215  70.059  1.00  0.00    -0.493 OA
ATOM     19  C   UNL     1      53.765  44.396  68.904  1.00  0.00     0.278 C 
ENDBRANCH  13  18
BRANCH  14  20
ATOM     20  O   UNL     1      51.373  46.212  70.680  1.00  0.00    -0.504 OA
ATOM     21  H   UNL     1      50.640  45.822  70.101  1.00  0.00     0.293 HD
ENDBRANCH  14  20
ENDBRANCH   1  12
BRANCH   6  22
ATOM     22  O   UNL     1      48.710  44.942  79.412  1.00  0.00    -0.507 OA
ATOM     23  H   UNL     1      49.262  44.626  80.202  1.00  0.00     0.293 HD
ENDBRANCH   6  22
BRANCH   8  24
ATOM     24  O   UNL     1      46.231  41.635  76.884  1.00  0.00    -0.508 OA
ATOM     25  H   UNL     1      45.336  41.942  76.525  1.00  0.00     0.293 HD
ENDBRANCH   8  24
TORSDOF 5
ENDMDL
MODEL 8
REMARK VINA RESULT:    -5.867      4.275     10.087
REMARK INTER + INTRA:          -7.403
REMARK INTER:                  -7.525
REMARK INTRA:                   0.122
REMARK UNBOUND:                -0.336
REMARK SMILES COc1ccc([C@H]2CC(=O)c3c(O)cc(O)cc3O2)cc1O
REMARK SMILES IDX 7 1 8 2 9 3 10 4 11 5 12 6 14 7 15 8 17 9 18 10 19 11 6 12
REMARK SMILES IDX 3 13 21 14 4 15 20 16 5 17 2 18 1 19 22 20 13 22 16 24
REMARK H PARENT 22 21 13 23 16 25
REMARK Flexibility Score: inf
ROOT
ATOM      1  C   UNL     1      46.432  30.923  65.119  1.00  0.00     0.211 C 
ATOM      2  C   UNL     1      46.988  30.725  63.699  1.00  0.00     0.131 C 
ATOM      3  C   UNL     1      48.437  31.118  63.653  1.00  0.00     0.174 C 
ATOM      4  O   UNL     1      49.217  30.506  62.876  1.00  0.00    -0.294 OA
ATOM      5  C   UNL     1      48.909  32.259  64.473  1.00  0.00     0.102 A 
ATOM      6  C   UNL     1      50.188  32.835  64.318  1.00  0.00     0.133 A 
ATOM      7  C   UNL     1      50.550  33.946  65.095  1.00  0.00     0.093 A 
ATOM      8  C   UNL     1      49.647  34.491  66.018  1.00  0.00     0.123 A 
ATOM      9  C   UNL     1      48.383  33.919  66.174  1.00  0.00     0.093 A 
ATOM     10  C   UNL     1      48.017  32.802  65.419  1.00  0.00     0.138 A 
ATOM     11  O   UNL     1      46.754  32.228  65.608  1.00  0.00    -0.484 OA
ENDROOT
BRANCH   1  12
ATOM     12  C   UNL     1      44.938  30.714  65.143  1.00  0.00    -0.003 A 
ATOM     13  C   UNL     1      42.153  30.263  65.148  1.00  0.00     0.160 A 
ATOM     14  C   UNL     1      42.731  31.122  64.196  1.00  0.00     0.158 A 
ATOM     15  C   UNL     1      42.983  29.624  66.089  1.00  0.00     0.051 A 
ATOM     16  C   UNL     1      44.114  31.339  64.194  1.00  0.00     0.057 A 
ATOM     17  C   UNL     1      44.361  29.844  66.082  1.00  0.00     0.011 A 
BRANCH  13  18
ATOM     18  O   UNL     1      40.763  30.065  65.126  1.00  0.00    -0.493 OA
ATOM     19  C   UNL     1      39.801  31.111  65.046  1.00  0.00     0.278 C 
ENDBRANCH  13  18
BRANCH  14  20
ATOM     20  O   UNL     1      41.949  31.769  63.240  1.00  0.00    -0.504 OA
ATOM     21  H   UNL     1      41.078  31.380  62.902  1.00  0.00     0.293 HD
ENDBRANCH  14  20
ENDBRANCH   1  12
BRANCH   6  22
ATOM     22  O   UNL     1      51.093  32.318  63.392  1.00  0.00    -0.507 OA
ATOM     23  H   UNL     1      50.912  31.452  62.896  1.00  0.00     0.293 HD
ENDBRANCH   6  22
BRANCH   8  24
ATOM     24  O   UNL     1      50.000  35.599  66.785  1.00  0.00    -0.508 OA
ATOM     25  H   UNL     1      50.010  35.562  67.797  1.00  0.00     0.293 HD
ENDBRANCH   8  24
TORSDOF 5
ENDMDL
MODEL 9
REMARK VINA RESULT:    -5.785      8.750     12.181
REMARK INTER + INTRA:          -7.304
REMARK INTER:                  -6.952
REMARK INTRA:                  -0.352
REMARK UNBOUND:                -0.336
REMARK SMILES COc1ccc([C@H]2CC(=O)c3c(O)cc(O)cc3O2)cc1O
REMARK SMILES IDX 7 1 8 2 9 3 10 4 11 5 12 6 14 7 15 8 17 9 18 10 19 11 6 12
REMARK SMILES IDX 3 13 21 14 4 15 20 16 5 17 2 18 1 19 22 20 13 22 16 24
REMARK H PARENT 22 21 13 23 16 25
REMARK Flexibility Score: inf
ROOT
ATOM      1  C   UNL     1      50.103  34.946  64.675  1.00  0.00     0.211 C 
ATOM      2  C   UNL     1      50.707  33.688  64.029  1.00  0.00     0.131 C 
ATOM      3  C   UNL     1      49.658  32.620  63.899  1.00  0.00     0.174 C 
ATOM      4  O   UNL     1      49.703  31.827  62.922  1.00  0.00    -0.294 OA
ATOM      5  C   UNL     1      48.626  32.480  64.955  1.00  0.00     0.102 A 
ATOM      6  C   UNL     1      47.753  31.374  65.028  1.00  0.00     0.133 A 
ATOM      7  C   UNL     1      46.833  31.283  66.084  1.00  0.00     0.093 A 
ATOM      8  C   UNL     1      46.781  32.278  67.069  1.00  0.00     0.123 A 
ATOM      9  C   UNL     1      47.642  33.375  66.994  1.00  0.00     0.093 A 
ATOM     10  C   UNL     1      48.551  33.487  65.938  1.00  0.00     0.138 A 
ATOM     11  O   UNL     1      49.389  34.606  65.867  1.00  0.00    -0.484 OA
ENDROOT
BRANCH   1  12
ATOM     12  C   UNL     1      51.179  35.957  64.986  1.00  0.00    -0.003 A 
ATOM     13  C   UNL     1      53.152  37.871  65.622  1.00  0.00     0.160 A 
ATOM     14  C   UNL     1      52.176  38.154  64.649  1.00  0.00     0.158 A 
ATOM     15  C   UNL     1      53.123  36.627  66.281  1.00  0.00     0.051 A 
ATOM     16  C   UNL     1      51.197  37.203  64.339  1.00  0.00     0.057 A 
ATOM     17  C   UNL     1      52.143  35.683  65.968  1.00  0.00     0.011 A 
BRANCH  13  18
ATOM     18  O   UNL     1      54.123  38.844  65.911  1.00  0.00    -0.493 OA
ATOM     19  C   UNL     1      54.049  39.759  66.999  1.00  0.00     0.278 C 
ENDBRANCH  13  18
BRANCH  14  20
ATOM     20  O   UNL     1      52.162  39.376  63.977  1.00  0.00    -0.504 OA
ATOM     21  H   UNL     1      52.987  39.957  63.896  1.00  0.00     0.293 HD
ENDBRANCH  14  20
ENDBRANCH   1  12
BRANCH   6  22
ATOM     22  O   UNL     1      47.802  30.364  64.068  1.00  0.00    -0.507 OA
ATOM     23  H   UNL     1      47.221  30.391  63.237  1.00  0.00     0.293 HD
ENDBRANCH   6  22
BRANCH   8  24
ATOM     24  O   UNL     1      45.875  32.186  68.123  1.00  0.00    -0.508 OA
ATOM     25  H   UNL     1      45.060  32.785  68.175  1.00  0.00     0.293 HD
ENDBRANCH   8  24
TORSDOF 5
ENDMDL
