MODEL 1
REMARK VINA RESULT:    -6.281      0.000      0.000
REMARK INTER + INTRA:          -9.261
REMARK INTER:                  -7.933
REMARK INTRA:                  -1.328
REMARK UNBOUND:                -1.328
REMARK SMILES CC(C)[C@H](C)C=C[C@H](C)[C@@H]1CC[C@H]2C3=CC=C4C[C@H](O)CC[C@@]4(C)[C@H]3CC[C@]21C
REMARK SMILES IDX 8 1 9 2 7 3 6 4 4 5 5 6 2 7 1 8 3 9 10 10 11 11 28 12 12 13
REMARK SMILES IDX 13 14 27 15 29 16 14 17 26 18 25 19 15 20 23 21 16 22 17 23
REMARK SMILES IDX 22 24 24 25 18 26 21 27 19 28 20 29
REMARK H PARENT 20 30
REMARK Flexibility Score: inf
ROOT
ATOM      1  C   UNL     1     141.559 137.377 141.321  1.00  0.00     0.012 C 
ATOM      2  C   UNL     1     141.501 138.310 140.101  1.00  0.00     0.012 C 
ENDROOT
BRANCH   1   3
ATOM      3  C   UNL     1     142.952 136.772 141.362  1.00  0.00    -0.028 C 
ATOM      4  C   UNL     1     143.258 135.509 141.007  1.00  0.00    -0.028 C 
BRANCH   4   5
ATOM      5  C   UNL     1     142.246 134.462 140.582  1.00  0.00     0.011 C 
ATOM      6  C   UNL     1     142.399 134.177 139.078  1.00  0.00     0.012 C 
BRANCH   5   7
ATOM      7  C   UNL     1     142.361 133.190 141.475  1.00  0.00    -0.011 C 
ATOM      8  C   UNL     1     141.889 133.457 142.912  1.00  0.00     0.008 C 
ATOM      9  C   UNL     1     141.635 131.966 140.891  1.00  0.00     0.008 C 
ENDBRANCH   5   7
ENDBRANCH   4   5
ENDBRANCH   1   3
BRANCH   1  10
ATOM     10  C   UNL     1     141.252 138.123 142.666  1.00  0.00     0.002 C 
ATOM     11  C   UNL     1     142.115 137.586 143.808  1.00  0.00     0.005 C 
ATOM     12  C   UNL     1     139.788 138.086 143.240  1.00  0.00    -0.023 C 
ATOM     13  C   UNL     1     141.478 138.120 145.070  1.00  0.00     0.009 C 
ATOM     14  C   UNL     1     139.970 138.154 144.806  1.00  0.00     0.021 C 
ATOM     15  C   UNL     1     138.924 139.255 142.681  1.00  0.00     0.008 C 
ATOM     16  C   UNL     1     139.072 136.751 142.897  1.00  0.00     0.012 C 
ATOM     17  C   UNL     1     139.341 139.330 145.550  1.00  0.00    -0.063 C 
ATOM     18  C   UNL     1     139.193 140.582 143.385  1.00  0.00     0.009 C 
ATOM     19  C   UNL     1     138.707 140.509 144.843  1.00  0.00     0.025 C 
ATOM     20  C   UNL     1     139.265 139.270 146.886  1.00  0.00    -0.000 C 
ATOM     21  C   UNL     1     138.849 141.867 145.642  1.00  0.00    -0.005 C 
ATOM     22  C   UNL     1     138.829 140.418 147.687  1.00  0.00    -0.000 C 
ATOM     23  C   UNL     1     138.657 141.634 147.143  1.00  0.00    -0.061 C 
ATOM     24  C   UNL     1     140.255 142.514 145.471  1.00  0.00     0.014 C 
ATOM     25  C   UNL     1     137.749 142.839 145.129  1.00  0.00     0.017 C 
ATOM     26  C   UNL     1     138.771 142.837 148.049  1.00  0.00     0.063 C 
ATOM     27  C   UNL     1     140.482 143.740 146.390  1.00  0.00     0.033 C 
ATOM     28  C   UNL     1     140.176 143.444 147.873  1.00  0.00     0.118 C 
BRANCH  28  29
ATOM     29  O   UNL     1     140.281 144.634 148.609  1.00  0.00    -0.393 OA
ATOM     30  H   UNL     1     140.922 144.458 149.348  1.00  0.00     0.210 HD
ENDBRANCH  28  29
ENDBRANCH   1  10
TORSDOF 5
ENDMDL
MODEL 2
REMARK VINA RESULT:    -6.139      6.678      9.155
REMARK INTER + INTRA:          -9.082
REMARK INTER:                  -7.554
REMARK INTRA:                  -1.528
REMARK UNBOUND:                -1.328
REMARK SMILES CC(C)[C@H](C)C=C[C@H](C)[C@@H]1CC[C@H]2C3=CC=C4C[C@H](O)CC[C@@]4(C)[C@H]3CC[C@]21C
REMARK SMILES IDX 8 1 9 2 7 3 6 4 4 5 5 6 2 7 1 8 3 9 10 10 11 11 28 12 12 13
REMARK SMILES IDX 13 14 27 15 29 16 14 17 26 18 25 19 15 20 23 21 16 22 17 23
REMARK SMILES IDX 22 24 24 25 18 26 21 27 19 28 20 29
REMARK H PARENT 20 30
REMARK Flexibility Score: inf
ROOT
ATOM      1  C   UNL     1     149.855 139.329 142.581  1.00  0.00     0.012 C 
ATOM      2  C   UNL     1     151.194 138.601 142.777  1.00  0.00     0.012 C 
ENDROOT
BRANCH   1   3
ATOM      3  C   UNL     1     149.490 139.216 141.111  1.00  0.00    -0.028 C 
ATOM      4  C   UNL     1     149.022 140.223 140.349  1.00  0.00    -0.028 C 
BRANCH   4   5
ATOM      5  C   UNL     1     148.709 141.617 140.858  1.00  0.00     0.011 C 
ATOM      6  C   UNL     1     149.397 142.661 139.962  1.00  0.00     0.012 C 
BRANCH   5   7
ATOM      7  C   UNL     1     147.169 141.823 140.989  1.00  0.00    -0.011 C 
ATOM      8  C   UNL     1     146.766 143.285 140.747  1.00  0.00     0.008 C 
ATOM      9  C   UNL     1     146.349 140.884 140.088  1.00  0.00     0.008 C 
ENDBRANCH   5   7
ENDBRANCH   4   5
ENDBRANCH   1   3
BRANCH   1  10
ATOM     10  C   UNL     1     148.709 138.736 143.471  1.00  0.00     0.002 C 
ATOM     11  C   UNL     1     147.461 138.435 142.643  1.00  0.00     0.005 C 
ATOM     12  C   UNL     1     148.170 139.583 144.684  1.00  0.00    -0.023 C 
ATOM     13  C   UNL     1     146.357 138.222 143.652  1.00  0.00     0.009 C 
ATOM     14  C   UNL     1     146.653 139.173 144.815  1.00  0.00     0.021 C 
ATOM     15  C   UNL     1     148.986 139.308 145.981  1.00  0.00     0.008 C 
ATOM     16  C   UNL     1     148.232 141.107 144.389  1.00  0.00     0.012 C 
ATOM     17  C   UNL     1     146.193 138.543 146.129  1.00  0.00    -0.063 C 
ATOM     18  C   UNL     1     148.579 138.012 146.675  1.00  0.00     0.009 C 
ATOM     19  C   UNL     1     147.150 138.141 147.230  1.00  0.00     0.025 C 
ATOM     20  C   UNL     1     144.877 138.426 146.352  1.00  0.00    -0.000 C 
ATOM     21  C   UNL     1     146.660 136.884 148.057  1.00  0.00    -0.005 C 
ATOM     22  C   UNL     1     144.352 137.690 147.505  1.00  0.00    -0.000 C 
ATOM     23  C   UNL     1     145.148 136.947 148.291  1.00  0.00    -0.061 C 
ATOM     24  C   UNL     1     146.937 135.541 147.319  1.00  0.00     0.014 C 
ATOM     25  C   UNL     1     147.392 136.900 149.429  1.00  0.00     0.017 C 
ATOM     26  C   UNL     1     144.520 135.810 149.062  1.00  0.00     0.063 C 
ATOM     27  C   UNL     1     146.300 134.315 148.016  1.00  0.00     0.033 C 
ATOM     28  C   UNL     1     144.795 134.500 148.300  1.00  0.00     0.118 C 
BRANCH  28  29
ATOM     29  O   UNL     1     144.330 133.405 149.045  1.00  0.00    -0.393 OA
ATOM     30  H   UNL     1     145.080 132.754 149.097  1.00  0.00     0.210 HD
ENDBRANCH  28  29
ENDBRANCH   1  10
TORSDOF 5
ENDMDL
MODEL 3
REMARK VINA RESULT:    -6.125      3.445      8.283
REMARK INTER + INTRA:          -9.064
REMARK INTER:                  -9.215
REMARK INTRA:                   0.151
REMARK UNBOUND:                -1.328
REMARK SMILES CC(C)[C@H](C)C=C[C@H](C)[C@@H]1CC[C@H]2C3=CC=C4C[C@H](O)CC[C@@]4(C)[C@H]3CC[C@]21C
REMARK SMILES IDX 8 1 9 2 7 3 6 4 4 5 5 6 2 7 1 8 3 9 10 10 11 11 28 12 12 13
REMARK SMILES IDX 13 14 27 15 29 16 14 17 26 18 25 19 15 20 23 21 16 22 17 23
REMARK SMILES IDX 22 24 24 25 18 26 21 27 19 28 20 29
REMARK H PARENT 20 30
REMARK Flexibility Score: inf
ROOT
ATOM      1  C   UNL     1     139.260 139.679 146.435  1.00  0.00     0.012 C 
ATOM      2  C   UNL     1     138.582 138.321 146.672  1.00  0.00     0.012 C 
ENDROOT
BRANCH   1   3
ATOM      3  C   UNL     1     139.597 140.259 147.799  1.00  0.00    -0.028 C 
ATOM      4  C   UNL     1     139.296 141.507 148.206  1.00  0.00    -0.028 C 
BRANCH   4   5
ATOM      5  C   UNL     1     138.638 142.563 147.337  1.00  0.00     0.011 C 
ATOM      6  C   UNL     1     137.335 143.040 148.001  1.00  0.00     0.012 C 
BRANCH   5   7
ATOM      7  C   UNL     1     139.638 143.717 147.021  1.00  0.00    -0.011 C 
ATOM      8  C   UNL     1     140.060 144.469 148.291  1.00  0.00     0.008 C 
ATOM      9  C   UNL     1     140.877 143.253 146.237  1.00  0.00     0.008 C 
ENDBRANCH   5   7
ENDBRANCH   4   5
ENDBRANCH   1   3
BRANCH   1  10
ATOM     10  C   UNL     1     140.557 139.563 145.561  1.00  0.00     0.002 C 
ATOM     11  C   UNL     1     140.329 140.112 144.153  1.00  0.00     0.005 C 
ATOM     12  C   UNL     1     141.188 138.141 145.321  1.00  0.00    -0.023 C 
ATOM     13  C   UNL     1     141.503 139.619 143.341  1.00  0.00     0.009 C 
ATOM     14  C   UNL     1     141.854 138.235 143.894  1.00  0.00     0.021 C 
ATOM     15  C   UNL     1     142.206 137.771 146.440  1.00  0.00     0.008 C 
ATOM     16  C   UNL     1     140.100 137.033 145.272  1.00  0.00     0.012 C 
ATOM     17  C   UNL     1     143.361 138.003 143.791  1.00  0.00    -0.063 C 
ATOM     18  C   UNL     1     143.566 138.434 146.250  1.00  0.00     0.009 C 
ATOM     19  C   UNL     1     144.258 137.861 145.001  1.00  0.00     0.025 C 
ATOM     20  C   UNL     1     143.894 137.826 142.575  1.00  0.00    -0.000 C 
ATOM     21  C   UNL     1     145.723 138.409 144.761  1.00  0.00    -0.005 C 
ATOM     22  C   UNL     1     145.344 137.760 142.370  1.00  0.00    -0.000 C 
ATOM     23  C   UNL     1     146.210 138.054 143.355  1.00  0.00    -0.061 C 
ATOM     24  C   UNL     1     145.803 139.960 144.877  1.00  0.00     0.014 C 
ATOM     25  C   UNL     1     146.658 137.747 145.812  1.00  0.00     0.017 C 
ATOM     26  C   UNL     1     147.594 138.516 142.964  1.00  0.00     0.063 C 
ATOM     27  C   UNL     1     147.179 140.536 144.462  1.00  0.00     0.033 C 
ATOM     28  C   UNL     1     147.638 140.052 143.072  1.00  0.00     0.118 C 
BRANCH  28  29
ATOM     29  O   UNL     1     148.942 140.513 142.833  1.00  0.00    -0.393 OA
ATOM     30  H   UNL     1     148.856 141.398 142.387  1.00  0.00     0.210 HD
ENDBRANCH  28  29
ENDBRANCH   1  10
TORSDOF 5
ENDMDL
MODEL 4
REMARK VINA RESULT:    -6.067      7.537     10.003
REMARK INTER + INTRA:          -8.991
REMARK INTER:                  -7.360
REMARK INTRA:                  -1.630
REMARK UNBOUND:                -1.328
REMARK SMILES CC(C)[C@H](C)C=C[C@H](C)[C@@H]1CC[C@H]2C3=CC=C4C[C@H](O)CC[C@@]4(C)[C@H]3CC[C@]21C
REMARK SMILES IDX 8 1 9 2 7 3 6 4 4 5 5 6 2 7 1 8 3 9 10 10 11 11 28 12 12 13
REMARK SMILES IDX 13 14 27 15 29 16 14 17 26 18 25 19 15 20 23 21 16 22 17 23
REMARK SMILES IDX 22 24 24 25 18 26 21 27 19 28 20 29
REMARK H PARENT 20 30
REMARK Flexibility Score: inf
ROOT
ATOM      1  C   UNL     1     150.046 137.968 147.875  1.00  0.00     0.012 C 
ATOM      2  C   UNL     1     151.354 138.744 148.096  1.00  0.00     0.012 C 
ENDROOT
BRANCH   1   3
ATOM      3  C   UNL     1     149.278 137.995 149.187  1.00  0.00    -0.028 C 
ATOM      4  C   UNL     1     148.842 136.908 149.851  1.00  0.00    -0.028 C 
BRANCH   4   5
ATOM      5  C   UNL     1     148.979 135.480 149.355  1.00  0.00     0.011 C 
ATOM      6  C   UNL     1     150.007 134.730 150.220  1.00  0.00     0.012 C 
BRANCH   5   7
ATOM      7  C   UNL     1     147.586 134.783 149.292  1.00  0.00    -0.011 C 
ATOM      8  C   UNL     1     147.069 134.416 150.691  1.00  0.00     0.008 C 
ATOM      9  C   UNL     1     146.530 135.598 148.527  1.00  0.00     0.008 C 
ENDBRANCH   5   7
ENDBRANCH   4   5
ENDBRANCH   1   3
BRANCH   1  10
ATOM     10  C   UNL     1     149.171 138.574 146.723  1.00  0.00     0.002 C 
ATOM     11  C   UNL     1     147.771 138.935 147.219  1.00  0.00     0.005 C 
ATOM     12  C   UNL     1     148.911 137.713 145.432  1.00  0.00    -0.023 C 
ATOM     13  C   UNL     1     146.953 139.156 145.969  1.00  0.00     0.009 C 
ATOM     14  C   UNL     1     147.487 138.167 144.929  1.00  0.00     0.021 C 
ATOM     15  C   UNL     1     150.026 137.929 144.366  1.00  0.00     0.008 C 
ATOM     16  C   UNL     1     148.844 136.196 145.760  1.00  0.00     0.012 C 
ATOM     17  C   UNL     1     147.381 138.777 143.532  1.00  0.00    -0.063 C 
ATOM     18  C   UNL     1     149.847 139.219 143.572  1.00  0.00     0.009 C 
ATOM     19  C   UNL     1     148.590 139.120 142.689  1.00  0.00     0.025 C 
ATOM     20  C   UNL     1     146.163 138.928 142.995  1.00  0.00    -0.000 C 
ATOM     21  C   UNL     1     148.360 140.370 141.746  1.00  0.00    -0.005 C 
ATOM     22  C   UNL     1     145.960 139.650 141.736  1.00  0.00    -0.000 C 
ATOM     23  C   UNL     1     146.949 140.348 141.154  1.00  0.00    -0.061 C 
ATOM     24  C   UNL     1     148.499 141.722 142.506  1.00  0.00     0.014 C 
ATOM     25  C   UNL     1     149.402 140.296 140.594  1.00  0.00     0.017 C 
ATOM     26  C   UNL     1     146.568 141.483 140.234  1.00  0.00     0.063 C 
ATOM     27  C   UNL     1     148.095 142.949 141.653  1.00  0.00     0.033 C 
ATOM     28  C   UNL     1     146.697 142.804 141.016  1.00  0.00     0.118 C 
BRANCH  28  29
ATOM     29  O   UNL     1     146.467 143.893 140.162  1.00  0.00    -0.393 OA
ATOM     30  H   UNL     1     146.197 144.657 140.738  1.00  0.00     0.210 HD
ENDBRANCH  28  29
ENDBRANCH   1  10
TORSDOF 5
ENDMDL
MODEL 5
REMARK VINA RESULT:    -5.936      6.907      9.286
REMARK INTER + INTRA:          -8.825
REMARK INTER:                  -7.277
REMARK INTRA:                  -1.548
REMARK UNBOUND:                -1.328
REMARK SMILES CC(C)[C@H](C)C=C[C@H](C)[C@@H]1CC[C@H]2C3=CC=C4C[C@H](O)CC[C@@]4(C)[C@H]3CC[C@]21C
REMARK SMILES IDX 8 1 9 2 7 3 6 4 4 5 5 6 2 7 1 8 3 9 10 10 11 11 28 12 12 13
REMARK SMILES IDX 13 14 27 15 29 16 14 17 26 18 25 19 15 20 23 21 16 22 17 23
REMARK SMILES IDX 22 24 24 25 18 26 21 27 19 28 20 29
REMARK H PARENT 20 30
REMARK Flexibility Score: inf
ROOT
ATOM      1  C   UNL     1     143.849 134.837 147.569  1.00  0.00     0.012 C 
ATOM      2  C   UNL     1     142.811 134.805 146.436  1.00  0.00     0.012 C 
ENDROOT
BRANCH   1   3
ATOM      3  C   UNL     1     144.228 133.397 147.875  1.00  0.00    -0.028 C 
ATOM      4  C   UNL     1     144.100 132.801 149.076  1.00  0.00    -0.028 C 
BRANCH   4   5
ATOM      5  C   UNL     1     143.628 133.496 150.339  1.00  0.00     0.011 C 
ATOM      6  C   UNL     1     143.093 132.452 151.334  1.00  0.00     0.012 C 
BRANCH   5   7
ATOM      7  C   UNL     1     144.756 134.398 150.926  1.00  0.00    -0.011 C 
ATOM      8  C   UNL     1     144.258 135.235 152.113  1.00  0.00     0.008 C 
ATOM      9  C   UNL     1     146.022 133.616 151.315  1.00  0.00     0.008 C 
ENDBRANCH   5   7
ENDBRANCH   4   5
ENDBRANCH   1   3
BRANCH   1  10
ATOM     10  C   UNL     1     145.126 135.665 147.195  1.00  0.00     0.002 C 
ATOM     11  C   UNL     1     146.390 135.033 147.778  1.00  0.00     0.005 C 
ATOM     12  C   UNL     1     145.211 137.173 147.638  1.00  0.00    -0.023 C 
ATOM     13  C   UNL     1     147.457 136.095 147.654  1.00  0.00     0.009 C 
ATOM     14  C   UNL     1     146.750 137.438 147.863  1.00  0.00     0.021 C 
ATOM     15  C   UNL     1     144.585 138.119 146.571  1.00  0.00     0.008 C 
ATOM     16  C   UNL     1     144.479 137.416 148.986  1.00  0.00     0.012 C 
ATOM     17  C   UNL     1     147.424 138.515 147.015  1.00  0.00    -0.063 C 
ATOM     18  C   UNL     1     145.518 138.387 145.393  1.00  0.00     0.009 C 
ATOM     19  C   UNL     1     146.731 139.209 145.862  1.00  0.00     0.025 C 
ATOM     20  C   UNL     1     148.649 138.926 147.365  1.00  0.00    -0.000 C 
ATOM     21  C   UNL     1     147.719 139.628 144.700  1.00  0.00    -0.005 C 
ATOM     22  C   UNL     1     149.431 139.831 146.518  1.00  0.00    -0.000 C 
ATOM     23  C   UNL     1     149.039 140.149 145.273  1.00  0.00    -0.061 C 
ATOM     24  C   UNL     1     148.082 138.434 143.768  1.00  0.00     0.014 C 
ATOM     25  C   UNL     1     147.036 140.758 143.878  1.00  0.00     0.017 C 
ATOM     26  C   UNL     1     150.098 140.583 144.288  1.00  0.00     0.063 C 
ATOM     27  C   UNL     1     149.189 138.773 142.741  1.00  0.00     0.033 C 
ATOM     28  C   UNL     1     150.449 139.380 143.393  1.00  0.00     0.118 C 
BRANCH  28  29
ATOM     29  O   UNL     1     151.342 139.774 142.386  1.00  0.00    -0.393 OA
ATOM     30  H   UNL     1     151.525 140.742 142.527  1.00  0.00     0.210 HD
ENDBRANCH  28  29
ENDBRANCH   1  10
TORSDOF 5
ENDMDL
MODEL 6
REMARK VINA RESULT:    -5.920      7.000      9.669
REMARK INTER + INTRA:          -8.805
REMARK INTER:                  -7.137
REMARK INTRA:                  -1.668
REMARK UNBOUND:                -1.328
REMARK SMILES CC(C)[C@H](C)C=C[C@H](C)[C@@H]1CC[C@H]2C3=CC=C4C[C@H](O)CC[C@@]4(C)[C@H]3CC[C@]21C
REMARK SMILES IDX 8 1 9 2 7 3 6 4 4 5 5 6 2 7 1 8 3 9 10 10 11 11 28 12 12 13
REMARK SMILES IDX 13 14 27 15 29 16 14 17 26 18 25 19 15 20 23 21 16 22 17 23
REMARK SMILES IDX 22 24 24 25 18 26 21 27 19 28 20 29
REMARK H PARENT 20 30
REMARK Flexibility Score: inf
ROOT
ATOM      1  C   UNL     1     146.136 135.106 150.523  1.00  0.00     0.012 C 
ATOM      2  C   UNL     1     147.348 135.119 151.469  1.00  0.00     0.012 C 
ENDROOT
BRANCH   1   3
ATOM      3  C   UNL     1     144.914 135.470 151.350  1.00  0.00    -0.028 C 
ATOM      4  C   UNL     1     143.791 134.732 151.438  1.00  0.00    -0.028 C 
BRANCH   4   5
ATOM      5  C   UNL     1     143.535 133.454 150.662  1.00  0.00     0.011 C 
ATOM      6  C   UNL     1     143.468 132.264 151.635  1.00  0.00     0.012 C 
BRANCH   5   7
ATOM      7  C   UNL     1     142.269 133.600 149.764  1.00  0.00    -0.011 C 
ATOM      8  C   UNL     1     142.148 135.012 149.173  1.00  0.00     0.008 C 
ATOM      9  C   UNL     1     142.186 132.543 148.649  1.00  0.00     0.008 C 
ENDBRANCH   5   7
ENDBRANCH   4   5
ENDBRANCH   1   3
BRANCH   1  10
ATOM     10  C   UNL     1     146.295 136.104 149.324  1.00  0.00     0.002 C 
ATOM     11  C   UNL     1     145.156 137.123 149.294  1.00  0.00     0.005 C 
ATOM     12  C   UNL     1     146.337 135.531 147.858  1.00  0.00    -0.023 C 
ATOM     13  C   UNL     1     145.235 137.764 147.928  1.00  0.00     0.009 C 
ATOM     14  C   UNL     1     145.701 136.666 146.967  1.00  0.00     0.021 C 
ATOM     15  C   UNL     1     147.789 135.167 147.428  1.00  0.00     0.008 C 
ATOM     16  C   UNL     1     145.458 134.258 147.716  1.00  0.00     0.012 C 
ATOM     17  C   UNL     1     146.561 137.277 145.862  1.00  0.00    -0.063 C 
ATOM     18  C   UNL     1     148.605 136.383 147.002  1.00  0.00     0.009 C 
ATOM     19  C   UNL     1     148.034 136.968 145.699  1.00  0.00     0.025 C 
ATOM     20  C   UNL     1     145.964 138.047 144.943  1.00  0.00    -0.000 C 
ATOM     21  C   UNL     1     148.865 138.179 145.111  1.00  0.00    -0.005 C 
ATOM     22  C   UNL     1     146.734 138.801 143.950  1.00  0.00    -0.000 C 
ATOM     23  C   UNL     1     148.071 138.902 144.021  1.00  0.00    -0.061 C 
ATOM     24  C   UNL     1     149.204 139.247 146.193  1.00  0.00     0.014 C 
ATOM     25  C   UNL     1     150.175 137.606 144.499  1.00  0.00     0.017 C 
ATOM     26  C   UNL     1     148.726 140.093 143.363  1.00  0.00     0.063 C 
ATOM     27  C   UNL     1     149.850 140.527 145.609  1.00  0.00     0.033 C 
ATOM     28  C   UNL     1     149.034 141.138 144.452  1.00  0.00     0.118 C 
BRANCH  28  29
ATOM     29  O   UNL     1     149.751 142.210 143.900  1.00  0.00    -0.393 OA
ATOM     30  H   UNL     1     150.348 141.828 143.202  1.00  0.00     0.210 HD
ENDBRANCH  28  29
ENDBRANCH   1  10
TORSDOF 5
ENDMDL
MODEL 7
REMARK VINA RESULT:    -5.909      7.254      9.873
REMARK INTER + INTRA:          -8.791
REMARK INTER:                  -7.227
REMARK INTRA:                  -1.564
REMARK UNBOUND:                -1.328
REMARK SMILES CC(C)[C@H](C)C=C[C@H](C)[C@@H]1CC[C@H]2C3=CC=C4C[C@H](O)CC[C@@]4(C)[C@H]3CC[C@]21C
REMARK SMILES IDX 8 1 9 2 7 3 6 4 4 5 5 6 2 7 1 8 3 9 10 10 11 11 28 12 12 13
REMARK SMILES IDX 13 14 27 15 29 16 14 17 26 18 25 19 15 20 23 21 16 22 17 23
REMARK SMILES IDX 22 24 24 25 18 26 21 27 19 28 20 29
REMARK H PARENT 20 30
REMARK Flexibility Score: inf
ROOT
ATOM      1  C   UNL     1     150.005 139.435 146.765  1.00  0.00     0.012 C 
ATOM      2  C   UNL     1     151.300 140.261 146.707  1.00  0.00     0.012 C 
ENDROOT
BRANCH   1   3
ATOM      3  C   UNL     1     149.363 139.695 148.117  1.00  0.00    -0.028 C 
ATOM      4  C   UNL     1     148.977 138.743 148.987  1.00  0.00    -0.028 C 
BRANCH   4   5
ATOM      5  C   UNL     1     149.049 137.251 148.723  1.00  0.00     0.011 C 
ATOM      6  C   UNL     1     149.428 136.515 150.019  1.00  0.00     0.012 C 
BRANCH   5   7
ATOM      7  C   UNL     1     147.725 136.741 148.077  1.00  0.00    -0.011 C 
ATOM      8  C   UNL     1     147.747 135.222 147.854  1.00  0.00     0.008 C 
ATOM      9  C   UNL     1     146.467 137.150 148.861  1.00  0.00     0.008 C 
ENDBRANCH   5   7
ENDBRANCH   4   5
ENDBRANCH   1   3
BRANCH   1  10
ATOM     10  C   UNL     1     149.006 139.797 145.612  1.00  0.00     0.002 C 
ATOM     11  C   UNL     1     147.570 139.887 146.129  1.00  0.00     0.005 C 
ATOM     12  C   UNL     1     148.906 138.844 144.364  1.00  0.00    -0.023 C 
ATOM     13  C   UNL     1     146.703 139.880 144.892  1.00  0.00     0.009 C 
ATOM     14  C   UNL     1     147.410 138.974 143.880  1.00  0.00     0.021 C 
ATOM     15  C   UNL     1     149.934 139.234 143.262  1.00  0.00     0.008 C 
ATOM     16  C   UNL     1     149.157 137.361 144.755  1.00  0.00     0.012 C 
ATOM     17  C   UNL     1     147.158 139.486 142.462  1.00  0.00    -0.063 C 
ATOM     18  C   UNL     1     149.481 140.423 142.420  1.00  0.00     0.009 C 
ATOM     19  C   UNL     1     148.257 140.031 141.575  1.00  0.00     0.025 C 
ATOM     20  C   UNL     1     145.927 139.361 141.951  1.00  0.00    -0.000 C 
ATOM     21  C   UNL     1     147.760 141.163 140.588  1.00  0.00    -0.005 C 
ATOM     22  C   UNL     1     145.558 139.969 140.669  1.00  0.00    -0.000 C 
ATOM     23  C   UNL     1     146.374 140.827 140.034  1.00  0.00    -0.061 C 
ATOM     24  C   UNL     1     147.632 142.548 141.289  1.00  0.00     0.014 C 
ATOM     25  C   UNL     1     148.775 141.251 139.413  1.00  0.00     0.017 C 
ATOM     26  C   UNL     1     145.752 141.818 139.078  1.00  0.00     0.063 C 
ATOM     27  C   UNL     1     146.970 143.627 140.397  1.00  0.00     0.033 C 
ATOM     28  C   UNL     1     145.622 143.171 139.803  1.00  0.00     0.118 C 
BRANCH  28  29
ATOM     29  O   UNL     1     145.159 144.150 138.911  1.00  0.00    -0.393 OA
ATOM     30  H   UNL     1     144.258 143.858 138.606  1.00  0.00     0.210 HD
ENDBRANCH  28  29
ENDBRANCH   1  10
TORSDOF 5
ENDMDL
MODEL 8
REMARK VINA RESULT:    -5.880      8.070     10.520
REMARK INTER + INTRA:          -8.755
REMARK INTER:                  -7.380
REMARK INTRA:                  -1.375
REMARK UNBOUND:                -1.328
REMARK SMILES CC(C)[C@H](C)C=C[C@H](C)[C@@H]1CC[C@H]2C3=CC=C4C[C@H](O)CC[C@@]4(C)[C@H]3CC[C@]21C
REMARK SMILES IDX 8 1 9 2 7 3 6 4 4 5 5 6 2 7 1 8 3 9 10 10 11 11 28 12 12 13
REMARK SMILES IDX 13 14 27 15 29 16 14 17 26 18 25 19 15 20 23 21 16 22 17 23
REMARK SMILES IDX 22 24 24 25 18 26 21 27 19 28 20 29
REMARK H PARENT 20 30
REMARK Flexibility Score: inf
ROOT
ATOM      1  C   UNL     1     147.291 137.079 146.789  1.00  0.00     0.012 C 
ATOM      2  C   UNL     1     145.772 136.972 146.584  1.00  0.00     0.012 C 
ENDROOT
BRANCH   1   3
ATOM      3  C   UNL     1     147.832 135.663 146.902  1.00  0.00    -0.028 C 
ATOM      4  C   UNL     1     147.929 134.960 148.047  1.00  0.00    -0.028 C 
BRANCH   4   5
ATOM      5  C   UNL     1     147.585 135.499 149.423  1.00  0.00     0.011 C 
ATOM      6  C   UNL     1     146.621 134.531 150.130  1.00  0.00     0.012 C 
BRANCH   5   7
ATOM      7  C   UNL     1     148.881 135.799 150.236  1.00  0.00    -0.011 C 
ATOM      8  C   UNL     1     149.936 134.699 150.053  1.00  0.00     0.008 C 
ATOM      9  C   UNL     1     149.487 137.180 149.931  1.00  0.00     0.008 C 
ENDBRANCH   5   7
ENDBRANCH   4   5
ENDBRANCH   1   3
BRANCH   1  10
ATOM     10  C   UNL     1     148.007 137.840 145.620  1.00  0.00     0.002 C 
ATOM     11  C   UNL     1     149.312 137.150 145.224  1.00  0.00     0.005 C 
ATOM     12  C   UNL     1     148.417 139.345 145.830  1.00  0.00    -0.023 C 
ATOM     13  C   UNL     1     150.049 138.156 144.372  1.00  0.00     0.009 C 
ATOM     14  C   UNL     1     149.711 139.534 144.949  1.00  0.00     0.021 C 
ATOM     15  C   UNL     1     147.265 140.313 145.427  1.00  0.00     0.008 C 
ATOM     16  C   UNL     1     148.795 139.634 147.309  1.00  0.00     0.012 C 
ATOM     17  C   UNL     1     149.670 140.570 143.827  1.00  0.00    -0.063 C 
ATOM     18  C   UNL     1     147.167 140.525 143.919  1.00  0.00     0.009 C 
ATOM     19  C   UNL     1     148.404 141.289 143.416  1.00  0.00     0.025 C 
ATOM     20  C   UNL     1     150.823 140.922 143.244  1.00  0.00    -0.000 C 
ATOM     21  C   UNL     1     148.361 141.650 141.876  1.00  0.00    -0.005 C 
ATOM     22  C   UNL     1     150.857 141.781 142.057  1.00  0.00    -0.000 C 
ATOM     23  C   UNL     1     149.738 142.108 141.390  1.00  0.00    -0.061 C 
ATOM     24  C   UNL     1     147.962 140.433 140.991  1.00  0.00     0.014 C 
ATOM     25  C   UNL     1     147.338 142.806 141.685  1.00  0.00     0.017 C 
ATOM     26  C   UNL     1     149.867 142.482 139.932  1.00  0.00     0.063 C 
ATOM     27  C   UNL     1     148.096 140.707 139.473  1.00  0.00     0.033 C 
ATOM     28  C   UNL     1     149.484 141.256 139.083  1.00  0.00     0.118 C 
BRANCH  28  29
ATOM     29  O   UNL     1     149.476 141.598 137.722  1.00  0.00    -0.393 OA
ATOM     30  H   UNL     1     148.636 141.228 137.338  1.00  0.00     0.210 HD
ENDBRANCH  28  29
ENDBRANCH   1  10
TORSDOF 5
ENDMDL
MODEL 9
REMARK VINA RESULT:    -5.805      7.624      9.893
REMARK INTER + INTRA:          -8.660
REMARK INTER:                  -7.756
REMARK INTRA:                  -0.905
REMARK UNBOUND:                -1.328
REMARK SMILES CC(C)[C@H](C)C=C[C@H](C)[C@@H]1CC[C@H]2C3=CC=C4C[C@H](O)CC[C@@]4(C)[C@H]3CC[C@]21C
REMARK SMILES IDX 8 1 9 2 7 3 6 4 4 5 5 6 2 7 1 8 3 9 10 10 11 11 28 12 12 13
REMARK SMILES IDX 13 14 27 15 29 16 14 17 26 18 25 19 15 20 23 21 16 22 17 23
REMARK SMILES IDX 22 24 24 25 18 26 21 27 19 28 20 29
REMARK H PARENT 20 30
REMARK Flexibility Score: inf
ROOT
ATOM      1  C   UNL     1     149.754 140.627 145.181  1.00  0.00     0.012 C 
ATOM      2  C   UNL     1     151.215 141.078 145.336  1.00  0.00     0.012 C 
ENDROOT
BRANCH   1   3
ATOM      3  C   UNL     1     149.658 139.842 143.884  1.00  0.00    -0.028 C 
ATOM      4  C   UNL     1     148.646 139.926 143.000  1.00  0.00    -0.028 C 
BRANCH   4   5
ATOM      5  C   UNL     1     147.396 140.764 143.196  1.00  0.00     0.011 C 
ATOM      6  C   UNL     1     147.151 141.626 141.945  1.00  0.00     0.012 C 
BRANCH   5   7
ATOM      7  C   UNL     1     146.184 139.864 143.583  1.00  0.00    -0.011 C 
ATOM      8  C   UNL     1     146.383 138.412 143.123  1.00  0.00     0.008 C 
ATOM      9  C   UNL     1     145.844 139.909 145.082  1.00  0.00     0.008 C 
ENDBRANCH   5   7
ENDBRANCH   4   5
ENDBRANCH   1   3
BRANCH   1  10
ATOM     10  C   UNL     1     149.262 139.748 146.384  1.00  0.00     0.002 C 
ATOM     11  C   UNL     1     149.652 140.372 147.724  1.00  0.00     0.005 C 
ATOM     12  C   UNL     1     149.761 138.259 146.493  1.00  0.00    -0.023 C 
ATOM     13  C   UNL     1     149.445 139.277 148.744  1.00  0.00     0.009 C 
ATOM     14  C   UNL     1     149.804 137.964 148.041  1.00  0.00     0.021 C 
ATOM     15  C   UNL     1     148.826 137.285 145.717  1.00  0.00     0.008 C 
ATOM     16  C   UNL     1     151.200 138.096 145.932  1.00  0.00     0.012 C 
ATOM     17  C   UNL     1     148.929 136.834 148.580  1.00  0.00    -0.063 C 
ATOM     18  C   UNL     1     147.555 136.941 146.488  1.00  0.00     0.009 C 
ATOM     19  C   UNL     1     147.906 136.108 147.732  1.00  0.00     0.025 C 
ATOM     20  C   UNL     1     149.142 136.405 149.831  1.00  0.00    -0.000 C 
ATOM     21  C   UNL     1     146.650 135.612 148.557  1.00  0.00    -0.005 C 
ATOM     22  C   UNL     1     148.247 135.443 150.480  1.00  0.00    -0.000 C 
ATOM     23  C   UNL     1     147.077 135.082 149.928  1.00  0.00    -0.061 C 
ATOM     24  C   UNL     1     145.626 136.754 148.824  1.00  0.00     0.014 C 
ATOM     25  C   UNL     1     145.974 134.466 147.752  1.00  0.00     0.017 C 
ATOM     26  C   UNL     1     145.989 134.576 150.844  1.00  0.00     0.063 C 
ATOM     27  C   UNL     1     144.484 136.341 149.786  1.00  0.00     0.033 C 
ATOM     28  C   UNL     1     145.002 135.730 151.104  1.00  0.00     0.118 C 
BRANCH  28  29
ATOM     29  O   UNL     1     143.910 135.268 151.855  1.00  0.00    -0.393 OA
ATOM     30  H   UNL     1     144.214 135.213 152.800  1.00  0.00     0.210 HD
ENDBRANCH  28  29
ENDBRANCH   1  10
TORSDOF 5
ENDMDL
