MODEL 1
REMARK VINA RESULT:    -4.136      0.000      0.000
REMARK INTER + INTRA:         -12.402
REMARK INTER:                  -8.971
REMARK INTRA:                  -3.431
REMARK UNBOUND:                -3.431
REMARK SMILES CCCCCCCCCCCCCCCCCCCCCC(=O)[O-]
REMARK SMILES IDX 12 1 11 2 10 3 9 4 8 5 7 6 6 7 5 8 4 9 3 10 2 11 1 12 13 13
REMARK SMILES IDX 14 14 15 15 16 16 17 17 18 18 19 19 20 20 21 21 22 22 23 23
REMARK SMILES IDX 24 24
REMARK H PARENT
REMARK Flexibility Score: inf
ROOT
ATOM      1  C   UNL     1      24.183  30.438 -11.127  1.00  0.00     0.000 C 
ENDROOT
BRANCH   1   2
ATOM      2  C   UNL     1      24.984  31.668 -11.591  1.00  0.00     0.000 C 
BRANCH   2   3
ATOM      3  C   UNL     1      24.194  32.675 -12.451  1.00  0.00     0.000 C 
BRANCH   3   4
ATOM      4  C   UNL     1      24.393  32.534 -13.971  1.00  0.00    -0.000 C 
BRANCH   4   5
ATOM      5  C   UNL     1      23.354  31.611 -14.626  1.00  0.00    -0.000 C 
BRANCH   5   6
ATOM      6  C   UNL     1      24.038  30.532 -15.479  1.00  0.00    -0.000 C 
BRANCH   6   7
ATOM      7  C   UNL     1      25.022  29.671 -14.672  1.00  0.00    -0.000 C 
BRANCH   7   8
ATOM      8  C   UNL     1      26.318  29.371 -15.442  1.00  0.00    -0.000 C 
BRANCH   8   9
ATOM      9  C   UNL     1      27.464  30.274 -14.959  1.00  0.00    -0.000 C 
BRANCH   9  10
ATOM     10  C   UNL     1      27.459  30.473 -13.435  1.00  0.00    -0.000 C 
BRANCH  10  11
ATOM     11  C   UNL     1      28.839  30.240 -12.803  1.00  0.00    -0.003 C 
ATOM     12  C   UNL     1      28.748  30.214 -11.280  1.00  0.00     0.004 C 
ENDBRANCH  10  11
ENDBRANCH   9  10
ENDBRANCH   8   9
ENDBRANCH   7   8
ENDBRANCH   6   7
ENDBRANCH   5   6
ENDBRANCH   4   5
ENDBRANCH   3   4
ENDBRANCH   2   3
ENDBRANCH   1   2
BRANCH   1  13
ATOM     13  C   UNL     1      25.060  29.193 -10.933  1.00  0.00     0.000 C 
BRANCH  13  14
ATOM     14  C   UNL     1      24.434  27.969 -11.614  1.00  0.00     0.000 C 
BRANCH  14  15
ATOM     15  C   UNL     1      25.396  26.772 -11.585  1.00  0.00     0.000 C 
BRANCH  15  16
ATOM     16  C   UNL     1      26.789  27.110 -12.151  1.00  0.00     0.000 C 
BRANCH  16  17
ATOM     17  C   UNL     1      27.181  26.334 -13.424  1.00  0.00     0.000 C 
BRANCH  17  18
ATOM     18  C   UNL     1      26.149  25.289 -13.893  1.00  0.00     0.000 C 
BRANCH  18  19
ATOM     19  C   UNL     1      26.670  23.837 -13.843  1.00  0.00     0.000 C 
BRANCH  19  20
ATOM     20  C   UNL     1      27.652  23.605 -12.682  1.00  0.00     0.006 C 
BRANCH  20  21
ATOM     21  C   UNL     1      26.980  22.927 -11.481  1.00  0.00     0.053 C 
BRANCH  21  22
ATOM     22  C   UNL     1      27.672  21.653 -11.105  1.00  0.00     0.041 C 
ATOM     23  O   UNL     1      27.079  20.796 -10.396  1.00  0.00    -0.550 OA
ATOM     24  O   UNL     1      28.981  21.425 -11.509  1.00  0.00    -0.550 OA
ENDBRANCH  21  22
ENDBRANCH  20  21
ENDBRANCH  19  20
ENDBRANCH  18  19
ENDBRANCH  17  18
ENDBRANCH  16  17
ENDBRANCH  15  16
ENDBRANCH  14  15
ENDBRANCH  13  14
ENDBRANCH   1  13
TORSDOF 20
ENDMDL
MODEL 2
REMARK VINA RESULT:    -4.094      3.836      7.170
REMARK INTER + INTRA:         -12.312
REMARK INTER:                  -8.901
REMARK INTRA:                  -3.411
REMARK UNBOUND:                -3.431
REMARK SMILES CCCCCCCCCCCCCCCCCCCCCC(=O)[O-]
REMARK SMILES IDX 12 1 11 2 10 3 9 4 8 5 7 6 6 7 5 8 4 9 3 10 2 11 1 12 13 13
REMARK SMILES IDX 14 14 15 15 16 16 17 17 18 18 19 19 20 20 21 21 22 22 23 23
REMARK SMILES IDX 24 24
REMARK H PARENT
REMARK Flexibility Score: inf
ROOT
ATOM      1  C   UNL     1      28.037  30.134 -10.732  1.00  0.00     0.000 C 
ENDROOT
BRANCH   1   2
ATOM      2  C   UNL     1      26.920  29.405  -9.965  1.00  0.00     0.000 C 
BRANCH   2   3
ATOM      3  C   UNL     1      26.653  27.956 -10.422  1.00  0.00     0.000 C 
BRANCH   3   4
ATOM      4  C   UNL     1      25.275  27.717 -11.064  1.00  0.00    -0.000 C 
BRANCH   4   5
ATOM      5  C   UNL     1      25.317  26.691 -12.206  1.00  0.00    -0.000 C 
BRANCH   5   6
ATOM      6  C   UNL     1      26.726  26.100 -12.361  1.00  0.00    -0.000 C 
BRANCH   6   7
ATOM      7  C   UNL     1      27.077  25.776 -13.822  1.00  0.00    -0.000 C 
BRANCH   7   8
ATOM      8  C   UNL     1      25.836  25.493 -14.682  1.00  0.00    -0.000 C 
BRANCH   8   9
ATOM      9  C   UNL     1      25.508  23.992 -14.694  1.00  0.00    -0.000 C 
BRANCH   9  10
ATOM     10  C   UNL     1      26.685  23.124 -14.223  1.00  0.00    -0.000 C 
BRANCH  10  11
ATOM     11  C   UNL     1      26.350  22.299 -12.972  1.00  0.00    -0.003 C 
ATOM     12  C   UNL     1      27.461  22.403 -11.931  1.00  0.00     0.004 C 
ENDBRANCH  10  11
ENDBRANCH   9  10
ENDBRANCH   8   9
ENDBRANCH   7   8
ENDBRANCH   6   7
ENDBRANCH   5   6
ENDBRANCH   4   5
ENDBRANCH   3   4
ENDBRANCH   2   3
ENDBRANCH   1   2
BRANCH   1  13
ATOM     13  C   UNL     1      28.429  29.425 -12.037  1.00  0.00     0.000 C 
BRANCH  13  14
ATOM     14  C   UNL     1      28.833  30.439 -13.113  1.00  0.00     0.000 C 
BRANCH  14  15
ATOM     15  C   UNL     1      27.747  30.557 -14.193  1.00  0.00     0.000 C 
BRANCH  15  16
ATOM     16  C   UNL     1      26.634  29.503 -14.041  1.00  0.00     0.000 C 
BRANCH  16  17
ATOM     17  C   UNL     1      25.977  29.056 -15.361  1.00  0.00     0.000 C 
BRANCH  17  18
ATOM     18  C   UNL     1      24.442  29.194 -15.405  1.00  0.00     0.000 C 
BRANCH  18  19
ATOM     19  C   UNL     1      23.815  29.576 -14.048  1.00  0.00     0.000 C 
BRANCH  19  20
ATOM     20  C   UNL     1      22.725  30.653 -14.187  1.00  0.00     0.006 C 
BRANCH  20  21
ATOM     21  C   UNL     1      23.204  31.860 -15.005  1.00  0.00     0.053 C 
BRANCH  21  22
ATOM     22  C   UNL     1      24.268  32.630 -14.287  1.00  0.00     0.041 C 
ATOM     23  O   UNL     1      25.273  33.058 -14.915  1.00  0.00    -0.550 OA
ATOM     24  O   UNL     1      24.168  32.848 -12.919  1.00  0.00    -0.550 OA
ENDBRANCH  21  22
ENDBRANCH  20  21
ENDBRANCH  19  20
ENDBRANCH  18  19
ENDBRANCH  17  18
ENDBRANCH  16  17
ENDBRANCH  15  16
ENDBRANCH  14  15
ENDBRANCH  13  14
ENDBRANCH   1  13
TORSDOF 20
ENDMDL
MODEL 3
REMARK VINA RESULT:    -4.047      3.834      7.220
REMARK INTER + INTRA:         -12.209
REMARK INTER:                  -8.810
REMARK INTRA:                  -3.400
REMARK UNBOUND:                -3.431
REMARK SMILES CCCCCCCCCCCCCCCCCCCCCC(=O)[O-]
REMARK SMILES IDX 12 1 11 2 10 3 9 4 8 5 7 6 6 7 5 8 4 9 3 10 2 11 1 12 13 13
REMARK SMILES IDX 14 14 15 15 16 16 17 17 18 18 19 19 20 20 21 21 22 22 23 23
REMARK SMILES IDX 24 24
REMARK H PARENT
REMARK Flexibility Score: inf
ROOT
ATOM      1  C   UNL     1      26.277  27.435 -10.578  1.00  0.00     0.000 C 
ENDROOT
BRANCH   1   2
ATOM      2  C   UNL     1      26.769  27.131 -12.004  1.00  0.00     0.000 C 
BRANCH   2   3
ATOM      3  C   UNL     1      25.653  26.929 -13.051  1.00  0.00     0.000 C 
BRANCH   3   4
ATOM      4  C   UNL     1      26.127  26.395 -14.414  1.00  0.00    -0.000 C 
BRANCH   4   5
ATOM      5  C   UNL     1      25.023  25.651 -15.180  1.00  0.00    -0.000 C 
BRANCH   5   6
ATOM      6  C   UNL     1      25.210  24.130 -15.074  1.00  0.00    -0.000 C 
BRANCH   6   7
ATOM      7  C   UNL     1      24.138  23.457 -14.203  1.00  0.00    -0.000 C 
BRANCH   7   8
ATOM      8  C   UNL     1      24.739  22.622 -13.062  1.00  0.00    -0.000 C 
BRANCH   8   9
ATOM      9  C   UNL     1      24.946  23.480 -11.804  1.00  0.00    -0.000 C 
BRANCH   9  10
ATOM     10  C   UNL     1      26.425  23.601 -11.406  1.00  0.00    -0.000 C 
BRANCH  10  11
ATOM     11  C   UNL     1      27.347  22.743 -12.284  1.00  0.00    -0.003 C 
ATOM     12  C   UNL     1      28.283  23.616 -13.116  1.00  0.00     0.004 C 
ENDBRANCH  10  11
ENDBRANCH   9  10
ENDBRANCH   8   9
ENDBRANCH   7   8
ENDBRANCH   6   7
ENDBRANCH   5   6
ENDBRANCH   4   5
ENDBRANCH   3   4
ENDBRANCH   2   3
ENDBRANCH   1   2
BRANCH   1  13
ATOM     13  C   UNL     1      26.279  28.935 -10.252  1.00  0.00     0.000 C 
BRANCH  13  14
ATOM     14  C   UNL     1      27.622  29.366  -9.651  1.00  0.00     0.000 C 
BRANCH  14  15
ATOM     15  C   UNL     1      28.250  30.505 -10.466  1.00  0.00     0.000 C 
BRANCH  15  16
ATOM     16  C   UNL     1      29.282  30.007 -11.496  1.00  0.00     0.000 C 
BRANCH  16  17
ATOM     17  C   UNL     1      28.914  30.276 -12.968  1.00  0.00     0.000 C 
BRANCH  17  18
ATOM     18  C   UNL     1      27.434  30.626 -13.217  1.00  0.00     0.000 C 
BRANCH  18  19
ATOM     19  C   UNL     1      26.881  30.073 -14.547  1.00  0.00     0.000 C 
BRANCH  19  20
ATOM     20  C   UNL     1      25.445  30.549 -14.829  1.00  0.00     0.006 C 
BRANCH  20  21
ATOM     21  C   UNL     1      25.260  32.043 -14.530  1.00  0.00     0.053 C 
BRANCH  21  22
ATOM     22  C   UNL     1      24.064  32.291 -13.664  1.00  0.00     0.041 C 
ATOM     23  O   UNL     1      22.906  32.053 -14.100  1.00  0.00    -0.550 OA
ATOM     24  O   UNL     1      24.224  32.816 -12.388  1.00  0.00    -0.550 OA
ENDBRANCH  21  22
ENDBRANCH  20  21
ENDBRANCH  19  20
ENDBRANCH  18  19
ENDBRANCH  17  18
ENDBRANCH  16  17
ENDBRANCH  15  16
ENDBRANCH  14  15
ENDBRANCH  13  14
ENDBRANCH   1  13
TORSDOF 20
ENDMDL
MODEL 4
REMARK VINA RESULT:    -4.029      1.077      3.195
REMARK INTER + INTRA:         -12.170
REMARK INTER:                  -9.013
REMARK INTRA:                  -3.158
REMARK UNBOUND:                -3.431
REMARK SMILES CCCCCCCCCCCCCCCCCCCCCC(=O)[O-]
REMARK SMILES IDX 12 1 11 2 10 3 9 4 8 5 7 6 6 7 5 8 4 9 3 10 2 11 1 12 13 13
REMARK SMILES IDX 14 14 15 15 16 16 17 17 18 18 19 19 20 20 21 21 22 22 23 23
REMARK SMILES IDX 24 24
REMARK H PARENT
REMARK Flexibility Score: inf
ROOT
ATOM      1  C   UNL     1      26.628  28.412  -9.532  1.00  0.00     0.000 C 
ENDROOT
BRANCH   1   2
ATOM      2  C   UNL     1      27.657  29.528  -9.278  1.00  0.00     0.000 C 
BRANCH   2   3
ATOM      3  C   UNL     1      27.927  30.453 -10.482  1.00  0.00     0.000 C 
BRANCH   3   4
ATOM      4  C   UNL     1      29.179  30.103 -11.306  1.00  0.00    -0.000 C 
BRANCH   4   5
ATOM      5  C   UNL     1      28.917  30.106 -12.820  1.00  0.00    -0.000 C 
BRANCH   5   6
ATOM      6  C   UNL     1      27.461  30.486 -13.126  1.00  0.00    -0.000 C 
BRANCH   6   7
ATOM      7  C   UNL     1      27.168  30.551 -14.632  1.00  0.00    -0.000 C 
BRANCH   7   8
ATOM      8  C   UNL     1      26.287  29.389 -15.116  1.00  0.00    -0.000 C 
BRANCH   8   9
ATOM      9  C   UNL     1      24.803  29.667 -14.825  1.00  0.00    -0.000 C 
BRANCH   9  10
ATOM     10  C   UNL     1      24.424  31.141 -15.040  1.00  0.00    -0.000 C 
BRANCH  10  11
ATOM     11  C   UNL     1      23.565  31.705 -13.899  1.00  0.00    -0.003 C 
ATOM     12  C   UNL     1      24.401  32.565 -12.956  1.00  0.00     0.004 C 
ENDBRANCH  10  11
ENDBRANCH   9  10
ENDBRANCH   8   9
ENDBRANCH   7   8
ENDBRANCH   6   7
ENDBRANCH   5   6
ENDBRANCH   4   5
ENDBRANCH   3   4
ENDBRANCH   2   3
ENDBRANCH   1   2
BRANCH   1  13
ATOM     13  C   UNL     1      25.525  28.828 -10.517  1.00  0.00     0.000 C 
BRANCH  13  14
ATOM     14  C   UNL     1      25.430  27.839 -11.685  1.00  0.00     0.000 C 
BRANCH  14  15
ATOM     15  C   UNL     1      26.642  26.896 -11.708  1.00  0.00     0.000 C 
BRANCH  15  16
ATOM     16  C   UNL     1      27.003  26.419 -13.128  1.00  0.00     0.000 C 
BRANCH  16  17
ATOM     17  C   UNL     1      25.823  25.861 -13.946  1.00  0.00     0.000 C 
BRANCH  17  18
ATOM     18  C   UNL     1      26.075  24.488 -14.600  1.00  0.00     0.000 C 
BRANCH  18  19
ATOM     19  C   UNL     1      26.989  23.563 -13.768  1.00  0.00     0.000 C 
BRANCH  19  20
ATOM     20  C   UNL     1      26.301  22.237 -13.398  1.00  0.00     0.006 C 
BRANCH  20  21
ATOM     21  C   UNL     1      25.904  22.184 -11.917  1.00  0.00     0.053 C 
BRANCH  21  22
ATOM     22  C   UNL     1      27.089  21.941 -11.034  1.00  0.00     0.041 C 
ATOM     23  O   UNL     1      27.231  22.599  -9.969  1.00  0.00    -0.550 OA
ATOM     24  O   UNL     1      28.052  21.010 -11.401  1.00  0.00    -0.550 OA
ENDBRANCH  21  22
ENDBRANCH  20  21
ENDBRANCH  19  20
ENDBRANCH  18  19
ENDBRANCH  17  18
ENDBRANCH  16  17
ENDBRANCH  15  16
ENDBRANCH  14  15
ENDBRANCH  13  14
ENDBRANCH   1  13
TORSDOF 20
ENDMDL
MODEL 5
REMARK VINA RESULT:    -4.006      1.398      3.470
REMARK INTER + INTRA:         -12.120
REMARK INTER:                  -8.352
REMARK INTRA:                  -3.769
REMARK UNBOUND:                -3.431
REMARK SMILES CCCCCCCCCCCCCCCCCCCCCC(=O)[O-]
REMARK SMILES IDX 12 1 11 2 10 3 9 4 8 5 7 6 6 7 5 8 4 9 3 10 2 11 1 12 13 13
REMARK SMILES IDX 14 14 15 15 16 16 17 17 18 18 19 19 20 20 21 21 22 22 23 23
REMARK SMILES IDX 24 24
REMARK H PARENT
REMARK Flexibility Score: inf
ROOT
ATOM      1  C   UNL     1      28.502  29.620 -12.267  1.00  0.00     0.000 C 
ENDROOT
BRANCH   1   2
ATOM      2  C   UNL     1      28.629  30.522 -13.507  1.00  0.00     0.000 C 
BRANCH   2   3
ATOM      3  C   UNL     1      27.406  30.515 -14.447  1.00  0.00     0.000 C 
BRANCH   3   4
ATOM      4  C   UNL     1      26.318  29.485 -14.095  1.00  0.00    -0.000 C 
BRANCH   4   5
ATOM      5  C   UNL     1      25.812  28.709 -15.320  1.00  0.00    -0.000 C 
BRANCH   5   6
ATOM      6  C   UNL     1      24.399  28.158 -15.077  1.00  0.00    -0.000 C 
BRANCH   6   7
ATOM      7  C   UNL     1      23.350  29.268 -14.904  1.00  0.00    -0.000 C 
BRANCH   7   8
ATOM      8  C   UNL     1      22.704  29.262 -13.510  1.00  0.00    -0.000 C 
BRANCH   8   9
ATOM      9  C   UNL     1      22.708  30.672 -12.899  1.00  0.00    -0.000 C 
BRANCH   9  10
ATOM     10  C   UNL     1      23.314  31.724 -13.840  1.00  0.00    -0.000 C 
BRANCH  10  11
ATOM     11  C   UNL     1      24.471  32.501 -13.194  1.00  0.00    -0.003 C 
ATOM     12  C   UNL     1      24.807  31.941 -11.815  1.00  0.00     0.004 C 
ENDBRANCH  10  11
ENDBRANCH   9  10
ENDBRANCH   8   9
ENDBRANCH   7   8
ENDBRANCH   6   7
ENDBRANCH   5   6
ENDBRANCH   4   5
ENDBRANCH   3   4
ENDBRANCH   2   3
ENDBRANCH   1   2
BRANCH   1  13
ATOM     13  C   UNL     1      28.642  30.394 -10.948  1.00  0.00     0.000 C 
BRANCH  13  14
ATOM     14  C   UNL     1      27.533  30.006  -9.963  1.00  0.00     0.000 C 
BRANCH  14  15
ATOM     15  C   UNL     1      27.061  28.565 -10.206  1.00  0.00     0.000 C 
BRANCH  15  16
ATOM     16  C   UNL     1      25.575  28.481 -10.605  1.00  0.00     0.000 C 
BRANCH  16  17
ATOM     17  C   UNL     1      25.208  27.277 -11.496  1.00  0.00     0.000 C 
BRANCH  17  18
ATOM     18  C   UNL     1      26.272  26.164 -11.558  1.00  0.00     0.000 C 
BRANCH  18  19
ATOM     19  C   UNL     1      27.026  26.101 -12.903  1.00  0.00     0.000 C 
BRANCH  19  20
ATOM     20  C   UNL     1      26.784  24.777 -13.649  1.00  0.00     0.006 C 
BRANCH  20  21
ATOM     21  C   UNL     1      27.760  23.677 -13.210  1.00  0.00     0.053 C 
BRANCH  21  22
ATOM     22  C   UNL     1      27.081  22.633 -12.378  1.00  0.00     0.041 C 
ATOM     23  O   UNL     1      27.139  22.688 -11.121  1.00  0.00    -0.550 OA
ATOM     24  O   UNL     1      26.411  21.582 -12.991  1.00  0.00    -0.550 OA
ENDBRANCH  21  22
ENDBRANCH  20  21
ENDBRANCH  19  20
ENDBRANCH  18  19
ENDBRANCH  17  18
ENDBRANCH  16  17
ENDBRANCH  15  16
ENDBRANCH  14  15
ENDBRANCH  13  14
ENDBRANCH   1  13
TORSDOF 20
ENDMDL
MODEL 6
REMARK VINA RESULT:    -3.965      1.509      3.822
REMARK INTER + INTRA:         -12.032
REMARK INTER:                  -8.132
REMARK INTRA:                  -3.900
REMARK UNBOUND:                -3.431
REMARK SMILES CCCCCCCCCCCCCCCCCCCCCC(=O)[O-]
REMARK SMILES IDX 12 1 11 2 10 3 9 4 8 5 7 6 6 7 5 8 4 9 3 10 2 11 1 12 13 13
REMARK SMILES IDX 14 14 15 15 16 16 17 17 18 18 19 19 20 20 21 21 22 22 23 23
REMARK SMILES IDX 24 24
REMARK H PARENT
REMARK Flexibility Score: inf
ROOT
ATOM      1  C   UNL     1      24.681  32.163 -14.684  1.00  0.00     0.000 C 
ENDROOT
BRANCH   1   2
ATOM      2  C   UNL     1      24.487  32.663 -13.241  1.00  0.00     0.000 C 
BRANCH   2   3
ATOM      3  C   UNL     1      24.740  31.608 -12.145  1.00  0.00     0.000 C 
BRANCH   3   4
ATOM      4  C   UNL     1      23.473  31.051 -11.471  1.00  0.00    -0.000 C 
BRANCH   4   5
ATOM      5  C   UNL     1      23.722  29.728 -10.733  1.00  0.00    -0.000 C 
BRANCH   5   6
ATOM      6  C   UNL     1      25.092  29.140 -11.104  1.00  0.00    -0.000 C 
BRANCH   6   7
ATOM      7  C   UNL     1      25.885  28.658  -9.879  1.00  0.00    -0.000 C 
BRANCH   7   8
ATOM      8  C   UNL     1      27.403  28.816 -10.055  1.00  0.00    -0.000 C 
BRANCH   8   9
ATOM      9  C   UNL     1      27.773  30.282 -10.336  1.00  0.00    -0.000 C 
BRANCH   9  10
ATOM     10  C   UNL     1      29.012  30.419 -11.233  1.00  0.00    -0.000 C 
BRANCH  10  11
ATOM     11  C   UNL     1      28.842  29.722 -12.591  1.00  0.00    -0.003 C 
ATOM     12  C   UNL     1      27.874  30.491 -13.485  1.00  0.00     0.004 C 
ENDBRANCH  10  11
ENDBRANCH   9  10
ENDBRANCH   8   9
ENDBRANCH   7   8
ENDBRANCH   6   7
ENDBRANCH   5   6
ENDBRANCH   4   5
ENDBRANCH   3   4
ENDBRANCH   2   3
ENDBRANCH   1   2
BRANCH   1  13
ATOM     13  C   UNL     1      23.368  32.099 -15.476  1.00  0.00     0.000 C 
BRANCH  13  14
ATOM     14  C   UNL     1      23.072  30.665 -15.935  1.00  0.00     0.000 C 
BRANCH  14  15
ATOM     15  C   UNL     1      22.693  29.774 -14.743  1.00  0.00     0.000 C 
BRANCH  15  16
ATOM     16  C   UNL     1      23.645  28.576 -14.564  1.00  0.00     0.000 C 
BRANCH  16  17
ATOM     17  C   UNL     1      24.856  28.558 -15.517  1.00  0.00     0.000 C 
BRANCH  17  18
ATOM     18  C   UNL     1      26.079  27.775 -15.003  1.00  0.00     0.000 C 
BRANCH  18  19
ATOM     19  C   UNL     1      25.757  26.818 -13.836  1.00  0.00     0.000 C 
BRANCH  19  20
ATOM     20  C   UNL     1      26.992  26.507 -12.973  1.00  0.00     0.006 C 
BRANCH  20  21
ATOM     21  C   UNL     1      26.699  25.451 -11.900  1.00  0.00     0.053 C 
BRANCH  21  22
ATOM     22  C   UNL     1      26.880  24.060 -12.426  1.00  0.00     0.041 C 
ATOM     23  O   UNL     1      27.994  23.700 -12.892  1.00  0.00    -0.550 OA
ATOM     24  O   UNL     1      25.812  23.173 -12.432  1.00  0.00    -0.550 OA
ENDBRANCH  21  22
ENDBRANCH  20  21
ENDBRANCH  19  20
ENDBRANCH  18  19
ENDBRANCH  17  18
ENDBRANCH  16  17
ENDBRANCH  15  16
ENDBRANCH  14  15
ENDBRANCH  13  14
ENDBRANCH   1  13
TORSDOF 20
ENDMDL
MODEL 7
REMARK VINA RESULT:    -3.946      1.433      3.983
REMARK INTER + INTRA:         -11.990
REMARK INTER:                  -8.676
REMARK INTRA:                  -3.314
REMARK UNBOUND:                -3.431
REMARK SMILES CCCCCCCCCCCCCCCCCCCCCC(=O)[O-]
REMARK SMILES IDX 12 1 11 2 10 3 9 4 8 5 7 6 6 7 5 8 4 9 3 10 2 11 1 12 13 13
REMARK SMILES IDX 14 14 15 15 16 16 17 17 18 18 19 19 20 20 21 21 22 22 23 23
REMARK SMILES IDX 24 24
REMARK H PARENT
REMARK Flexibility Score: inf
ROOT
ATOM      1  C   UNL     1      25.150  28.998 -14.477  1.00  0.00     0.000 C 
ENDROOT
BRANCH   1   2
ATOM      2  C   UNL     1      26.467  29.561 -15.040  1.00  0.00     0.000 C 
BRANCH   2   3
ATOM      3  C   UNL     1      27.190  30.569 -14.124  1.00  0.00     0.000 C 
BRANCH   3   4
ATOM      4  C   UNL     1      28.436  30.020 -13.406  1.00  0.00    -0.000 C 
BRANCH   4   5
ATOM      5  C   UNL     1      28.106  29.351 -12.063  1.00  0.00    -0.000 C 
BRANCH   5   6
ATOM      6  C   UNL     1      27.151  30.223 -11.235  1.00  0.00    -0.000 C 
BRANCH   6   7
ATOM      7  C   UNL     1      25.882  29.471 -10.804  1.00  0.00    -0.000 C 
BRANCH   7   8
ATOM      8  C   UNL     1      24.597  30.264 -11.088  1.00  0.00    -0.000 C 
BRANCH   8   9
ATOM      9  C   UNL     1      24.925  31.654 -11.655  1.00  0.00    -0.000 C 
BRANCH   9  10
ATOM     10  C   UNL     1      23.688  32.370 -12.220  1.00  0.00    -0.000 C 
BRANCH  10  11
ATOM     11  C   UNL     1      23.393  31.986 -13.676  1.00  0.00    -0.003 C 
ATOM     12  C   UNL     1      24.367  32.667 -14.633  1.00  0.00     0.004 C 
ENDBRANCH  10  11
ENDBRANCH   9  10
ENDBRANCH   8   9
ENDBRANCH   7   8
ENDBRANCH   6   7
ENDBRANCH   5   6
ENDBRANCH   4   5
ENDBRANCH   3   4
ENDBRANCH   2   3
ENDBRANCH   1   2
BRANCH   1  13
ATOM     13  C   UNL     1      25.300  27.576 -13.916  1.00  0.00     0.000 C 
BRANCH  13  14
ATOM     14  C   UNL     1      26.358  26.786 -14.695  1.00  0.00     0.000 C 
BRANCH  14  15
ATOM     15  C   UNL     1      27.247  25.972 -13.743  1.00  0.00     0.000 C 
BRANCH  15  16
ATOM     16  C   UNL     1      26.613  25.774 -12.353  1.00  0.00     0.000 C 
BRANCH  16  17
ATOM     17  C   UNL     1      26.648  24.327 -11.822  1.00  0.00     0.000 C 
BRANCH  17  18
ATOM     18  C   UNL     1      27.437  23.332 -12.695  1.00  0.00     0.000 C 
BRANCH  18  19
ATOM     19  C   UNL     1      26.542  22.397 -13.534  1.00  0.00     0.000 C 
BRANCH  19  20
ATOM     20  C   UNL     1      25.343  21.858 -12.735  1.00  0.00     0.006 C 
BRANCH  20  21
ATOM     21  C   UNL     1      25.520  20.384 -12.347  1.00  0.00     0.053 C 
BRANCH  21  22
ATOM     22  C   UNL     1      25.721  20.219 -10.872  1.00  0.00     0.041 C 
ATOM     23  O   UNL     1      26.816  20.543 -10.341  1.00  0.00    -0.550 OA
ATOM     24  O   UNL     1      24.710  19.678 -10.087  1.00  0.00    -0.550 OA
ENDBRANCH  21  22
ENDBRANCH  20  21
ENDBRANCH  19  20
ENDBRANCH  18  19
ENDBRANCH  17  18
ENDBRANCH  16  17
ENDBRANCH  15  16
ENDBRANCH  14  15
ENDBRANCH  13  14
ENDBRANCH   1  13
TORSDOF 20
ENDMDL
MODEL 8
REMARK VINA RESULT:    -3.916      3.474      7.030
REMARK INTER + INTRA:         -11.925
REMARK INTER:                  -8.016
REMARK INTRA:                  -3.909
REMARK UNBOUND:                -3.431
REMARK SMILES CCCCCCCCCCCCCCCCCCCCCC(=O)[O-]
REMARK SMILES IDX 12 1 11 2 10 3 9 4 8 5 7 6 6 7 5 8 4 9 3 10 2 11 1 12 13 13
REMARK SMILES IDX 14 14 15 15 16 16 17 17 18 18 19 19 20 20 21 21 22 22 23 23
REMARK SMILES IDX 24 24
REMARK H PARENT
REMARK Flexibility Score: inf
ROOT
ATOM      1  C   UNL     1      23.765  27.868 -11.652  1.00  0.00     0.000 C 
ENDROOT
BRANCH   1   2
ATOM      2  C   UNL     1      24.267  26.747 -12.579  1.00  0.00     0.000 C 
BRANCH   2   3
ATOM      3  C   UNL     1      25.578  27.057 -13.329  1.00  0.00     0.000 C 
BRANCH   3   4
ATOM      4  C   UNL     1      26.841  26.415 -12.729  1.00  0.00    -0.000 C 
BRANCH   4   5
ATOM      5  C   UNL     1      26.529  25.452 -11.573  1.00  0.00    -0.000 C 
BRANCH   5   6
ATOM      6  C   UNL     1      26.980  24.023 -11.911  1.00  0.00    -0.000 C 
BRANCH   6   7
ATOM      7  C   UNL     1      27.434  23.873 -13.371  1.00  0.00    -0.000 C 
BRANCH   7   8
ATOM      8  C   UNL     1      26.564  22.886 -14.165  1.00  0.00    -0.000 C 
BRANCH   8   9
ATOM      9  C   UNL     1      25.482  23.630 -14.965  1.00  0.00    -0.000 C 
BRANCH   9  10
ATOM     10  C   UNL     1      24.091  23.524 -14.320  1.00  0.00    -0.000 C 
BRANCH  10  11
ATOM     11  C   UNL     1      23.885  22.201 -13.569  1.00  0.00    -0.003 C 
ATOM     12  C   UNL     1      23.618  22.446 -12.087  1.00  0.00     0.004 C 
ENDBRANCH  10  11
ENDBRANCH   9  10
ENDBRANCH   8   9
ENDBRANCH   7   8
ENDBRANCH   6   7
ENDBRANCH   5   6
ENDBRANCH   4   5
ENDBRANCH   3   4
ENDBRANCH   2   3
ENDBRANCH   1   2
BRANCH   1  13
ATOM     13  C   UNL     1      24.451  29.216 -11.918  1.00  0.00     0.000 C 
BRANCH  13  14
ATOM     14  C   UNL     1      25.054  29.789 -10.629  1.00  0.00     0.000 C 
BRANCH  14  15
ATOM     15  C   UNL     1      25.785  28.699  -9.832  1.00  0.00     0.000 C 
BRANCH  15  16
ATOM     16  C   UNL     1      27.318  28.794  -9.954  1.00  0.00     0.000 C 
BRANCH  16  17
ATOM     17  C   UNL     1      27.845  30.130 -10.513  1.00  0.00     0.000 C 
BRANCH  17  18
ATOM     18  C   UNL     1      29.161  30.029 -11.310  1.00  0.00     0.000 C 
BRANCH  18  19
ATOM     19  C   UNL     1      28.980  30.212 -12.831  1.00  0.00     0.000 C 
BRANCH  19  20
ATOM     20  C   UNL     1      27.548  30.634 -13.206  1.00  0.00     0.006 C 
BRANCH  20  21
ATOM     21  C   UNL     1      27.168  30.197 -14.627  1.00  0.00     0.053 C 
BRANCH  21  22
ATOM     22  C   UNL     1      25.753  30.557 -14.957  1.00  0.00     0.041 C 
ATOM     23  O   UNL     1      25.071  29.815 -15.713  1.00  0.00    -0.550 OA
ATOM     24  O   UNL     1      25.196  31.727 -14.458  1.00  0.00    -0.550 OA
ENDBRANCH  21  22
ENDBRANCH  20  21
ENDBRANCH  19  20
ENDBRANCH  18  19
ENDBRANCH  17  18
ENDBRANCH  16  17
ENDBRANCH  15  16
ENDBRANCH  14  15
ENDBRANCH  13  14
ENDBRANCH   1  13
TORSDOF 20
ENDMDL
MODEL 9
REMARK VINA RESULT:    -3.853      1.396      3.830
REMARK INTER + INTRA:         -11.789
REMARK INTER:                  -8.177
REMARK INTRA:                  -3.611
REMARK UNBOUND:                -3.431
REMARK SMILES CCCCCCCCCCCCCCCCCCCCCC(=O)[O-]
REMARK SMILES IDX 12 1 11 2 10 3 9 4 8 5 7 6 6 7 5 8 4 9 3 10 2 11 1 12 13 13
REMARK SMILES IDX 14 14 15 15 16 16 17 17 18 18 19 19 20 20 21 21 22 22 23 23
REMARK SMILES IDX 24 24
REMARK H PARENT
REMARK Flexibility Score: inf
ROOT
ATOM      1  C   UNL     1      27.754  30.243 -10.434  1.00  0.00     0.000 C 
ENDROOT
BRANCH   1   2
ATOM      2  C   UNL     1      29.065  30.143 -11.235  1.00  0.00     0.000 C 
BRANCH   2   3
ATOM      3  C   UNL     1      28.896  30.163 -12.768  1.00  0.00     0.000 C 
BRANCH   3   4
ATOM      4  C   UNL     1      27.468  29.887 -13.271  1.00  0.00    -0.000 C 
BRANCH   4   5
ATOM      5  C   UNL     1      27.177  30.541 -14.629  1.00  0.00    -0.000 C 
BRANCH   5   6
ATOM      6  C   UNL     1      25.896  31.388 -14.569  1.00  0.00    -0.000 C 
BRANCH   6   7
ATOM      7  C   UNL     1      25.495  31.756 -13.132  1.00  0.00    -0.000 C 
BRANCH   7   8
ATOM      8  C   UNL     1      24.023  32.185 -13.020  1.00  0.00    -0.000 C 
BRANCH   8   9
ATOM      9  C   UNL     1      23.246  31.818 -14.294  1.00  0.00    -0.000 C 
BRANCH   9  10
ATOM     10  C   UNL     1      21.930  31.084 -13.995  1.00  0.00    -0.000 C 
BRANCH  10  11
ATOM     11  C   UNL     1      21.956  29.615 -14.441  1.00  0.00    -0.003 C 
ATOM     12  C   UNL     1      23.072  29.367 -15.452  1.00  0.00     0.004 C 
ENDBRANCH  10  11
ENDBRANCH   9  10
ENDBRANCH   8   9
ENDBRANCH   7   8
ENDBRANCH   6   7
ENDBRANCH   5   6
ENDBRANCH   4   5
ENDBRANCH   3   4
ENDBRANCH   2   3
ENDBRANCH   1   2
BRANCH   1  13
ATOM     13  C   UNL     1      27.483  29.000  -9.574  1.00  0.00     0.000 C 
BRANCH  13  14
ATOM     14  C   UNL     1      26.227  28.263 -10.054  1.00  0.00     0.000 C 
BRANCH  14  15
ATOM     15  C   UNL     1      25.211  29.244 -10.657  1.00  0.00     0.000 C 
BRANCH  15  16
ATOM     16  C   UNL     1      24.259  28.575 -11.667  1.00  0.00     0.000 C 
BRANCH  16  17
ATOM     17  C   UNL     1      24.654  27.146 -12.086  1.00  0.00     0.000 C 
BRANCH  17  18
ATOM     18  C   UNL     1      25.207  27.016 -13.519  1.00  0.00     0.000 C 
BRANCH  18  19
ATOM     19  C   UNL     1      26.666  26.518 -13.578  1.00  0.00     0.000 C 
BRANCH  19  20
ATOM     20  C   UNL     1      26.993  25.525 -12.448  1.00  0.00     0.006 C 
BRANCH  20  21
ATOM     21  C   UNL     1      26.958  24.068 -12.929  1.00  0.00     0.053 C 
BRANCH  21  22
ATOM     22  C   UNL     1      27.121  23.106 -11.793  1.00  0.00     0.041 C 
ATOM     23  O   UNL     1      27.707  22.005 -11.975  1.00  0.00    -0.550 OA
ATOM     24  O   UNL     1      26.598  23.408 -10.542  1.00  0.00    -0.550 OA
ENDBRANCH  21  22
ENDBRANCH  20  21
ENDBRANCH  19  20
ENDBRANCH  18  19
ENDBRANCH  17  18
ENDBRANCH  16  17
ENDBRANCH  15  16
ENDBRANCH  14  15
ENDBRANCH  13  14
ENDBRANCH   1  13
TORSDOF 20
ENDMDL
