MODEL 1
REMARK VINA RESULT:    -6.980      0.000      0.000
REMARK INTER + INTRA:          -7.655
REMARK INTER:                  -7.388
REMARK INTRA:                  -0.266
REMARK UNBOUND:                -0.266
REMARK SMILES CC1=C[C@@H]2C(=C(C)CC[C@H]2C(C)C)CC1
REMARK SMILES IDX 1 1 2 2 3 3 4 4 10 5 9 6 8 7 6 8 5 9 14 10 15 11 7 12 11 13
REMARK SMILES IDX 12 14 13 15
REMARK H PARENT
REMARK Flexibility Score: inf
ROOT
ATOM      1  C   UNL     1      10.104  32.385  26.135  1.00  0.00     0.039 C 
ATOM      2  C   UNL     1      10.333  33.160  24.867  1.00  0.00    -0.076 C 
ATOM      3  C   UNL     1      11.201  32.707  23.945  1.00  0.00    -0.020 C 
ATOM      4  C   UNL     1      11.394  33.471  22.649  1.00  0.00     0.041 C 
ATOM      5  C   UNL     1      12.241  32.666  21.626  1.00  0.00     0.003 C 
ATOM      6  C   UNL     1      12.112  33.317  20.237  1.00  0.00     0.009 C 
ATOM      7  C   UNL     1      10.660  33.274  19.772  1.00  0.00     0.031 C 
ATOM      8  C   UNL     1       9.703  33.847  20.795  1.00  0.00    -0.073 C 
ATOM      9  C   UNL     1      10.013  33.885  22.123  1.00  0.00    -0.064 C 
ATOM     10  C   UNL     1       8.996  34.394  23.144  1.00  0.00     0.036 C 
ATOM     11  C   UNL     1       9.559  34.426  24.576  1.00  0.00     0.035 C 
ATOM     12  C   UNL     1       8.337  34.263  20.300  1.00  0.00     0.039 C 
ENDROOT
BRANCH   5  13
ATOM     13  C   UNL     1      13.734  32.499  22.076  1.00  0.00    -0.013 C 
ATOM     14  C   UNL     1      14.146  31.019  22.107  1.00  0.00     0.007 C 
ATOM     15  C   UNL     1      14.739  33.303  21.231  1.00  0.00     0.007 C 
ENDBRANCH   5  13
TORSDOF 1
ENDMDL
MODEL 2
REMARK VINA RESULT:    -6.417      1.157      4.206
REMARK INTER + INTRA:          -7.058
REMARK INTER:                  -6.839
REMARK INTRA:                  -0.219
REMARK UNBOUND:                -0.266
REMARK SMILES CC1=C[C@@H]2C(=C(C)CC[C@H]2C(C)C)CC1
REMARK SMILES IDX 1 1 2 2 3 3 4 4 10 5 9 6 8 7 6 8 5 9 14 10 15 11 7 12 11 13
REMARK SMILES IDX 12 14 13 15
REMARK H PARENT
REMARK Flexibility Score: inf
ROOT
ATOM      1  C   UNL     1      14.601  33.266  21.944  1.00  0.00     0.039 C 
ATOM      2  C   UNL     1      13.159  32.962  21.647  1.00  0.00    -0.076 C 
ATOM      3  C   UNL     1      12.218  33.171  22.584  1.00  0.00    -0.020 C 
ATOM      4  C   UNL     1      10.759  32.904  22.262  1.00  0.00     0.041 C 
ATOM      5  C   UNL     1       9.817  33.434  23.377  1.00  0.00     0.003 C 
ATOM      6  C   UNL     1       8.370  33.455  22.851  1.00  0.00     0.009 C 
ATOM      7  C   UNL     1       8.261  34.403  21.662  1.00  0.00     0.031 C 
ATOM      8  C   UNL     1       9.286  34.112  20.587  1.00  0.00    -0.073 C 
ATOM      9  C   UNL     1      10.460  33.477  20.871  1.00  0.00    -0.064 C 
ATOM     10  C   UNL     1      11.513  33.269  19.783  1.00  0.00     0.036 C 
ATOM     11  C   UNL     1      12.731  32.471  20.283  1.00  0.00     0.035 C 
ATOM     12  C   UNL     1       9.011  34.666  19.208  1.00  0.00     0.039 C 
ENDROOT
BRANCH   5  13
ATOM     13  C   UNL     1       9.958  32.635  24.719  1.00  0.00    -0.013 C 
ATOM     14  C   UNL     1      10.667  33.470  25.796  1.00  0.00     0.007 C 
ATOM     15  C   UNL     1       8.626  32.092  25.270  1.00  0.00     0.007 C 
ENDBRANCH   5  13
TORSDOF 1
ENDMDL
MODEL 3
REMARK VINA RESULT:    -6.377      1.425      4.269
REMARK INTER + INTRA:          -7.016
REMARK INTER:                  -6.749
REMARK INTRA:                  -0.267
REMARK UNBOUND:                -0.266
REMARK SMILES CC1=C[C@@H]2C(=C(C)CC[C@H]2C(C)C)CC1
REMARK SMILES IDX 1 1 2 2 3 3 4 4 10 5 9 6 8 7 6 8 5 9 14 10 15 11 7 12 11 13
REMARK SMILES IDX 12 14 13 15
REMARK H PARENT
REMARK Flexibility Score: inf
ROOT
ATOM      1  C   UNL     1       9.306  34.626  25.003  1.00  0.00     0.039 C 
ATOM      2  C   UNL     1       9.757  33.905  23.763  1.00  0.00    -0.076 C 
ATOM      3  C   UNL     1       9.222  34.216  22.569  1.00  0.00    -0.020 C 
ATOM      4  C   UNL     1       9.714  33.516  21.316  1.00  0.00     0.041 C 
ATOM      5  C   UNL     1       9.155  34.180  20.028  1.00  0.00     0.003 C 
ATOM      6  C   UNL     1       9.944  33.668  18.810  1.00  0.00     0.009 C 
ATOM      7  C   UNL     1      11.411  34.061  18.935  1.00  0.00     0.031 C 
ATOM      8  C   UNL     1      12.017  33.646  20.259  1.00  0.00    -0.073 C 
ATOM      9  C   UNL     1      11.245  33.453  21.369  1.00  0.00    -0.064 C 
ATOM     10  C   UNL     1      11.890  33.114  22.713  1.00  0.00     0.036 C 
ATOM     11  C   UNL     1      10.851  32.864  23.821  1.00  0.00     0.035 C 
ATOM     12  C   UNL     1      13.525  33.576  20.334  1.00  0.00     0.039 C 
ENDROOT
BRANCH   5  13
ATOM     13  C   UNL     1       7.607  33.983  19.869  1.00  0.00    -0.013 C 
ATOM     14  C   UNL     1       7.128  34.416  18.475  1.00  0.00     0.007 C 
ATOM     15  C   UNL     1       7.121  32.553  20.168  1.00  0.00     0.007 C 
ENDBRANCH   5  13
TORSDOF 1
ENDMDL
MODEL 4
REMARK VINA RESULT:    -6.372      1.204      4.285
REMARK INTER + INTRA:          -7.011
REMARK INTER:                  -6.741
REMARK INTRA:                  -0.269
REMARK UNBOUND:                -0.266
REMARK SMILES CC1=C[C@@H]2C(=C(C)CC[C@H]2C(C)C)CC1
REMARK SMILES IDX 1 1 2 2 3 3 4 4 10 5 9 6 8 7 6 8 5 9 14 10 15 11 7 12 11 13
REMARK SMILES IDX 12 14 13 15
REMARK H PARENT
REMARK Flexibility Score: inf
ROOT
ATOM      1  C   UNL     1       6.175  32.993  20.486  1.00  0.00     0.039 C 
ATOM      2  C   UNL     1       7.536  33.561  20.781  1.00  0.00    -0.076 C 
ATOM      3  C   UNL     1       8.213  33.160  21.872  1.00  0.00    -0.020 C 
ATOM      4  C   UNL     1       9.605  33.704  22.139  1.00  0.00     0.041 C 
ATOM      5  C   UNL     1      10.308  32.943  23.296  1.00  0.00     0.003 C 
ATOM      6  C   UNL     1      11.808  33.288  23.292  1.00  0.00     0.009 C 
ATOM      7  C   UNL     1      12.445  32.834  21.984  1.00  0.00     0.031 C 
ATOM      8  C   UNL     1      11.708  33.348  20.766  1.00  0.00    -0.073 C 
ATOM      9  C   UNL     1      10.388  33.692  20.821  1.00  0.00    -0.064 C 
ATOM     10  C   UNL     1       9.647  34.131  19.558  1.00  0.00     0.036 C 
ATOM     11  C   UNL     1       8.192  34.545  19.840  1.00  0.00     0.035 C 
ATOM     12  C   UNL     1      12.461  33.347  19.455  1.00  0.00     0.039 C 
ENDROOT
BRANCH   5  13
ATOM     13  C   UNL     1       9.634  33.202  24.688  1.00  0.00    -0.013 C 
ATOM     14  C   UNL     1      10.489  32.645  25.837  1.00  0.00     0.007 C 
ATOM     15  C   UNL     1       9.297  34.681  24.958  1.00  0.00     0.007 C 
ENDBRANCH   5  13
TORSDOF 1
ENDMDL
MODEL 5
REMARK VINA RESULT:    -6.362      1.305      3.975
REMARK INTER + INTRA:          -7.001
REMARK INTER:                  -6.729
REMARK INTRA:                  -0.272
REMARK UNBOUND:                -0.266
REMARK SMILES CC1=C[C@@H]2C(=C(C)CC[C@H]2C(C)C)CC1
REMARK SMILES IDX 1 1 2 2 3 3 4 4 10 5 9 6 8 7 6 8 5 9 14 10 15 11 7 12 11 13
REMARK SMILES IDX 12 14 13 15
REMARK H PARENT
REMARK Flexibility Score: inf
ROOT
ATOM      1  C   UNL     1       8.144  34.940  18.966  1.00  0.00     0.039 C 
ATOM      2  C   UNL     1       8.347  33.978  20.104  1.00  0.00    -0.076 C 
ATOM      3  C   UNL     1       9.557  33.856  20.677  1.00  0.00    -0.020 C 
ATOM      4  C   UNL     1       9.744  32.917  21.855  1.00  0.00     0.041 C 
ATOM      5  C   UNL     1      11.134  33.100  22.523  1.00  0.00     0.003 C 
ATOM      6  C   UNL     1      11.136  32.394  23.891  1.00  0.00     0.009 C 
ATOM      7  C   UNL     1      10.094  33.026  24.807  1.00  0.00     0.031 C 
ATOM      8  C   UNL     1       8.723  33.097  24.170  1.00  0.00    -0.073 C 
ATOM      9  C   UNL     1       8.563  33.106  22.815  1.00  0.00    -0.064 C 
ATOM     10  C   UNL     1       7.173  33.260  22.198  1.00  0.00     0.036 C 
ATOM     11  C   UNL     1       7.194  33.175  20.662  1.00  0.00     0.035 C 
ATOM     12  C   UNL     1       7.543  33.282  25.097  1.00  0.00     0.039 C 
ENDROOT
BRANCH   5  13
ATOM     13  C   UNL     1      12.314  32.633  21.602  1.00  0.00    -0.013 C 
ATOM     14  C   UNL     1      13.623  33.354  21.960  1.00  0.00     0.007 C 
ATOM     15  C   UNL     1      12.542  31.110  21.596  1.00  0.00     0.007 C 
ENDBRANCH   5  13
TORSDOF 1
ENDMDL
MODEL 6
REMARK VINA RESULT:    -6.321      1.845      4.644
REMARK INTER + INTRA:          -6.957
REMARK INTER:                  -6.678
REMARK INTRA:                  -0.279
REMARK UNBOUND:                -0.266
REMARK SMILES CC1=C[C@@H]2C(=C(C)CC[C@H]2C(C)C)CC1
REMARK SMILES IDX 1 1 2 2 3 3 4 4 10 5 9 6 8 7 6 8 5 9 14 10 15 11 7 12 11 13
REMARK SMILES IDX 12 14 13 15
REMARK H PARENT
REMARK Flexibility Score: inf
ROOT
ATOM      1  C   UNL     1      14.510  33.484  21.199  1.00  0.00     0.039 C 
ATOM      2  C   UNL     1      13.415  32.585  21.703  1.00  0.00    -0.076 C 
ATOM      3  C   UNL     1      12.371  33.103  22.374  1.00  0.00    -0.020 C 
ATOM      4  C   UNL     1      11.248  32.196  22.840  1.00  0.00     0.041 C 
ATOM      5  C   UNL     1      10.034  33.007  23.371  1.00  0.00     0.003 C 
ATOM      6  C   UNL     1       8.817  32.075  23.497  1.00  0.00     0.009 C 
ATOM      7  C   UNL     1       8.439  31.519  22.129  1.00  0.00     0.031 C 
ATOM      8  C   UNL     1       9.612  30.881  21.414  1.00  0.00    -0.073 C 
ATOM      9  C   UNL     1      10.899  31.234  21.697  1.00  0.00    -0.064 C 
ATOM     10  C   UNL     1      12.060  30.634  20.904  1.00  0.00     0.036 C 
ATOM     11  C   UNL     1      13.433  31.100  21.421  1.00  0.00     0.035 C 
ATOM     12  C   UNL     1       9.292  29.928  20.285  1.00  0.00     0.039 C 
ENDROOT
BRANCH   5  13
ATOM     13  C   UNL     1      10.352  33.767  24.705  1.00  0.00    -0.013 C 
ATOM     14  C   UNL     1       9.323  34.875  24.978  1.00  0.00     0.007 C 
ATOM     15  C   UNL     1      10.472  32.850  25.937  1.00  0.00     0.007 C 
ENDBRANCH   5  13
TORSDOF 1
ENDMDL
MODEL 7
REMARK VINA RESULT:    -6.097      2.062      2.521
REMARK INTER + INTRA:          -6.720
REMARK INTER:                  -6.448
REMARK INTRA:                  -0.272
REMARK UNBOUND:                -0.266
REMARK SMILES CC1=C[C@@H]2C(=C(C)CC[C@H]2C(C)C)CC1
REMARK SMILES IDX 1 1 2 2 3 3 4 4 10 5 9 6 8 7 6 8 5 9 14 10 15 11 7 12 11 13
REMARK SMILES IDX 12 14 13 15
REMARK H PARENT
REMARK Flexibility Score: inf
ROOT
ATOM      1  C   UNL     1       9.264  34.551  24.898  1.00  0.00     0.039 C 
ATOM      2  C   UNL     1       9.422  33.845  23.579  1.00  0.00    -0.076 C 
ATOM      3  C   UNL     1      10.644  33.483  23.149  1.00  0.00    -0.020 C 
ATOM      4  C   UNL     1      10.791  32.731  21.840  1.00  0.00     0.041 C 
ATOM      5  C   UNL     1      12.235  32.194  21.642  1.00  0.00     0.003 C 
ATOM      6  C   UNL     1      12.242  31.164  20.499  1.00  0.00     0.009 C 
ATOM      7  C   UNL     1      11.352  29.979  20.858  1.00  0.00     0.031 C 
ATOM      8  C   UNL     1       9.959  30.400  21.278  1.00  0.00    -0.073 C 
ATOM      9  C   UNL     1       9.711  31.643  21.784  1.00  0.00    -0.064 C 
ATOM     10  C   UNL     1       8.312  32.015  22.276  1.00  0.00     0.036 C 
ATOM     11  C   UNL     1       8.218  33.479  22.741  1.00  0.00     0.035 C 
ATOM     12  C   UNL     1       8.878  29.345  21.230  1.00  0.00     0.039 C 
ENDROOT
BRANCH   5  13
ATOM     13  C   UNL     1      13.282  33.341  21.426  1.00  0.00    -0.013 C 
ATOM     14  C   UNL     1      14.695  32.894  21.832  1.00  0.00     0.007 C 
ATOM     15  C   UNL     1      13.305  33.908  19.994  1.00  0.00     0.007 C 
ENDBRANCH   5  13
TORSDOF 1
ENDMDL
MODEL 8
REMARK VINA RESULT:    -5.889      1.905      5.071
REMARK INTER + INTRA:          -6.500
REMARK INTER:                  -6.216
REMARK INTRA:                  -0.283
REMARK UNBOUND:                -0.266
REMARK SMILES CC1=C[C@@H]2C(=C(C)CC[C@H]2C(C)C)CC1
REMARK SMILES IDX 1 1 2 2 3 3 4 4 10 5 9 6 8 7 6 8 5 9 14 10 15 11 7 12 11 13
REMARK SMILES IDX 12 14 13 15
REMARK H PARENT
REMARK Flexibility Score: inf
ROOT
ATOM      1  C   UNL     1      15.377  33.834  20.494  1.00  0.00     0.039 C 
ATOM      2  C   UNL     1      14.454  32.833  21.134  1.00  0.00    -0.076 C 
ATOM      3  C   UNL     1      13.151  33.124  21.296  1.00  0.00    -0.020 C 
ATOM      4  C   UNL     1      12.217  32.093  21.901  1.00  0.00     0.041 C 
ATOM      5  C   UNL     1      10.729  32.521  21.778  1.00  0.00     0.003 C 
ATOM      6  C   UNL     1       9.826  31.311  22.080  1.00  0.00     0.009 C 
ATOM      7  C   UNL     1      10.076  30.206  21.061  1.00  0.00     0.031 C 
ATOM      8  C   UNL     1      11.542  29.845  20.938  1.00  0.00    -0.073 C 
ATOM      9  C   UNL     1      12.526  30.731  21.267  1.00  0.00    -0.064 C 
ATOM     10  C   UNL     1      13.997  30.371  21.056  1.00  0.00     0.036 C 
ATOM     11  C   UNL     1      14.952  31.470  21.555  1.00  0.00     0.035 C 
ATOM     12  C   UNL     1      11.870  28.507  20.317  1.00  0.00     0.039 C 
ENDROOT
BRANCH   5  13
ATOM     13  C   UNL     1      10.382  33.767  22.665  1.00  0.00    -0.013 C 
ATOM     14  C   UNL     1       9.009  34.352  22.298  1.00  0.00     0.007 C 
ATOM     15  C   UNL     1      10.448  33.498  24.180  1.00  0.00     0.007 C 
ENDBRANCH   5  13
TORSDOF 1
ENDMDL
MODEL 9
REMARK VINA RESULT:    -5.847      2.443      4.709
REMARK INTER + INTRA:          -6.455
REMARK INTER:                  -6.173
REMARK INTRA:                  -0.282
REMARK UNBOUND:                -0.266
REMARK SMILES CC1=C[C@@H]2C(=C(C)CC[C@H]2C(C)C)CC1
REMARK SMILES IDX 1 1 2 2 3 3 4 4 10 5 9 6 8 7 6 8 5 9 14 10 15 11 7 12 11 13
REMARK SMILES IDX 12 14 13 15
REMARK H PARENT
REMARK Flexibility Score: inf
ROOT
ATOM      1  C   UNL     1      16.740  31.622  23.503  1.00  0.00     0.039 C 
ATOM      2  C   UNL     1      15.630  31.648  22.489  1.00  0.00    -0.076 C 
ATOM      3  C   UNL     1      14.924  30.532  22.231  1.00  0.00    -0.020 C 
ATOM      4  C   UNL     1      13.776  30.577  21.241  1.00  0.00     0.041 C 
ATOM      5  C   UNL     1      12.942  29.267  21.266  1.00  0.00     0.003 C 
ATOM      6  C   UNL     1      11.616  29.495  20.519  1.00  0.00     0.009 C 
ATOM      7  C   UNL     1      10.801  30.576  21.219  1.00  0.00     0.031 C 
ATOM      8  C   UNL     1      11.590  31.849  21.444  1.00  0.00    -0.073 C 
ATOM      9  C   UNL     1      12.953  31.842  21.513  1.00  0.00    -0.064 C 
ATOM     10  C   UNL     1      13.721  33.128  21.822  1.00  0.00     0.036 C 
ATOM     11  C   UNL     1      15.247  32.929  21.784  1.00  0.00     0.035 C 
ATOM     12  C   UNL     1      10.800  33.109  21.713  1.00  0.00     0.039 C 
ENDROOT
BRANCH   5  13
ATOM     13  C   UNL     1      13.738  28.032  20.716  1.00  0.00    -0.013 C 
ATOM     14  C   UNL     1      12.839  26.791  20.602  1.00  0.00     0.007 C 
ATOM     15  C   UNL     1      14.447  28.289  19.373  1.00  0.00     0.007 C 
ENDBRANCH   5  13
TORSDOF 1
ENDMDL
