MODEL 1
REMARK VINA RESULT:    -4.632      0.000      0.000
REMARK INTER + INTRA:          -7.081
REMARK INTER:                  -6.799
REMARK INTRA:                  -0.282
REMARK UNBOUND:                -0.282
REMARK SMILES O=C([O-])CCCCCCCC(=O)[O-]
REMARK SMILES IDX 7 1 6 2 5 3 4 4 2 5 1 6 3 7 8 8 9 9 10 10 11 11 12 12 13 13
REMARK H PARENT
REMARK Flexibility Score: inf
ROOT
ATOM      1  C   UNL     1      20.174 -23.754  14.621  1.00  0.00     0.000 C 
ENDROOT
BRANCH   1   2
ATOM      2  C   UNL     1      21.103 -22.544  14.795  1.00  0.00     0.000 C 
BRANCH   2   3
ATOM      3  C   UNL     1      20.345 -21.352  15.399  1.00  0.00     0.006 C 
BRANCH   3   4
ATOM      4  C   UNL     1      19.762 -20.428  14.323  1.00  0.00     0.053 C 
BRANCH   4   5
ATOM      5  C   UNL     1      20.046 -18.986  14.617  1.00  0.00     0.041 C 
ATOM      6  O   UNL     1      20.279 -18.180  13.677  1.00  0.00    -0.550 OA
ATOM      7  O   UNL     1      20.018 -18.525  15.927  1.00  0.00    -0.550 OA
ENDBRANCH   4   5
ENDBRANCH   3   4
ENDBRANCH   2   3
ENDBRANCH   1   2
BRANCH   1   8
ATOM      8  C   UNL     1      19.971 -24.141  13.147  1.00  0.00     0.000 C 
BRANCH   8   9
ATOM      9  C   UNL     1      20.270 -25.624  12.878  1.00  0.00     0.006 C 
BRANCH   9  10
ATOM     10  C   UNL     1      21.179 -26.205  13.964  1.00  0.00     0.053 C 
BRANCH  10  11
ATOM     11  C   UNL     1      21.591 -27.600  13.612  1.00  0.00     0.041 C 
ATOM     12  O   UNL     1      20.743 -28.421  13.176  1.00  0.00    -0.550 OA
ATOM     13  O   UNL     1      22.903 -28.007  13.813  1.00  0.00    -0.550 OA
ENDBRANCH  10  11
ENDBRANCH   9  10
ENDBRANCH   8   9
ENDBRANCH   1   8
TORSDOF 8
ENDMDL
MODEL 2
REMARK VINA RESULT:    -4.507      0.681      7.410
REMARK INTER + INTRA:          -6.896
REMARK INTER:                  -6.636
REMARK INTRA:                  -0.260
REMARK UNBOUND:                -0.282
REMARK SMILES O=C([O-])CCCCCCCC(=O)[O-]
REMARK SMILES IDX 7 1 6 2 5 3 4 4 2 5 1 6 3 7 8 8 9 9 10 10 11 11 12 12 13 13
REMARK H PARENT
REMARK Flexibility Score: inf
ROOT
ATOM      1  C   UNL     1      20.176 -23.179  13.372  1.00  0.00     0.000 C 
ENDROOT
BRANCH   1   2
ATOM      2  C   UNL     1      19.738 -24.638  13.178  1.00  0.00     0.000 C 
BRANCH   2   3
ATOM      3  C   UNL     1      20.943 -25.588  13.257  1.00  0.00     0.006 C 
BRANCH   3   4
ATOM      4  C   UNL     1      20.575 -27.027  12.875  1.00  0.00     0.053 C 
BRANCH   4   5
ATOM      5  C   UNL     1      21.401 -28.028  13.623  1.00  0.00     0.041 C 
ATOM      6  O   UNL     1      20.895 -29.122  13.989  1.00  0.00    -0.550 OA
ATOM      7  O   UNL     1      22.740 -27.768  13.886  1.00  0.00    -0.550 OA
ENDBRANCH   4   5
ENDBRANCH   3   4
ENDBRANCH   2   3
ENDBRANCH   1   2
BRANCH   1   8
ATOM      8  C   UNL     1      20.767 -22.917  14.766  1.00  0.00     0.000 C 
BRANCH   8   9
ATOM      9  C   UNL     1      20.193 -21.653  15.424  1.00  0.00     0.006 C 
BRANCH   9  10
ATOM     10  C   UNL     1      19.680 -20.671  14.367  1.00  0.00     0.053 C 
BRANCH  10  11
ATOM     11  C   UNL     1      20.046 -19.267  14.734  1.00  0.00     0.041 C 
ATOM     12  O   UNL     1      20.120 -18.927  15.944  1.00  0.00    -0.550 OA
ATOM     13  O   UNL     1      20.255 -18.321  13.739  1.00  0.00    -0.550 OA
ENDBRANCH  10  11
ENDBRANCH   9  10
ENDBRANCH   8   9
ENDBRANCH   1   8
TORSDOF 8
ENDMDL
MODEL 3
REMARK VINA RESULT:    -3.588     14.210     15.823
REMARK INTER + INTRA:          -5.547
REMARK INTER:                  -4.920
REMARK INTRA:                  -0.627
REMARK UNBOUND:                -0.282
REMARK SMILES O=C([O-])CCCCCCCC(=O)[O-]
REMARK SMILES IDX 7 1 6 2 5 3 4 4 2 5 1 6 3 7 8 8 9 9 10 10 11 11 12 12 13 13
REMARK H PARENT
REMARK Flexibility Score: inf
ROOT
ATOM      1  C   UNL     1       8.232 -34.974  16.681  1.00  0.00     0.000 C 
ENDROOT
BRANCH   1   2
ATOM      2  C   UNL     1       7.310 -34.393  17.763  1.00  0.00     0.000 C 
BRANCH   2   3
ATOM      3  C   UNL     1       7.587 -32.897  17.975  1.00  0.00     0.006 C 
BRANCH   3   4
ATOM      4  C   UNL     1       8.842 -32.426  17.230  1.00  0.00     0.053 C 
BRANCH   4   5
ATOM      5  C   UNL     1       9.648 -31.467  18.051  1.00  0.00     0.041 C 
ATOM      6  O   UNL     1       9.545 -31.465  19.307  1.00  0.00    -0.550 OA
ATOM      7  O   UNL     1      10.538 -30.599  17.433  1.00  0.00    -0.550 OA
ENDBRANCH   4   5
ENDBRANCH   3   4
ENDBRANCH   2   3
ENDBRANCH   1   2
BRANCH   1   8
ATOM      8  C   UNL     1       7.459 -35.491  15.458  1.00  0.00     0.000 C 
BRANCH   8   9
ATOM      9  C   UNL     1       8.192 -35.219  14.135  1.00  0.00     0.006 C 
BRANCH   9  10
ATOM     10  C   UNL     1       9.625 -34.744  14.392  1.00  0.00     0.053 C 
BRANCH  10  11
ATOM     11  C   UNL     1       9.861 -33.415  13.745  1.00  0.00     0.041 C 
ATOM     12  O   UNL     1       8.916 -32.593  13.623  1.00  0.00    -0.550 OA
ATOM     13  O   UNL     1      11.114 -33.106  13.232  1.00  0.00    -0.550 OA
ENDBRANCH  10  11
ENDBRANCH   9  10
ENDBRANCH   8   9
ENDBRANCH   1   8
TORSDOF 8
ENDMDL
MODEL 4
REMARK VINA RESULT:    -3.533     14.733     16.565
REMARK INTER + INTRA:          -5.467
REMARK INTER:                  -4.719
REMARK INTRA:                  -0.748
REMARK UNBOUND:                -0.282
REMARK SMILES O=C([O-])CCCCCCCC(=O)[O-]
REMARK SMILES IDX 7 1 6 2 5 3 4 4 2 5 1 6 3 7 8 8 9 9 10 10 11 11 12 12 13 13
REMARK H PARENT
REMARK Flexibility Score: inf
ROOT
ATOM      1  C   UNL     1       7.651 -35.092  16.321  1.00  0.00     0.000 C 
ENDROOT
BRANCH   1   2
ATOM      2  C   UNL     1       7.642 -35.974  15.065  1.00  0.00     0.000 C 
BRANCH   2   3
ATOM      3  C   UNL     1       8.338 -35.268  13.892  1.00  0.00     0.006 C 
BRANCH   3   4
ATOM      4  C   UNL     1       9.626 -34.556  14.324  1.00  0.00     0.053 C 
BRANCH   4   5
ATOM      5  C   UNL     1       9.674 -33.144  13.823  1.00  0.00     0.041 C 
ATOM      6  O   UNL     1       8.608 -32.522  13.574  1.00  0.00    -0.550 OA
ATOM      7  O   UNL     1      10.897 -32.504  13.665  1.00  0.00    -0.550 OA
ENDBRANCH   4   5
ENDBRANCH   3   4
ENDBRANCH   2   3
ENDBRANCH   1   2
BRANCH   1   8
ATOM      8  C   UNL     1       6.516 -34.055  16.326  1.00  0.00     0.000 C 
BRANCH   8   9
ATOM      9  C   UNL     1       6.978 -32.674  16.816  1.00  0.00     0.006 C 
BRANCH   9  10
ATOM     10  C   UNL     1       7.761 -32.793  18.127  1.00  0.00     0.053 C 
BRANCH  10  11
ATOM     11  C   UNL     1       8.989 -31.938  18.083  1.00  0.00     0.041 C 
ATOM     12  O   UNL     1       9.578 -31.730  16.990  1.00  0.00    -0.550 OA
ATOM     13  O   UNL     1       9.512 -31.414  19.258  1.00  0.00    -0.550 OA
ENDBRANCH  10  11
ENDBRANCH   9  10
ENDBRANCH   8   9
ENDBRANCH   1   8
TORSDOF 8
ENDMDL
MODEL 5
REMARK VINA RESULT:    -3.530     14.650     16.861
REMARK INTER + INTRA:          -5.463
REMARK INTER:                  -4.688
REMARK INTRA:                  -0.775
REMARK UNBOUND:                -0.282
REMARK SMILES O=C([O-])CCCCCCCC(=O)[O-]
REMARK SMILES IDX 7 1 6 2 5 3 4 4 2 5 1 6 3 7 8 8 9 9 10 10 11 11 12 12 13 13
REMARK H PARENT
REMARK Flexibility Score: inf
ROOT
ATOM      1  C   UNL     1       7.630 -35.472  14.426  1.00  0.00     0.000 C 
ENDROOT
BRANCH   1   2
ATOM      2  C   UNL     1       6.892 -34.171  14.079  1.00  0.00     0.000 C 
BRANCH   2   3
ATOM      3  C   UNL     1       7.852 -33.142  13.464  1.00  0.00     0.006 C 
BRANCH   3   4
ATOM      4  C   UNL     1       9.042 -32.837  14.381  1.00  0.00     0.053 C 
BRANCH   4   5
ATOM      5  C   UNL     1      10.349 -33.001  13.668  1.00  0.00     0.041 C 
ATOM      6  O   UNL     1      11.190 -32.063  13.659  1.00  0.00    -0.550 OA
ATOM      7  O   UNL     1      10.653 -34.203  13.041  1.00  0.00    -0.550 OA
ENDBRANCH   4   5
ENDBRANCH   3   4
ENDBRANCH   2   3
ENDBRANCH   1   2
BRANCH   1   8
ATOM      8  C   UNL     1       7.308 -35.977  15.842  1.00  0.00     0.000 C 
BRANCH   8   9
ATOM      9  C   UNL     1       6.488 -34.966  16.659  1.00  0.00     0.006 C 
BRANCH   9  10
ATOM     10  C   UNL     1       7.307 -34.418  17.832  1.00  0.00     0.053 C 
BRANCH  10  11
ATOM     11  C   UNL     1       7.500 -32.941  17.692  1.00  0.00     0.041 C 
ATOM     12  O   UNL     1       6.609 -32.234  17.153  1.00  0.00    -0.550 OA
ATOM     13  O   UNL     1       8.686 -32.353  18.112  1.00  0.00    -0.550 OA
ENDBRANCH  10  11
ENDBRANCH   9  10
ENDBRANCH   8   9
ENDBRANCH   1   8
TORSDOF 8
ENDMDL
MODEL 6
REMARK VINA RESULT:    -3.366     15.088     17.137
REMARK INTER + INTRA:          -5.222
REMARK INTER:                  -4.463
REMARK INTRA:                  -0.759
REMARK UNBOUND:                -0.282
REMARK SMILES O=C([O-])CCCCCCCC(=O)[O-]
REMARK SMILES IDX 7 1 6 2 5 3 4 4 2 5 1 6 3 7 8 8 9 9 10 10 11 11 12 12 13 13
REMARK H PARENT
REMARK Flexibility Score: inf
ROOT
ATOM      1  C   UNL     1       7.323 -36.151  14.511  1.00  0.00     0.000 C 
ENDROOT
BRANCH   1   2
ATOM      2  C   UNL     1       6.740 -36.510  15.886  1.00  0.00     0.000 C 
BRANCH   2   3
ATOM      3  C   UNL     1       6.259 -35.252  16.624  1.00  0.00     0.006 C 
BRANCH   3   4
ATOM      4  C   UNL     1       7.343 -34.662  17.534  1.00  0.00     0.053 C 
BRANCH   4   5
ATOM      5  C   UNL     1       7.357 -33.164  17.482  1.00  0.00     0.041 C 
ATOM      6  O   UNL     1       8.100 -32.509  18.259  1.00  0.00    -0.550 OA
ATOM      7  O   UNL     1       6.574 -32.494  16.551  1.00  0.00    -0.550 OA
ENDBRANCH   4   5
ENDBRANCH   3   4
ENDBRANCH   2   3
ENDBRANCH   1   2
BRANCH   1   8
ATOM      8  C   UNL     1       6.607 -34.959  13.856  1.00  0.00     0.000 C 
BRANCH   8   9
ATOM      9  C   UNL     1       7.576 -33.839  13.446  1.00  0.00     0.006 C 
BRANCH   9  10
ATOM     10  C   UNL     1       9.029 -34.313  13.536  1.00  0.00     0.053 C 
BRANCH  10  11
ATOM     11  C   UNL     1       9.916 -33.200  14.002  1.00  0.00     0.041 C 
ATOM     12  O   UNL     1       9.573 -32.483  14.978  1.00  0.00    -0.550 OA
ATOM     13  O   UNL     1      11.096 -32.924  13.325  1.00  0.00    -0.550 OA
ENDBRANCH  10  11
ENDBRANCH   9  10
ENDBRANCH   8   9
ENDBRANCH   1   8
TORSDOF 8
ENDMDL
MODEL 7
REMARK VINA RESULT:    -3.328     15.685     18.196
REMARK INTER + INTRA:          -5.166
REMARK INTER:                  -4.528
REMARK INTRA:                  -0.638
REMARK UNBOUND:                -0.282
REMARK SMILES O=C([O-])CCCCCCCC(=O)[O-]
REMARK SMILES IDX 7 1 6 2 5 3 4 4 2 5 1 6 3 7 8 8 9 9 10 10 11 11 12 12 13 13
REMARK H PARENT
REMARK Flexibility Score: inf
ROOT
ATOM      1  C   UNL     1       7.739 -32.979  13.598  1.00  0.00     0.000 C 
ENDROOT
BRANCH   1   2
ATOM      2  C   UNL     1       6.920 -34.172  13.085  1.00  0.00     0.000 C 
BRANCH   2   3
ATOM      3  C   UNL     1       7.139 -35.409  13.969  1.00  0.00     0.006 C 
BRANCH   3   4
ATOM      4  C   UNL     1       5.939 -35.693  14.880  1.00  0.00     0.053 C 
BRANCH   4   5
ATOM      5  C   UNL     1       6.319 -36.554  16.047  1.00  0.00     0.041 C 
ATOM      6  O   UNL     1       7.014 -36.081  16.984  1.00  0.00    -0.550 OA
ATOM      7  O   UNL     1       5.875 -37.868  16.115  1.00  0.00    -0.550 OA
ENDBRANCH   4   5
ENDBRANCH   3   4
ENDBRANCH   2   3
ENDBRANCH   1   2
BRANCH   1   8
ATOM      8  C   UNL     1       8.864 -33.400  14.557  1.00  0.00     0.000 C 
BRANCH   8   9
ATOM      9  C   UNL     1       8.910 -32.542  15.830  1.00  0.00     0.006 C 
BRANCH   9  10
ATOM     10  C   UNL     1       7.638 -32.730  16.663  1.00  0.00     0.053 C 
BRANCH  10  11
ATOM     11  C   UNL     1       7.952 -32.658  18.124  1.00  0.00     0.041 C 
ATOM     12  O   UNL     1       8.843 -31.872  18.543  1.00  0.00    -0.550 OA
ATOM     13  O   UNL     1       7.296 -33.494  19.017  1.00  0.00    -0.550 OA
ENDBRANCH  10  11
ENDBRANCH   9  10
ENDBRANCH   8   9
ENDBRANCH   1   8
TORSDOF 8
ENDMDL
MODEL 8
REMARK VINA RESULT:    -3.015     15.402     16.992
REMARK INTER + INTRA:          -4.707
REMARK INTER:                  -3.982
REMARK INTRA:                  -0.725
REMARK UNBOUND:                -0.282
REMARK SMILES O=C([O-])CCCCCCCC(=O)[O-]
REMARK SMILES IDX 7 1 6 2 5 3 4 4 2 5 1 6 3 7 8 8 9 9 10 10 11 11 12 12 13 13
REMARK H PARENT
REMARK Flexibility Score: inf
ROOT
ATOM      1  C   UNL     1       9.537 -33.370  14.348  1.00  0.00     0.000 C 
ENDROOT
BRANCH   1   2
ATOM      2  C   UNL     1       8.091 -32.864  14.234  1.00  0.00     0.000 C 
BRANCH   2   3
ATOM      3  C   UNL     1       7.366 -32.968  15.584  1.00  0.00     0.006 C 
BRANCH   3   4
ATOM      4  C   UNL     1       8.308 -33.381  16.721  1.00  0.00     0.053 C 
BRANCH   4   5
ATOM      5  C   UNL     1       8.201 -32.455  17.895  1.00  0.00     0.041 C 
ATOM      6  O   UNL     1       9.241 -31.997  18.438  1.00  0.00    -0.550 OA
ATOM      7  O   UNL     1       6.952 -32.073  18.367  1.00  0.00    -0.550 OA
ENDBRANCH   4   5
ENDBRANCH   3   4
ENDBRANCH   2   3
ENDBRANCH   1   2
BRANCH   1   8
ATOM      8  C   UNL     1       9.810 -34.591  13.455  1.00  0.00     0.000 C 
BRANCH   8   9
ATOM      9  C   UNL     1       8.525 -35.328  13.050  1.00  0.00     0.006 C 
BRANCH   9  10
ATOM     10  C   UNL     1       8.249 -36.504  13.992  1.00  0.00     0.053 C 
BRANCH  10  11
ATOM     11  C   UNL     1       6.870 -36.404  14.566  1.00  0.00     0.041 C 
ATOM     12  O   UNL     1       5.943 -35.877  13.899  1.00  0.00    -0.550 OA
ATOM     13  O   UNL     1       6.623 -36.848  15.858  1.00  0.00    -0.550 OA
ENDBRANCH  10  11
ENDBRANCH   9  10
ENDBRANCH   8   9
ENDBRANCH   1   8
TORSDOF 8
ENDMDL
MODEL 9
REMARK VINA RESULT:    -2.874     16.135     18.226
REMARK INTER + INTRA:          -4.500
REMARK INTER:                  -3.922
REMARK INTRA:                  -0.578
REMARK UNBOUND:                -0.282
REMARK SMILES O=C([O-])CCCCCCCC(=O)[O-]
REMARK SMILES IDX 7 1 6 2 5 3 4 4 2 5 1 6 3 7 8 8 9 9 10 10 11 11 12 12 13 13
REMARK H PARENT
REMARK Flexibility Score: inf
ROOT
ATOM      1  C   UNL     1       7.703 -32.964  13.521  1.00  0.00     0.000 C 
ENDROOT
BRANCH   1   2
ATOM      2  C   UNL     1       7.171 -34.354  13.143  1.00  0.00     0.000 C 
BRANCH   2   3
ATOM      3  C   UNL     1       8.325 -35.342  12.919  1.00  0.00     0.006 C 
BRANCH   3   4
ATOM      4  C   UNL     1       8.327 -36.478  13.949  1.00  0.00     0.053 C 
BRANCH   4   5
ATOM      5  C   UNL     1       7.003 -37.176  14.008  1.00  0.00     0.041 C 
ATOM      6  O   UNL     1       6.580 -37.820  13.011  1.00  0.00    -0.550 OA
ATOM      7  O   UNL     1       6.251 -37.143  15.175  1.00  0.00    -0.550 OA
ENDBRANCH   4   5
ENDBRANCH   3   4
ENDBRANCH   2   3
ENDBRANCH   1   2
BRANCH   1   8
ATOM      8  C   UNL     1       9.007 -33.029  14.332  1.00  0.00     0.000 C 
BRANCH   8   9
ATOM      9  C   UNL     1       8.844 -32.488  15.761  1.00  0.00     0.006 C 
BRANCH   9  10
ATOM     10  C   UNL     1       7.472 -32.856  16.332  1.00  0.00     0.053 C 
BRANCH  10  11
ATOM     11  C   UNL     1       7.614 -33.856  17.436  1.00  0.00     0.041 C 
ATOM     12  O   UNL     1       7.949 -35.042  17.178  1.00  0.00    -0.550 OA
ATOM     13  O   UNL     1       7.328 -33.491  18.744  1.00  0.00    -0.550 OA
ENDBRANCH  10  11
ENDBRANCH   9  10
ENDBRANCH   8   9
ENDBRANCH   1   8
TORSDOF 8
ENDMDL
