MODEL 1
REMARK VINA RESULT:    -6.947      0.000      0.000
REMARK INTER + INTRA:         -11.787
REMARK INTER:                 -10.196
REMARK INTRA:                  -1.591
REMARK UNBOUND:                -1.591
REMARK SMILES O=c1c(O[C@@H]2O[C@H](CO)[C@H](O)[C@H](O)[C@H]2O)c(-c2ccc(O)c(O)c2)oc2cc(O)cc(O)c12
REMARK SMILES IDX 4 1 3 2 16 3 25 4 2 5 26 6 1 7 33 8 27 9 31 10 28 11 30 12
REMARK SMILES IDX 17 13 18 14 19 15 20 16 24 17 22 18 21 19 23 21 32 23 29 25
REMARK SMILES IDX 5 27 14 28 6 29 12 30 7 31 10 32 15 33 13 35 8 37 9 38 11 40
REMARK H PARENT 21 20 23 22 32 24 29 26 15 34 13 36 9 39 11 41
REMARK Flexibility Score: inf
ROOT
ATOM      1  O   UNL     1       8.327  86.086  81.538  1.00  0.00    -0.454 OA
ENDROOT
BRANCH   1   2
ATOM      2  C   UNL     1       7.620  85.289  80.605  1.00  0.00     0.214 A 
ATOM      3  C   UNL     1       8.183  85.112  79.326  1.00  0.00     0.180 A 
ATOM      4  O   UNL     1       7.519  84.467  78.374  1.00  0.00    -0.452 OA
ATOM      5  C   UNL     1       6.362  84.683  80.859  1.00  0.00     0.239 A 
ATOM      6  C   UNL     1       6.325  83.925  78.560  1.00  0.00     0.146 A 
ATOM      7  O   UNL     1       5.836  84.744  82.001  1.00  0.00    -0.285 OA
ATOM      8  C   UNL     1       5.692  83.999  79.821  1.00  0.00     0.111 A 
ATOM      9  C   UNL     1       5.703  83.269  77.492  1.00  0.00     0.094 A 
ATOM     10  C   UNL     1       4.417  83.400  79.986  1.00  0.00     0.134 A 
ATOM     11  C   UNL     1       4.446  82.680  77.662  1.00  0.00     0.123 A 
ATOM     12  C   UNL     1       3.809  82.748  78.904  1.00  0.00     0.093 A 
BRANCH   3  13
ATOM     13  C   UNL     1       9.522  85.625  78.997  1.00  0.00     0.025 A 
ATOM     14  C   UNL     1       9.668  86.878  78.386  1.00  0.00     0.016 A 
ATOM     15  C   UNL     1      10.940  87.386  78.121  1.00  0.00     0.051 A 
ATOM     16  C   UNL     1      12.082  86.656  78.483  1.00  0.00     0.157 A 
ATOM     17  C   UNL     1      10.663  84.906  79.384  1.00  0.00     0.062 A 
ATOM     18  C   UNL     1      11.942  85.415  79.118  1.00  0.00     0.158 A 
BRANCH  16  19
ATOM     19  O   UNL     1      13.355  87.162  78.218  1.00  0.00    -0.504 OA
ATOM     20  H   UNL     1      13.675  87.312  77.267  1.00  0.00     0.293 HD
ENDBRANCH  16  19
BRANCH  18  21
ATOM     21  O   UNL     1      13.080  84.696  79.486  1.00  0.00    -0.504 OA
ATOM     22  H   UNL     1      13.934  84.735  78.938  1.00  0.00     0.293 HD
ENDBRANCH  18  21
ENDBRANCH   3  13
BRANCH  10  23
ATOM     23  O   UNL     1       3.746  83.454  81.210  1.00  0.00    -0.507 OA
ATOM     24  H   UNL     1       3.714  84.303  81.762  1.00  0.00     0.293 HD
ENDBRANCH  10  23
BRANCH  11  25
ATOM     25  O   UNL     1       3.821  82.023  76.602  1.00  0.00    -0.508 OA
ATOM     26  H   UNL     1       2.894  82.286  76.287  1.00  0.00     0.293 HD
ENDBRANCH  11  25
ENDBRANCH   1   2
BRANCH   1  27
ATOM     27  C   UNL     1       8.794  85.705  82.840  1.00  0.00     0.339 C 
ATOM     28  C   UNL     1      10.324  85.847  82.955  1.00  0.00     0.214 C 
ATOM     29  O   UNL     1       8.100  86.410  83.861  1.00  0.00    -0.332 OA
ATOM     30  C   UNL     1      10.744  87.325  82.998  1.00  0.00     0.180 C 
ATOM     31  C   UNL     1       8.411  87.794  83.952  1.00  0.00     0.179 C 
ATOM     32  C   UNL     1       9.933  88.067  84.070  1.00  0.00     0.177 C 
BRANCH  28  33
ATOM     33  O   UNL     1      10.760  85.190  84.118  1.00  0.00    -0.384 OA
ATOM     34  H   UNL     1      10.807  84.225  83.902  1.00  0.00     0.211 HD
ENDBRANCH  28  33
BRANCH  30  35
ATOM     35  O   UNL     1      10.567  87.933  81.747  1.00  0.00    -0.387 OA
ATOM     36  H   UNL     1       9.763  88.511  81.808  1.00  0.00     0.211 HD
ENDBRANCH  30  35
BRANCH  31  37
ATOM     37  C   UNL     1       7.673  88.622  82.878  1.00  0.00     0.191 C 
BRANCH  37  38
ATOM     38  O   UNL     1       7.363  89.903  83.355  1.00  0.00    -0.394 OA
ATOM     39  H   UNL     1       8.225  90.364  83.522  1.00  0.00     0.210 HD
ENDBRANCH  37  38
ENDBRANCH  31  37
BRANCH  32  40
ATOM     40  O   UNL     1      10.192  89.447  84.021  1.00  0.00    -0.387 OA
ATOM     41  H   UNL     1      10.029  89.738  83.086  1.00  0.00     0.211 HD
ENDBRANCH  32  40
ENDBRANCH   1  27
TORSDOF 12
ENDMDL
MODEL 2
REMARK VINA RESULT:    -6.782      2.482      6.227
REMARK INTER + INTRA:         -11.545
REMARK INTER:                  -9.947
REMARK INTRA:                  -1.598
REMARK UNBOUND:                -1.591
REMARK SMILES O=c1c(O[C@@H]2O[C@H](CO)[C@H](O)[C@H](O)[C@H]2O)c(-c2ccc(O)c(O)c2)oc2cc(O)cc(O)c12
REMARK SMILES IDX 4 1 3 2 16 3 25 4 2 5 26 6 1 7 33 8 27 9 31 10 28 11 30 12
REMARK SMILES IDX 17 13 18 14 19 15 20 16 24 17 22 18 21 19 23 21 32 23 29 25
REMARK SMILES IDX 5 27 14 28 6 29 12 30 7 31 10 32 15 33 13 35 8 37 9 38 11 40
REMARK H PARENT 21 20 23 22 32 24 29 26 15 34 13 36 9 39 11 41
REMARK Flexibility Score: inf
ROOT
ATOM      1  O   UNL     1       8.193  85.353  81.501  1.00  0.00    -0.454 OA
ENDROOT
BRANCH   1   2
ATOM      2  C   UNL     1       8.421  86.364  80.536  1.00  0.00     0.214 A 
ATOM      3  C   UNL     1       7.942  86.151  79.229  1.00  0.00     0.180 A 
ATOM      4  O   UNL     1       8.218  87.010  78.255  1.00  0.00    -0.452 OA
ATOM      5  C   UNL     1       9.134  87.565  80.787  1.00  0.00     0.239 A 
ATOM      6  C   UNL     1       8.916  88.121  78.441  1.00  0.00     0.146 A 
ATOM      7  O   UNL     1       9.530  87.850  81.948  1.00  0.00    -0.285 OA
ATOM      8  C   UNL     1       9.400  88.457  79.725  1.00  0.00     0.111 A 
ATOM      9  C   UNL     1       9.159  88.961  77.349  1.00  0.00     0.094 A 
ATOM     10  C   UNL     1      10.136  89.658  79.888  1.00  0.00     0.134 A 
ATOM     11  C   UNL     1       9.884  90.144  77.517  1.00  0.00     0.123 A 
ATOM     12  C   UNL     1      10.370  90.487  78.783  1.00  0.00     0.093 A 
BRANCH   3  13
ATOM     13  C   UNL     1       7.116  84.980  78.894  1.00  0.00     0.025 A 
ATOM     14  C   UNL     1       5.719  85.086  78.868  1.00  0.00     0.016 A 
ATOM     15  C   UNL     1       4.939  83.989  78.499  1.00  0.00     0.051 A 
ATOM     16  C   UNL     1       5.548  82.780  78.133  1.00  0.00     0.157 A 
ATOM     17  C   UNL     1       7.728  83.781  78.503  1.00  0.00     0.062 A 
ATOM     18  C   UNL     1       6.946  82.677  78.133  1.00  0.00     0.158 A 
BRANCH  16  19
ATOM     19  O   UNL     1       4.771  81.681  77.766  1.00  0.00    -0.504 OA
ATOM     20  H   UNL     1       4.886  80.779  78.217  1.00  0.00     0.293 HD
ENDBRANCH  16  19
BRANCH  18  21
ATOM     21  O   UNL     1       7.549  81.475  77.759  1.00  0.00    -0.504 OA
ATOM     22  H   UNL     1       7.786  80.764  78.443  1.00  0.00     0.293 HD
ENDBRANCH  18  21
ENDBRANCH   3  13
BRANCH  10  23
ATOM     23  O   UNL     1      10.645  90.030  81.136  1.00  0.00    -0.507 OA
ATOM     24  H   UNL     1      11.242  89.412  81.672  1.00  0.00     0.293 HD
ENDBRANCH  10  23
BRANCH  11  25
ATOM     25  O   UNL     1      10.128  90.987  76.434  1.00  0.00    -0.508 OA
ATOM     26  H   UNL     1       9.396  91.563  76.033  1.00  0.00     0.293 HD
ENDBRANCH  11  25
ENDBRANCH   1   2
BRANCH   1  27
ATOM     27  C   UNL     1       7.227  85.355  82.561  1.00  0.00     0.339 C 
ATOM     28  C   UNL     1       6.158  84.265  82.353  1.00  0.00     0.214 C 
ATOM     29  O   UNL     1       7.858  85.268  83.832  1.00  0.00    -0.332 OA
ATOM     30  C   UNL     1       6.740  82.863  82.594  1.00  0.00     0.180 C 
ATOM     31  C   UNL     1       8.448  84.009  84.125  1.00  0.00     0.179 C 
ATOM     32  C   UNL     1       7.464  82.824  83.948  1.00  0.00     0.177 C 
BRANCH  28  33
ATOM     33  O   UNL     1       5.088  84.497  83.233  1.00  0.00    -0.384 OA
ATOM     34  H   UNL     1       5.481  84.815  84.085  1.00  0.00     0.211 HD
ENDBRANCH  28  33
BRANCH  30  35
ATOM     35  O   UNL     1       7.617  82.500  81.562  1.00  0.00    -0.387 OA
ATOM     36  H   UNL     1       7.071  82.118  80.828  1.00  0.00     0.211 HD
ENDBRANCH  30  35
BRANCH  31  37
ATOM     37  C   UNL     1       9.817  83.840  83.432  1.00  0.00     0.191 C 
BRANCH  37  38
ATOM     38  O   UNL     1      10.619  82.920  84.122  1.00  0.00    -0.394 OA
ATOM     39  H   UNL     1      11.090  82.380  83.437  1.00  0.00     0.210 HD
ENDBRANCH  37  38
ENDBRANCH  31  37
BRANCH  32  40
ATOM     40  O   UNL     1       8.132  81.598  84.117  1.00  0.00    -0.387 OA
ATOM     41  H   UNL     1       8.535  81.366  83.241  1.00  0.00     0.211 HD
ENDBRANCH  32  40
ENDBRANCH   1  27
TORSDOF 12
ENDMDL
MODEL 3
REMARK VINA RESULT:    -6.722      2.300      6.362
REMARK INTER + INTRA:         -11.457
REMARK INTER:                  -9.746
REMARK INTRA:                  -1.711
REMARK UNBOUND:                -1.591
REMARK SMILES O=c1c(O[C@@H]2O[C@H](CO)[C@H](O)[C@H](O)[C@H]2O)c(-c2ccc(O)c(O)c2)oc2cc(O)cc(O)c12
REMARK SMILES IDX 4 1 3 2 16 3 25 4 2 5 26 6 1 7 33 8 27 9 31 10 28 11 30 12
REMARK SMILES IDX 17 13 18 14 19 15 20 16 24 17 22 18 21 19 23 21 32 23 29 25
REMARK SMILES IDX 5 27 14 28 6 29 12 30 7 31 10 32 15 33 13 35 8 37 9 38 11 40
REMARK H PARENT 21 20 23 22 32 24 29 26 15 34 13 36 9 39 11 41
REMARK Flexibility Score: inf
ROOT
ATOM      1  O   UNL     1       9.198  85.122  81.501  1.00  0.00    -0.454 OA
ENDROOT
BRANCH   1   2
ATOM      2  C   UNL     1       9.660  86.040  80.526  1.00  0.00     0.214 A 
ATOM      3  C   UNL     1       9.190  85.893  79.207  1.00  0.00     0.180 A 
ATOM      4  O   UNL     1       9.668  86.652  78.227  1.00  0.00    -0.452 OA
ATOM      5  C   UNL     1      10.594  87.077  80.781  1.00  0.00     0.239 A 
ATOM      6  C   UNL     1      10.572  87.602  78.418  1.00  0.00     0.146 A 
ATOM      7  O   UNL     1      11.000  87.307  81.951  1.00  0.00    -0.285 OA
ATOM      8  C   UNL     1      11.071  87.868  79.712  1.00  0.00     0.111 A 
ATOM      9  C   UNL     1      11.018  88.346  77.320  1.00  0.00     0.094 A 
ATOM     10  C   UNL     1      12.032  88.898  79.880  1.00  0.00     0.134 A 
ATOM     11  C   UNL     1      11.963  89.361  77.492  1.00  0.00     0.123 A 
ATOM     12  C   UNL     1      12.467  89.632  78.768  1.00  0.00     0.093 A 
BRANCH   3  13
ATOM     13  C   UNL     1       8.155  84.906  78.863  1.00  0.00     0.025 A 
ATOM     14  C   UNL     1       6.809  85.291  78.793  1.00  0.00     0.016 A 
ATOM     15  C   UNL     1       5.834  84.366  78.416  1.00  0.00     0.051 A 
ATOM     16  C   UNL     1       6.196  83.052  78.086  1.00  0.00     0.157 A 
ATOM     17  C   UNL     1       8.523  83.601  78.507  1.00  0.00     0.062 A 
ATOM     18  C   UNL     1       7.544  82.670  78.129  1.00  0.00     0.158 A 
BRANCH  16  19
ATOM     19  O   UNL     1       5.224  82.125  77.710  1.00  0.00    -0.504 OA
ATOM     20  H   UNL     1       5.271  81.644  76.818  1.00  0.00     0.293 HD
ENDBRANCH  16  19
BRANCH  18  21
ATOM     21  O   UNL     1       7.903  81.364  77.790  1.00  0.00    -0.504 OA
ATOM     22  H   UNL     1       8.819  81.146  77.411  1.00  0.00     0.293 HD
ENDBRANCH  18  21
ENDBRANCH   3  13
BRANCH  10  23
ATOM     23  O   UNL     1      12.563  89.192  81.139  1.00  0.00    -0.507 OA
ATOM     24  H   UNL     1      11.980  89.521  81.898  1.00  0.00     0.293 HD
ENDBRANCH  10  23
BRANCH  11  25
ATOM     25  O   UNL     1      12.411  90.107  76.403  1.00  0.00    -0.508 OA
ATOM     26  H   UNL     1      13.078  90.862  76.513  1.00  0.00     0.293 HD
ENDBRANCH  11  25
ENDBRANCH   1   2
BRANCH   1  27
ATOM     27  C   UNL     1       8.248  85.361  82.549  1.00  0.00     0.339 C 
ATOM     28  C   UNL     1       6.947  84.566  82.324  1.00  0.00     0.214 C 
ATOM     29  O   UNL     1       8.821  85.124  83.827  1.00  0.00    -0.332 OA
ATOM     30  C   UNL     1       7.165  83.064  82.568  1.00  0.00     0.180 C 
ATOM     31  C   UNL     1       9.081  83.759  84.125  1.00  0.00     0.179 C 
ATOM     32  C   UNL     1       7.840  82.849  83.931  1.00  0.00     0.177 C 
BRANCH  28  33
ATOM     33  O   UNL     1       5.954  85.053  83.190  1.00  0.00    -0.384 OA
ATOM     34  H   UNL     1       6.408  85.304  84.034  1.00  0.00     0.211 HD
ENDBRANCH  28  33
BRANCH  30  35
ATOM     35  O   UNL     1       7.941  82.497  81.547  1.00  0.00    -0.387 OA
ATOM     36  H   UNL     1       7.617  81.570  81.408  1.00  0.00     0.211 HD
ENDBRANCH  30  35
BRANCH  31  37
ATOM     37  C   UNL     1      10.377  83.259  83.450  1.00  0.00     0.191 C 
BRANCH  37  38
ATOM     38  O   UNL     1      11.285  84.311  83.266  1.00  0.00    -0.394 OA
ATOM     39  H   UNL     1      12.157  84.002  83.621  1.00  0.00     0.210 HD
ENDBRANCH  37  38
ENDBRANCH  31  37
BRANCH  32  40
ATOM     40  O   UNL     1       8.185  81.498  84.106  1.00  0.00    -0.387 OA
ATOM     41  H   UNL     1       8.596  81.420  85.006  1.00  0.00     0.211 HD
ENDBRANCH  32  40
ENDBRANCH   1  27
TORSDOF 12
ENDMDL
MODEL 4
REMARK VINA RESULT:    -6.311      2.708      5.003
REMARK INTER + INTRA:         -10.853
REMARK INTER:                  -9.309
REMARK INTRA:                  -1.543
REMARK UNBOUND:                -1.591
REMARK SMILES O=c1c(O[C@@H]2O[C@H](CO)[C@H](O)[C@H](O)[C@H]2O)c(-c2ccc(O)c(O)c2)oc2cc(O)cc(O)c12
REMARK SMILES IDX 4 1 3 2 16 3 25 4 2 5 26 6 1 7 33 8 27 9 31 10 28 11 30 12
REMARK SMILES IDX 17 13 18 14 19 15 20 16 24 17 22 18 21 19 23 21 32 23 29 25
REMARK SMILES IDX 5 27 14 28 6 29 12 30 7 31 10 32 15 33 13 35 8 37 9 38 11 40
REMARK H PARENT 21 20 23 22 32 24 29 26 15 34 13 36 9 39 11 41
REMARK Flexibility Score: inf
ROOT
ATOM      1  O   UNL     1       9.353  86.304  79.944  1.00  0.00    -0.454 OA
ENDROOT
BRANCH   1   2
ATOM      2  C   UNL     1       8.355  85.531  80.586  1.00  0.00     0.214 A 
ATOM      3  C   UNL     1       7.009  85.789  80.262  1.00  0.00     0.180 A 
ATOM      4  O   UNL     1       6.025  85.176  80.908  1.00  0.00    -0.452 OA
ATOM      5  C   UNL     1       8.617  84.537  81.564  1.00  0.00     0.239 A 
ATOM      6  C   UNL     1       6.228  84.272  81.856  1.00  0.00     0.146 A 
ATOM      7  O   UNL     1       9.799  84.208  81.849  1.00  0.00    -0.285 OA
ATOM      8  C   UNL     1       7.541  83.901  82.222  1.00  0.00     0.111 A 
ATOM      9  C   UNL     1       5.125  83.684  82.483  1.00  0.00     0.094 A 
ATOM     10  C   UNL     1       7.722  82.925  83.235  1.00  0.00     0.134 A 
ATOM     11  C   UNL     1       5.309  82.721  83.480  1.00  0.00     0.123 A 
ATOM     12  C   UNL     1       6.604  82.347  83.852  1.00  0.00     0.093 A 
BRANCH   3  13
ATOM     13  C   UNL     1       6.641  86.736  79.198  1.00  0.00     0.025 A 
ATOM     14  C   UNL     1       5.890  87.881  79.501  1.00  0.00     0.016 A 
ATOM     15  C   UNL     1       5.586  88.805  78.501  1.00  0.00     0.051 A 
ATOM     16  C   UNL     1       6.046  88.606  77.191  1.00  0.00     0.157 A 
ATOM     17  C   UNL     1       7.125  86.549  77.895  1.00  0.00     0.062 A 
ATOM     18  C   UNL     1       6.819  87.477  76.889  1.00  0.00     0.158 A 
BRANCH  16  19
ATOM     19  O   UNL     1       5.742  89.528  76.190  1.00  0.00    -0.504 OA
ATOM     20  H   UNL     1       4.892  90.082  76.222  1.00  0.00     0.293 HD
ENDBRANCH  16  19
BRANCH  18  21
ATOM     21  O   UNL     1       7.283  87.287  75.586  1.00  0.00    -0.504 OA
ATOM     22  H   UNL     1       7.391  86.358  75.191  1.00  0.00     0.293 HD
ENDBRANCH  18  21
ENDBRANCH   3  13
BRANCH  10  23
ATOM     23  O   UNL     1       9.000  82.531  83.640  1.00  0.00    -0.507 OA
ATOM     24  H   UNL     1       9.812  83.113  83.476  1.00  0.00     0.293 HD
ENDBRANCH  10  23
BRANCH  11  25
ATOM     25  O   UNL     1       4.214  82.130  84.107  1.00  0.00    -0.508 OA
ATOM     26  H   UNL     1       3.842  82.490  84.979  1.00  0.00     0.293 HD
ENDBRANCH  11  25
ENDBRANCH   1   2
BRANCH   1  27
ATOM     27  C   UNL     1       9.811  87.615  80.301  1.00  0.00     0.339 C 
ATOM     28  C   UNL     1      10.828  87.563  81.457  1.00  0.00     0.214 C 
ATOM     29  O   UNL     1      10.306  88.314  79.166  1.00  0.00    -0.332 OA
ATOM     30  C   UNL     1      12.173  86.985  80.988  1.00  0.00     0.180 C 
ATOM     31  C   UNL     1      11.536  87.825  78.650  1.00  0.00     0.179 C 
ATOM     32  C   UNL     1      12.647  87.723  79.728  1.00  0.00     0.177 C 
BRANCH  28  33
ATOM     33  O   UNL     1      11.015  88.860  81.964  1.00  0.00    -0.384 OA
ATOM     34  H   UNL     1      10.193  89.093  82.465  1.00  0.00     0.211 HD
ENDBRANCH  28  33
BRANCH  30  35
ATOM     35  O   UNL     1      12.067  85.610  80.735  1.00  0.00    -0.387 OA
ATOM     36  H   UNL     1      12.775  85.156  81.261  1.00  0.00     0.211 HD
ENDBRANCH  30  35
BRANCH  31  37
ATOM     37  C   UNL     1      11.337  86.561  77.786  1.00  0.00     0.191 C 
BRANCH  37  38
ATOM     38  O   UNL     1      10.158  86.648  77.033  1.00  0.00    -0.394 OA
ATOM     39  H   UNL     1       9.979  87.612  76.889  1.00  0.00     0.210 HD
ENDBRANCH  37  38
ENDBRANCH  31  37
BRANCH  32  40
ATOM     40  O   UNL     1      13.795  87.110  79.197  1.00  0.00    -0.387 OA
ATOM     41  H   UNL     1      13.606  86.924  78.241  1.00  0.00     0.211 HD
ENDBRANCH  32  40
ENDBRANCH   1  27
TORSDOF 12
ENDMDL
MODEL 5
REMARK VINA RESULT:    -6.249      2.784      6.929
REMARK INTER + INTRA:         -10.762
REMARK INTER:                  -9.178
REMARK INTRA:                  -1.584
REMARK UNBOUND:                -1.591
REMARK SMILES O=c1c(O[C@@H]2O[C@H](CO)[C@H](O)[C@H](O)[C@H]2O)c(-c2ccc(O)c(O)c2)oc2cc(O)cc(O)c12
REMARK SMILES IDX 4 1 3 2 16 3 25 4 2 5 26 6 1 7 33 8 27 9 31 10 28 11 30 12
REMARK SMILES IDX 17 13 18 14 19 15 20 16 24 17 22 18 21 19 23 21 32 23 29 25
REMARK SMILES IDX 5 27 14 28 6 29 12 30 7 31 10 32 15 33 13 35 8 37 9 38 11 40
REMARK H PARENT 21 20 23 22 32 24 29 26 15 34 13 36 9 39 11 41
REMARK Flexibility Score: inf
ROOT
ATOM      1  O   UNL     1       7.947  87.145  78.719  1.00  0.00    -0.454 OA
ENDROOT
BRANCH   1   2
ATOM      2  C   UNL     1       8.804  86.405  79.568  1.00  0.00     0.214 A 
ATOM      3  C   UNL     1       8.361  85.147  80.021  1.00  0.00     0.180 A 
ATOM      4  O   UNL     1       9.069  84.454  80.904  1.00  0.00    -0.452 OA
ATOM      5  C   UNL     1      10.068  86.860  80.026  1.00  0.00     0.239 A 
ATOM      6  C   UNL     1      10.233  84.865  81.387  1.00  0.00     0.146 A 
ATOM      7  O   UNL     1      10.554  87.943  79.606  1.00  0.00    -0.285 OA
ATOM      8  C   UNL     1      10.795  86.089  80.959  1.00  0.00     0.111 A 
ATOM      9  C   UNL     1      10.903  84.065  82.319  1.00  0.00     0.094 A 
ATOM     10  C   UNL     1      12.046  86.493  81.491  1.00  0.00     0.134 A 
ATOM     11  C   UNL     1      12.137  84.468  82.838  1.00  0.00     0.123 A 
ATOM     12  C   UNL     1      12.702  85.679  82.424  1.00  0.00     0.093 A 
BRANCH   3  13
ATOM     13  C   UNL     1       7.107  84.551  79.533  1.00  0.00     0.025 A 
ATOM     14  C   UNL     1       6.967  84.212  78.180  1.00  0.00     0.016 A 
ATOM     15  C   UNL     1       5.797  83.600  77.728  1.00  0.00     0.051 A 
ATOM     16  C   UNL     1       4.762  83.302  78.627  1.00  0.00     0.157 A 
ATOM     17  C   UNL     1       6.086  84.230  80.438  1.00  0.00     0.062 A 
ATOM     18  C   UNL     1       4.909  83.616  79.985  1.00  0.00     0.158 A 
BRANCH  16  19
ATOM     19  O   UNL     1       3.592  82.691  78.178  1.00  0.00    -0.504 OA
ATOM     20  H   UNL     1       3.035  83.101  77.435  1.00  0.00     0.293 HD
ENDBRANCH  16  19
BRANCH  18  21
ATOM     21  O   UNL     1       3.882  83.309  80.879  1.00  0.00    -0.504 OA
ATOM     22  H   UNL     1       3.621  83.944  81.627  1.00  0.00     0.293 HD
ENDBRANCH  18  21
ENDBRANCH   3  13
BRANCH  10  23
ATOM     23  O   UNL     1      12.638  87.699  81.107  1.00  0.00    -0.507 OA
ATOM     24  H   UNL     1      12.463  88.112  80.199  1.00  0.00     0.293 HD
ENDBRANCH  10  23
BRANCH  11  25
ATOM     25  O   UNL     1      12.811  83.675  83.765  1.00  0.00    -0.508 OA
ATOM     26  H   UNL     1      13.815  83.544  83.723  1.00  0.00     0.293 HD
ENDBRANCH  11  25
ENDBRANCH   1   2
BRANCH   1  27
ATOM     27  C   UNL     1       6.808  87.932  79.094  1.00  0.00     0.339 C 
ATOM     28  C   UNL     1       7.231  89.272  79.728  1.00  0.00     0.214 C 
ATOM     29  O   UNL     1       5.917  88.101  78.000  1.00  0.00    -0.332 OA
ATOM     30  C   UNL     1       7.815  90.225  78.673  1.00  0.00     0.180 C 
ATOM     31  C   UNL     1       6.392  88.950  76.964  1.00  0.00     0.179 C 
ATOM     32  C   UNL     1       6.854  90.337  77.481  1.00  0.00     0.177 C 
BRANCH  28  33
ATOM     33  O   UNL     1       6.114  89.863  80.342  1.00  0.00    -0.384 OA
ATOM     34  H   UNL     1       5.599  90.314  79.627  1.00  0.00     0.211 HD
ENDBRANCH  28  33
BRANCH  30  35
ATOM     35  O   UNL     1       9.075  89.786  78.242  1.00  0.00    -0.387 OA
ATOM     36  H   UNL     1       9.416  89.149  78.921  1.00  0.00     0.211 HD
ENDBRANCH  30  35
BRANCH  31  37
ATOM     37  C   UNL     1       7.391  88.224  76.038  1.00  0.00     0.191 C 
BRANCH  37  38
ATOM     38  O   UNL     1       7.073  86.864  75.922  1.00  0.00    -0.394 OA
ATOM     39  H   UNL     1       7.763  86.363  76.427  1.00  0.00     0.210 HD
ENDBRANCH  37  38
ENDBRANCH  31  37
BRANCH  32  40
ATOM     40  O   UNL     1       7.437  91.082  76.441  1.00  0.00    -0.387 OA
ATOM     41  H   UNL     1       7.469  90.490  75.646  1.00  0.00     0.211 HD
ENDBRANCH  32  40
ENDBRANCH   1  27
TORSDOF 12
ENDMDL
MODEL 6
REMARK VINA RESULT:    -6.231      2.727      6.975
REMARK INTER + INTRA:         -10.736
REMARK INTER:                  -9.136
REMARK INTRA:                  -1.600
REMARK UNBOUND:                -1.591
REMARK SMILES O=c1c(O[C@@H]2O[C@H](CO)[C@H](O)[C@H](O)[C@H]2O)c(-c2ccc(O)c(O)c2)oc2cc(O)cc(O)c12
REMARK SMILES IDX 4 1 3 2 16 3 25 4 2 5 26 6 1 7 33 8 27 9 31 10 28 11 30 12
REMARK SMILES IDX 17 13 18 14 19 15 20 16 24 17 22 18 21 19 23 21 32 23 29 25
REMARK SMILES IDX 5 27 14 28 6 29 12 30 7 31 10 32 15 33 13 35 8 37 9 38 11 40
REMARK H PARENT 21 20 23 22 32 24 29 26 15 34 13 36 9 39 11 41
REMARK Flexibility Score: inf
ROOT
ATOM      1  O   UNL     1       8.066  87.121  79.082  1.00  0.00    -0.454 OA
ENDROOT
BRANCH   1   2
ATOM      2  C   UNL     1       8.962  86.406  79.914  1.00  0.00     0.214 A 
ATOM      3  C   UNL     1       8.621  85.087  80.272  1.00  0.00     0.180 A 
ATOM      4  O   UNL     1       9.363  84.404  81.135  1.00  0.00    -0.452 OA
ATOM      5  C   UNL     1      10.165  86.941  80.442  1.00  0.00     0.239 A 
ATOM      6  C   UNL     1      10.471  84.884  81.682  1.00  0.00     0.146 A 
ATOM      7  O   UNL     1      10.564  88.088  80.107  1.00  0.00    -0.285 OA
ATOM      8  C   UNL     1      10.931  86.178  81.351  1.00  0.00     0.111 A 
ATOM      9  C   UNL     1      11.183  84.088  82.586  1.00  0.00     0.094 A 
ATOM     10  C   UNL     1      12.125  86.657  81.949  1.00  0.00     0.134 A 
ATOM     11  C   UNL     1      12.360  84.565  83.171  1.00  0.00     0.123 A 
ATOM     12  C   UNL     1      12.825  85.845  82.853  1.00  0.00     0.093 A 
BRANCH   3  13
ATOM     13  C   UNL     1       7.441  84.416  79.705  1.00  0.00     0.025 A 
ATOM     14  C   UNL     1       7.508  83.824  78.436  1.00  0.00     0.016 A 
ATOM     15  C   UNL     1       6.404  83.143  77.921  1.00  0.00     0.051 A 
ATOM     16  C   UNL     1       5.229  83.028  78.676  1.00  0.00     0.157 A 
ATOM     17  C   UNL     1       6.276  84.280  80.473  1.00  0.00     0.062 A 
ATOM     18  C   UNL     1       5.166  83.596  79.956  1.00  0.00     0.158 A 
BRANCH  16  19
ATOM     19  O   UNL     1       4.124  82.349  78.163  1.00  0.00    -0.504 OA
ATOM     20  H   UNL     1       3.373  82.843  77.692  1.00  0.00     0.293 HD
ENDBRANCH  16  19
BRANCH  18  21
ATOM     21  O   UNL     1       3.998  83.472  80.710  1.00  0.00    -0.504 OA
ATOM     22  H   UNL     1       3.616  84.255  81.231  1.00  0.00     0.293 HD
ENDBRANCH  18  21
ENDBRANCH   3  13
BRANCH  10  23
ATOM     23  O   UNL     1      12.617  87.933  81.662  1.00  0.00    -0.507 OA
ATOM     24  H   UNL     1      12.124  88.769  81.950  1.00  0.00     0.293 HD
ENDBRANCH  10  23
BRANCH  11  25
ATOM     25  O   UNL     1      13.075  83.776  84.071  1.00  0.00    -0.508 OA
ATOM     26  H   UNL     1      12.607  83.175  84.740  1.00  0.00     0.293 HD
ENDBRANCH  11  25
ENDBRANCH   1   2
BRANCH   1  27
ATOM     27  C   UNL     1       8.245  87.478  77.704  1.00  0.00     0.339 C 
ATOM     28  C   UNL     1       6.935  87.324  76.907  1.00  0.00     0.214 C 
ATOM     29  O   UNL     1       8.813  88.775  77.579  1.00  0.00    -0.332 OA
ATOM     30  C   UNL     1       5.923  88.417  77.284  1.00  0.00     0.180 C 
ATOM     31  C   UNL     1       7.950  89.846  77.935  1.00  0.00     0.179 C 
ATOM     32  C   UNL     1       6.588  89.798  77.195  1.00  0.00     0.177 C 
BRANCH  28  33
ATOM     33  O   UNL     1       7.223  87.391  75.533  1.00  0.00    -0.384 OA
ATOM     34  H   UNL     1       7.034  88.320  75.245  1.00  0.00     0.211 HD
ENDBRANCH  28  33
BRANCH  30  35
ATOM     35  O   UNL     1       5.413  88.206  78.573  1.00  0.00    -0.387 OA
ATOM     36  H   UNL     1       6.181  88.011  79.169  1.00  0.00     0.211 HD
ENDBRANCH  30  35
BRANCH  31  37
ATOM     37  C   UNL     1       7.863  90.031  79.465  1.00  0.00     0.191 C 
BRANCH  37  38
ATOM     38  O   UNL     1       9.080  90.494  79.986  1.00  0.00    -0.394 OA
ATOM     39  H   UNL     1       9.571  89.700  80.318  1.00  0.00     0.210 HD
ENDBRANCH  37  38
ENDBRANCH  31  37
BRANCH  32  40
ATOM     40  O   UNL     1       5.726  90.796  77.682  1.00  0.00    -0.387 OA
ATOM     41  H   UNL     1       6.105  91.668  77.397  1.00  0.00     0.211 HD
ENDBRANCH  32  40
ENDBRANCH   1  27
TORSDOF 12
ENDMDL
MODEL 7
REMARK VINA RESULT:    -6.095      2.577      7.302
REMARK INTER + INTRA:         -10.537
REMARK INTER:                  -9.030
REMARK INTRA:                  -1.507
REMARK UNBOUND:                -1.591
REMARK SMILES O=c1c(O[C@@H]2O[C@H](CO)[C@H](O)[C@H](O)[C@H]2O)c(-c2ccc(O)c(O)c2)oc2cc(O)cc(O)c12
REMARK SMILES IDX 4 1 3 2 16 3 25 4 2 5 26 6 1 7 33 8 27 9 31 10 28 11 30 12
REMARK SMILES IDX 17 13 18 14 19 15 20 16 24 17 22 18 21 19 23 21 32 23 29 25
REMARK SMILES IDX 5 27 14 28 6 29 12 30 7 31 10 32 15 33 13 35 8 37 9 38 11 40
REMARK H PARENT 21 20 23 22 32 24 29 26 15 34 13 36 9 39 11 41
REMARK Flexibility Score: inf
ROOT
ATOM      1  O   UNL     1       8.485  85.236  79.818  1.00  0.00    -0.454 OA
ENDROOT
BRANCH   1   2
ATOM      2  C   UNL     1       9.443  86.154  80.313  1.00  0.00     0.214 A 
ATOM      3  C   UNL     1       9.517  87.423  79.706  1.00  0.00     0.180 A 
ATOM      4  O   UNL     1      10.465  88.287  80.051  1.00  0.00    -0.452 OA
ATOM      5  C   UNL     1      10.362  85.870  81.356  1.00  0.00     0.239 A 
ATOM      6  C   UNL     1      11.366  88.042  80.991  1.00  0.00     0.146 A 
ATOM      7  O   UNL     1      10.305  84.781  81.987  1.00  0.00    -0.285 OA
ATOM      8  C   UNL     1      11.350  86.820  81.698  1.00  0.00     0.111 A 
ATOM      9  C   UNL     1      12.329  89.015  81.279  1.00  0.00     0.094 A 
ATOM     10  C   UNL     1      12.325  86.594  82.703  1.00  0.00     0.134 A 
ATOM     11  C   UNL     1      13.286  88.788  82.272  1.00  0.00     0.123 A 
ATOM     12  C   UNL     1      13.282  87.581  82.978  1.00  0.00     0.093 A 
BRANCH   3  13
ATOM     13  C   UNL     1       8.551  87.843  78.679  1.00  0.00     0.025 A 
ATOM     14  C   UNL     1       8.842  87.658  77.320  1.00  0.00     0.016 A 
ATOM     15  C   UNL     1       7.904  88.009  76.348  1.00  0.00     0.051 A 
ATOM     16  C   UNL     1       6.657  88.529  76.725  1.00  0.00     0.157 A 
ATOM     17  C   UNL     1       7.295  88.337  79.058  1.00  0.00     0.062 A 
ATOM     18  C   UNL     1       6.352  88.691  78.083  1.00  0.00     0.158 A 
BRANCH  16  19
ATOM     19  O   UNL     1       5.718  88.882  75.755  1.00  0.00    -0.504 OA
ATOM     20  H   UNL     1       5.441  89.848  75.616  1.00  0.00     0.293 HD
ENDBRANCH  16  19
BRANCH  18  21
ATOM     21  O   UNL     1       5.106  89.200  78.455  1.00  0.00    -0.504 OA
ATOM     22  H   UNL     1       4.760  89.115  79.405  1.00  0.00     0.293 HD
ENDBRANCH  18  21
ENDBRANCH   3  13
BRANCH  10  23
ATOM     23  O   UNL     1      12.357  85.398  83.425  1.00  0.00    -0.507 OA
ATOM     24  H   UNL     1      13.094  85.198  84.089  1.00  0.00     0.293 HD
ENDBRANCH  10  23
BRANCH  11  25
ATOM     25  O   UNL     1      14.248  89.754  82.566  1.00  0.00    -0.508 OA
ATOM     26  H   UNL     1      14.046  90.535  83.180  1.00  0.00     0.293 HD
ENDBRANCH  11  25
ENDBRANCH   1   2
BRANCH   1  27
ATOM     27  C   UNL     1       7.388  84.646  80.529  1.00  0.00     0.339 C 
ATOM     28  C   UNL     1       6.033  85.159  80.004  1.00  0.00     0.214 C 
ATOM     29  O   UNL     1       7.476  83.228  80.525  1.00  0.00    -0.332 OA
ATOM     30  C   UNL     1       5.724  84.584  78.613  1.00  0.00     0.180 C 
ATOM     31  C   UNL     1       7.229  82.614  79.267  1.00  0.00     0.179 C 
ATOM     32  C   UNL     1       5.886  83.057  78.631  1.00  0.00     0.177 C 
BRANCH  28  33
ATOM     33  O   UNL     1       5.022  84.796  80.909  1.00  0.00    -0.384 OA
ATOM     34  H   UNL     1       5.266  83.906  81.270  1.00  0.00     0.211 HD
ENDBRANCH  28  33
BRANCH  30  35
ATOM     35  O   UNL     1       6.558  85.150  77.638  1.00  0.00    -0.387 OA
ATOM     36  H   UNL     1       7.021  85.921  78.055  1.00  0.00     0.211 HD
ENDBRANCH  30  35
BRANCH  31  37
ATOM     37  C   UNL     1       8.458  82.694  78.337  1.00  0.00     0.191 C 
BRANCH  37  38
ATOM     38  O   UNL     1       8.695  81.463  77.709  1.00  0.00    -0.394 OA
ATOM     39  H   UNL     1       9.677  81.330  77.699  1.00  0.00     0.210 HD
ENDBRANCH  37  38
ENDBRANCH  31  37
BRANCH  32  40
ATOM     40  O   UNL     1       5.756  82.529  77.335  1.00  0.00    -0.387 OA
ATOM     41  H   UNL     1       6.605  82.060  77.129  1.00  0.00     0.211 HD
ENDBRANCH  32  40
ENDBRANCH   1  27
TORSDOF 12
ENDMDL
MODEL 8
REMARK VINA RESULT:    -6.094      2.819      5.154
REMARK INTER + INTRA:         -10.535
REMARK INTER:                  -8.674
REMARK INTRA:                  -1.862
REMARK UNBOUND:                -1.591
REMARK SMILES O=c1c(O[C@@H]2O[C@H](CO)[C@H](O)[C@H](O)[C@H]2O)c(-c2ccc(O)c(O)c2)oc2cc(O)cc(O)c12
REMARK SMILES IDX 4 1 3 2 16 3 25 4 2 5 26 6 1 7 33 8 27 9 31 10 28 11 30 12
REMARK SMILES IDX 17 13 18 14 19 15 20 16 24 17 22 18 21 19 23 21 32 23 29 25
REMARK SMILES IDX 5 27 14 28 6 29 12 30 7 31 10 32 15 33 13 35 8 37 9 38 11 40
REMARK H PARENT 21 20 23 22 32 24 29 26 15 34 13 36 9 39 11 41
REMARK Flexibility Score: inf
ROOT
ATOM      1  O   UNL     1      10.027  86.097  80.279  1.00  0.00    -0.454 OA
ENDROOT
BRANCH   1   2
ATOM      2  C   UNL     1       9.007  85.297  80.850  1.00  0.00     0.214 A 
ATOM      3  C   UNL     1       7.693  85.460  80.371  1.00  0.00     0.180 A 
ATOM      4  O   UNL     1       6.678  84.821  80.940  1.00  0.00    -0.452 OA
ATOM      5  C   UNL     1       9.213  84.366  81.901  1.00  0.00     0.239 A 
ATOM      6  C   UNL     1       6.824  83.975  81.950  1.00  0.00     0.146 A 
ATOM      7  O   UNL     1      10.372  84.121  82.328  1.00  0.00    -0.285 OA
ATOM      8  C   UNL     1       8.107  83.699  82.473  1.00  0.00     0.111 A 
ATOM      9  C   UNL     1       5.691  83.353  82.485  1.00  0.00     0.094 A 
ATOM     10  C   UNL     1       8.227  82.784  83.549  1.00  0.00     0.134 A 
ATOM     11  C   UNL     1       5.817  82.450  83.545  1.00  0.00     0.123 A 
ATOM     12  C   UNL     1       7.081  82.170  84.073  1.00  0.00     0.093 A 
BRANCH   3  13
ATOM     13  C   UNL     1       7.394  86.335  79.226  1.00  0.00     0.025 A 
ATOM     14  C   UNL     1       7.348  85.807  77.928  1.00  0.00     0.016 A 
ATOM     15  C   UNL     1       7.014  86.627  76.849  1.00  0.00     0.051 A 
ATOM     16  C   UNL     1       6.702  87.978  77.058  1.00  0.00     0.157 A 
ATOM     17  C   UNL     1       7.056  87.678  79.441  1.00  0.00     0.062 A 
ATOM     18  C   UNL     1       6.720  88.503  78.357  1.00  0.00     0.158 A 
BRANCH  16  19
ATOM     19  O   UNL     1       6.368  88.799  75.982  1.00  0.00    -0.504 OA
ATOM     20  H   UNL     1       5.750  89.596  76.098  1.00  0.00     0.293 HD
ENDBRANCH  16  19
BRANCH  18  21
ATOM     21  O   UNL     1       6.399  89.846  78.563  1.00  0.00    -0.504 OA
ATOM     22  H   UNL     1       5.649  90.124  79.188  1.00  0.00     0.293 HD
ENDBRANCH  18  21
ENDBRANCH   3  13
BRANCH  10  23
ATOM     23  O   UNL     1       9.473  82.484  84.108  1.00  0.00    -0.507 OA
ATOM     24  H   UNL     1       9.585  81.745  84.792  1.00  0.00     0.293 HD
ENDBRANCH  10  23
BRANCH  11  25
ATOM     25  O   UNL     1       4.692  81.825  84.082  1.00  0.00    -0.508 OA
ATOM     26  H   UNL     1       4.539  80.828  83.982  1.00  0.00     0.293 HD
ENDBRANCH  11  25
ENDBRANCH   1   2
BRANCH   1  27
ATOM     27  C   UNL     1      10.886  85.766  79.179  1.00  0.00     0.339 C 
ATOM     28  C   UNL     1      10.762  86.793  78.036  1.00  0.00     0.214 C 
ATOM     29  O   UNL     1      12.228  85.588  79.611  1.00  0.00    -0.332 OA
ATOM     30  C   UNL     1      11.408  88.133  78.421  1.00  0.00     0.180 C 
ATOM     31  C   UNL     1      12.894  86.778  80.012  1.00  0.00     0.179 C 
ATOM     32  C   UNL     1      12.834  87.896  78.938  1.00  0.00     0.177 C 
BRANCH  28  33
ATOM     33  O   UNL     1      11.379  86.276  76.885  1.00  0.00    -0.384 OA
ATOM     34  H   UNL     1      10.790  86.499  76.120  1.00  0.00     0.211 HD
ENDBRANCH  28  33
BRANCH  30  35
ATOM     35  O   UNL     1      10.644  88.800  79.390  1.00  0.00    -0.387 OA
ATOM     36  H   UNL     1      10.540  89.739  79.091  1.00  0.00     0.211 HD
ENDBRANCH  30  35
BRANCH  31  37
ATOM     37  C   UNL     1      12.491  87.210  81.438  1.00  0.00     0.191 C 
BRANCH  37  38
ATOM     38  O   UNL     1      12.366  86.099  82.284  1.00  0.00    -0.394 OA
ATOM     39  H   UNL     1      11.420  85.808  82.239  1.00  0.00     0.210 HD
ENDBRANCH  37  38
ENDBRANCH  31  37
BRANCH  32  40
ATOM     40  O   UNL     1      13.386  89.089  79.437  1.00  0.00    -0.387 OA
ATOM     41  H   UNL     1      12.902  89.300  80.278  1.00  0.00     0.211 HD
ENDBRANCH  32  40
ENDBRANCH   1  27
TORSDOF 12
ENDMDL
MODEL 9
REMARK VINA RESULT:    -5.966      2.646      6.031
REMARK INTER + INTRA:         -10.347
REMARK INTER:                  -8.771
REMARK INTRA:                  -1.576
REMARK UNBOUND:                -1.591
REMARK SMILES O=c1c(O[C@@H]2O[C@H](CO)[C@H](O)[C@H](O)[C@H]2O)c(-c2ccc(O)c(O)c2)oc2cc(O)cc(O)c12
REMARK SMILES IDX 4 1 3 2 16 3 25 4 2 5 26 6 1 7 33 8 27 9 31 10 28 11 30 12
REMARK SMILES IDX 17 13 18 14 19 15 20 16 24 17 22 18 21 19 23 21 32 23 29 25
REMARK SMILES IDX 5 27 14 28 6 29 12 30 7 31 10 32 15 33 13 35 8 37 9 38 11 40
REMARK H PARENT 21 20 23 22 32 24 29 26 15 34 13 36 9 39 11 41
REMARK Flexibility Score: inf
ROOT
ATOM      1  O   UNL     1       9.421  86.408  80.265  1.00  0.00    -0.454 OA
ENDROOT
BRANCH   1   2
ATOM      2  C   UNL     1       8.968  87.256  79.225  1.00  0.00     0.214 A 
ATOM      3  C   UNL     1       7.782  86.901  78.553  1.00  0.00     0.180 A 
ATOM      4  O   UNL     1       7.365  87.594  77.500  1.00  0.00    -0.452 OA
ATOM      5  C   UNL     1       9.648  88.422  78.788  1.00  0.00     0.239 A 
ATOM      6  C   UNL     1       7.995  88.663  77.036  1.00  0.00     0.146 A 
ATOM      7  O   UNL     1      10.675  88.834  79.390  1.00  0.00    -0.285 OA
ATOM      8  C   UNL     1       9.166  89.136  77.669  1.00  0.00     0.111 A 
ATOM      9  C   UNL     1       7.479  89.324  75.916  1.00  0.00     0.094 A 
ATOM     10  C   UNL     1       9.810  90.288  77.150  1.00  0.00     0.134 A 
ATOM     11  C   UNL     1       8.117  90.460  75.410  1.00  0.00     0.123 A 
ATOM     12  C   UNL     1       9.278  90.936  76.026  1.00  0.00     0.093 A 
BRANCH   3  13
ATOM     13  C   UNL     1       6.961  85.762  78.990  1.00  0.00     0.025 A 
ATOM     14  C   UNL     1       6.348  85.776  80.251  1.00  0.00     0.016 A 
ATOM     15  C   UNL     1       5.527  84.718  80.643  1.00  0.00     0.051 A 
ATOM     16  C   UNL     1       5.294  83.643  79.773  1.00  0.00     0.157 A 
ATOM     17  C   UNL     1       6.707  84.702  78.108  1.00  0.00     0.062 A 
ATOM     18  C   UNL     1       5.883  83.637  78.502  1.00  0.00     0.158 A 
BRANCH  16  19
ATOM     19  O   UNL     1       4.475  82.584  80.164  1.00  0.00    -0.504 OA
ATOM     20  H   UNL     1       4.388  81.747  79.596  1.00  0.00     0.293 HD
ENDBRANCH  16  19
BRANCH  18  21
ATOM     21  O   UNL     1       5.641  82.571  77.633  1.00  0.00    -0.504 OA
ATOM     22  H   UNL     1       6.356  81.880  77.429  1.00  0.00     0.293 HD
ENDBRANCH  18  21
ENDBRANCH   3  13
BRANCH  10  23
ATOM     23  O   UNL     1      10.976  90.789  77.734  1.00  0.00    -0.507 OA
ATOM     24  H   UNL     1      11.658  90.179  78.169  1.00  0.00     0.293 HD
ENDBRANCH  10  23
BRANCH  11  25
ATOM     25  O   UNL     1       7.607  91.124  74.295  1.00  0.00    -0.508 OA
ATOM     26  H   UNL     1       7.313  92.093  74.342  1.00  0.00     0.293 HD
ENDBRANCH  11  25
ENDBRANCH   1   2
BRANCH   1  27
ATOM     27  C   UNL     1      10.247  85.241  80.147  1.00  0.00     0.339 C 
ATOM     28  C   UNL     1      11.733  85.616  79.986  1.00  0.00     0.214 C 
ATOM     29  O   UNL     1      10.023  84.342  81.225  1.00  0.00    -0.332 OA
ATOM     30  C   UNL     1      12.315  86.162  81.299  1.00  0.00     0.180 C 
ATOM     31  C   UNL     1      10.508  84.783  82.486  1.00  0.00     0.179 C 
ATOM     32  C   UNL     1      12.003  85.194  82.450  1.00  0.00     0.177 C 
BRANCH  28  33
ATOM     33  O   UNL     1      12.452  84.479  79.578  1.00  0.00    -0.384 OA
ATOM     34  H   UNL     1      13.387  84.608  79.879  1.00  0.00     0.211 HD
ENDBRANCH  28  33
BRANCH  30  35
ATOM     35  O   UNL     1      11.804  87.436  81.584  1.00  0.00    -0.387 OA
ATOM     36  H   UNL     1      11.045  87.596  80.967  1.00  0.00     0.211 HD
ENDBRANCH  30  35
BRANCH  31  37
ATOM     37  C   UNL     1       9.557  85.807  83.142  1.00  0.00     0.191 C 
BRANCH  37  38
ATOM     38  O   UNL     1       8.228  85.363  83.091  1.00  0.00    -0.394 OA
ATOM     39  H   UNL     1       7.800  85.640  83.941  1.00  0.00     0.210 HD
ENDBRANCH  37  38
ENDBRANCH  31  37
BRANCH  32  40
ATOM     40  O   UNL     1      12.392  85.747  83.682  1.00  0.00    -0.387 OA
ATOM     41  H   UNL     1      11.599  86.216  84.051  1.00  0.00     0.211 HD
ENDBRANCH  32  40
ENDBRANCH   1  27
TORSDOF 12
ENDMDL
