MODEL 1
REMARK VINA RESULT:    -3.497      0.000      0.000
REMARK INTER + INTRA:          -4.142
REMARK INTER:                  -4.110
REMARK INTRA:                  -0.032
REMARK UNBOUND:                -0.032
REMARK SMILES CCCCC(=O)[O-]
REMARK SMILES IDX 4 1 5 2 6 3 7 4 3 5 2 6 1 7
REMARK H PARENT
REMARK Flexibility Score: inf
ROOT
ATOM      1  C   UNL     1     -14.200   4.578  13.639  1.00  0.00     0.053 C 
ENDROOT
BRANCH   1   2
ATOM      2  C   UNL     1     -13.571   5.149  14.869  1.00  0.00     0.041 C 
ATOM      3  O   UNL     1     -12.322   5.304  14.929  1.00  0.00    -0.550 OA
ATOM      4  O   UNL     1     -14.356   5.465  15.971  1.00  0.00    -0.550 OA
ENDBRANCH   1   2
BRANCH   1   5
ATOM      5  C   UNL     1     -13.217   4.626  12.463  1.00  0.00     0.006 C 
BRANCH   5   6
ATOM      6  C   UNL     1     -13.908   4.412  11.107  1.00  0.00    -0.003 C 
ATOM      7  C   UNL     1     -15.212   3.623  11.226  1.00  0.00     0.004 C 
ENDBRANCH   5   6
ENDBRANCH   1   5
TORSDOF 3
ENDMDL
MODEL 2
REMARK VINA RESULT:    -3.484      1.251      1.966
REMARK INTER + INTRA:          -4.127
REMARK INTER:                  -4.062
REMARK INTRA:                  -0.065
REMARK UNBOUND:                -0.032
REMARK SMILES CCCCC(=O)[O-]
REMARK SMILES IDX 4 1 5 2 6 3 7 4 3 5 2 6 1 7
REMARK H PARENT
REMARK Flexibility Score: inf
ROOT
ATOM      1  C   UNL     1     -14.252   4.450  13.852  1.00  0.00     0.053 C 
ENDROOT
BRANCH   1   2
ATOM      2  C   UNL     1     -12.798   4.800  13.888  1.00  0.00     0.041 C 
ATOM      3  O   UNL     1     -12.259   5.161  14.968  1.00  0.00    -0.550 OA
ATOM      4  O   UNL     1     -12.048   4.775  12.719  1.00  0.00    -0.550 OA
ENDBRANCH   1   2
BRANCH   1   5
ATOM      5  C   UNL     1     -14.467   3.127  13.108  1.00  0.00     0.006 C 
BRANCH   5   6
ATOM      6  C   UNL     1     -15.368   3.284  11.873  1.00  0.00    -0.003 C 
ATOM      7  C   UNL     1     -14.670   4.006  10.721  1.00  0.00     0.004 C 
ENDBRANCH   5   6
ENDBRANCH   1   5
TORSDOF 3
ENDMDL
MODEL 3
REMARK VINA RESULT:    -3.467      1.438      1.671
REMARK INTER + INTRA:          -4.107
REMARK INTER:                  -4.061
REMARK INTRA:                  -0.046
REMARK UNBOUND:                -0.032
REMARK SMILES CCCCC(=O)[O-]
REMARK SMILES IDX 4 1 5 2 6 3 7 4 3 5 2 6 1 7
REMARK H PARENT
REMARK Flexibility Score: inf
ROOT
ATOM      1  C   UNL     1     -13.926   4.799  13.415  1.00  0.00     0.053 C 
ENDROOT
BRANCH   1   2
ATOM      2  C   UNL     1     -13.443   5.169  14.782  1.00  0.00     0.041 C 
ATOM      3  O   UNL     1     -12.210   5.162  15.042  1.00  0.00    -0.550 OA
ATOM      4  O   UNL     1     -14.356   5.472  15.784  1.00  0.00    -0.550 OA
ENDBRANCH   1   2
BRANCH   1   5
ATOM      5  C   UNL     1     -12.814   4.095  12.627  1.00  0.00     0.006 C 
BRANCH   5   6
ATOM      6  C   UNL     1     -13.057   2.585  12.486  1.00  0.00    -0.003 C 
ATOM      7  C   UNL     1     -12.078   1.916  11.521  1.00  0.00     0.004 C 
ENDBRANCH   5   6
ENDBRANCH   1   5
TORSDOF 3
ENDMDL
MODEL 4
REMARK VINA RESULT:    -3.392      2.181      2.843
REMARK INTER + INTRA:          -4.019
REMARK INTER:                  -3.892
REMARK INTRA:                  -0.127
REMARK UNBOUND:                -0.032
REMARK SMILES CCCCC(=O)[O-]
REMARK SMILES IDX 4 1 5 2 6 3 7 4 3 5 2 6 1 7
REMARK H PARENT
REMARK Flexibility Score: inf
ROOT
ATOM      1  C   UNL     1     -14.277   4.292  13.218  1.00  0.00     0.053 C 
ENDROOT
BRANCH   1   2
ATOM      2  C   UNL     1     -12.875   4.772  13.427  1.00  0.00     0.041 C 
ATOM      3  O   UNL     1     -12.039   4.714  12.486  1.00  0.00    -0.550 OA
ATOM      4  O   UNL     1     -12.477   5.236  14.674  1.00  0.00    -0.550 OA
ENDBRANCH   1   2
BRANCH   1   5
ATOM      5  C   UNL     1     -14.298   2.771  13.019  1.00  0.00     0.006 C 
BRANCH   5   6
ATOM      6  C   UNL     1     -13.953   2.004  14.305  1.00  0.00    -0.003 C 
ATOM      7  C   UNL     1     -12.763   1.060  14.129  1.00  0.00     0.004 C 
ENDBRANCH   5   6
ENDBRANCH   1   5
TORSDOF 3
ENDMDL
MODEL 5
REMARK VINA RESULT:    -3.361      1.937      3.668
REMARK INTER + INTRA:          -3.983
REMARK INTER:                  -3.892
REMARK INTRA:                  -0.091
REMARK UNBOUND:                -0.032
REMARK SMILES CCCCC(=O)[O-]
REMARK SMILES IDX 4 1 5 2 6 3 7 4 3 5 2 6 1 7
REMARK H PARENT
REMARK Flexibility Score: inf
ROOT
ATOM      1  C   UNL     1     -14.144   3.925  13.756  1.00  0.00     0.053 C 
ENDROOT
BRANCH   1   2
ATOM      2  C   UNL     1     -12.845   4.665  13.698  1.00  0.00     0.041 C 
ATOM      3  O   UNL     1     -12.411   5.265  14.718  1.00  0.00    -0.550 OA
ATOM      4  O   UNL     1     -12.137   4.737  12.505  1.00  0.00    -0.550 OA
ENDBRANCH   1   2
BRANCH   1   5
ATOM      5  C   UNL     1     -14.256   3.143  15.071  1.00  0.00     0.006 C 
BRANCH   5   6
ATOM      6  C   UNL     1     -15.286   3.753  16.034  1.00  0.00    -0.003 C 
ATOM      7  C   UNL     1     -14.642   4.382  17.269  1.00  0.00     0.004 C 
ENDBRANCH   5   6
ENDBRANCH   1   5
TORSDOF 3
ENDMDL
MODEL 6
REMARK VINA RESULT:    -3.360      2.304      2.614
REMARK INTER + INTRA:          -3.982
REMARK INTER:                  -3.879
REMARK INTRA:                  -0.103
REMARK UNBOUND:                -0.032
REMARK SMILES CCCCC(=O)[O-]
REMARK SMILES IDX 4 1 5 2 6 3 7 4 3 5 2 6 1 7
REMARK H PARENT
REMARK Flexibility Score: inf
ROOT
ATOM      1  C   UNL     1     -13.732   3.434  13.553  1.00  0.00     0.053 C 
ENDROOT
BRANCH   1   2
ATOM      2  C   UNL     1     -12.743   4.556  13.545  1.00  0.00     0.041 C 
ATOM      3  O   UNL     1     -12.103   4.830  12.494  1.00  0.00    -0.550 OA
ATOM      4  O   UNL     1     -12.488   5.268  14.710  1.00  0.00    -0.550 OA
ENDBRANCH   1   2
BRANCH   1   5
ATOM      5  C   UNL     1     -13.736   2.714  12.199  1.00  0.00     0.006 C 
BRANCH   5   6
ATOM      6  C   UNL     1     -12.910   1.418  12.216  1.00  0.00    -0.003 C 
ATOM      7  C   UNL     1     -11.689   1.483  11.299  1.00  0.00     0.004 C 
ENDBRANCH   5   6
ENDBRANCH   1   5
TORSDOF 3
ENDMDL
MODEL 7
REMARK VINA RESULT:    -3.293      2.224      3.809
REMARK INTER + INTRA:          -3.903
REMARK INTER:                  -3.861
REMARK INTRA:                  -0.042
REMARK UNBOUND:                -0.032
REMARK SMILES CCCCC(=O)[O-]
REMARK SMILES IDX 4 1 5 2 6 3 7 4 3 5 2 6 1 7
REMARK H PARENT
REMARK Flexibility Score: inf
ROOT
ATOM      1  C   UNL     1     -14.298   4.659  12.994  1.00  0.00     0.053 C 
ENDROOT
BRANCH   1   2
ATOM      2  C   UNL     1     -13.160   4.613  12.024  1.00  0.00     0.041 C 
ATOM      3  O   UNL     1     -11.978   4.788  12.424  1.00  0.00    -0.550 OA
ATOM      4  O   UNL     1     -13.406   4.425  10.670  1.00  0.00    -0.550 OA
ENDBRANCH   1   2
BRANCH   1   5
ATOM      5  C   UNL     1     -13.796   5.049  14.390  1.00  0.00     0.006 C 
BRANCH   5   6
ATOM      6  C   UNL     1     -14.189   4.024  15.465  1.00  0.00    -0.003 C 
ATOM      7  C   UNL     1     -14.599   4.680  16.784  1.00  0.00     0.004 C 
ENDBRANCH   5   6
ENDBRANCH   1   5
TORSDOF 3
ENDMDL
MODEL 8
REMARK VINA RESULT:    -3.168     17.674     18.675
REMARK INTER + INTRA:          -3.756
REMARK INTER:                  -3.733
REMARK INTRA:                  -0.023
REMARK UNBOUND:                -0.032
REMARK SMILES CCCCC(=O)[O-]
REMARK SMILES IDX 4 1 5 2 6 3 7 4 3 5 2 6 1 7
REMARK H PARENT
REMARK Flexibility Score: inf
ROOT
ATOM      1  C   UNL     1     -21.004  20.116  21.710  1.00  0.00     0.053 C 
ENDROOT
BRANCH   1   2
ATOM      2  C   UNL     1     -21.183  19.536  20.343  1.00  0.00     0.041 C 
ATOM      3  O   UNL     1     -22.187  19.848  19.648  1.00  0.00    -0.550 OA
ATOM      4  O   UNL     1     -20.268  18.612  19.853  1.00  0.00    -0.550 OA
ENDBRANCH   1   2
BRANCH   1   5
ATOM      5  C   UNL     1     -19.981  19.299  22.509  1.00  0.00     0.006 C 
BRANCH   5   6
ATOM      6  C   UNL     1     -19.338  20.108  23.645  1.00  0.00    -0.003 C 
ATOM      7  C   UNL     1     -18.997  19.249  24.863  1.00  0.00     0.004 C 
ENDBRANCH   5   6
ENDBRANCH   1   5
TORSDOF 3
ENDMDL
MODEL 9
REMARK VINA RESULT:    -3.051      3.047      3.994
REMARK INTER + INTRA:          -3.619
REMARK INTER:                  -3.559
REMARK INTRA:                  -0.060
REMARK UNBOUND:                -0.032
REMARK SMILES CCCCC(=O)[O-]
REMARK SMILES IDX 4 1 5 2 6 3 7 4 3 5 2 6 1 7
REMARK H PARENT
REMARK Flexibility Score: inf
ROOT
ATOM      1  C   UNL     1     -14.073   2.673  12.118  1.00  0.00     0.053 C 
ENDROOT
BRANCH   1   2
ATOM      2  C   UNL     1     -14.120   3.413  10.818  1.00  0.00     0.041 C 
ATOM      3  O   UNL     1     -13.086   3.508  10.105  1.00  0.00    -0.550 OA
ATOM      4  O   UNL     1     -15.293   4.041  10.417  1.00  0.00    -0.550 OA
ENDBRANCH   1   2
BRANCH   1   5
ATOM      5  C   UNL     1     -13.239   3.448  13.145  1.00  0.00     0.006 C 
BRANCH   5   6
ATOM      6  C   UNL     1     -13.773   4.868  13.388  1.00  0.00    -0.003 C 
ATOM      7  C   UNL     1     -13.806   5.242  14.870  1.00  0.00     0.004 C 
ENDBRANCH   5   6
ENDBRANCH   1   5
TORSDOF 3
ENDMDL
