MODEL 1
REMARK VINA RESULT:    -7.659      0.000      0.000
REMARK INTER + INTRA:          -9.401
REMARK INTER:                  -9.226
REMARK INTRA:                  -0.175
REMARK UNBOUND:                -0.175
REMARK SMILES CCCCc1oc(O)c2ccccc12
REMARK SMILES IDX 4 1 5 2 7 3 6 4 9 5 14 6 10 7 13 8 11 9 12 10 8 11 3 13 2 14
REMARK SMILES IDX 1 15
REMARK H PARENT 8 12
REMARK Flexibility Score: inf
ROOT
ATOM      1  C   UNL     1     -22.632 -11.001 -13.975  1.00  0.00     0.076 C 
ENDROOT
BRANCH   1   2
ATOM      2  C   UNL     1     -23.719 -10.137 -13.413  1.00  0.00     0.116 A 
ATOM      3  C   UNL     1     -25.283  -9.464 -12.111  1.00  0.00     0.290 A 
ATOM      4  O   UNL     1     -24.384 -10.411 -12.305  1.00  0.00    -0.430 OA
ATOM      5  C   UNL     1     -25.211  -8.539 -13.127  1.00  0.00     0.066 A 
ATOM      6  C   UNL     1     -24.215  -8.967 -13.962  1.00  0.00     0.027 A 
ATOM      7  C   UNL     1     -25.940  -7.379 -13.378  1.00  0.00     0.016 A 
ATOM      8  C   UNL     1     -23.875  -8.264 -15.118  1.00  0.00     0.012 A 
ATOM      9  C   UNL     1     -25.619  -6.645 -14.536  1.00  0.00     0.001 A 
ATOM     10  C   UNL     1     -24.591  -7.086 -15.402  1.00  0.00     0.001 A 
BRANCH   3  11
ATOM     11  O   UNL     1     -26.164  -9.425 -11.037  1.00  0.00    -0.480 OA
ATOM     12  H   UNL     1     -26.156  -8.643 -10.395  1.00  0.00     0.297 HD
ENDBRANCH   3  11
ENDBRANCH   1   2
BRANCH   1  13
ATOM     13  C   UNL     1     -22.034 -11.889 -12.878  1.00  0.00     0.008 C 
BRANCH  13  14
ATOM     14  C   UNL     1     -20.595 -12.327 -13.193  1.00  0.00    -0.003 C 
ATOM     15  C   UNL     1     -20.365 -13.818 -12.948  1.00  0.00     0.004 C 
ENDBRANCH  13  14
ENDBRANCH   1  13
TORSDOF 4
ENDMDL
MODEL 2
REMARK VINA RESULT:    -7.323      2.203      3.002
REMARK INTER + INTRA:          -8.996
REMARK INTER:                  -8.497
REMARK INTRA:                  -0.499
REMARK UNBOUND:                -0.175
REMARK SMILES CCCCc1oc(O)c2ccccc12
REMARK SMILES IDX 4 1 5 2 7 3 6 4 9 5 14 6 10 7 13 8 11 9 12 10 8 11 3 13 2 14
REMARK SMILES IDX 1 15
REMARK H PARENT 8 12
REMARK Flexibility Score: inf
ROOT
ATOM      1  C   UNL     1     -22.577 -11.480 -15.133  1.00  0.00     0.076 C 
ENDROOT
BRANCH   1   2
ATOM      2  C   UNL     1     -23.045 -10.059 -15.070  1.00  0.00     0.116 A 
ATOM      3  C   UNL     1     -23.227  -7.978 -15.552  1.00  0.00     0.290 A 
ATOM      4  O   UNL     1     -22.646  -9.111 -15.900  1.00  0.00    -0.430 OA
ATOM      5  C   UNL     1     -24.030  -8.185 -14.454  1.00  0.00     0.066 A 
ATOM      6  C   UNL     1     -23.914  -9.512 -14.143  1.00  0.00     0.027 A 
ATOM      7  C   UNL     1     -24.833  -7.318 -13.716  1.00  0.00     0.016 A 
ATOM      8  C   UNL     1     -24.594 -10.073 -13.061  1.00  0.00     0.012 A 
ATOM      9  C   UNL     1     -25.535  -7.854 -12.620  1.00  0.00     0.001 A 
ATOM     10  C   UNL     1     -25.415  -9.226 -12.294  1.00  0.00     0.001 A 
BRANCH   3  11
ATOM     11  O   UNL     1     -23.040  -6.766 -16.206  1.00  0.00    -0.480 OA
ATOM     12  H   UNL     1     -22.144  -6.539 -16.619  1.00  0.00     0.297 HD
ENDBRANCH   3  11
ENDBRANCH   1   2
BRANCH   1  13
ATOM     13  C   UNL     1     -21.162 -11.604 -14.556  1.00  0.00     0.008 C 
BRANCH  13  14
ATOM     14  C   UNL     1     -21.158 -12.128 -13.111  1.00  0.00    -0.003 C 
ATOM     15  C   UNL     1     -22.383 -12.985 -12.792  1.00  0.00     0.004 C 
ENDBRANCH  13  14
ENDBRANCH   1  13
TORSDOF 4
ENDMDL
MODEL 3
REMARK VINA RESULT:    -7.285      1.624      4.814
REMARK INTER + INTRA:          -8.950
REMARK INTER:                  -8.465
REMARK INTRA:                  -0.485
REMARK UNBOUND:                -0.175
REMARK SMILES CCCCc1oc(O)c2ccccc12
REMARK SMILES IDX 4 1 5 2 7 3 6 4 9 5 14 6 10 7 13 8 11 9 12 10 8 11 3 13 2 14
REMARK SMILES IDX 1 15
REMARK H PARENT 8 12
REMARK Flexibility Score: inf
ROOT
ATOM      1  C   UNL     1     -24.240  -7.646 -13.212  1.00  0.00     0.076 C 
ENDROOT
BRANCH   1   2
ATOM      2  C   UNL     1     -23.908  -9.106 -13.243  1.00  0.00     0.116 A 
ATOM      3  C   UNL     1     -23.706 -11.137 -12.589  1.00  0.00     0.290 A 
ATOM      4  O   UNL     1     -24.139  -9.940 -12.244  1.00  0.00    -0.430 OA
ATOM      5  C   UNL     1     -23.167 -11.091 -13.854  1.00  0.00     0.066 A 
ATOM      6  C   UNL     1     -23.294  -9.795 -14.274  1.00  0.00     0.027 A 
ATOM      7  C   UNL     1     -22.581 -12.073 -14.650  1.00  0.00     0.016 A 
ATOM      8  C   UNL     1     -22.836  -9.382 -15.526  1.00  0.00     0.012 A 
ATOM      9  C   UNL     1     -22.112 -11.689 -15.920  1.00  0.00     0.001 A 
ATOM     10  C   UNL     1     -22.239 -10.349 -16.356  1.00  0.00     0.001 A 
BRANCH   3  11
ATOM     11  O   UNL     1     -23.786 -12.265 -11.780  1.00  0.00    -0.480 OA
ATOM     12  H   UNL     1     -23.203 -13.071 -11.965  1.00  0.00     0.297 HD
ENDBRANCH   3  11
ENDBRANCH   1   2
BRANCH   1  13
ATOM     13  C   UNL     1     -25.744  -7.435 -13.423  1.00  0.00     0.008 C 
BRANCH  13  14
ATOM     14  C   UNL     1     -26.086  -7.036 -14.867  1.00  0.00    -0.003 C 
ATOM     15  C   UNL     1     -25.015  -6.151 -15.504  1.00  0.00     0.004 C 
ENDBRANCH  13  14
ENDBRANCH   1  13
TORSDOF 4
ENDMDL
MODEL 4
REMARK VINA RESULT:    -6.990      1.920      2.536
REMARK INTER + INTRA:          -8.595
REMARK INTER:                  -8.298
REMARK INTRA:                  -0.296
REMARK UNBOUND:                -0.175
REMARK SMILES CCCCc1oc(O)c2ccccc12
REMARK SMILES IDX 4 1 5 2 7 3 6 4 9 5 14 6 10 7 13 8 11 9 12 10 8 11 3 13 2 14
REMARK SMILES IDX 1 15
REMARK H PARENT 8 12
REMARK Flexibility Score: inf
ROOT
ATOM      1  C   UNL     1     -22.190 -10.314 -16.024  1.00  0.00     0.076 C 
ENDROOT
BRANCH   1   2
ATOM      2  C   UNL     1     -22.979 -10.346 -14.752  1.00  0.00     0.116 A 
ATOM      3  C   UNL     1     -23.750 -11.050 -12.880  1.00  0.00     0.290 A 
ATOM      4  O   UNL     1     -22.914 -11.322 -13.863  1.00  0.00    -0.430 OA
ATOM      5  C   UNL     1     -24.392  -9.859 -13.130  1.00  0.00     0.066 A 
ATOM      6  C   UNL     1     -23.903  -9.408 -14.325  1.00  0.00     0.027 A 
ATOM      7  C   UNL     1     -25.356  -9.156 -12.411  1.00  0.00     0.016 A 
ATOM      8  C   UNL     1     -24.349  -8.215 -14.896  1.00  0.00     0.012 A 
ATOM      9  C   UNL     1     -25.824  -7.947 -12.958  1.00  0.00     0.001 A 
ATOM     10  C   UNL     1     -25.323  -7.479 -14.196  1.00  0.00     0.001 A 
BRANCH   3  11
ATOM     11  O   UNL     1     -23.944 -11.860 -11.767  1.00  0.00    -0.480 OA
ATOM     12  H   UNL     1     -24.104 -11.450 -10.856  1.00  0.00     0.297 HD
ENDBRANCH   3  11
ENDBRANCH   1   2
BRANCH   1  13
ATOM     13  C   UNL     1     -21.338 -11.582 -16.156  1.00  0.00     0.008 C 
BRANCH  13  14
ATOM     14  C   UNL     1     -21.930 -12.589 -17.155  1.00  0.00    -0.003 C 
ATOM     15  C   UNL     1     -22.682 -13.728 -16.467  1.00  0.00     0.004 C 
ENDBRANCH  13  14
ENDBRANCH   1  13
TORSDOF 4
ENDMDL
MODEL 5
REMARK VINA RESULT:    -6.978      1.379      5.189
REMARK INTER + INTRA:          -8.580
REMARK INTER:                  -8.287
REMARK INTRA:                  -0.293
REMARK UNBOUND:                -0.175
REMARK SMILES CCCCc1oc(O)c2ccccc12
REMARK SMILES IDX 4 1 5 2 7 3 6 4 9 5 14 6 10 7 13 8 11 9 12 10 8 11 3 13 2 14
REMARK SMILES IDX 1 15
REMARK H PARENT 8 12
REMARK Flexibility Score: inf
ROOT
ATOM      1  C   UNL     1     -23.669  -9.127 -15.335  1.00  0.00     0.076 C 
ENDROOT
BRANCH   1   2
ATOM      2  C   UNL     1     -23.426 -10.193 -14.311  1.00  0.00     0.116 A 
ATOM      3  C   UNL     1     -23.682 -11.385 -12.547  1.00  0.00     0.290 A 
ATOM      4  O   UNL     1     -24.190 -10.390 -13.251  1.00  0.00    -0.430 OA
ATOM      5  C   UNL     1     -22.544 -11.855 -13.161  1.00  0.00     0.066 A 
ATOM      6  C   UNL     1     -22.377 -11.095 -14.286  1.00  0.00     0.027 A 
ATOM      7  C   UNL     1     -21.657 -12.872 -12.816  1.00  0.00     0.016 A 
ATOM      8  C   UNL     1     -21.301 -11.295 -15.152  1.00  0.00     0.012 A 
ATOM      9  C   UNL     1     -20.563 -13.101 -13.671  1.00  0.00     0.001 A 
ATOM     10  C   UNL     1     -20.385 -12.315 -14.833  1.00  0.00     0.001 A 
BRANCH   3  11
ATOM     11  O   UNL     1     -24.227 -11.868 -11.364  1.00  0.00    -0.480 OA
ATOM     12  H   UNL     1     -24.192 -12.857 -11.149  1.00  0.00     0.297 HD
ENDBRANCH   3  11
ENDBRANCH   1   2
BRANCH   1  13
ATOM     13  C   UNL     1     -23.773  -7.753 -14.662  1.00  0.00     0.008 C 
BRANCH  13  14
ATOM     14  C   UNL     1     -25.167  -7.125 -14.816  1.00  0.00    -0.003 C 
ATOM     15  C   UNL     1     -26.062  -7.370 -13.601  1.00  0.00     0.004 C 
ENDBRANCH  13  14
ENDBRANCH   1  13
TORSDOF 4
ENDMDL
MODEL 6
REMARK VINA RESULT:    -6.910      2.151      2.731
REMARK INTER + INTRA:          -8.499
REMARK INTER:                  -8.213
REMARK INTRA:                  -0.286
REMARK UNBOUND:                -0.175
REMARK SMILES CCCCc1oc(O)c2ccccc12
REMARK SMILES IDX 4 1 5 2 7 3 6 4 9 5 14 6 10 7 13 8 11 9 12 10 8 11 3 13 2 14
REMARK SMILES IDX 1 15
REMARK H PARENT 8 12
REMARK Flexibility Score: inf
ROOT
ATOM      1  C   UNL     1     -22.170 -11.878 -16.229  1.00  0.00     0.076 C 
ENDROOT
BRANCH   1   2
ATOM      2  C   UNL     1     -22.809 -11.446 -14.944  1.00  0.00     0.116 A 
ATOM      3  C   UNL     1     -23.572 -11.547 -12.943  1.00  0.00     0.290 A 
ATOM      4  O   UNL     1     -22.951 -12.228 -13.888  1.00  0.00    -0.430 OA
ATOM      5  C   UNL     1     -23.853 -10.278 -13.393  1.00  0.00     0.066 A 
ATOM      6  C   UNL     1     -23.369 -10.211 -14.671  1.00  0.00     0.027 A 
ATOM      7  C   UNL     1     -24.493  -9.199 -12.786  1.00  0.00     0.016 A 
ATOM      8  C   UNL     1     -23.493  -9.054 -15.442  1.00  0.00     0.012 A 
ATOM      9  C   UNL     1     -24.632  -8.017 -13.537  1.00  0.00     0.001 A 
ATOM     10  C   UNL     1     -24.134  -7.945 -14.860  1.00  0.00     0.001 A 
BRANCH   3  11
ATOM     11  O   UNL     1     -23.890 -12.055 -11.690  1.00  0.00    -0.480 OA
ATOM     12  H   UNL     1     -24.563 -11.582 -11.100  1.00  0.00     0.297 HD
ENDBRANCH   3  11
ENDBRANCH   1   2
BRANCH   1  13
ATOM     13  C   UNL     1     -22.798 -13.186 -16.724  1.00  0.00     0.008 C 
BRANCH  13  14
ATOM     14  C   UNL     1     -21.833 -14.378 -16.622  1.00  0.00    -0.003 C 
ATOM     15  C   UNL     1     -22.113 -15.260 -15.406  1.00  0.00     0.004 C 
ENDBRANCH  13  14
ENDBRANCH   1  13
TORSDOF 4
ENDMDL
MODEL 7
REMARK VINA RESULT:    -6.829      1.837      2.480
REMARK INTER + INTRA:          -8.401
REMARK INTER:                  -8.126
REMARK INTRA:                  -0.275
REMARK UNBOUND:                -0.175
REMARK SMILES CCCCc1oc(O)c2ccccc12
REMARK SMILES IDX 4 1 5 2 7 3 6 4 9 5 14 6 10 7 13 8 11 9 12 10 8 11 3 13 2 14
REMARK SMILES IDX 1 15
REMARK H PARENT 8 12
REMARK Flexibility Score: inf
ROOT
ATOM      1  C   UNL     1     -22.040 -10.809 -16.106  1.00  0.00     0.076 C 
ENDROOT
BRANCH   1   2
ATOM      2  C   UNL     1     -22.830 -10.702 -14.837  1.00  0.00     0.116 A 
ATOM      3  C   UNL     1     -23.656 -11.231 -12.931  1.00  0.00     0.290 A 
ATOM      4  O   UNL     1     -22.843 -11.627 -13.893  1.00  0.00    -0.430 OA
ATOM      5  C   UNL     1     -24.199 -10.009 -13.254  1.00  0.00     0.066 A 
ATOM      6  C   UNL     1     -23.675  -9.669 -14.471  1.00  0.00     0.027 A 
ATOM      7  C   UNL     1     -25.103  -9.189 -12.582  1.00  0.00     0.016 A 
ATOM      8  C   UNL     1     -24.023  -8.479 -15.112  1.00  0.00     0.012 A 
ATOM      9  C   UNL     1     -25.472  -7.980 -13.201  1.00  0.00     0.001 A 
ATOM     10  C   UNL     1     -24.934  -7.627 -14.461  1.00  0.00     0.001 A 
BRANCH   3  11
ATOM     11  O   UNL     1     -23.914 -11.956 -11.774  1.00  0.00    -0.480 OA
ATOM     12  H   UNL     1     -23.826 -12.965 -11.770  1.00  0.00     0.297 HD
ENDBRANCH   3  11
ENDBRANCH   1   2
BRANCH   1  13
ATOM     13  C   UNL     1     -21.173 -12.073 -16.090  1.00  0.00     0.008 C 
BRANCH  13  14
ATOM     14  C   UNL     1     -19.756 -11.809 -15.556  1.00  0.00    -0.003 C 
ATOM     15  C   UNL     1     -19.226 -10.430 -15.947  1.00  0.00     0.004 C 
ENDBRANCH  13  14
ENDBRANCH   1  13
TORSDOF 4
ENDMDL
MODEL 8
REMARK VINA RESULT:    -6.688      1.886      5.702
REMARK INTER + INTRA:          -8.231
REMARK INTER:                  -7.966
REMARK INTRA:                  -0.265
REMARK UNBOUND:                -0.175
REMARK SMILES CCCCc1oc(O)c2ccccc12
REMARK SMILES IDX 4 1 5 2 7 3 6 4 9 5 14 6 10 7 13 8 11 9 12 10 8 11 3 13 2 14
REMARK SMILES IDX 1 15
REMARK H PARENT 8 12
REMARK Flexibility Score: inf
ROOT
ATOM      1  C   UNL     1     -24.886  -9.393 -12.854  1.00  0.00     0.076 C 
ENDROOT
BRANCH   1   2
ATOM      2  C   UNL     1     -23.859  -9.948 -13.794  1.00  0.00     0.116 A 
ATOM      3  C   UNL     1     -22.613 -10.139 -15.527  1.00  0.00     0.290 A 
ATOM      4  O   UNL     1     -23.520  -9.382 -14.938  1.00  0.00    -0.430 OA
ATOM      5  C   UNL     1     -22.351 -11.242 -14.748  1.00  0.00     0.066 A 
ATOM      6  C   UNL     1     -23.146 -11.124 -13.642  1.00  0.00     0.027 A 
ATOM      7  C   UNL     1     -21.492 -12.323 -14.931  1.00  0.00     0.016 A 
ATOM      8  C   UNL     1     -23.144 -12.087 -12.632  1.00  0.00     0.012 A 
ATOM      9  C   UNL     1     -21.464 -13.311 -13.929  1.00  0.00     0.001 A 
ATOM     10  C   UNL     1     -22.287 -13.193 -12.784  1.00  0.00     0.001 A 
BRANCH   3  11
ATOM     11  O   UNL     1     -22.026  -9.850 -16.754  1.00  0.00    -0.480 OA
ATOM     12  H   UNL     1     -22.475  -9.214 -17.400  1.00  0.00     0.297 HD
ENDBRANCH   3  11
ENDBRANCH   1   2
BRANCH   1  13
ATOM     13  C   UNL     1     -24.922  -7.863 -12.946  1.00  0.00     0.008 C 
BRANCH  13  14
ATOM     14  C   UNL     1     -26.131  -7.349 -13.743  1.00  0.00    -0.003 C 
ATOM     15  C   UNL     1     -25.728  -6.664 -15.049  1.00  0.00     0.004 C 
ENDBRANCH  13  14
ENDBRANCH   1  13
TORSDOF 4
ENDMDL
MODEL 9
REMARK VINA RESULT:    -6.561      2.147      3.526
REMARK INTER + INTRA:          -8.079
REMARK INTER:                  -7.588
REMARK INTRA:                  -0.491
REMARK UNBOUND:                -0.175
REMARK SMILES CCCCc1oc(O)c2ccccc12
REMARK SMILES IDX 4 1 5 2 7 3 6 4 9 5 14 6 10 7 13 8 11 9 12 10 8 11 3 13 2 14
REMARK SMILES IDX 1 15
REMARK H PARENT 8 12
REMARK Flexibility Score: inf
ROOT
ATOM      1  C   UNL     1     -20.248 -13.461 -14.161  1.00  0.00     0.076 C 
ENDROOT
BRANCH   1   2
ATOM      2  C   UNL     1     -21.437 -12.681 -13.689  1.00  0.00     0.116 A 
ATOM      3  C   UNL     1     -23.118 -12.104 -12.490  1.00  0.00     0.290 A 
ATOM      4  O   UNL     1     -22.125 -12.967 -12.598  1.00  0.00    -0.430 OA
ATOM      5  C   UNL     1     -23.086 -11.224 -13.548  1.00  0.00     0.066 A 
ATOM      6  C   UNL     1     -22.016 -11.592 -14.316  1.00  0.00     0.027 A 
ATOM      7  C   UNL     1     -23.909 -10.153 -13.888  1.00  0.00     0.016 A 
ATOM      8  C   UNL     1     -21.689 -10.913 -15.491  1.00  0.00     0.012 A 
ATOM      9  C   UNL     1     -23.604  -9.445 -15.066  1.00  0.00     0.001 A 
ATOM     10  C   UNL     1     -22.500  -9.824 -15.864  1.00  0.00     0.001 A 
BRANCH   3  11
ATOM     11  O   UNL     1     -24.048 -12.102 -11.458  1.00  0.00    -0.480 OA
ATOM     12  H   UNL     1     -24.932 -12.583 -11.564  1.00  0.00     0.297 HD
ENDBRANCH   3  11
ENDBRANCH   1   2
BRANCH   1  13
ATOM     13  C   UNL     1     -20.582 -14.956 -14.228  1.00  0.00     0.008 C 
BRANCH  13  14
ATOM     14  C   UNL     1     -21.636 -15.276 -15.299  1.00  0.00    -0.003 C 
ATOM     15  C   UNL     1     -21.246 -14.761 -16.684  1.00  0.00     0.004 C 
ENDBRANCH  13  14
ENDBRANCH   1  13
TORSDOF 4
ENDMDL
