MODEL 1
REMARK VINA RESULT:    -3.811      0.000      0.000
REMARK INTER + INTRA:          -6.003
REMARK INTER:                  -5.817
REMARK INTRA:                  -0.186
REMARK UNBOUND:                -0.186
REMARK SMILES CC1=CCC[C@H](C)C(=O)C[C@H](C(C)C)C(=O)C1
REMARK SMILES IDX 8 1 9 2 6 3 7 4 5 5 4 6 3 7 2 8 1 9 10 11 11 12 15 13 16 14
REMARK SMILES IDX 17 15 12 17 13 18 14 19
REMARK H PARENT
REMARK Flexibility Score: 70.00
ROOT
ATOM      1  C   UNL     1      45.987  56.294  29.445  1.00  0.00     0.136 C 
ATOM      2  O   UNL     1      46.128  55.153  29.041  1.00  0.00    -0.299 OA
ENDROOT
BRANCH   1   3
ATOM      3  C   UNL     1      46.715  57.391  28.656  1.00  0.00     0.053 C 
ATOM      4  C   UNL     1      48.247  57.286  28.879  1.00  0.00     0.016 C 
BRANCH   3   5
ATOM      5  C   UNL     1      46.317  57.577  27.156  1.00  0.00     0.015 C 
BRANCH   5   6
ATOM      6  C   UNL     1      44.905  58.140  26.883  1.00  0.00     0.028 C 
BRANCH   6   7
ATOM      7  C   UNL     1      44.661  59.403  27.680  1.00  0.00    -0.028 C 
ATOM      8  C   UNL     1      43.719  59.552  28.649  1.00  0.00    -0.070 CG0
ATOM      9  C   UNL     1      43.669  60.852  29.446  1.00  0.00     0.039 C 
ATOM     10  G   UNL     1      42.665  58.509  28.915  1.00  0.00     0.000 G0
ENDBRANCH   6   7
ENDBRANCH   5   6
ENDBRANCH   3   5
ENDBRANCH   1   3
BRANCH   1  11
ATOM     11  C   UNL     1      45.264  56.481  30.765  1.00  0.00     0.087 C 
BRANCH  11  12
ATOM     12  C   UNL     1      43.716  56.726  30.726  1.00  0.00     0.066 C 
BRANCH  12  13
ATOM     13  C   UNL     1      43.078  57.100  29.366  1.00  0.00     0.140 C 
ATOM     14  O   UNL     1      42.655  56.184  28.646  1.00  0.00    -0.299 OA
BRANCH  13  15
ATOM     15  C   UNL     1      42.643  58.490  28.920  1.00  0.00     0.106 CG0
ATOM     16  G   UNL     1      43.695  59.533  28.646  1.00  0.00     0.000 G0
ENDBRANCH  13  15
ENDBRANCH  12  13
BRANCH  12  17
ATOM     17  C   UNL     1      42.869  55.642  31.504  1.00  0.00    -0.006 C 
ATOM     18  C   UNL     1      41.882  56.236  32.528  1.00  0.00     0.008 C 
ATOM     19  C   UNL     1      43.678  54.483  32.144  1.00  0.00     0.008 C 
ENDBRANCH  12  17
ENDBRANCH  11  12
ENDBRANCH   1  11
TORSDOF 1
ENDMDL
MODEL 2
REMARK VINA RESULT:    -3.789      2.951      5.409
REMARK INTER + INTRA:          -5.968
REMARK INTER:                  -5.575
REMARK INTRA:                  -0.393
REMARK UNBOUND:                -0.186
REMARK SMILES CC1=CCC[C@H](C)C(=O)C[C@H](C(C)C)C(=O)C1
REMARK SMILES IDX 8 1 9 2 6 3 7 4 5 5 4 6 3 7 2 8 1 9 10 11 11 12 15 13 16 14
REMARK SMILES IDX 17 15 12 17 13 18 14 19
REMARK H PARENT
REMARK Flexibility Score: 70.00
ROOT
ATOM      1  C   UNL     1      44.017  60.847  30.838  1.00  0.00     0.136 C 
ATOM      2  O   UNL     1      44.099  61.624  29.903  1.00  0.00    -0.299 OA
ENDROOT
BRANCH   1   3
ATOM      3  C   UNL     1      44.732  61.259  32.133  1.00  0.00     0.053 C 
ATOM      4  C   UNL     1      44.700  62.802  32.295  1.00  0.00     0.016 C 
BRANCH   3   5
ATOM      5  C   UNL     1      44.349  60.489  33.437  1.00  0.00     0.015 C 
BRANCH   5   6
ATOM      6  C   UNL     1      45.138  59.194  33.729  1.00  0.00     0.028 C 
BRANCH   6   7
ATOM      7  C   UNL     1      44.202  58.021  33.925  1.00  0.00    -0.028 C 
ATOM      8  C   UNL     1      44.194  56.887  33.175  1.00  0.00    -0.070 CG0
ATOM      9  C   UNL     1      43.267  55.741  33.567  1.00  0.00     0.039 C 
ATOM     10  G   UNL     1      45.011  56.747  31.917  1.00  0.00     0.000 G0
ENDBRANCH   6   7
ENDBRANCH   5   6
ENDBRANCH   3   5
ENDBRANCH   1   3
BRANCH   1  11
ATOM     11  C   UNL     1      43.375  59.500  30.569  1.00  0.00     0.087 C 
BRANCH  11  12
ATOM     12  C   UNL     1      44.248  58.396  29.877  1.00  0.00     0.066 C 
BRANCH  12  13
ATOM     13  C   UNL     1      44.347  57.015  30.570  1.00  0.00     0.140 C 
ATOM     14  O   UNL     1      44.085  56.004  29.900  1.00  0.00    -0.299 OA
BRANCH  13  15
ATOM     15  C   UNL     1      45.009  56.717  31.909  1.00  0.00     0.106 CG0
ATOM     16  G   UNL     1      44.208  56.884  33.174  1.00  0.00     0.000 G0
ENDBRANCH  13  15
ENDBRANCH  12  13
BRANCH  12  17
ATOM     17  C   UNL     1      44.014  58.267  28.320  1.00  0.00    -0.006 C 
ATOM     18  C   UNL     1      45.064  59.005  27.466  1.00  0.00     0.008 C 
ATOM     19  C   UNL     1      42.583  58.601  27.821  1.00  0.00     0.008 C 
ENDBRANCH  12  17
ENDBRANCH  11  12
ENDBRANCH   1  11
TORSDOF 1
ENDMDL
MODEL 3
REMARK VINA RESULT:    -3.703      2.080      3.677
REMARK INTER + INTRA:          -5.837
REMARK INTER:                  -5.680
REMARK INTRA:                  -0.158
REMARK UNBOUND:                -0.186
REMARK SMILES CC1=CCC[C@H](C)C(=O)C[C@H](C(C)C)C(=O)C1
REMARK SMILES IDX 8 1 9 2 6 3 7 4 5 5 4 6 3 7 2 8 1 9 10 11 11 12 15 13 16 14
REMARK SMILES IDX 17 15 12 17 13 18 14 19
REMARK H PARENT
REMARK Flexibility Score: 70.00
ROOT
ATOM      1  C   UNL     1      43.657  59.169  30.484  1.00  0.00     0.136 C 
ATOM      2  O   UNL     1      44.551  59.728  31.095  1.00  0.00    -0.299 OA
ENDROOT
BRANCH   1   3
ATOM      3  C   UNL     1      43.176  59.855  29.198  1.00  0.00     0.053 C 
ATOM      4  C   UNL     1      44.132  61.019  28.821  1.00  0.00     0.016 C 
BRANCH   3   5
ATOM      5  C   UNL     1      42.814  58.935  27.988  1.00  0.00     0.015 C 
BRANCH   5   6
ATOM      6  C   UNL     1      43.999  58.340  27.197  1.00  0.00     0.028 C 
BRANCH   6   7
ATOM      7  C   UNL     1      43.874  56.836  27.079  1.00  0.00    -0.028 C 
ATOM      8  C   UNL     1      44.479  55.930  27.892  1.00  0.00    -0.070 CG0
ATOM      9  C   UNL     1      44.163  54.447  27.719  1.00  0.00     0.039 C 
ATOM     10  G   UNL     1      45.515  56.326  28.910  1.00  0.00     0.000 G0
ENDBRANCH   6   7
ENDBRANCH   5   6
ENDBRANCH   3   5
ENDBRANCH   1   3
BRANCH   1  11
ATOM     11  C   UNL     1      43.008  57.969  31.145  1.00  0.00     0.087 C 
BRANCH  11  12
ATOM     12  C   UNL     1      43.673  56.565  30.933  1.00  0.00     0.066 C 
BRANCH  12  13
ATOM     13  C   UNL     1      45.116  56.526  30.375  1.00  0.00     0.140 C 
ATOM     14  O   UNL     1      46.053  56.418  31.180  1.00  0.00    -0.299 OA
BRANCH  13  15
ATOM     15  C   UNL     1      45.521  56.317  28.921  1.00  0.00     0.106 CG0
ATOM     16  G   UNL     1      44.467  55.937  27.916  1.00  0.00     0.000 G0
ENDBRANCH  13  15
ENDBRANCH  12  13
BRANCH  12  17
ATOM     17  C   UNL     1      43.474  55.565  32.141  1.00  0.00    -0.006 C 
ATOM     18  C   UNL     1      42.941  54.180  31.725  1.00  0.00     0.008 C 
ATOM     19  C   UNL     1      42.666  56.113  33.347  1.00  0.00     0.008 C 
ENDBRANCH  12  17
ENDBRANCH  11  12
ENDBRANCH   1  11
TORSDOF 1
ENDMDL
MODEL 4
REMARK VINA RESULT:    -3.685     18.496     20.099
REMARK INTER + INTRA:          -5.810
REMARK INTER:                  -5.638
REMARK INTRA:                  -0.172
REMARK UNBOUND:                -0.186
REMARK SMILES CC1=CCC[C@H](C)C(=O)C[C@H](C(C)C)C(=O)C1
REMARK SMILES IDX 8 1 9 2 6 3 7 4 5 5 4 6 3 7 2 8 1 9 10 11 11 12 15 13 16 14
REMARK SMILES IDX 17 15 12 17 13 18 14 19
REMARK H PARENT
REMARK Flexibility Score: 70.00
ROOT
ATOM      1  C   UNL     1      58.572  70.648  31.199  1.00  0.00     0.136 C 
ATOM      2  O   UNL     1      57.916  69.788  30.640  1.00  0.00    -0.299 OA
ENDROOT
BRANCH   1   3
ATOM      3  C   UNL     1      60.035  70.787  30.754  1.00  0.00     0.053 C 
ATOM      4  C   UNL     1      60.659  72.074  31.357  1.00  0.00     0.016 C 
BRANCH   3   5
ATOM      5  C   UNL     1      60.949  69.528  30.898  1.00  0.00     0.015 C 
BRANCH   5   6
ATOM      6  C   UNL     1      61.477  69.220  32.316  1.00  0.00     0.028 C 
BRANCH   6   7
ATOM      7  C   UNL     1      60.729  68.057  32.933  1.00  0.00    -0.028 C 
ATOM      8  C   UNL     1      60.006  68.109  34.083  1.00  0.00    -0.070 CG0
ATOM      9  C   UNL     1      59.212  66.881  34.518  1.00  0.00     0.039 C 
ATOM     10  G   UNL     1      60.021  69.310  34.991  1.00  0.00     0.000 G0
ENDBRANCH   6   7
ENDBRANCH   5   6
ENDBRANCH   3   5
ENDBRANCH   1   3
BRANCH   1  11
ATOM     11  C   UNL     1      57.932  71.357  32.377  1.00  0.00     0.087 C 
BRANCH  11  12
ATOM     12  C   UNL     1      57.928  70.622  33.762  1.00  0.00     0.066 C 
BRANCH  12  13
ATOM     13  C   UNL     1      59.257  70.567  34.554  1.00  0.00     0.140 C 
ATOM     14  O   UNL     1      59.656  71.605  35.102  1.00  0.00    -0.299 OA
BRANCH  13  15
ATOM     15  C   UNL     1      60.002  69.311  34.989  1.00  0.00     0.106 CG0
ATOM     16  G   UNL     1      60.008  68.112  34.077  1.00  0.00     0.000 G0
ENDBRANCH  13  15
ENDBRANCH  12  13
BRANCH  12  17
ATOM     17  C   UNL     1      56.698  70.987  34.685  1.00  0.00    -0.006 C 
ATOM     18  C   UNL     1      56.139  69.792  35.483  1.00  0.00     0.008 C 
ATOM     19  C   UNL     1      55.544  71.764  33.998  1.00  0.00     0.008 C 
ENDBRANCH  12  17
ENDBRANCH  11  12
ENDBRANCH   1  11
TORSDOF 1
ENDMDL
MODEL 5
REMARK VINA RESULT:    -3.637     17.965     19.875
REMARK INTER + INTRA:          -5.737
REMARK INTER:                  -5.650
REMARK INTRA:                  -0.087
REMARK UNBOUND:                -0.186
REMARK SMILES CC1=CCC[C@H](C)C(=O)C[C@H](C(C)C)C(=O)C1
REMARK SMILES IDX 8 1 9 2 6 3 7 4 5 5 4 6 3 7 2 8 1 9 10 11 11 12 15 13 16 14
REMARK SMILES IDX 17 15 12 17 13 18 14 19
REMARK H PARENT
REMARK Flexibility Score: 70.00
ROOT
ATOM      1  C   UNL     1      59.093  66.315  33.187  1.00  0.00     0.136 C 
ATOM      2  O   UNL     1      59.604  65.671  32.288  1.00  0.00    -0.299 OA
ENDROOT
BRANCH   1   3
ATOM      3  C   UNL     1      59.195  65.718  34.598  1.00  0.00     0.053 C 
ATOM      4  C   UNL     1      60.013  64.399  34.564  1.00  0.00     0.016 C 
BRANCH   3   5
ATOM      5  C   UNL     1      59.619  66.681  35.753  1.00  0.00     0.015 C 
BRANCH   5   6
ATOM      6  C   UNL     1      61.031  67.299  35.651  1.00  0.00     0.028 C 
BRANCH   6   7
ATOM      7  C   UNL     1      60.968  68.810  35.704  1.00  0.00    -0.028 C 
ATOM      8  C   UNL     1      61.141  69.643  34.643  1.00  0.00    -0.070 CG0
ATOM      9  C   UNL     1      60.934  71.142  34.832  1.00  0.00     0.039 C 
ATOM     10  G   UNL     1      61.611  69.149  33.300  1.00  0.00     0.000 G0
ENDBRANCH   6   7
ENDBRANCH   5   6
ENDBRANCH   3   5
ENDBRANCH   1   3
BRANCH   1  11
ATOM     11  C   UNL     1      58.271  67.527  32.794  1.00  0.00     0.087 C 
BRANCH  11  12
ATOM     12  C   UNL     1      59.037  68.831  32.383  1.00  0.00     0.066 C 
BRANCH  12  13
ATOM     13  C   UNL     1      60.577  68.751  32.244  1.00  0.00     0.140 C 
ATOM     14  O   UNL     1      61.054  68.567  31.115  1.00  0.00    -0.299 OA
BRANCH  13  15
ATOM     15  C   UNL     1      61.605  69.157  33.293  1.00  0.00     0.106 CG0
ATOM     16  G   UNL     1      61.127  69.641  34.637  1.00  0.00     0.000 G0
ENDBRANCH  13  15
ENDBRANCH  12  13
BRANCH  12  17
ATOM     17  C   UNL     1      58.372  69.625  31.189  1.00  0.00    -0.006 C 
ATOM     18  C   UNL     1      58.573  71.151  31.263  1.00  0.00     0.008 C 
ATOM     19  C   UNL     1      56.884  69.291  30.901  1.00  0.00     0.008 C 
ENDBRANCH  12  17
ENDBRANCH  11  12
ENDBRANCH   1  11
TORSDOF 1
ENDMDL
MODEL 6
REMARK VINA RESULT:    -3.637     16.078     18.005
REMARK INTER + INTRA:          -5.736
REMARK INTER:                  -5.350
REMARK INTRA:                  -0.387
REMARK UNBOUND:                -0.186
REMARK SMILES CC1=CCC[C@H](C)C(=O)C[C@H](C(C)C)C(=O)C1
REMARK SMILES IDX 8 1 9 2 6 3 7 4 5 5 4 6 3 7 2 8 1 9 10 11 11 12 15 13 16 14
REMARK SMILES IDX 17 15 12 17 13 18 14 19
REMARK H PARENT
REMARK Flexibility Score: 70.00
ROOT
ATOM      1  C   UNL     1      59.629  67.767  31.807  1.00  0.00     0.136 C 
ATOM      2  O   UNL     1      60.538  67.057  31.413  1.00  0.00    -0.299 OA
ENDROOT
BRANCH   1   3
ATOM      3  C   UNL     1      59.728  69.259  31.457  1.00  0.00     0.053 C 
ATOM      4  C   UNL     1      61.185  69.621  31.064  1.00  0.00     0.016 C 
BRANCH   3   5
ATOM      5  C   UNL     1      58.659  69.836  30.476  1.00  0.00     0.015 C 
BRANCH   5   6
ATOM      6  C   UNL     1      57.567  70.733  31.098  1.00  0.00     0.028 C 
BRANCH   6   7
ATOM      7  C   UNL     1      56.220  70.042  31.079  1.00  0.00    -0.028 C 
ATOM      8  C   UNL     1      55.527  69.641  32.177  1.00  0.00    -0.070 CG0
ATOM      9  C   UNL     1      54.127  69.061  32.002  1.00  0.00     0.039 C 
ATOM     10  G   UNL     1      56.120  69.671  33.561  1.00  0.00     0.000 G0
ENDBRANCH   6   7
ENDBRANCH   5   6
ENDBRANCH   3   5
ENDBRANCH   1   3
BRANCH   1  11
ATOM     11  C   UNL     1      58.606  67.139  32.733  1.00  0.00     0.087 C 
BRANCH  11  12
ATOM     12  C   UNL     1      58.200  67.931  34.024  1.00  0.00     0.066 C 
BRANCH  12  13
ATOM     13  C   UNL     1      56.730  68.396  34.154  1.00  0.00     0.140 C 
ATOM     14  O   UNL     1      56.008  67.830  34.988  1.00  0.00    -0.299 OA
BRANCH  13  15
ATOM     15  C   UNL     1      56.127  69.670  33.576  1.00  0.00     0.106 CG0
ATOM     16  G   UNL     1      55.530  69.635  32.194  1.00  0.00     0.000 G0
ENDBRANCH  13  15
ENDBRANCH  12  13
BRANCH  12  17
ATOM     17  C   UNL     1      58.748  67.304  35.367  1.00  0.00    -0.006 C 
ATOM     18  C   UNL     1      60.049  67.956  35.877  1.00  0.00     0.008 C 
ATOM     19  C   UNL     1      58.876  65.758  35.390  1.00  0.00     0.008 C 
ENDBRANCH  12  17
ENDBRANCH  11  12
ENDBRANCH   1  11
TORSDOF 1
ENDMDL
MODEL 7
REMARK VINA RESULT:    -3.633     17.848     20.094
REMARK INTER + INTRA:          -5.731
REMARK INTER:                  -5.414
REMARK INTRA:                  -0.317
REMARK UNBOUND:                -0.186
REMARK SMILES CC1=CCC[C@H](C)C(=O)C[C@H](C(C)C)C(=O)C1
REMARK SMILES IDX 8 1 9 2 6 3 7 4 5 5 4 6 3 7 2 8 1 9 10 11 11 12 15 13 16 14
REMARK SMILES IDX 17 15 12 17 13 18 14 19
REMARK H PARENT
REMARK Flexibility Score: 70.00
ROOT
ATOM      1  C   UNL     1      57.418  69.625  32.006  1.00  0.00     0.136 C 
ATOM      2  O   UNL     1      57.713  70.119  30.931  1.00  0.00    -0.299 OA
ENDROOT
BRANCH   1   3
ATOM      3  C   UNL     1      56.020  69.954  32.547  1.00  0.00     0.053 C 
ATOM      4  C   UNL     1      54.939  69.172  31.753  1.00  0.00     0.016 C 
BRANCH   3   5
ATOM      5  C   UNL     1      55.819  69.890  34.095  1.00  0.00     0.015 C 
BRANCH   5   6
ATOM      6  C   UNL     1      56.568  70.952  34.931  1.00  0.00     0.028 C 
BRANCH   6   7
ATOM      7  C   UNL     1      57.250  70.321  36.125  1.00  0.00    -0.028 C 
ATOM      8  C   UNL     1      58.583  70.373  36.389  1.00  0.00    -0.070 CG0
ATOM      9  C   UNL     1      59.107  69.786  37.696  1.00  0.00     0.039 C 
ATOM     10  G   UNL     1      59.579  70.920  35.400  1.00  0.00     0.000 G0
ENDBRANCH   6   7
ENDBRANCH   5   6
ENDBRANCH   3   5
ENDBRANCH   1   3
BRANCH   1  11
ATOM     11  C   UNL     1      58.513  68.896  32.760  1.00  0.00     0.087 C 
BRANCH  11  12
ATOM     12  C   UNL     1      59.870  69.646  32.991  1.00  0.00     0.066 C 
BRANCH  12  13
ATOM     13  C   UNL     1      60.287  69.950  34.451  1.00  0.00     0.140 C 
ATOM     14  O   UNL     1      61.407  69.576  34.830  1.00  0.00    -0.299 OA
BRANCH  13  15
ATOM     15  C   UNL     1      59.598  70.913  35.409  1.00  0.00     0.106 CG0
ATOM     16  G   UNL     1      58.577  70.375  36.378  1.00  0.00     0.000 G0
ENDBRANCH  13  15
ENDBRANCH  12  13
BRANCH  12  17
ATOM     17  C   UNL     1      61.073  69.088  32.131  1.00  0.00    -0.006 C 
ATOM     18  C   UNL     1      61.591  70.076  31.067  1.00  0.00     0.008 C 
ATOM     19  C   UNL     1      60.864  67.683  31.506  1.00  0.00     0.008 C 
ENDBRANCH  12  17
ENDBRANCH  11  12
ENDBRANCH   1  11
TORSDOF 1
ENDMDL
MODEL 8
REMARK VINA RESULT:    -3.577      2.167      3.870
REMARK INTER + INTRA:          -5.645
REMARK INTER:                  -5.337
REMARK INTRA:                  -0.309
REMARK UNBOUND:                -0.186
REMARK SMILES CC1=CCC[C@H](C)C(=O)C[C@H](C(C)C)C(=O)C1
REMARK SMILES IDX 8 1 9 2 6 3 7 4 5 5 4 6 3 7 2 8 1 9 10 11 11 12 15 13 16 14
REMARK SMILES IDX 17 15 12 17 13 18 14 19
REMARK H PARENT
REMARK Flexibility Score: 70.00
ROOT
ATOM      1  C   UNL     1      44.706  56.118  32.095  1.00  0.00     0.136 C 
ATOM      2  O   UNL     1      45.452  55.940  33.042  1.00  0.00    -0.299 OA
ENDROOT
BRANCH   1   3
ATOM      3  C   UNL     1      43.289  56.610  32.425  1.00  0.00     0.053 C 
ATOM      4  C   UNL     1      42.621  55.667  33.460  1.00  0.00     0.016 C 
BRANCH   3   5
ATOM      5  C   UNL     1      43.120  58.125  32.766  1.00  0.00     0.015 C 
BRANCH   5   6
ATOM      6  C   UNL     1      44.300  59.050  32.394  1.00  0.00     0.028 C 
BRANCH   6   7
ATOM      7  C   UNL     1      43.937  59.954  31.235  1.00  0.00    -0.028 C 
ATOM      8  C   UNL     1      44.400  59.824  29.963  1.00  0.00    -0.070 CG0
ATOM      9  C   UNL     1      43.853  60.744  28.876  1.00  0.00     0.039 C 
ATOM     10  G   UNL     1      45.495  58.857  29.598  1.00  0.00     0.000 G0
ENDBRANCH   6   7
ENDBRANCH   5   6
ENDBRANCH   3   5
ENDBRANCH   1   3
BRANCH   1  11
ATOM     11  C   UNL     1      45.195  55.671  30.731  1.00  0.00     0.087 C 
BRANCH  11  12
ATOM     12  C   UNL     1      44.507  56.290  29.465  1.00  0.00     0.066 C 
BRANCH  12  13
ATOM     13  C   UNL     1      45.139  57.561  28.848  1.00  0.00     0.140 C 
ATOM     14  O   UNL     1      45.150  57.669  27.613  1.00  0.00    -0.299 OA
BRANCH  13  15
ATOM     15  C   UNL     1      45.501  58.844  29.586  1.00  0.00     0.106 CG0
ATOM     16  G   UNL     1      44.403  59.803  29.967  1.00  0.00     0.000 G0
ENDBRANCH  13  15
ENDBRANCH  12  13
BRANCH  12  17
ATOM     17  C   UNL     1      44.103  55.230  28.365  1.00  0.00    -0.006 C 
ATOM     18  C   UNL     1      42.795  54.475  28.673  1.00  0.00     0.008 C 
ATOM     19  C   UNL     1      45.216  54.232  27.946  1.00  0.00     0.008 C 
ENDBRANCH  12  17
ENDBRANCH  11  12
ENDBRANCH   1  11
TORSDOF 1
ENDMDL
MODEL 9
REMARK VINA RESULT:    -3.553      2.462      4.388
REMARK INTER + INTRA:          -5.609
REMARK INTER:                  -5.445
REMARK INTRA:                  -0.164
REMARK UNBOUND:                -0.186
REMARK SMILES CC1=CCC[C@H](C)C(=O)C[C@H](C(C)C)C(=O)C1
REMARK SMILES IDX 8 1 9 2 6 3 7 4 5 5 4 6 3 7 2 8 1 9 10 11 11 12 15 13 16 14
REMARK SMILES IDX 17 15 12 17 13 18 14 19
REMARK H PARENT
REMARK Flexibility Score: 70.00
ROOT
ATOM      1  C   UNL     1      45.962  58.405  31.772  1.00  0.00     0.136 C 
ATOM      2  O   UNL     1      46.221  57.346  32.316  1.00  0.00    -0.299 OA
ENDROOT
BRANCH   1   3
ATOM      3  C   UNL     1      44.680  59.113  32.233  1.00  0.00     0.053 C 
ATOM      4  C   UNL     1      44.254  58.594  33.632  1.00  0.00     0.016 C 
BRANCH   3   5
ATOM      5  C   UNL     1      44.640  60.670  32.110  1.00  0.00     0.015 C 
BRANCH   5   6
ATOM      6  C   UNL     1      44.300  61.242  30.716  1.00  0.00     0.028 C 
BRANCH   6   7
ATOM      7  C   UNL     1      43.383  60.309  29.955  1.00  0.00    -0.028 C 
ATOM      8  C   UNL     1      43.713  59.633  28.823  1.00  0.00    -0.070 CG0
ATOM      9  C   UNL     1      42.717  58.639  28.233  1.00  0.00     0.039 C 
ATOM     10  G   UNL     1      44.997  59.886  28.078  1.00  0.00     0.000 G0
ENDBRANCH   6   7
ENDBRANCH   5   6
ENDBRANCH   3   5
ENDBRANCH   1   3
BRANCH   1  11
ATOM     11  C   UNL     1      46.827  58.812  30.595  1.00  0.00     0.087 C 
BRANCH  11  12
ATOM     12  C   UNL     1      46.647  58.033  29.247  1.00  0.00     0.066 C 
BRANCH  12  13
ATOM     13  C   UNL     1      46.074  58.808  28.035  1.00  0.00     0.140 C 
ATOM     14  O   UNL     1      46.313  58.377  26.898  1.00  0.00    -0.299 OA
BRANCH  13  15
ATOM     15  C   UNL     1      45.002  59.890  28.075  1.00  0.00     0.106 CG0
ATOM     16  G   UNL     1      43.724  59.626  28.828  1.00  0.00     0.000 G0
ENDBRANCH  13  15
ENDBRANCH  12  13
BRANCH  12  17
ATOM     17  C   UNL     1      47.883  57.133  28.848  1.00  0.00    -0.006 C 
ATOM     18  C   UNL     1      47.883  55.741  29.510  1.00  0.00     0.008 C 
ATOM     19  C   UNL     1      49.278  57.798  28.992  1.00  0.00     0.008 C 
ENDBRANCH  12  17
ENDBRANCH  11  12
ENDBRANCH   1  11
TORSDOF 1
ENDMDL
