MODEL 1
REMARK VINA RESULT:    -4.405      0.000      0.000
REMARK INTER + INTRA:         -12.190
REMARK INTER:                 -10.071
REMARK INTRA:                  -2.119
REMARK UNBOUND:                -2.119
REMARK SMILES CCCCCCCCCCCCCCCCCCCCCCCC(=O)[O-]
REMARK SMILES IDX 13 1 14 2 15 3 16 4 17 5 18 6 19 7 20 8 21 9 22 10 23 11
REMARK SMILES IDX 24 12 25 13 26 14 12 15 11 16 10 17 9 18 8 19 7 20 6 21 5 22
REMARK SMILES IDX 4 23 3 24 2 25 1 26
REMARK H PARENT
REMARK Flexibility Score: inf
ROOT
ATOM      1  C   UNL     1      44.766  65.139  52.258  1.00  0.00     0.000 C 
ENDROOT
BRANCH   1   2
ATOM      2  C   UNL     1      45.344  65.603  50.912  1.00  0.00     0.000 C 
BRANCH   2   3
ATOM      3  C   UNL     1      44.775  66.955  50.458  1.00  0.00     0.000 C 
BRANCH   3   4
ATOM      4  C   UNL     1      44.128  66.839  49.071  1.00  0.00     0.000 C 
BRANCH   4   5
ATOM      5  C   UNL     1      42.721  67.453  49.067  1.00  0.00     0.000 C 
BRANCH   5   6
ATOM      6  C   UNL     1      42.199  67.746  47.650  1.00  0.00     0.000 C 
BRANCH   6   7
ATOM      7  C   UNL     1      41.013  66.852  47.227  1.00  0.00     0.000 C 
BRANCH   7   8
ATOM      8  C   UNL     1      41.315  66.058  45.943  1.00  0.00     0.000 C 
BRANCH   8   9
ATOM      9  C   UNL     1      41.919  64.670  46.225  1.00  0.00     0.000 C 
BRANCH   9  10
ATOM     10  C   UNL     1      43.352  64.460  45.693  1.00  0.00     0.006 C 
BRANCH  10  11
ATOM     11  C   UNL     1      44.006  65.719  45.102  1.00  0.00     0.053 C 
BRANCH  11  12
ATOM     12  C   UNL     1      44.244  65.592  43.629  1.00  0.00     0.041 C 
ATOM     13  O   UNL     1      45.374  65.860  43.144  1.00  0.00    -0.550 OA
ATOM     14  O   UNL     1      43.205  65.214  42.787  1.00  0.00    -0.550 OA
ENDBRANCH  11  12
ENDBRANCH  10  11
ENDBRANCH   9  10
ENDBRANCH   8   9
ENDBRANCH   7   8
ENDBRANCH   6   7
ENDBRANCH   5   6
ENDBRANCH   4   5
ENDBRANCH   3   4
ENDBRANCH   2   3
ENDBRANCH   1   2
BRANCH   1  15
ATOM     15  C   UNL     1      43.699  66.101  52.805  1.00  0.00     0.000 C 
BRANCH  15  16
ATOM     16  C   UNL     1      42.959  65.483  53.997  1.00  0.00     0.000 C 
BRANCH  16  17
ATOM     17  C   UNL     1      43.665  64.207  54.481  1.00  0.00     0.000 C 
BRANCH  17  18
ATOM     18  C   UNL     1      43.556  64.006  56.002  1.00  0.00    -0.000 C 
BRANCH  18  19
ATOM     19  C   UNL     1      43.068  65.269  56.735  1.00  0.00    -0.000 C 
BRANCH  19  20
ATOM     20  C   UNL     1      41.761  65.035  57.523  1.00  0.00    -0.000 C 
BRANCH  20  21
ATOM     21  C   UNL     1      40.510  65.639  56.855  1.00  0.00    -0.000 C 
BRANCH  21  22
ATOM     22  C   UNL     1      39.886  64.786  55.734  1.00  0.00    -0.000 C 
BRANCH  22  23
ATOM     23  C   UNL     1      38.958  63.654  56.212  1.00  0.00    -0.000 C 
BRANCH  23  24
ATOM     24  C   UNL     1      37.508  64.122  56.427  1.00  0.00    -0.000 C 
BRANCH  24  25
ATOM     25  C   UNL     1      37.087  65.215  55.432  1.00  0.00    -0.003 C 
ATOM     26  C   UNL     1      35.806  64.868  54.674  1.00  0.00     0.004 C 
ENDBRANCH  24  25
ENDBRANCH  23  24
ENDBRANCH  22  23
ENDBRANCH  21  22
ENDBRANCH  20  21
ENDBRANCH  19  20
ENDBRANCH  18  19
ENDBRANCH  17  18
ENDBRANCH  16  17
ENDBRANCH  15  16
ENDBRANCH   1  15
TORSDOF 22
ENDMDL
MODEL 2
REMARK VINA RESULT:    -4.391      1.391      2.612
REMARK INTER + INTRA:         -12.157
REMARK INTER:                 -10.502
REMARK INTRA:                  -1.654
REMARK UNBOUND:                -2.119
REMARK SMILES CCCCCCCCCCCCCCCCCCCCCCCC(=O)[O-]
REMARK SMILES IDX 13 1 14 2 15 3 16 4 17 5 18 6 19 7 20 8 21 9 22 10 23 11
REMARK SMILES IDX 24 12 25 13 26 14 12 15 11 16 10 17 9 18 8 19 7 20 6 21 5 22
REMARK SMILES IDX 4 23 3 24 2 25 1 26
REMARK H PARENT
REMARK Flexibility Score: inf
ROOT
ATOM      1  C   UNL     1      42.943  65.520  53.856  1.00  0.00     0.000 C 
ENDROOT
BRANCH   1   2
ATOM      2  C   UNL     1      43.765  66.346  52.853  1.00  0.00     0.000 C 
BRANCH   2   3
ATOM      3  C   UNL     1      44.728  65.483  52.025  1.00  0.00     0.000 C 
BRANCH   3   4
ATOM      4  C   UNL     1      45.071  66.167  50.695  1.00  0.00     0.000 C 
BRANCH   4   5
ATOM      5  C   UNL     1      44.459  67.573  50.625  1.00  0.00     0.000 C 
BRANCH   5   6
ATOM      6  C   UNL     1      43.881  67.907  49.238  1.00  0.00     0.000 C 
BRANCH   6   7
ATOM      7  C   UNL     1      43.510  66.663  48.404  1.00  0.00     0.000 C 
BRANCH   7   8
ATOM      8  C   UNL     1      42.087  66.758  47.824  1.00  0.00     0.000 C 
BRANCH   8   9
ATOM      9  C   UNL     1      41.998  66.264  46.369  1.00  0.00     0.000 C 
BRANCH   9  10
ATOM     10  C   UNL     1      42.292  64.763  46.168  1.00  0.00     0.006 C 
BRANCH  10  11
ATOM     11  C   UNL     1      43.643  64.460  45.498  1.00  0.00     0.053 C 
BRANCH  11  12
ATOM     12  C   UNL     1      43.871  65.306  44.283  1.00  0.00     0.041 C 
ATOM     13  O   UNL     1      43.081  65.235  43.306  1.00  0.00    -0.550 OA
ATOM     14  O   UNL     1      44.977  66.144  44.215  1.00  0.00    -0.550 OA
ENDBRANCH  11  12
ENDBRANCH  10  11
ENDBRANCH   9  10
ENDBRANCH   8   9
ENDBRANCH   7   8
ENDBRANCH   6   7
ENDBRANCH   5   6
ENDBRANCH   4   5
ENDBRANCH   3   4
ENDBRANCH   2   3
ENDBRANCH   1   2
BRANCH   1  15
ATOM     15  C   UNL     1      43.643  64.212  54.256  1.00  0.00     0.000 C 
BRANCH  15  16
ATOM     16  C   UNL     1      43.671  64.047  55.781  1.00  0.00     0.000 C 
BRANCH  16  17
ATOM     17  C   UNL     1      42.729  65.051  56.460  1.00  0.00     0.000 C 
BRANCH  17  18
ATOM     18  C   UNL     1      41.685  64.373  57.363  1.00  0.00    -0.000 C 
BRANCH  18  19
ATOM     19  C   UNL     1      40.250  64.849  57.072  1.00  0.00    -0.000 C 
BRANCH  19  20
ATOM     20  C   UNL     1      39.959  64.980  55.561  1.00  0.00    -0.000 C 
BRANCH  20  21
ATOM     21  C   UNL     1      38.520  64.595  55.165  1.00  0.00    -0.000 C 
BRANCH  21  22
ATOM     22  C   UNL     1      37.749  63.766  56.210  1.00  0.00    -0.000 C 
BRANCH  22  23
ATOM     23  C   UNL     1      36.331  63.338  55.789  1.00  0.00    -0.000 C 
BRANCH  23  24
ATOM     24  C   UNL     1      36.158  61.809  55.743  1.00  0.00    -0.000 C 
BRANCH  24  25
ATOM     25  C   UNL     1      37.500  61.062  55.794  1.00  0.00    -0.003 C 
ATOM     26  C   UNL     1      37.386  59.602  55.357  1.00  0.00     0.004 C 
ENDBRANCH  24  25
ENDBRANCH  23  24
ENDBRANCH  22  23
ENDBRANCH  21  22
ENDBRANCH  20  21
ENDBRANCH  19  20
ENDBRANCH  18  19
ENDBRANCH  17  18
ENDBRANCH  16  17
ENDBRANCH  15  16
ENDBRANCH   1  15
TORSDOF 22
ENDMDL
MODEL 3
REMARK VINA RESULT:    -4.385      4.152     10.207
REMARK INTER + INTRA:         -12.144
REMARK INTER:                  -8.837
REMARK INTRA:                  -3.308
REMARK UNBOUND:                -2.119
REMARK SMILES CCCCCCCCCCCCCCCCCCCCCCCC(=O)[O-]
REMARK SMILES IDX 13 1 14 2 15 3 16 4 17 5 18 6 19 7 20 8 21 9 22 10 23 11
REMARK SMILES IDX 24 12 25 13 26 14 12 15 11 16 10 17 9 18 8 19 7 20 6 21 5 22
REMARK SMILES IDX 4 23 3 24 2 25 1 26
REMARK H PARENT
REMARK Flexibility Score: inf
ROOT
ATOM      1  C   UNL     1      40.877  65.431  47.311  1.00  0.00     0.000 C 
ENDROOT
BRANCH   1   2
ATOM      2  C   UNL     1      39.929  66.612  47.569  1.00  0.00     0.000 C 
BRANCH   2   3
ATOM      3  C   UNL     1      40.352  67.458  48.779  1.00  0.00     0.000 C 
BRANCH   3   4
ATOM      4  C   UNL     1      41.743  68.069  48.561  1.00  0.00     0.000 C 
BRANCH   4   5
ATOM      5  C   UNL     1      42.609  67.931  49.820  1.00  0.00     0.000 C 
BRANCH   5   6
ATOM      6  C   UNL     1      44.098  67.704  49.503  1.00  0.00     0.000 C 
BRANCH   6   7
ATOM      7  C   UNL     1      44.499  66.214  49.443  1.00  0.00     0.000 C 
BRANCH   7   8
ATOM      8  C   UNL     1      45.655  65.887  50.406  1.00  0.00     0.000 C 
BRANCH   8   9
ATOM      9  C   UNL     1      45.352  66.282  51.863  1.00  0.00     0.000 C 
BRANCH   9  10
ATOM     10  C   UNL     1      44.286  65.417  52.568  1.00  0.00     0.006 C 
BRANCH  10  11
ATOM     11  C   UNL     1      43.149  66.215  53.226  1.00  0.00     0.053 C 
BRANCH  11  12
ATOM     12  C   UNL     1      42.444  65.422  54.283  1.00  0.00     0.041 C 
ATOM     13  O   UNL     1      41.338  64.876  54.034  1.00  0.00    -0.550 OA
ATOM     14  O   UNL     1      42.991  65.318  55.557  1.00  0.00    -0.550 OA
ENDBRANCH  11  12
ENDBRANCH  10  11
ENDBRANCH   9  10
ENDBRANCH   8   9
ENDBRANCH   7   8
ENDBRANCH   6   7
ENDBRANCH   5   6
ENDBRANCH   4   5
ENDBRANCH   3   4
ENDBRANCH   2   3
ENDBRANCH   1   2
BRANCH   1  15
ATOM     15  C   UNL     1      41.345  65.358  45.849  1.00  0.00     0.000 C 
BRANCH  15  16
ATOM     16  C   UNL     1      42.725  64.696  45.744  1.00  0.00     0.000 C 
BRANCH  16  17
ATOM     17  C   UNL     1      43.825  65.633  46.265  1.00  0.00     0.000 C 
BRANCH  17  18
ATOM     18  C   UNL     1      43.745  67.043  45.656  1.00  0.00    -0.000 C 
BRANCH  18  19
ATOM     19  C   UNL     1      45.131  67.628  45.329  1.00  0.00    -0.000 C 
BRANCH  19  20
ATOM     20  C   UNL     1      45.457  67.583  43.821  1.00  0.00    -0.000 C 
BRANCH  20  21
ATOM     21  C   UNL     1      45.642  66.158  43.263  1.00  0.00    -0.000 C 
BRANCH  21  22
ATOM     22  C   UNL     1      44.441  65.598  42.476  1.00  0.00    -0.000 C 
BRANCH  22  23
ATOM     23  C   UNL     1      44.018  66.428  41.250  1.00  0.00    -0.000 C 
BRANCH  23  24
ATOM     24  C   UNL     1      42.491  66.499  41.075  1.00  0.00    -0.000 C 
BRANCH  24  25
ATOM     25  C   UNL     1      41.736  66.324  42.403  1.00  0.00    -0.003 C 
ATOM     26  C   UNL     1      41.233  67.646  42.981  1.00  0.00     0.004 C 
ENDBRANCH  24  25
ENDBRANCH  23  24
ENDBRANCH  22  23
ENDBRANCH  21  22
ENDBRANCH  20  21
ENDBRANCH  19  20
ENDBRANCH  18  19
ENDBRANCH  17  18
ENDBRANCH  16  17
ENDBRANCH  15  16
ENDBRANCH   1  15
TORSDOF 22
ENDMDL
MODEL 4
REMARK VINA RESULT:    -4.293      1.355      2.494
REMARK INTER + INTRA:         -11.933
REMARK INTER:                  -9.903
REMARK INTRA:                  -2.030
REMARK UNBOUND:                -2.119
REMARK SMILES CCCCCCCCCCCCCCCCCCCCCCCC(=O)[O-]
REMARK SMILES IDX 13 1 14 2 15 3 16 4 17 5 18 6 19 7 20 8 21 9 22 10 23 11
REMARK SMILES IDX 24 12 25 13 26 14 12 15 11 16 10 17 9 18 8 19 7 20 6 21 5 22
REMARK SMILES IDX 4 23 3 24 2 25 1 26
REMARK H PARENT
REMARK Flexibility Score: inf
ROOT
ATOM      1  C   UNL     1      43.628  66.187  52.864  1.00  0.00     0.000 C 
ENDROOT
BRANCH   1   2
ATOM      2  C   UNL     1      44.637  65.100  52.463  1.00  0.00     0.000 C 
BRANCH   2   3
ATOM      3  C   UNL     1      45.364  65.422  51.149  1.00  0.00     0.000 C 
BRANCH   3   4
ATOM      4  C   UNL     1      44.966  66.810  50.629  1.00  0.00     0.000 C 
BRANCH   4   5
ATOM      5  C   UNL     1      44.183  66.702  49.314  1.00  0.00     0.000 C 
BRANCH   5   6
ATOM      6  C   UNL     1      43.240  67.895  49.077  1.00  0.00     0.000 C 
BRANCH   6   7
ATOM      7  C   UNL     1      41.999  67.899  49.996  1.00  0.00     0.000 C 
BRANCH   7   8
ATOM      8  C   UNL     1      40.692  67.721  49.204  1.00  0.00     0.000 C 
BRANCH   8   9
ATOM      9  C   UNL     1      40.925  67.538  47.694  1.00  0.00     0.000 C 
BRANCH   9  10
ATOM     10  C   UNL     1      40.527  66.157  47.132  1.00  0.00     0.006 C 
BRANCH  10  11
ATOM     11  C   UNL     1      41.702  65.185  46.936  1.00  0.00     0.053 C 
BRANCH  11  12
ATOM     12  C   UNL     1      42.208  65.191  45.527  1.00  0.00     0.041 C 
ATOM     13  O   UNL     1      43.187  64.470  45.202  1.00  0.00    -0.550 OA
ATOM     14  O   UNL     1      41.623  66.024  44.580  1.00  0.00    -0.550 OA
ENDBRANCH  11  12
ENDBRANCH  10  11
ENDBRANCH   9  10
ENDBRANCH   8   9
ENDBRANCH   7   8
ENDBRANCH   6   7
ENDBRANCH   5   6
ENDBRANCH   4   5
ENDBRANCH   3   4
ENDBRANCH   2   3
ENDBRANCH   1   2
BRANCH   1  15
ATOM     15  C   UNL     1      42.537  65.660  53.809  1.00  0.00     0.000 C 
BRANCH  15  16
ATOM     16  C   UNL     1      43.128  64.711  54.859  1.00  0.00     0.000 C 
BRANCH  16  17
ATOM     17  C   UNL     1      42.204  64.598  56.080  1.00  0.00     0.000 C 
BRANCH  17  18
ATOM     18  C   UNL     1      41.976  65.946  56.784  1.00  0.00    -0.000 C 
BRANCH  18  19
ATOM     19  C   UNL     1      40.485  66.245  57.026  1.00  0.00    -0.000 C 
BRANCH  19  20
ATOM     20  C   UNL     1      39.554  65.402  56.128  1.00  0.00    -0.000 C 
BRANCH  20  21
ATOM     21  C   UNL     1      38.501  64.589  56.908  1.00  0.00    -0.000 C 
BRANCH  21  22
ATOM     22  C   UNL     1      37.845  63.438  56.122  1.00  0.00    -0.000 C 
BRANCH  22  23
ATOM     23  C   UNL     1      36.351  63.632  55.802  1.00  0.00    -0.000 C 
BRANCH  23  24
ATOM     24  C   UNL     1      36.114  64.554  54.594  1.00  0.00    -0.000 C 
BRANCH  24  25
ATOM     25  C   UNL     1      35.576  65.935  55.002  1.00  0.00    -0.003 C 
ATOM     26  C   UNL     1      34.109  65.900  55.429  1.00  0.00     0.004 C 
ENDBRANCH  24  25
ENDBRANCH  23  24
ENDBRANCH  22  23
ENDBRANCH  21  22
ENDBRANCH  20  21
ENDBRANCH  19  20
ENDBRANCH  18  19
ENDBRANCH  17  18
ENDBRANCH  16  17
ENDBRANCH  15  16
ENDBRANCH   1  15
TORSDOF 22
ENDMDL
MODEL 5
REMARK VINA RESULT:    -4.265      1.924      4.106
REMARK INTER + INTRA:         -11.870
REMARK INTER:                  -9.440
REMARK INTRA:                  -2.431
REMARK UNBOUND:                -2.119
REMARK SMILES CCCCCCCCCCCCCCCCCCCCCCCC(=O)[O-]
REMARK SMILES IDX 13 1 14 2 15 3 16 4 17 5 18 6 19 7 20 8 21 9 22 10 23 11
REMARK SMILES IDX 24 12 25 13 26 14 12 15 11 16 10 17 9 18 8 19 7 20 6 21 5 22
REMARK SMILES IDX 4 23 3 24 2 25 1 26
REMARK H PARENT
REMARK Flexibility Score: inf
ROOT
ATOM      1  C   UNL     1      43.035  67.704  49.659  1.00  0.00     0.000 C 
ENDROOT
BRANCH   1   2
ATOM      2  C   UNL     1      41.971  68.032  48.600  1.00  0.00     0.000 C 
BRANCH   2   3
ATOM      3  C   UNL     1      40.571  67.539  48.995  1.00  0.00     0.000 C 
BRANCH   3   4
ATOM      4  C   UNL     1      40.016  66.566  47.946  1.00  0.00     0.000 C 
BRANCH   4   5
ATOM      5  C   UNL     1      41.038  66.322  46.827  1.00  0.00     0.000 C 
BRANCH   5   6
ATOM      6  C   UNL     1      41.276  64.828  46.547  1.00  0.00     0.000 C 
BRANCH   6   7
ATOM      7  C   UNL     1      42.653  64.526  45.917  1.00  0.00     0.000 C 
BRANCH   7   8
ATOM      8  C   UNL     1      43.449  65.810  45.622  1.00  0.00     0.000 C 
BRANCH   8   9
ATOM      9  C   UNL     1      44.604  65.586  44.630  1.00  0.00     0.000 C 
BRANCH   9  10
ATOM     10  C   UNL     1      44.357  66.126  43.205  1.00  0.00     0.006 C 
BRANCH  10  11
ATOM     11  C   UNL     1      43.337  65.321  42.385  1.00  0.00     0.053 C 
BRANCH  11  12
ATOM     12  C   UNL     1      42.085  66.101  42.123  1.00  0.00     0.041 C 
ATOM     13  O   UNL     1      41.967  66.771  41.064  1.00  0.00    -0.550 OA
ATOM     14  O   UNL     1      41.065  66.118  43.066  1.00  0.00    -0.550 OA
ENDBRANCH  11  12
ENDBRANCH  10  11
ENDBRANCH   9  10
ENDBRANCH   8   9
ENDBRANCH   7   8
ENDBRANCH   6   7
ENDBRANCH   5   6
ENDBRANCH   4   5
ENDBRANCH   3   4
ENDBRANCH   2   3
ENDBRANCH   1   2
BRANCH   1  15
ATOM     15  C   UNL     1      44.006  66.605  49.198  1.00  0.00     0.000 C 
BRANCH  15  16
ATOM     16  C   UNL     1      45.197  66.484  50.158  1.00  0.00     0.000 C 
BRANCH  16  17
ATOM     17  C   UNL     1      44.898  65.482  51.282  1.00  0.00     0.000 C 
BRANCH  17  18
ATOM     18  C   UNL     1      44.456  66.164  52.588  1.00  0.00    -0.000 C 
BRANCH  18  19
ATOM     19  C   UNL     1      43.541  65.270  53.444  1.00  0.00    -0.000 C 
BRANCH  19  20
ATOM     20  C   UNL     1      42.136  65.877  53.649  1.00  0.00    -0.000 C 
BRANCH  20  21
ATOM     21  C   UNL     1      41.126  64.911  54.298  1.00  0.00    -0.000 C 
BRANCH  21  22
ATOM     22  C   UNL     1      40.797  65.196  55.776  1.00  0.00    -0.000 C 
BRANCH  22  23
ATOM     23  C   UNL     1      41.644  64.414  56.797  1.00  0.00    -0.000 C 
BRANCH  23  24
ATOM     24  C   UNL     1      42.953  65.134  57.164  1.00  0.00    -0.000 C 
BRANCH  24  25
ATOM     25  C   UNL     1      44.138  64.167  57.309  1.00  0.00    -0.003 C 
ATOM     26  C   UNL     1      44.126  63.050  56.265  1.00  0.00     0.004 C 
ENDBRANCH  24  25
ENDBRANCH  23  24
ENDBRANCH  22  23
ENDBRANCH  21  22
ENDBRANCH  20  21
ENDBRANCH  19  20
ENDBRANCH  18  19
ENDBRANCH  17  18
ENDBRANCH  16  17
ENDBRANCH  15  16
ENDBRANCH   1  15
TORSDOF 22
ENDMDL
MODEL 6
REMARK VINA RESULT:    -4.256      4.635     10.481
REMARK INTER + INTRA:         -11.848
REMARK INTER:                  -8.969
REMARK INTRA:                  -2.880
REMARK UNBOUND:                -2.119
REMARK SMILES CCCCCCCCCCCCCCCCCCCCCCCC(=O)[O-]
REMARK SMILES IDX 13 1 14 2 15 3 16 4 17 5 18 6 19 7 20 8 21 9 22 10 23 11
REMARK SMILES IDX 24 12 25 13 26 14 12 15 11 16 10 17 9 18 8 19 7 20 6 21 5 22
REMARK SMILES IDX 4 23 3 24 2 25 1 26
REMARK H PARENT
REMARK Flexibility Score: inf
ROOT
ATOM      1  C   UNL     1      40.221  66.973  48.195  1.00  0.00     0.000 C 
ENDROOT
BRANCH   1   2
ATOM      2  C   UNL     1      40.581  68.120  49.153  1.00  0.00     0.000 C 
BRANCH   2   3
ATOM      3  C   UNL     1      41.715  67.749  50.119  1.00  0.00     0.000 C 
BRANCH   3   4
ATOM      4  C   UNL     1      43.082  68.125  49.530  1.00  0.00     0.000 C 
BRANCH   4   5
ATOM      5  C   UNL     1      44.219  67.738  50.485  1.00  0.00     0.000 C 
BRANCH   5   6
ATOM      6  C   UNL     1      44.822  66.357  50.172  1.00  0.00     0.000 C 
BRANCH   6   7
ATOM      7  C   UNL     1      45.010  65.464  51.418  1.00  0.00     0.000 C 
BRANCH   7   8
ATOM      8  C   UNL     1      44.103  65.898  52.584  1.00  0.00     0.000 C 
BRANCH   8   9
ATOM      9  C   UNL     1      43.757  64.741  53.537  1.00  0.00     0.000 C 
BRANCH   9  10
ATOM     10  C   UNL     1      42.450  64.921  54.339  1.00  0.00     0.006 C 
BRANCH  10  11
ATOM     11  C   UNL     1      42.639  65.515  55.744  1.00  0.00     0.053 C 
BRANCH  11  12
ATOM     12  C   UNL     1      42.914  64.459  56.769  1.00  0.00     0.041 C 
ATOM     13  O   UNL     1      41.965  63.932  57.406  1.00  0.00    -0.550 OA
ATOM     14  O   UNL     1      44.223  64.083  57.049  1.00  0.00    -0.550 OA
ENDBRANCH  11  12
ENDBRANCH  10  11
ENDBRANCH   9  10
ENDBRANCH   8   9
ENDBRANCH   7   8
ENDBRANCH   6   7
ENDBRANCH   5   6
ENDBRANCH   4   5
ENDBRANCH   3   4
ENDBRANCH   2   3
ENDBRANCH   1   2
BRANCH   1  15
ATOM     15  C   UNL     1      40.442  67.346  46.720  1.00  0.00     0.000 C 
BRANCH  15  16
ATOM     16  C   UNL     1      41.266  66.272  45.998  1.00  0.00     0.000 C 
BRANCH  16  17
ATOM     17  C   UNL     1      42.185  65.531  46.981  1.00  0.00     0.000 C 
BRANCH  17  18
ATOM     18  C   UNL     1      43.678  65.752  46.685  1.00  0.00    -0.000 C 
BRANCH  18  19
ATOM     19  C   UNL     1      43.943  67.057  45.911  1.00  0.00    -0.000 C 
BRANCH  19  20
ATOM     20  C   UNL     1      44.681  66.820  44.576  1.00  0.00    -0.000 C 
BRANCH  20  21
ATOM     21  C   UNL     1      44.259  65.529  43.848  1.00  0.00    -0.000 C 
BRANCH  21  22
ATOM     22  C   UNL     1      44.503  65.521  42.327  1.00  0.00    -0.000 C 
BRANCH  22  23
ATOM     23  C   UNL     1      43.276  65.161  41.469  1.00  0.00    -0.000 C 
BRANCH  23  24
ATOM     24  C   UNL     1      41.965  65.739  42.029  1.00  0.00    -0.000 C 
BRANCH  24  25
ATOM     25  C   UNL     1      41.790  67.230  41.701  1.00  0.00    -0.003 C 
ATOM     26  C   UNL     1      41.534  68.086  42.941  1.00  0.00     0.004 C 
ENDBRANCH  24  25
ENDBRANCH  23  24
ENDBRANCH  22  23
ENDBRANCH  21  22
ENDBRANCH  20  21
ENDBRANCH  19  20
ENDBRANCH  18  19
ENDBRANCH  17  18
ENDBRANCH  16  17
ENDBRANCH  15  16
ENDBRANCH   1  15
TORSDOF 22
ENDMDL
MODEL 7
REMARK VINA RESULT:    -4.233      9.563     12.584
REMARK INTER + INTRA:         -11.796
REMARK INTER:                 -10.072
REMARK INTRA:                  -1.724
REMARK UNBOUND:                -2.119
REMARK SMILES CCCCCCCCCCCCCCCCCCCCCCCC(=O)[O-]
REMARK SMILES IDX 13 1 14 2 15 3 16 4 17 5 18 6 19 7 20 8 21 9 22 10 23 11
REMARK SMILES IDX 24 12 25 13 26 14 12 15 11 16 10 17 9 18 8 19 7 20 6 21 5 22
REMARK SMILES IDX 4 23 3 24 2 25 1 26
REMARK H PARENT
REMARK Flexibility Score: inf
ROOT
ATOM      1  C   UNL     1      36.265  63.732  56.059  1.00  0.00     0.000 C 
ENDROOT
BRANCH   1   2
ATOM      2  C   UNL     1      36.555  62.328  55.507  1.00  0.00     0.000 C 
BRANCH   2   3
ATOM      3  C   UNL     1      37.676  61.610  56.274  1.00  0.00     0.000 C 
BRANCH   3   4
ATOM      4  C   UNL     1      37.252  60.187  56.660  1.00  0.00     0.000 C 
BRANCH   4   5
ATOM      5  C   UNL     1      36.953  59.344  55.413  1.00  0.00     0.000 C 
BRANCH   5   6
ATOM      6  C   UNL     1      37.279  57.853  55.604  1.00  0.00     0.000 C 
BRANCH   6   7
ATOM      7  C   UNL     1      37.814  57.509  57.011  1.00  0.00     0.000 C 
BRANCH   7   8
ATOM      8  C   UNL     1      37.335  56.127  57.491  1.00  0.00     0.000 C 
BRANCH   8   9
ATOM      9  C   UNL     1      36.488  55.388  56.440  1.00  0.00     0.000 C 
BRANCH   9  10
ATOM     10  C   UNL     1      35.380  54.479  57.013  1.00  0.00     0.006 C 
BRANCH  10  11
ATOM     11  C   UNL     1      35.311  53.079  56.380  1.00  0.00     0.053 C 
BRANCH  11  12
ATOM     12  C   UNL     1      34.010  52.843  55.677  1.00  0.00     0.041 C 
ATOM     13  O   UNL     1      32.922  52.995  56.290  1.00  0.00    -0.550 OA
ATOM     14  O   UNL     1      34.001  52.419  54.353  1.00  0.00    -0.550 OA
ENDBRANCH  11  12
ENDBRANCH  10  11
ENDBRANCH   9  10
ENDBRANCH   8   9
ENDBRANCH   7   8
ENDBRANCH   6   7
ENDBRANCH   5   6
ENDBRANCH   4   5
ENDBRANCH   3   4
ENDBRANCH   2   3
ENDBRANCH   1   2
BRANCH   1  15
ATOM     15  C   UNL     1      35.735  64.691  54.981  1.00  0.00     0.000 C 
BRANCH  15  16
ATOM     16  C   UNL     1      36.323  66.097  55.157  1.00  0.00     0.000 C 
BRANCH  16  17
ATOM     17  C   UNL     1      36.178  66.575  56.610  1.00  0.00     0.000 C 
BRANCH  17  18
ATOM     18  C   UNL     1      35.657  68.019  56.714  1.00  0.00    -0.000 C 
BRANCH  18  19
ATOM     19  C   UNL     1      34.351  68.122  57.522  1.00  0.00    -0.000 C 
BRANCH  19  20
ATOM     20  C   UNL     1      33.331  67.023  57.150  1.00  0.00    -0.000 C 
BRANCH  20  21
ATOM     21  C   UNL     1      32.354  67.430  56.029  1.00  0.00    -0.000 C 
BRANCH  21  22
ATOM     22  C   UNL     1      32.504  66.648  54.710  1.00  0.00    -0.000 C 
BRANCH  22  23
ATOM     23  C   UNL     1      31.482  67.009  53.616  1.00  0.00    -0.000 C 
BRANCH  23  24
ATOM     24  C   UNL     1      32.077  67.904  52.515  1.00  0.00    -0.000 C 
BRANCH  24  25
ATOM     25  C   UNL     1      33.379  67.334  51.932  1.00  0.00    -0.003 C 
ATOM     26  C   UNL     1      34.628  68.041  52.460  1.00  0.00     0.004 C 
ENDBRANCH  24  25
ENDBRANCH  23  24
ENDBRANCH  22  23
ENDBRANCH  21  22
ENDBRANCH  20  21
ENDBRANCH  19  20
ENDBRANCH  18  19
ENDBRANCH  17  18
ENDBRANCH  16  17
ENDBRANCH  15  16
ENDBRANCH   1  15
TORSDOF 22
ENDMDL
MODEL 8
REMARK VINA RESULT:    -4.225      4.247     10.152
REMARK INTER + INTRA:         -11.778
REMARK INTER:                  -9.177
REMARK INTRA:                  -2.601
REMARK UNBOUND:                -2.119
REMARK SMILES CCCCCCCCCCCCCCCCCCCCCCCC(=O)[O-]
REMARK SMILES IDX 13 1 14 2 15 3 16 4 17 5 18 6 19 7 20 8 21 9 22 10 23 11
REMARK SMILES IDX 24 12 25 13 26 14 12 15 11 16 10 17 9 18 8 19 7 20 6 21 5 22
REMARK SMILES IDX 4 23 3 24 2 25 1 26
REMARK H PARENT
REMARK Flexibility Score: inf
ROOT
ATOM      1  C   UNL     1      43.153  67.752  49.587  1.00  0.00     0.000 C 
ENDROOT
BRANCH   1   2
ATOM      2  C   UNL     1      44.398  67.505  50.453  1.00  0.00     0.000 C 
BRANCH   2   3
ATOM      3  C   UNL     1      45.074  66.160  50.150  1.00  0.00     0.000 C 
BRANCH   3   4
ATOM      4  C   UNL     1      45.094  65.264  51.396  1.00  0.00     0.000 C 
BRANCH   4   5
ATOM      5  C   UNL     1      44.352  65.928  52.564  1.00  0.00     0.000 C 
BRANCH   5   6
ATOM      6  C   UNL     1      43.598  64.918  53.447  1.00  0.00     0.000 C 
BRANCH   6   7
ATOM      7  C   UNL     1      42.569  65.571  54.396  1.00  0.00     0.000 C 
BRANCH   7   8
ATOM      8  C   UNL     1      41.142  65.050  54.148  1.00  0.00     0.000 C 
BRANCH   8   9
ATOM      9  C   UNL     1      40.271  65.061  55.417  1.00  0.00     0.000 C 
BRANCH   9  10
ATOM     10  C   UNL     1      38.832  64.536  55.228  1.00  0.00     0.006 C 
BRANCH  10  11
ATOM     11  C   UNL     1      37.778  65.232  56.105  1.00  0.00     0.053 C 
BRANCH  11  12
ATOM     12  C   UNL     1      36.385  64.981  55.615  1.00  0.00     0.041 C 
ATOM     13  O   UNL     1      36.193  64.512  54.463  1.00  0.00    -0.550 OA
ATOM     14  O   UNL     1      35.296  65.301  56.418  1.00  0.00    -0.550 OA
ENDBRANCH  11  12
ENDBRANCH  10  11
ENDBRANCH   9  10
ENDBRANCH   8   9
ENDBRANCH   7   8
ENDBRANCH   6   7
ENDBRANCH   5   6
ENDBRANCH   4   5
ENDBRANCH   3   4
ENDBRANCH   2   3
ENDBRANCH   1   2
BRANCH   1  15
ATOM     15  C   UNL     1      41.855  67.765  50.409  1.00  0.00     0.000 C 
BRANCH  15  16
ATOM     16  C   UNL     1      40.625  67.849  49.496  1.00  0.00     0.000 C 
BRANCH  16  17
ATOM     17  C   UNL     1      41.041  68.019  48.028  1.00  0.00     0.000 C 
BRANCH  17  18
ATOM     18  C   UNL     1      40.266  67.092  47.077  1.00  0.00    -0.000 C 
BRANCH  18  19
ATOM     19  C   UNL     1      41.190  66.310  46.126  1.00  0.00    -0.000 C 
BRANCH  19  20
ATOM     20  C   UNL     1      42.102  65.310  46.869  1.00  0.00    -0.000 C 
BRANCH  20  21
ATOM     21  C   UNL     1      43.608  65.547  46.639  1.00  0.00    -0.000 C 
BRANCH  21  22
ATOM     22  C   UNL     1      43.975  66.920  46.045  1.00  0.00    -0.000 C 
BRANCH  22  23
ATOM     23  C   UNL     1      44.595  66.878  44.636  1.00  0.00    -0.000 C 
BRANCH  23  24
ATOM     24  C   UNL     1      44.400  65.521  43.938  1.00  0.00    -0.000 C 
BRANCH  24  25
ATOM     25  C   UNL     1      43.221  65.529  42.952  1.00  0.00    -0.003 C 
ATOM     26  C   UNL     1      42.682  66.933  42.678  1.00  0.00     0.004 C 
ENDBRANCH  24  25
ENDBRANCH  23  24
ENDBRANCH  22  23
ENDBRANCH  21  22
ENDBRANCH  20  21
ENDBRANCH  19  20
ENDBRANCH  18  19
ENDBRANCH  17  18
ENDBRANCH  16  17
ENDBRANCH  15  16
ENDBRANCH   1  15
TORSDOF 22
ENDMDL
MODEL 9
REMARK VINA RESULT:    -4.217      4.420     10.128
REMARK INTER + INTRA:         -11.759
REMARK INTER:                  -9.915
REMARK INTRA:                  -1.844
REMARK UNBOUND:                -2.119
REMARK SMILES CCCCCCCCCCCCCCCCCCCCCCCC(=O)[O-]
REMARK SMILES IDX 13 1 14 2 15 3 16 4 17 5 18 6 19 7 20 8 21 9 22 10 23 11
REMARK SMILES IDX 24 12 25 13 26 14 12 15 11 16 10 17 9 18 8 19 7 20 6 21 5 22
REMARK SMILES IDX 4 23 3 24 2 25 1 26
REMARK H PARENT
REMARK Flexibility Score: inf
ROOT
ATOM      1  C   UNL     1      45.511  65.601  50.464  1.00  0.00     0.000 C 
ENDROOT
BRANCH   1   2
ATOM      2  C   UNL     1      45.158  66.125  51.864  1.00  0.00     0.000 C 
BRANCH   2   3
ATOM      3  C   UNL     1      44.387  65.096  52.705  1.00  0.00     0.000 C 
BRANCH   3   4
ATOM      4  C   UNL     1      43.169  65.742  53.379  1.00  0.00     0.000 C 
BRANCH   4   5
ATOM      5  C   UNL     1      42.749  64.955  54.627  1.00  0.00     0.000 C 
BRANCH   5   6
ATOM      6  C   UNL     1      41.251  65.096  54.951  1.00  0.00     0.000 C 
BRANCH   6   7
ATOM      7  C   UNL     1      40.951  65.226  56.460  1.00  0.00     0.000 C 
BRANCH   7   8
ATOM      8  C   UNL     1      39.976  64.141  56.952  1.00  0.00     0.000 C 
BRANCH   8   9
ATOM      9  C   UNL     1      38.500  64.542  56.786  1.00  0.00     0.000 C 
BRANCH   9  10
ATOM     10  C   UNL     1      37.590  63.456  56.174  1.00  0.00     0.006 C 
BRANCH  10  11
ATOM     11  C   UNL     1      38.224  62.057  56.105  1.00  0.00     0.053 C 
BRANCH  11  12
ATOM     12  C   UNL     1      37.231  61.009  55.708  1.00  0.00     0.041 C 
ATOM     13  O   UNL     1      37.608  59.826  55.500  1.00  0.00    -0.550 OA
ATOM     14  O   UNL     1      35.895  61.347  55.530  1.00  0.00    -0.550 OA
ENDBRANCH  11  12
ENDBRANCH  10  11
ENDBRANCH   9  10
ENDBRANCH   8   9
ENDBRANCH   7   8
ENDBRANCH   6   7
ENDBRANCH   5   6
ENDBRANCH   4   5
ENDBRANCH   3   4
ENDBRANCH   2   3
ENDBRANCH   1   2
BRANCH   1  15
ATOM     15  C   UNL     1      44.737  66.325  49.351  1.00  0.00     0.000 C 
BRANCH  15  16
ATOM     16  C   UNL     1      43.958  67.522  49.910  1.00  0.00     0.000 C 
BRANCH  16  17
ATOM     17  C   UNL     1      42.863  67.971  48.932  1.00  0.00     0.000 C 
BRANCH  17  18
ATOM     18  C   UNL     1      41.444  67.750  49.483  1.00  0.00    -0.000 C 
BRANCH  18  19
ATOM     19  C   UNL     1      40.474  67.198  48.422  1.00  0.00    -0.000 C 
BRANCH  19  20
ATOM     20  C   UNL     1      40.739  67.775  47.014  1.00  0.00    -0.000 C 
BRANCH  20  21
ATOM     21  C   UNL     1      40.977  66.702  45.933  1.00  0.00    -0.000 C 
BRANCH  21  22
ATOM     22  C   UNL     1      41.429  65.326  46.459  1.00  0.00    -0.000 C 
BRANCH  22  23
ATOM     23  C   UNL     1      42.954  65.134  46.565  1.00  0.00    -0.000 C 
BRANCH  23  24
ATOM     24  C   UNL     1      43.556  64.449  45.326  1.00  0.00    -0.000 C 
BRANCH  24  25
ATOM     25  C   UNL     1      44.129  65.455  44.315  1.00  0.00    -0.003 C 
ATOM     26  C   UNL     1      43.371  65.463  42.988  1.00  0.00     0.004 C 
ENDBRANCH  24  25
ENDBRANCH  23  24
ENDBRANCH  22  23
ENDBRANCH  21  22
ENDBRANCH  20  21
ENDBRANCH  19  20
ENDBRANCH  18  19
ENDBRANCH  17  18
ENDBRANCH  16  17
ENDBRANCH  15  16
ENDBRANCH   1  15
TORSDOF 22
ENDMDL
