MODEL 1
REMARK VINA RESULT:    -5.912      0.000      0.000
REMARK INTER + INTRA:         -12.111
REMARK INTER:                 -11.095
REMARK INTRA:                  -1.016
REMARK UNBOUND:                -1.016
REMARK SMILES O=C([O-])CCCCCCCCCCCCCCC(=O)[O-]
REMARK SMILES IDX 10 1 9 2 8 3 7 4 6 5 5 6 4 7 2 8 1 9 3 10 11 11 12 12 13 13
REMARK SMILES IDX 14 14 15 15 16 16 17 17 18 18 19 19 20 20
REMARK H PARENT
REMARK Flexibility Score: inf
ROOT
ATOM      1  C   UNL     1     -10.558  -0.803  -9.643  1.00  0.00     0.000 C 
ENDROOT
BRANCH   1   2
ATOM      2  C   UNL     1     -11.564  -0.564 -10.774  1.00  0.00     0.000 C 
BRANCH   2   3
ATOM      3  C   UNL     1     -12.952  -1.106 -10.399  1.00  0.00     0.000 C 
BRANCH   3   4
ATOM      4  C   UNL     1     -14.064  -0.058 -10.570  1.00  0.00     0.000 C 
BRANCH   4   5
ATOM      5  C   UNL     1     -14.298   0.767  -9.294  1.00  0.00     0.000 C 
BRANCH   5   6
ATOM      6  C   UNL     1     -14.004   2.263  -9.495  1.00  0.00     0.006 C 
BRANCH   6   7
ATOM      7  C   UNL     1     -12.504   2.581  -9.461  1.00  0.00     0.053 C 
BRANCH   7   8
ATOM      8  C   UNL     1     -12.248   3.801  -8.632  1.00  0.00     0.041 C 
ATOM      9  O   UNL     1     -11.148   3.941  -8.035  1.00  0.00    -0.550 OA
ATOM     10  O   UNL     1     -13.203   4.806  -8.561  1.00  0.00    -0.550 OA
ENDBRANCH   7   8
ENDBRANCH   6   7
ENDBRANCH   5   6
ENDBRANCH   4   5
ENDBRANCH   3   4
ENDBRANCH   2   3
ENDBRANCH   1   2
BRANCH   1  11
ATOM     11  C   UNL     1     -10.489  -2.288  -9.270  1.00  0.00     0.000 C 
BRANCH  11  12
ATOM     12  C   UNL     1      -9.814  -2.482  -7.903  1.00  0.00     0.000 C 
BRANCH  12  13
ATOM     13  C   UNL     1      -9.389  -3.939  -7.654  1.00  0.00     0.000 C 
BRANCH  13  14
ATOM     14  C   UNL     1     -10.213  -4.611  -6.543  1.00  0.00     0.000 C 
BRANCH  14  15
ATOM     15  C   UNL     1      -9.878  -6.103  -6.380  1.00  0.00     0.000 C 
BRANCH  15  16
ATOM     16  C   UNL     1     -10.984  -7.024  -6.924  1.00  0.00     0.006 C 
BRANCH  16  17
ATOM     17  C   UNL     1     -10.624  -7.611  -8.295  1.00  0.00     0.053 C 
BRANCH  17  18
ATOM     18  C   UNL     1     -11.513  -7.078  -9.378  1.00  0.00     0.041 C 
ATOM     19  O   UNL     1     -11.588  -5.838  -9.585  1.00  0.00    -0.550 OA
ATOM     20  O   UNL     1     -12.225  -7.954 -10.189  1.00  0.00    -0.550 OA
ENDBRANCH  17  18
ENDBRANCH  16  17
ENDBRANCH  15  16
ENDBRANCH  14  15
ENDBRANCH  13  14
ENDBRANCH  12  13
ENDBRANCH  11  12
ENDBRANCH   1  11
TORSDOF 15
ENDMDL
MODEL 2
REMARK VINA RESULT:    -5.894      1.369      8.580
REMARK INTER + INTRA:         -12.078
REMARK INTER:                 -10.988
REMARK INTRA:                  -1.090
REMARK UNBOUND:                -1.016
REMARK SMILES O=C([O-])CCCCCCCCCCCCCCC(=O)[O-]
REMARK SMILES IDX 10 1 9 2 8 3 7 4 6 5 5 6 4 7 2 8 1 9 3 10 11 11 12 12 13 13
REMARK SMILES IDX 14 14 15 15 16 16 17 17 18 18 19 19 20 20
REMARK H PARENT
REMARK Flexibility Score: inf
ROOT
ATOM      1  C   UNL     1     -10.614  -0.877  -9.607  1.00  0.00     0.000 C 
ENDROOT
BRANCH   1   2
ATOM      2  C   UNL     1     -10.359  -2.342  -9.237  1.00  0.00     0.000 C 
BRANCH   2   3
ATOM      3  C   UNL     1      -9.504  -2.447  -7.964  1.00  0.00     0.000 C 
BRANCH   3   4
ATOM      4  C   UNL     1      -9.939  -3.604  -7.051  1.00  0.00     0.000 C 
BRANCH   4   5
ATOM      5  C   UNL     1      -9.563  -4.981  -7.624  1.00  0.00     0.000 C 
BRANCH   5   6
ATOM      6  C   UNL     1      -9.904  -6.133  -6.664  1.00  0.00     0.006 C 
BRANCH   6   7
ATOM      7  C   UNL     1     -11.111  -5.821  -5.770  1.00  0.00     0.053 C 
BRANCH   7   8
ATOM      8  C   UNL     1     -12.339  -6.497  -6.297  1.00  0.00     0.041 C 
ATOM      9  O   UNL     1     -13.467  -6.235  -5.803  1.00  0.00    -0.550 OA
ATOM     10  O   UNL     1     -12.243  -7.376  -7.367  1.00  0.00    -0.550 OA
ENDBRANCH   7   8
ENDBRANCH   6   7
ENDBRANCH   5   6
ENDBRANCH   4   5
ENDBRANCH   3   4
ENDBRANCH   2   3
ENDBRANCH   1   2
BRANCH   1  11
ATOM     11  C   UNL     1     -11.734  -0.758 -10.648  1.00  0.00     0.000 C 
BRANCH  11  12
ATOM     12  C   UNL     1     -12.765  -1.885 -10.478  1.00  0.00     0.000 C 
BRANCH  12  13
ATOM     13  C   UNL     1     -14.202  -1.357 -10.336  1.00  0.00     0.000 C 
BRANCH  13  14
ATOM     14  C   UNL     1     -14.288   0.168 -10.518  1.00  0.00     0.000 C 
BRANCH  14  15
ATOM     15  C   UNL     1     -14.470   0.913  -9.184  1.00  0.00     0.000 C 
BRANCH  15  16
ATOM     16  C   UNL     1     -14.110   2.406  -9.283  1.00  0.00     0.006 C 
BRANCH  16  17
ATOM     17  C   UNL     1     -12.601   2.626  -9.451  1.00  0.00     0.053 C 
BRANCH  17  18
ATOM     18  C   UNL     1     -12.128   3.833  -8.699  1.00  0.00     0.041 C 
ATOM     19  O   UNL     1     -12.839   4.872  -8.657  1.00  0.00    -0.550 OA
ATOM     20  O   UNL     1     -10.924   3.796  -8.007  1.00  0.00    -0.550 OA
ENDBRANCH  17  18
ENDBRANCH  16  17
ENDBRANCH  15  16
ENDBRANCH  14  15
ENDBRANCH  13  14
ENDBRANCH  12  13
ENDBRANCH  11  12
ENDBRANCH   1  11
TORSDOF 15
ENDMDL
MODEL 3
REMARK VINA RESULT:    -5.673      1.725      8.652
REMARK INTER + INTRA:         -11.664
REMARK INTER:                 -10.474
REMARK INTRA:                  -1.190
REMARK UNBOUND:                -1.016
REMARK SMILES O=C([O-])CCCCCCCCCCCCCCC(=O)[O-]
REMARK SMILES IDX 10 1 9 2 8 3 7 4 6 5 5 6 4 7 2 8 1 9 3 10 11 11 12 12 13 13
REMARK SMILES IDX 14 14 15 15 16 16 17 17 18 18 19 19 20 20
REMARK H PARENT
REMARK Flexibility Score: inf
ROOT
ATOM      1  C   UNL     1     -10.248  -4.071  -8.082  1.00  0.00     0.000 C 
ENDROOT
BRANCH   1   2
ATOM      2  C   UNL     1     -11.167  -4.458  -9.246  1.00  0.00     0.000 C 
BRANCH   2   3
ATOM      3  C   UNL     1     -11.997  -5.704  -8.900  1.00  0.00     0.000 C 
BRANCH   3   4
ATOM      4  C   UNL     1     -11.318  -7.010  -9.341  1.00  0.00     0.000 C 
BRANCH   4   5
ATOM      5  C   UNL     1     -11.292  -8.068  -8.225  1.00  0.00     0.000 C 
BRANCH   5   6
ATOM      6  C   UNL     1     -10.290  -7.725  -7.110  1.00  0.00     0.006 C 
BRANCH   6   7
ATOM      7  C   UNL     1     -10.905  -7.832  -5.709  1.00  0.00     0.053 C 
BRANCH   7   8
ATOM      8  C   UNL     1     -11.782  -6.651  -5.431  1.00  0.00     0.041 C 
ATOM      9  O   UNL     1     -11.273  -5.549  -5.096  1.00  0.00    -0.550 OA
ATOM     10  O   UNL     1     -13.157  -6.753  -5.595  1.00  0.00    -0.550 OA
ENDBRANCH   7   8
ENDBRANCH   6   7
ENDBRANCH   5   6
ENDBRANCH   4   5
ENDBRANCH   3   4
ENDBRANCH   2   3
ENDBRANCH   1   2
BRANCH   1  11
ATOM     11  C   UNL     1      -9.784  -2.615  -8.206  1.00  0.00     0.000 C 
BRANCH  11  12
ATOM     12  C   UNL     1      -9.959  -2.102  -9.645  1.00  0.00     0.000 C 
BRANCH  12  13
ATOM     13  C   UNL     1     -10.740  -0.779  -9.710  1.00  0.00     0.000 C 
BRANCH  13  14
ATOM     14  C   UNL     1     -12.153  -0.958 -10.291  1.00  0.00     0.000 C 
BRANCH  14  15
ATOM     15  C   UNL     1     -13.024   0.298 -10.122  1.00  0.00     0.000 C 
BRANCH  15  16
ATOM     16  C   UNL     1     -12.271   1.457  -9.446  1.00  0.00     0.006 C 
BRANCH  16  17
ATOM     17  C   UNL     1     -13.137   2.719  -9.333  1.00  0.00     0.053 C 
BRANCH  17  18
ATOM     18  C   UNL     1     -12.390   3.850  -8.692  1.00  0.00     0.041 C 
ATOM     19  O   UNL     1     -12.929   4.981  -8.576  1.00  0.00    -0.550 OA
ATOM     20  O   UNL     1     -11.114   3.641  -8.183  1.00  0.00    -0.550 OA
ENDBRANCH  17  18
ENDBRANCH  16  17
ENDBRANCH  15  16
ENDBRANCH  14  15
ENDBRANCH  13  14
ENDBRANCH  12  13
ENDBRANCH  11  12
ENDBRANCH   1  11
TORSDOF 15
ENDMDL
MODEL 4
REMARK VINA RESULT:    -5.641      1.626      2.065
REMARK INTER + INTRA:         -11.602
REMARK INTER:                 -10.739
REMARK INTRA:                  -0.863
REMARK UNBOUND:                -1.016
REMARK SMILES O=C([O-])CCCCCCCCCCCCCCC(=O)[O-]
REMARK SMILES IDX 10 1 9 2 8 3 7 4 6 5 5 6 4 7 2 8 1 9 3 10 11 11 12 12 13 13
REMARK SMILES IDX 14 14 15 15 16 16 17 17 18 18 19 19 20 20
REMARK H PARENT
REMARK Flexibility Score: inf
ROOT
ATOM      1  C   UNL     1     -10.653  -1.192  -9.311  1.00  0.00     0.000 C 
ENDROOT
BRANCH   1   2
ATOM      2  C   UNL     1     -11.468  -0.454 -10.378  1.00  0.00     0.000 C 
BRANCH   2   3
ATOM      3  C   UNL     1     -12.877  -1.053 -10.506  1.00  0.00     0.000 C 
BRANCH   3   4
ATOM      4  C   UNL     1     -13.966   0.021 -10.666  1.00  0.00     0.000 C 
BRANCH   4   5
ATOM      5  C   UNL     1     -14.284   0.740  -9.344  1.00  0.00     0.000 C 
BRANCH   5   6
ATOM      6  C   UNL     1     -14.092   2.262  -9.439  1.00  0.00     0.006 C 
BRANCH   6   7
ATOM      7  C   UNL     1     -12.615   2.672  -9.472  1.00  0.00     0.053 C 
BRANCH   7   8
ATOM      8  C   UNL     1     -12.388   3.879  -8.617  1.00  0.00     0.041 C 
ATOM      9  O   UNL     1     -13.364   4.575  -8.232  1.00  0.00    -0.550 OA
ATOM     10  O   UNL     1     -11.103   4.205  -8.202  1.00  0.00    -0.550 OA
ENDBRANCH   7   8
ENDBRANCH   6   7
ENDBRANCH   5   6
ENDBRANCH   4   5
ENDBRANCH   3   4
ENDBRANCH   2   3
ENDBRANCH   1   2
BRANCH   1  11
ATOM     11  C   UNL     1      -9.866  -2.356  -9.924  1.00  0.00     0.000 C 
BRANCH  11  12
ATOM     12  C   UNL     1     -10.400  -3.707  -9.421  1.00  0.00     0.000 C 
BRANCH  12  13
ATOM     13  C   UNL     1      -9.423  -4.411  -8.465  1.00  0.00     0.000 C 
BRANCH  13  14
ATOM     14  C   UNL     1      -9.877  -5.835  -8.103  1.00  0.00     0.000 C 
BRANCH  14  15
ATOM     15  C   UNL     1      -9.841  -6.099  -6.588  1.00  0.00     0.000 C 
BRANCH  15  16
ATOM     16  C   UNL     1     -11.032  -5.467  -5.846  1.00  0.00     0.006 C 
BRANCH  16  17
ATOM     17  C   UNL     1     -12.076  -6.513  -5.434  1.00  0.00     0.053 C 
BRANCH  17  18
ATOM     18  C   UNL     1     -13.351  -6.360  -6.206  1.00  0.00     0.041 C 
ATOM     19  O   UNL     1     -13.330  -5.914  -7.383  1.00  0.00    -0.550 OA
ATOM     20  O   UNL     1     -14.559  -6.750  -5.641  1.00  0.00    -0.550 OA
ENDBRANCH  17  18
ENDBRANCH  16  17
ENDBRANCH  15  16
ENDBRANCH  14  15
ENDBRANCH  13  14
ENDBRANCH  12  13
ENDBRANCH  11  12
ENDBRANCH   1  11
TORSDOF 15
ENDMDL
MODEL 5
REMARK VINA RESULT:    -5.484      1.824      8.736
REMARK INTER + INTRA:         -11.308
REMARK INTER:                 -10.374
REMARK INTRA:                  -0.934
REMARK UNBOUND:                -1.016
REMARK SMILES O=C([O-])CCCCCCCCCCCCCCC(=O)[O-]
REMARK SMILES IDX 10 1 9 2 8 3 7 4 6 5 5 6 4 7 2 8 1 9 3 10 11 11 12 12 13 13
REMARK SMILES IDX 14 14 15 15 16 16 17 17 18 18 19 19 20 20
REMARK H PARENT
REMARK Flexibility Score: inf
ROOT
ATOM      1  C   UNL     1     -10.454  -4.306  -8.997  1.00  0.00     0.000 C 
ENDROOT
BRANCH   1   2
ATOM      2  C   UNL     1      -9.264  -5.104  -8.452  1.00  0.00     0.000 C 
BRANCH   2   3
ATOM      3  C   UNL     1      -9.595  -5.720  -7.085  1.00  0.00     0.000 C 
BRANCH   3   4
ATOM      4  C   UNL     1     -10.502  -4.818  -6.231  1.00  0.00     0.000 C 
BRANCH   4   5
ATOM      5  C   UNL     1     -11.377  -5.619  -5.253  1.00  0.00     0.000 C 
BRANCH   5   6
ATOM      6  C   UNL     1     -11.380  -7.125  -5.559  1.00  0.00     0.006 C 
BRANCH   6   7
ATOM      7  C   UNL     1     -12.780  -7.744  -5.473  1.00  0.00     0.053 C 
BRANCH   7   8
ATOM      8  C   UNL     1     -13.769  -6.905  -6.219  1.00  0.00     0.041 C 
ATOM      9  O   UNL     1     -14.742  -6.382  -5.613  1.00  0.00    -0.550 OA
ATOM     10  O   UNL     1     -13.589  -6.656  -7.574  1.00  0.00    -0.550 OA
ENDBRANCH   7   8
ENDBRANCH   6   7
ENDBRANCH   5   6
ENDBRANCH   4   5
ENDBRANCH   3   4
ENDBRANCH   2   3
ENDBRANCH   1   2
BRANCH   1  11
ATOM     11  C   UNL     1      -9.982  -3.075  -9.779  1.00  0.00     0.000 C 
BRANCH  11  12
ATOM     12  C   UNL     1     -10.418  -1.778  -9.078  1.00  0.00     0.000 C 
BRANCH  12  13
ATOM     13  C   UNL     1     -10.714  -0.640 -10.069  1.00  0.00     0.000 C 
BRANCH  13  14
ATOM     14  C   UNL     1     -12.152  -0.693 -10.613  1.00  0.00     0.000 C 
BRANCH  14  15
ATOM     15  C   UNL     1     -13.049   0.405 -10.018  1.00  0.00     0.000 C 
BRANCH  15  16
ATOM     16  C   UNL     1     -12.243   1.558  -9.393  1.00  0.00     0.006 C 
BRANCH  16  17
ATOM     17  C   UNL     1     -13.030   2.875  -9.385  1.00  0.00     0.053 C 
BRANCH  17  18
ATOM     18  C   UNL     1     -12.419   3.882  -8.459  1.00  0.00     0.041 C 
ATOM     19  O   UNL     1     -13.153   4.656  -7.790  1.00  0.00    -0.550 OA
ATOM     20  O   UNL     1     -11.040   3.936  -8.302  1.00  0.00    -0.550 OA
ENDBRANCH  17  18
ENDBRANCH  16  17
ENDBRANCH  15  16
ENDBRANCH  14  15
ENDBRANCH  13  14
ENDBRANCH  12  13
ENDBRANCH  11  12
ENDBRANCH   1  11
TORSDOF 15
ENDMDL
MODEL 6
REMARK VINA RESULT:    -5.403      2.044      8.372
REMARK INTER + INTRA:         -11.156
REMARK INTER:                 -10.227
REMARK INTRA:                  -0.930
REMARK UNBOUND:                -1.016
REMARK SMILES O=C([O-])CCCCCCCCCCCCCCC(=O)[O-]
REMARK SMILES IDX 10 1 9 2 8 3 7 4 6 5 5 6 4 7 2 8 1 9 3 10 11 11 12 12 13 13
REMARK SMILES IDX 14 14 15 15 16 16 17 17 18 18 19 19 20 20
REMARK H PARENT
REMARK Flexibility Score: inf
ROOT
ATOM      1  C   UNL     1     -13.521  -4.848  -9.258  1.00  0.00     0.000 C 
ENDROOT
BRANCH   1   2
ATOM      2  C   UNL     1     -14.596  -5.407  -8.319  1.00  0.00     0.000 C 
BRANCH   2   3
ATOM      3  C   UNL     1     -14.066  -6.616  -7.533  1.00  0.00     0.000 C 
BRANCH   3   4
ATOM      4  C   UNL     1     -13.340  -6.211  -6.240  1.00  0.00     0.000 C 
BRANCH   4   5
ATOM      5  C   UNL     1     -11.976  -6.904  -6.087  1.00  0.00     0.000 C 
BRANCH   5   6
ATOM      6  C   UNL     1     -10.800  -5.917  -6.167  1.00  0.00     0.006 C 
BRANCH   6   7
ATOM      7  C   UNL     1     -10.263  -5.751  -7.594  1.00  0.00     0.053 C 
BRANCH   7   8
ATOM      8  C   UNL     1      -9.561  -4.437  -7.738  1.00  0.00     0.041 C 
ATOM      9  O   UNL     1      -9.981  -3.423  -7.121  1.00  0.00    -0.550 OA
ATOM     10  O   UNL     1      -8.412  -4.344  -8.514  1.00  0.00    -0.550 OA
ENDBRANCH   7   8
ENDBRANCH   6   7
ENDBRANCH   5   6
ENDBRANCH   4   5
ENDBRANCH   3   4
ENDBRANCH   2   3
ENDBRANCH   1   2
BRANCH   1  11
ATOM     11  C   UNL     1     -13.958  -3.508  -9.861  1.00  0.00     0.000 C 
BRANCH  11  12
ATOM     12  C   UNL     1     -12.747  -2.595 -10.107  1.00  0.00     0.000 C 
BRANCH  12  13
ATOM     13  C   UNL     1     -13.079  -1.406 -11.024  1.00  0.00     0.000 C 
BRANCH  13  14
ATOM     14  C   UNL     1     -12.835  -0.049 -10.341  1.00  0.00     0.000 C 
BRANCH  14  15
ATOM     15  C   UNL     1     -14.143   0.682  -9.996  1.00  0.00     0.000 C 
BRANCH  15  16
ATOM     16  C   UNL     1     -13.904   2.098  -9.444  1.00  0.00     0.006 C 
BRANCH  16  17
ATOM     17  C   UNL     1     -12.413   2.460  -9.405  1.00  0.00     0.053 C 
BRANCH  17  18
ATOM     18  C   UNL     1     -12.172   3.746  -8.676  1.00  0.00     0.041 C 
ATOM     19  O   UNL     1     -13.107   4.577  -8.530  1.00  0.00    -0.550 OA
ATOM     20  O   UNL     1     -10.926   4.009  -8.120  1.00  0.00    -0.550 OA
ENDBRANCH  17  18
ENDBRANCH  16  17
ENDBRANCH  15  16
ENDBRANCH  14  15
ENDBRANCH  13  14
ENDBRANCH  12  13
ENDBRANCH  11  12
ENDBRANCH   1  11
TORSDOF 15
ENDMDL
MODEL 7
REMARK VINA RESULT:    -5.227      1.889      8.230
REMARK INTER + INTRA:         -10.827
REMARK INTER:                  -9.552
REMARK INTRA:                  -1.275
REMARK UNBOUND:                -1.016
REMARK SMILES O=C([O-])CCCCCCCCCCCCCCC(=O)[O-]
REMARK SMILES IDX 10 1 9 2 8 3 7 4 6 5 5 6 4 7 2 8 1 9 3 10 11 11 12 12 13 13
REMARK SMILES IDX 14 14 15 15 16 16 17 17 18 18 19 19 20 20
REMARK H PARENT
REMARK Flexibility Score: inf
ROOT
ATOM      1  C   UNL     1     -10.712  -4.867  -8.129  1.00  0.00     0.000 C 
ENDROOT
BRANCH   1   2
ATOM      2  C   UNL     1      -9.875  -6.110  -8.452  1.00  0.00     0.000 C 
BRANCH   2   3
ATOM      3  C   UNL     1     -10.499  -7.369  -7.832  1.00  0.00     0.000 C 
BRANCH   3   4
ATOM      4  C   UNL     1     -10.181  -7.514  -6.335  1.00  0.00     0.000 C 
BRANCH   4   5
ATOM      5  C   UNL     1     -11.448  -7.641  -5.473  1.00  0.00     0.000 C 
BRANCH   5   6
ATOM      6  C   UNL     1     -12.319  -6.376  -5.513  1.00  0.00     0.006 C 
BRANCH   6   7
ATOM      7  C   UNL     1     -13.793  -6.681  -5.809  1.00  0.00     0.053 C 
BRANCH   7   8
ATOM      8  C   UNL     1     -14.036  -6.697  -7.285  1.00  0.00     0.041 C 
ATOM      9  O   UNL     1     -14.187  -5.617  -7.915  1.00  0.00    -0.550 OA
ATOM     10  O   UNL     1     -14.045  -7.903  -7.975  1.00  0.00    -0.550 OA
ENDBRANCH   7   8
ENDBRANCH   6   7
ENDBRANCH   5   6
ENDBRANCH   4   5
ENDBRANCH   3   4
ENDBRANCH   2   3
ENDBRANCH   1   2
BRANCH   1  11
ATOM     11  C   UNL     1      -9.963  -3.930  -7.174  1.00  0.00     0.000 C 
BRANCH  11  12
ATOM     12  C   UNL     1      -9.527  -2.644  -7.894  1.00  0.00     0.000 C 
BRANCH  12  13
ATOM     13  C   UNL     1      -9.985  -2.603  -9.362  1.00  0.00     0.000 C 
BRANCH  13  14
ATOM     14  C   UNL     1     -10.713  -1.295  -9.715  1.00  0.00     0.000 C 
BRANCH  14  15
ATOM     15  C   UNL     1     -12.157  -1.532 -10.187  1.00  0.00     0.000 C 
BRANCH  15  16
ATOM     16  C   UNL     1     -12.944  -0.223 -10.374  1.00  0.00     0.006 C 
BRANCH  16  17
ATOM     17  C   UNL     1     -12.255   0.967  -9.693  1.00  0.00     0.053 C 
BRANCH  17  18
ATOM     18  C   UNL     1     -13.188   2.127  -9.525  1.00  0.00     0.041 C 
ATOM     19  O   UNL     1     -12.746   3.249  -9.162  1.00  0.00    -0.550 OA
ATOM     20  O   UNL     1     -14.540   1.981  -9.811  1.00  0.00    -0.550 OA
ENDBRANCH  17  18
ENDBRANCH  16  17
ENDBRANCH  15  16
ENDBRANCH  14  15
ENDBRANCH  13  14
ENDBRANCH  12  13
ENDBRANCH  11  12
ENDBRANCH   1  11
TORSDOF 15
ENDMDL
MODEL 8
REMARK VINA RESULT:    -5.149     15.837     18.440
REMARK INTER + INTRA:         -10.680
REMARK INTER:                  -9.173
REMARK INTRA:                  -1.507
REMARK UNBOUND:                -1.016
REMARK SMILES O=C([O-])CCCCCCCCCCCCCCC(=O)[O-]
REMARK SMILES IDX 10 1 9 2 8 3 7 4 6 5 5 6 4 7 2 8 1 9 3 10 11 11 12 12 13 13
REMARK SMILES IDX 14 14 15 15 16 16 17 17 18 18 19 19 20 20
REMARK H PARENT
REMARK Flexibility Score: inf
ROOT
ATOM      1  C   UNL     1      -9.145   5.754   6.540  1.00  0.00     0.000 C 
ENDROOT
BRANCH   1   2
ATOM      2  C   UNL     1      -9.159   6.773   5.395  1.00  0.00     0.000 C 
BRANCH   2   3
ATOM      3  C   UNL     1      -9.252   8.207   5.936  1.00  0.00     0.000 C 
BRANCH   3   4
ATOM      4  C   UNL     1      -8.498   9.221   5.061  1.00  0.00     0.000 C 
BRANCH   4   5
ATOM      5  C   UNL     1      -8.928  10.672   5.335  1.00  0.00     0.000 C 
BRANCH   5   6
ATOM      6  C   UNL     1      -7.734  11.602   5.602  1.00  0.00     0.006 C 
BRANCH   6   7
ATOM      7  C   UNL     1      -7.236  11.524   7.051  1.00  0.00     0.053 C 
BRANCH   7   8
ATOM      8  C   UNL     1      -5.783  11.166   7.085  1.00  0.00     0.041 C 
ATOM      9  O   UNL     1      -5.367  10.148   6.471  1.00  0.00    -0.550 OA
ATOM     10  O   UNL     1      -4.880  11.985   7.751  1.00  0.00    -0.550 OA
ENDBRANCH   7   8
ENDBRANCH   6   7
ENDBRANCH   5   6
ENDBRANCH   4   5
ENDBRANCH   3   4
ENDBRANCH   2   3
ENDBRANCH   1   2
BRANCH   1  11
ATOM     11  C   UNL     1      -9.572   6.404   7.862  1.00  0.00     0.000 C 
BRANCH  11  12
ATOM     12  C   UNL     1     -10.154   5.358   8.826  1.00  0.00     0.000 C 
BRANCH  12  13
ATOM     13  C   UNL     1     -10.572   4.062   8.112  1.00  0.00     0.000 C 
BRANCH  13  14
ATOM     14  C   UNL     1     -12.082   4.009   7.823  1.00  0.00     0.000 C 
BRANCH  14  15
ATOM     15  C   UNL     1     -12.407   4.237   6.338  1.00  0.00     0.000 C 
BRANCH  15  16
ATOM     16  C   UNL     1     -12.816   5.689   6.034  1.00  0.00     0.006 C 
BRANCH  16  17
ATOM     17  C   UNL     1     -12.628   6.045   4.554  1.00  0.00     0.053 C 
BRANCH  17  18
ATOM     18  C   UNL     1     -13.940   6.233   3.856  1.00  0.00     0.041 C 
ATOM     19  O   UNL     1     -14.967   6.553   4.511  1.00  0.00    -0.550 OA
ATOM     20  O   UNL     1     -14.021   6.099   2.475  1.00  0.00    -0.550 OA
ENDBRANCH  17  18
ENDBRANCH  16  17
ENDBRANCH  15  16
ENDBRANCH  14  15
ENDBRANCH  13  14
ENDBRANCH  12  13
ENDBRANCH  11  12
ENDBRANCH   1  11
TORSDOF 15
ENDMDL
MODEL 9
REMARK VINA RESULT:    -5.080      2.109      7.935
REMARK INTER + INTRA:         -10.550
REMARK INTER:                  -9.289
REMARK INTRA:                  -1.260
REMARK UNBOUND:                -1.016
REMARK SMILES O=C([O-])CCCCCCCCCCCCCCC(=O)[O-]
REMARK SMILES IDX 10 1 9 2 8 3 7 4 6 5 5 6 4 7 2 8 1 9 3 10 11 11 12 12 13 13
REMARK SMILES IDX 14 14 15 15 16 16 17 17 18 18 19 19 20 20
REMARK H PARENT
REMARK Flexibility Score: inf
ROOT
ATOM      1  C   UNL     1     -10.251  -4.758  -6.291  1.00  0.00     0.000 C 
ENDROOT
BRANCH   1   2
ATOM      2  C   UNL     1     -11.361  -5.476  -5.515  1.00  0.00     0.000 C 
BRANCH   2   3
ATOM      3  C   UNL     1     -11.119  -6.993  -5.486  1.00  0.00     0.000 C 
BRANCH   3   4
ATOM      4  C   UNL     1     -12.381  -7.802  -5.827  1.00  0.00     0.000 C 
BRANCH   4   5
ATOM      5  C   UNL     1     -13.658  -6.947  -5.789  1.00  0.00     0.000 C 
BRANCH   5   6
ATOM      6  C   UNL     1     -14.299  -6.780  -7.177  1.00  0.00     0.006 C 
BRANCH   6   7
ATOM      7  C   UNL     1     -13.575  -7.584  -8.264  1.00  0.00     0.053 C 
BRANCH   7   8
ATOM      8  C   UNL     1     -13.111  -6.678  -9.362  1.00  0.00     0.041 C 
ATOM      9  O   UNL     1     -13.611  -5.529  -9.489  1.00  0.00    -0.550 OA
ATOM     10  O   UNL     1     -12.091  -7.084 -10.213  1.00  0.00    -0.550 OA
ENDBRANCH   7   8
ENDBRANCH   6   7
ENDBRANCH   5   6
ENDBRANCH   4   5
ENDBRANCH   3   4
ENDBRANCH   2   3
ENDBRANCH   1   2
BRANCH   1  11
ATOM     11  C   UNL     1     -10.570  -4.708  -7.790  1.00  0.00     0.000 C 
BRANCH  11  12
ATOM     12  C   UNL     1      -9.295  -4.474  -8.616  1.00  0.00     0.000 C 
BRANCH  12  13
ATOM     13  C   UNL     1      -9.510  -3.480  -9.769  1.00  0.00     0.000 C 
BRANCH  13  14
ATOM     14  C   UNL     1     -10.823  -2.690  -9.628  1.00  0.00     0.000 C 
BRANCH  14  15
ATOM     15  C   UNL     1     -10.596  -1.170  -9.594  1.00  0.00     0.000 C 
BRANCH  15  16
ATOM     16  C   UNL     1     -11.627  -0.396 -10.435  1.00  0.00     0.006 C 
BRANCH  16  17
ATOM     17  C   UNL     1     -12.156   0.844  -9.703  1.00  0.00     0.053 C 
BRANCH  17  18
ATOM     18  C   UNL     1     -13.654   0.905  -9.725  1.00  0.00     0.041 C 
ATOM     19  O   UNL     1     -14.332  -0.155  -9.712  1.00  0.00    -0.550 OA
ATOM     20  O   UNL     1     -14.300   2.135  -9.717  1.00  0.00    -0.550 OA
ENDBRANCH  17  18
ENDBRANCH  16  17
ENDBRANCH  15  16
ENDBRANCH  14  15
ENDBRANCH  13  14
ENDBRANCH  12  13
ENDBRANCH  11  12
ENDBRANCH   1  11
TORSDOF 15
ENDMDL
