MODEL 1
REMARK VINA RESULT:    14.702      0.000      0.000
REMARK INTER + INTRA:          21.261
REMARK INTER:                  19.858
REMARK INTRA:                   1.403
REMARK UNBOUND:                 1.403
REMARK SMILES CC[C@H](CC[C@H](C)[C@H]1CC[C@H]2[C@H]3CC(=O)C4=CC(=O)CC[C@]4(C)[C@H]3CC[C@]12C)C(C)C
REMARK SMILES IDX 4 1 3 2 2 3 1 4 29 5 30 6 31 7 5 8 6 9 7 10 8 11 9 12 27 13
REMARK SMILES IDX 10 14 11 15 26 16 28 17 12 18 25 19 24 20 13 21 22 22 14 23
REMARK SMILES IDX 16 24 21 25 23 26 15 27 17 28 20 29 18 30 19 31
REMARK H PARENT
REMARK Flexibility Score: inf
ROOT
ATOM      1  C   UNL     1      73.625  34.829  55.740  1.00  0.00     0.004 C 
ENDROOT
BRANCH   1   2
ATOM      2  C   UNL     1      72.855  34.498  57.062  1.00  0.00    -0.009 C 
BRANCH   2   3
ATOM      3  C   UNL     1      71.382  34.987  56.999  1.00  0.00     0.000 C 
ATOM      4  C   UNL     1      70.418  34.034  57.713  1.00  0.00     0.004 C 
ENDBRANCH   2   3
BRANCH   2   5
ATOM      5  C   UNL     1      72.975  32.981  57.429  1.00  0.00    -0.014 C 
ATOM      6  C   UNL     1      74.188  32.314  56.754  1.00  0.00     0.007 C 
ATOM      7  C   UNL     1      73.001  32.716  58.950  1.00  0.00     0.007 C 
ENDBRANCH   2   5
ENDBRANCH   1   2
BRANCH   1   8
ATOM      8  C   UNL     1      72.700  34.923  54.506  1.00  0.00     0.004 C 
BRANCH   8   9
ATOM      9  C   UNL     1      73.017  33.860  53.403  1.00  0.00    -0.011 C 
ATOM     10  C   UNL     1      73.342  32.516  54.092  1.00  0.00     0.008 C 
BRANCH   9  11
ATOM     11  C   UNL     1      74.197  34.317  52.470  1.00  0.00    -0.002 C 
ATOM     12  C   UNL     1      74.388  35.858  52.412  1.00  0.00     0.005 C 
ATOM     13  C   UNL     1      75.641  33.792  52.776  1.00  0.00    -0.026 C 
ATOM     14  C   UNL     1      75.870  36.121  52.099  1.00  0.00     0.005 C 
ATOM     15  C   UNL     1      76.447  34.732  51.866  1.00  0.00    -0.001 C 
ATOM     16  C   UNL     1      75.939  32.345  52.315  1.00  0.00     0.007 C 
ATOM     17  C   UNL     1      75.969  33.962  54.293  1.00  0.00     0.012 C 
ATOM     18  C   UNL     1      77.983  34.534  51.801  1.00  0.00     0.004 C 
ATOM     19  C   UNL     1      77.453  32.031  52.360  1.00  0.00     0.005 C 
ATOM     20  C   UNL     1      78.347  33.031  51.555  1.00  0.00     0.003 C 
ATOM     21  C   UNL     1      78.840  35.175  52.904  1.00  0.00     0.085 C 
ATOM     22  C   UNL     1      79.917  32.712  51.634  1.00  0.00    -0.000 C 
ATOM     23  C   UNL     1      80.265  35.155  52.445  1.00  0.00     0.159 C 
ATOM     24  C   UNL     1      80.756  34.002  51.650  1.00  0.00     0.005 C 
ATOM     25  C   UNL     1      80.299  31.843  50.390  1.00  0.00     0.020 C 
ATOM     26  C   UNL     1      80.302  31.942  52.929  1.00  0.00     0.017 C 
ATOM     27  O   UNL     1      81.021  36.125  52.722  1.00  0.00    -0.295 OA
ATOM     28  C   UNL     1      81.969  34.062  51.067  1.00  0.00     0.055 C 
ATOM     29  C   UNL     1      81.807  31.620  50.247  1.00  0.00     0.081 C 
ATOM     30  C   UNL     1      82.535  32.927  50.322  1.00  0.00     0.156 C 
ATOM     31  O   UNL     1      83.657  33.045  49.764  1.00  0.00    -0.295 OA
ENDBRANCH   9  11
ENDBRANCH   8   9
ENDBRANCH   1   8
TORSDOF 6
ENDMDL
MODEL 2
REMARK VINA RESULT:    15.274      3.050      8.395
REMARK INTER + INTRA:          22.035
REMARK INTER:                  21.152
REMARK INTRA:                   0.883
REMARK UNBOUND:                 1.403
REMARK SMILES CC[C@H](CC[C@H](C)[C@H]1CC[C@H]2[C@H]3CC(=O)C4=CC(=O)CC[C@]4(C)[C@H]3CC[C@]12C)C(C)C
REMARK SMILES IDX 4 1 3 2 2 3 1 4 29 5 30 6 31 7 5 8 6 9 7 10 8 11 9 12 27 13
REMARK SMILES IDX 10 14 11 15 26 16 28 17 12 18 25 19 24 20 13 21 22 22 14 23
REMARK SMILES IDX 16 24 21 25 23 26 15 27 17 28 20 29 18 30 19 31
REMARK H PARENT
REMARK Flexibility Score: inf
ROOT
ATOM      1  C   UNL     1      82.124  33.803  51.381  1.00  0.00     0.004 C 
ENDROOT
BRANCH   1   2
ATOM      2  C   UNL     1      81.992  35.252  51.960  1.00  0.00    -0.009 C 
BRANCH   2   3
ATOM      3  C   UNL     1      81.038  36.122  51.097  1.00  0.00     0.000 C 
ATOM      4  C   UNL     1      81.324  35.996  49.597  1.00  0.00     0.004 C 
ENDBRANCH   2   3
BRANCH   2   5
ATOM      5  C   UNL     1      81.592  35.229  53.472  1.00  0.00    -0.014 C 
ATOM      6  C   UNL     1      82.667  35.871  54.368  1.00  0.00     0.007 C 
ATOM      7  C   UNL     1      80.214  35.868  53.754  1.00  0.00     0.007 C 
ENDBRANCH   2   5
ENDBRANCH   1   2
BRANCH   1   8
ATOM      8  C   UNL     1      80.971  32.870  51.813  1.00  0.00     0.004 C 
BRANCH   8   9
ATOM      9  C   UNL     1      79.656  33.076  50.991  1.00  0.00    -0.011 C 
ATOM     10  C   UNL     1      80.026  33.640  49.601  1.00  0.00     0.008 C 
BRANCH   9  11
ATOM     11  C   UNL     1      78.642  34.021  51.733  1.00  0.00    -0.002 C 
ATOM     12  C   UNL     1      78.199  35.248  50.890  1.00  0.00     0.005 C 
ATOM     13  C   UNL     1      77.282  33.420  52.227  1.00  0.00    -0.026 C 
ATOM     14  C   UNL     1      76.796  35.650  51.375  1.00  0.00     0.005 C 
ATOM     15  C   UNL     1      76.538  34.724  52.555  1.00  0.00    -0.001 C 
ATOM     16  C   UNL     1      77.350  32.595  53.535  1.00  0.00     0.007 C 
ATOM     17  C   UNL     1      76.611  32.589  51.089  1.00  0.00     0.012 C 
ATOM     18  C   UNL     1      75.111  34.612  53.151  1.00  0.00     0.004 C 
ATOM     19  C   UNL     1      75.942  32.323  54.113  1.00  0.00     0.005 C 
ATOM     20  C   UNL     1      75.079  33.606  54.350  1.00  0.00     0.003 C 
ATOM     21  C   UNL     1      73.938  34.408  52.179  1.00  0.00     0.085 C 
ATOM     22  C   UNL     1      73.610  33.310  54.922  1.00  0.00    -0.000 C 
ATOM     23  C   UNL     1      72.671  34.683  52.928  1.00  0.00     0.159 C 
ATOM     24  C   UNL     1      72.574  34.297  54.357  1.00  0.00     0.005 C 
ATOM     25  C   UNL     1      73.665  33.427  56.482  1.00  0.00     0.020 C 
ATOM     26  C   UNL     1      73.099  31.892  54.536  1.00  0.00     0.017 C 
ATOM     27  O   UNL     1      71.714  35.257  52.341  1.00  0.00    -0.295 OA
ATOM     28  C   UNL     1      71.523  34.712  55.091  1.00  0.00     0.055 C 
ATOM     29  C   UNL     1      72.285  33.345  57.143  1.00  0.00     0.081 C 
ATOM     30  C   UNL     1      71.339  34.307  56.494  1.00  0.00     0.156 C 
ATOM     31  O   UNL     1      70.361  34.753  57.147  1.00  0.00    -0.295 OA
ENDBRANCH   9  11
ENDBRANCH   8   9
ENDBRANCH   1   8
TORSDOF 6
ENDMDL
MODEL 3
REMARK VINA RESULT:    15.276      2.959      8.567
REMARK INTER + INTRA:          22.037
REMARK INTER:                  20.158
REMARK INTRA:                   1.880
REMARK UNBOUND:                 1.403
REMARK SMILES CC[C@H](CC[C@H](C)[C@H]1CC[C@H]2[C@H]3CC(=O)C4=CC(=O)CC[C@]4(C)[C@H]3CC[C@]12C)C(C)C
REMARK SMILES IDX 4 1 3 2 2 3 1 4 29 5 30 6 31 7 5 8 6 9 7 10 8 11 9 12 27 13
REMARK SMILES IDX 10 14 11 15 26 16 28 17 12 18 25 19 24 20 13 21 22 22 14 23
REMARK SMILES IDX 16 24 21 25 23 26 15 27 17 28 20 29 18 30 19 31
REMARK H PARENT
REMARK Flexibility Score: inf
ROOT
ATOM      1  C   UNL     1      82.037  33.527  51.200  1.00  0.00     0.004 C 
ENDROOT
BRANCH   1   2
ATOM      2  C   UNL     1      81.194  34.841  51.083  1.00  0.00    -0.009 C 
BRANCH   2   3
ATOM      3  C   UNL     1      81.678  35.918  52.092  1.00  0.00     0.000 C 
ATOM      4  C   UNL     1      81.396  35.527  53.546  1.00  0.00     0.004 C 
ENDBRANCH   2   3
BRANCH   2   5
ATOM      5  C   UNL     1      81.153  35.365  49.609  1.00  0.00    -0.014 C 
ATOM      6  C   UNL     1      81.399  34.242  48.585  1.00  0.00     0.007 C 
ATOM      7  C   UNL     1      79.854  36.125  49.262  1.00  0.00     0.007 C 
ENDBRANCH   2   5
ENDBRANCH   1   2
BRANCH   1   8
ATOM      8  C   UNL     1      81.386  32.466  52.115  1.00  0.00     0.004 C 
BRANCH   8   9
ATOM      9  C   UNL     1      79.900  32.148  51.746  1.00  0.00    -0.011 C 
ATOM     10  C   UNL     1      79.784  32.042  50.210  1.00  0.00     0.008 C 
BRANCH   9  11
ATOM     11  C   UNL     1      78.911  33.231  52.314  1.00  0.00    -0.002 C 
ATOM     12  C   UNL     1      78.705  34.448  51.370  1.00  0.00     0.005 C 
ATOM     13  C   UNL     1      77.445  32.798  52.659  1.00  0.00    -0.026 C 
ATOM     14  C   UNL     1      77.305  35.015  51.658  1.00  0.00     0.005 C 
ATOM     15  C   UNL     1      76.810  34.187  52.835  1.00  0.00    -0.001 C 
ATOM     16  C   UNL     1      77.266  32.044  53.999  1.00  0.00     0.007 C 
ATOM     17  C   UNL     1      76.830  31.976  51.482  1.00  0.00     0.012 C 
ATOM     18  C   UNL     1      75.318  34.252  53.251  1.00  0.00     0.004 C 
ATOM     19  C   UNL     1      75.778  31.948  54.408  1.00  0.00     0.005 C 
ATOM     20  C   UNL     1      75.035  33.323  54.480  1.00  0.00     0.003 C 
ATOM     21  C   UNL     1      74.255  34.113  52.150  1.00  0.00     0.085 C 
ATOM     22  C   UNL     1      73.485  33.208  54.875  1.00  0.00    -0.000 C 
ATOM     23  C   UNL     1      72.944  34.556  52.721  1.00  0.00     0.159 C 
ATOM     24  C   UNL     1      72.635  34.261  54.143  1.00  0.00     0.005 C 
ATOM     25  C   UNL     1      73.363  33.406  56.423  1.00  0.00     0.020 C 
ATOM     26  C   UNL     1      72.875  31.830  54.489  1.00  0.00     0.017 C 
ATOM     27  O   UNL     1      72.131  35.189  51.995  1.00  0.00    -0.295 OA
ATOM     28  C   UNL     1      71.554  34.821  54.720  1.00  0.00     0.055 C 
ATOM     29  C   UNL     1      71.914  33.500  56.909  1.00  0.00     0.081 C 
ATOM     30  C   UNL     1      71.161  34.515  56.105  1.00  0.00     0.156 C 
ATOM     31  O   UNL     1      70.164  35.092  56.611  1.00  0.00    -0.295 OA
ENDBRANCH   9  11
ENDBRANCH   8   9
ENDBRANCH   1   8
TORSDOF 6
ENDMDL
MODEL 4
REMARK VINA RESULT:    15.558      3.193      8.448
REMARK INTER + INTRA:          22.418
REMARK INTER:                  22.978
REMARK INTRA:                  -0.561
REMARK UNBOUND:                 1.403
REMARK SMILES CC[C@H](CC[C@H](C)[C@H]1CC[C@H]2[C@H]3CC(=O)C4=CC(=O)CC[C@]4(C)[C@H]3CC[C@]12C)C(C)C
REMARK SMILES IDX 4 1 3 2 2 3 1 4 29 5 30 6 31 7 5 8 6 9 7 10 8 11 9 12 27 13
REMARK SMILES IDX 10 14 11 15 26 16 28 17 12 18 25 19 24 20 13 21 22 22 14 23
REMARK SMILES IDX 16 24 21 25 23 26 15 27 17 28 20 29 18 30 19 31
REMARK H PARENT
REMARK Flexibility Score: inf
ROOT
ATOM      1  C   UNL     1      80.889  34.368  52.329  1.00  0.00     0.004 C 
ENDROOT
BRANCH   1   2
ATOM      2  C   UNL     1      80.545  33.111  51.461  1.00  0.00    -0.009 C 
BRANCH   2   3
ATOM      3  C   UNL     1      81.713  32.746  50.505  1.00  0.00     0.000 C 
ATOM      4  C   UNL     1      81.701  33.581  49.220  1.00  0.00     0.004 C 
ENDBRANCH   2   3
BRANCH   2   5
ATOM      5  C   UNL     1      80.093  31.907  52.353  1.00  0.00    -0.014 C 
ATOM      6  C   UNL     1      80.958  31.763  53.618  1.00  0.00     0.007 C 
ATOM      7  C   UNL     1      78.597  31.952  52.735  1.00  0.00     0.007 C 
ENDBRANCH   2   5
ENDBRANCH   1   2
BRANCH   1   8
ATOM      8  C   UNL     1      80.154  35.646  51.866  1.00  0.00     0.004 C 
BRANCH   8   9
ATOM      9  C   UNL     1      79.109  35.390  50.731  1.00  0.00    -0.011 C 
ATOM     10  C   UNL     1      79.610  36.065  49.435  1.00  0.00     0.008 C 
BRANCH   9  11
ATOM     11  C   UNL     1      77.678  35.913  51.123  1.00  0.00    -0.002 C 
ATOM     12  C   UNL     1      76.733  36.123  49.907  1.00  0.00     0.005 C 
ATOM     13  C   UNL     1      76.809  35.053  52.102  1.00  0.00    -0.026 C 
ATOM     14  C   UNL     1      75.293  35.939  50.413  1.00  0.00     0.005 C 
ATOM     15  C   UNL     1      75.454  35.755  51.915  1.00  0.00    -0.001 C 
ATOM     16  C   UNL     1      77.177  35.168  53.602  1.00  0.00     0.007 C 
ATOM     17  C   UNL     1      76.804  33.558  51.653  1.00  0.00     0.012 C 
ATOM     18  C   UNL     1      74.258  35.254  52.765  1.00  0.00     0.004 C 
ATOM     19  C   UNL     1      76.083  34.557  54.508  1.00  0.00     0.005 C 
ATOM     20  C   UNL     1      74.650  35.139  54.277  1.00  0.00     0.003 C 
ATOM     21  C   UNL     1      73.479  34.028  52.262  1.00  0.00     0.085 C 
ATOM     22  C   UNL     1      73.519  34.476  55.201  1.00  0.00    -0.000 C 
ATOM     23  C   UNL     1      72.194  33.957  53.027  1.00  0.00     0.159 C 
ATOM     24  C   UNL     1      72.177  34.358  54.456  1.00  0.00     0.005 C 
ATOM     25  C   UNL     1      73.346  35.371  56.473  1.00  0.00     0.020 C 
ATOM     26  C   UNL     1      73.885  33.030  55.643  1.00  0.00     0.017 C 
ATOM     27  O   UNL     1      71.143  33.579  52.444  1.00  0.00    -0.295 OA
ATOM     28  C   UNL     1      71.000  34.487  55.099  1.00  0.00     0.055 C 
ATOM     29  C   UNL     1      72.167  34.949  57.354  1.00  0.00     0.081 C 
ATOM     30  C   UNL     1      70.923  34.817  56.531  1.00  0.00     0.156 C 
ATOM     31  O   UNL     1      69.799  34.963  57.076  1.00  0.00    -0.295 OA
ENDBRANCH   9  11
ENDBRANCH   8   9
ENDBRANCH   1   8
TORSDOF 6
ENDMDL
MODEL 5
REMARK VINA RESULT:    16.790      1.531      2.747
REMARK INTER + INTRA:          24.082
REMARK INTER:                  21.064
REMARK INTRA:                   3.018
REMARK UNBOUND:                 1.403
REMARK SMILES CC[C@H](CC[C@H](C)[C@H]1CC[C@H]2[C@H]3CC(=O)C4=CC(=O)CC[C@]4(C)[C@H]3CC[C@]12C)C(C)C
REMARK SMILES IDX 4 1 3 2 2 3 1 4 29 5 30 6 31 7 5 8 6 9 7 10 8 11 9 12 27 13
REMARK SMILES IDX 10 14 11 15 26 16 28 17 12 18 25 19 24 20 13 21 22 22 14 23
REMARK SMILES IDX 16 24 21 25 23 26 15 27 17 28 20 29 18 30 19 31
REMARK H PARENT
REMARK Flexibility Score: inf
ROOT
ATOM      1  C   UNL     1      71.727  33.490  55.230  1.00  0.00     0.004 C 
ENDROOT
BRANCH   1   2
ATOM      2  C   UNL     1      72.134  34.158  56.586  1.00  0.00    -0.009 C 
BRANCH   2   3
ATOM      3  C   UNL     1      70.969  34.999  57.176  1.00  0.00     0.000 C 
ATOM      4  C   UNL     1      69.616  34.643  56.552  1.00  0.00     0.004 C 
ENDBRANCH   2   3
BRANCH   2   5
ATOM      5  C   UNL     1      72.694  33.104  57.598  1.00  0.00    -0.014 C 
ATOM      6  C   UNL     1      74.010  32.471  57.110  1.00  0.00     0.007 C 
ATOM      7  C   UNL     1      72.869  33.657  59.029  1.00  0.00     0.007 C 
ENDBRANCH   2   5
ENDBRANCH   1   2
BRANCH   1   8
ATOM      8  C   UNL     1      71.326  34.513  54.144  1.00  0.00     0.004 C 
BRANCH   8   9
ATOM      9  C   UNL     1      72.547  35.201  53.450  1.00  0.00    -0.011 C 
ATOM     10  C   UNL     1      72.354  35.122  51.920  1.00  0.00     0.008 C 
BRANCH   9  11
ATOM     11  C   UNL     1      73.911  34.548  53.882  1.00  0.00    -0.002 C 
ATOM     12  C   UNL     1      73.816  33.021  54.152  1.00  0.00     0.005 C 
ATOM     13  C   UNL     1      75.135  34.660  52.911  1.00  0.00    -0.026 C 
ATOM     14  C   UNL     1      75.204  32.422  53.870  1.00  0.00     0.005 C 
ATOM     15  C   UNL     1      76.072  33.636  53.570  1.00  0.00    -0.001 C 
ATOM     16  C   UNL     1      75.874  36.021  52.918  1.00  0.00     0.007 C 
ATOM     17  C   UNL     1      74.713  34.274  51.458  1.00  0.00     0.012 C 
ATOM     18  C   UNL     1      77.482  33.444  52.955  1.00  0.00     0.004 C 
ATOM     19  C   UNL     1      77.236  35.937  52.191  1.00  0.00     0.005 C 
ATOM     20  C   UNL     1      78.191  34.822  52.732  1.00  0.00     0.003 C 
ATOM     21  C   UNL     1      77.619  32.508  51.743  1.00  0.00     0.085 C 
ATOM     22  C   UNL     1      79.589  34.725  51.951  1.00  0.00    -0.000 C 
ATOM     23  C   UNL     1      79.074  32.209  51.559  1.00  0.00     0.159 C 
ATOM     24  C   UNL     1      80.075  33.268  51.841  1.00  0.00     0.005 C 
ATOM     25  C   UNL     1      80.641  35.580  52.732  1.00  0.00     0.020 C 
ATOM     26  C   UNL     1      79.491  35.249  50.490  1.00  0.00     0.017 C 
ATOM     27  O   UNL     1      79.431  31.058  51.187  1.00  0.00    -0.295 OA
ATOM     28  C   UNL     1      81.385  32.958  51.869  1.00  0.00     0.055 C 
ATOM     29  C   UNL     1      82.067  35.426  52.193  1.00  0.00     0.081 C 
ATOM     30  C   UNL     1      82.426  33.977  52.078  1.00  0.00     0.156 C 
ATOM     31  O   UNL     1      83.634  33.630  52.134  1.00  0.00    -0.295 OA
ENDBRANCH   9  11
ENDBRANCH   8   9
ENDBRANCH   1   8
TORSDOF 6
ENDMDL
MODEL 6
REMARK VINA RESULT:    17.559      3.024      8.017
REMARK INTER + INTRA:          25.121
REMARK INTER:                  25.476
REMARK INTRA:                  -0.355
REMARK UNBOUND:                 1.403
REMARK SMILES CC[C@H](CC[C@H](C)[C@H]1CC[C@H]2[C@H]3CC(=O)C4=CC(=O)CC[C@]4(C)[C@H]3CC[C@]12C)C(C)C
REMARK SMILES IDX 4 1 3 2 2 3 1 4 29 5 30 6 31 7 5 8 6 9 7 10 8 11 9 12 27 13
REMARK SMILES IDX 10 14 11 15 26 16 28 17 12 18 25 19 24 20 13 21 22 22 14 23
REMARK SMILES IDX 16 24 21 25 23 26 15 27 17 28 20 29 18 30 19 31
REMARK H PARENT
REMARK Flexibility Score: inf
ROOT
ATOM      1  C   UNL     1      82.127  33.589  51.594  1.00  0.00     0.004 C 
ENDROOT
BRANCH   1   2
ATOM      2  C   UNL     1      81.498  33.066  52.929  1.00  0.00    -0.009 C 
BRANCH   2   3
ATOM      3  C   UNL     1      80.869  34.222  53.751  1.00  0.00     0.000 C 
ATOM      4  C   UNL     1      81.836  35.394  53.952  1.00  0.00     0.004 C 
ENDBRANCH   2   3
BRANCH   2   5
ATOM      5  C   UNL     1      80.497  31.892  52.668  1.00  0.00    -0.014 C 
ATOM      6  C   UNL     1      80.458  31.480  51.185  1.00  0.00     0.007 C 
ATOM      7  C   UNL     1      80.752  30.655  53.556  1.00  0.00     0.007 C 
ENDBRANCH   2   5
ENDBRANCH   1   2
BRANCH   1   8
ATOM      8  C   UNL     1      81.409  34.837  51.033  1.00  0.00     0.004 C 
BRANCH   8   9
ATOM      9  C   UNL     1      80.091  34.507  50.260  1.00  0.00    -0.011 C 
ATOM     10  C   UNL     1      80.277  34.897  48.777  1.00  0.00     0.008 C 
BRANCH   9  11
ATOM     11  C   UNL     1      78.846  35.239  50.884  1.00  0.00    -0.002 C 
ATOM     12  C   UNL     1      78.029  36.070  49.857  1.00  0.00     0.005 C 
ATOM     13  C   UNL     1      77.749  34.375  51.594  1.00  0.00    -0.026 C 
ATOM     14  C   UNL     1      76.579  36.125  50.367  1.00  0.00     0.005 C 
ATOM     15  C   UNL     1      76.642  35.434  51.721  1.00  0.00    -0.001 C 
ATOM     16  C   UNL     1      78.092  33.902  53.028  1.00  0.00     0.007 C 
ATOM     17  C   UNL     1      77.349  33.161  50.698  1.00  0.00     0.012 C 
ATOM     18  C   UNL     1      75.331  35.026  52.442  1.00  0.00     0.004 C 
ATOM     19  C   UNL     1      76.848  33.348  53.761  1.00  0.00     0.005 C 
ATOM     20  C   UNL     1      75.634  34.333  53.813  1.00  0.00     0.003 C 
ATOM     21  C   UNL     1      74.263  34.280  51.627  1.00  0.00     0.085 C 
ATOM     22  C   UNL     1      74.340  33.737  54.549  1.00  0.00    -0.000 C 
ATOM     23  C   UNL     1      72.986  34.313  52.409  1.00  0.00     0.159 C 
ATOM     24  C   UNL     1      73.038  34.225  53.889  1.00  0.00     0.005 C 
ATOM     25  C   UNL     1      74.382  34.190  56.047  1.00  0.00     0.020 C 
ATOM     26  C   UNL     1      74.287  32.183  54.489  1.00  0.00     0.017 C 
ATOM     27  O   UNL     1      71.888  34.436  51.802  1.00  0.00    -0.295 OA
ATOM     28  C   UNL     1      71.923  34.450  54.611  1.00  0.00     0.055 C 
ATOM     29  C   UNL     1      73.108  33.838  56.821  1.00  0.00     0.081 C 
ATOM     30  C   UNL     1      71.899  34.313  56.076  1.00  0.00     0.156 C 
ATOM     31  O   UNL     1      70.842  34.571  56.708  1.00  0.00    -0.295 OA
ENDBRANCH   9  11
ENDBRANCH   8   9
ENDBRANCH   1   8
TORSDOF 6
ENDMDL
