MODEL 1
REMARK VINA RESULT:    -2.184      0.000      0.000
REMARK INTER + INTRA:          -2.184
REMARK INTER:                  -2.184
REMARK INTRA:                   0.000
REMARK UNBOUND:                 0.000
REMARK SMILES CC(=O)[O-]
REMARK SMILES IDX 1 1 2 2 3 3 4 4
REMARK H PARENT
REMARK Flexibility Score: inf
ROOT
ATOM      1  C   UNL     1     -15.480 -10.065   7.312  1.00  0.00     0.063 C 
ATOM      2  C   UNL     1     -15.455  -9.756   8.770  1.00  0.00     0.038 C 
ATOM      3  O   UNL     1     -16.366  -9.053   9.283  1.00  0.00    -0.550 OA
ATOM      4  O   UNL     1     -14.400 -10.196   9.558  1.00  0.00    -0.550 OA
ENDROOT
TORSDOF 0
ENDMDL
MODEL 2
REMARK VINA RESULT:    -2.143      1.404      1.768
REMARK INTER + INTRA:          -2.143
REMARK INTER:                  -2.143
REMARK INTRA:                   0.000
REMARK UNBOUND:                 0.000
REMARK SMILES CC(=O)[O-]
REMARK SMILES IDX 1 1 2 2 3 3 4 4
REMARK H PARENT
REMARK Flexibility Score: inf
ROOT
ATOM      1  C   UNL     1     -14.094 -10.017   9.111  1.00  0.00     0.063 C 
ATOM      2  C   UNL     1     -15.429  -9.711   8.522  1.00  0.00     0.038 C 
ATOM      3  O   UNL     1     -16.327  -9.184   9.231  1.00  0.00    -0.550 OA
ATOM      4  O   UNL     1     -15.705 -10.054   7.205  1.00  0.00    -0.550 OA
ENDROOT
TORSDOF 0
ENDMDL
MODEL 3
REMARK VINA RESULT:    -2.130      1.466      1.958
REMARK INTER + INTRA:          -2.130
REMARK INTER:                  -2.130
REMARK INTRA:                   0.000
REMARK UNBOUND:                 0.000
REMARK SMILES CC(=O)[O-]
REMARK SMILES IDX 1 1 2 2 3 3 4 4
REMARK H PARENT
REMARK Flexibility Score: inf
ROOT
ATOM      1  C   UNL     1     -14.010  -9.984   8.689  1.00  0.00     0.063 C 
ATOM      2  C   UNL     1     -15.423  -9.769   8.264  1.00  0.00     0.038 C 
ATOM      3  O   UNL     1     -15.774 -10.028   7.083  1.00  0.00    -0.550 OA
ATOM      4  O   UNL     1     -16.344  -9.233   9.155  1.00  0.00    -0.550 OA
ENDROOT
TORSDOF 0
ENDMDL
MODEL 4
REMARK VINA RESULT:    -2.123      2.033      2.601
REMARK INTER + INTRA:          -2.123
REMARK INTER:                  -2.123
REMARK INTRA:                   0.000
REMARK UNBOUND:                 0.000
REMARK SMILES CC(=O)[O-]
REMARK SMILES IDX 1 1 2 2 3 3 4 4
REMARK H PARENT
REMARK Flexibility Score: inf
ROOT
ATOM      1  C   UNL     1     -15.511 -10.079   7.167  1.00  0.00     0.063 C 
ATOM      2  C   UNL     1     -14.037 -10.228   7.338  1.00  0.00     0.038 C 
ATOM      3  O   UNL     1     -13.543 -10.339   8.491  1.00  0.00    -0.550 OA
ATOM      4  O   UNL     1     -13.199 -10.190   6.231  1.00  0.00    -0.550 OA
ENDROOT
TORSDOF 0
ENDMDL
MODEL 5
REMARK VINA RESULT:    -2.111      1.813      2.286
REMARK INTER + INTRA:          -2.111
REMARK INTER:                  -2.111
REMARK INTRA:                   0.000
REMARK UNBOUND:                 0.000
REMARK SMILES CC(=O)[O-]
REMARK SMILES IDX 1 1 2 2 3 3 4 4
REMARK H PARENT
REMARK Flexibility Score: inf
ROOT
ATOM      1  C   UNL     1     -13.319 -10.370   6.728  1.00  0.00     0.063 C 
ATOM      2  C   UNL     1     -14.507 -10.078   7.579  1.00  0.00     0.038 C 
ATOM      3  O   UNL     1     -14.374  -9.944   8.825  1.00  0.00    -0.550 OA
ATOM      4  O   UNL     1     -15.772 -10.006   7.010  1.00  0.00    -0.550 OA
ENDROOT
TORSDOF 0
ENDMDL
MODEL 6
REMARK VINA RESULT:    -2.087      1.617      1.914
REMARK INTER + INTRA:          -2.087
REMARK INTER:                  -2.087
REMARK INTRA:                   0.000
REMARK UNBOUND:                 0.000
REMARK SMILES CC(=O)[O-]
REMARK SMILES IDX 1 1 2 2 3 3 4 4
REMARK H PARENT
REMARK Flexibility Score: inf
ROOT
ATOM      1  C   UNL     1     -15.491  -9.619   9.453  1.00  0.00     0.063 C 
ATOM      2  C   UNL     1     -15.016  -9.921   8.072  1.00  0.00     0.038 C 
ATOM      3  O   UNL     1     -15.825  -9.900   7.107  1.00  0.00    -0.550 OA
ATOM      4  O   UNL     1     -13.692 -10.278   7.853  1.00  0.00    -0.550 OA
ENDROOT
TORSDOF 0
ENDMDL
MODEL 7
REMARK VINA RESULT:    -2.025     14.076     14.651
REMARK INTER + INTRA:          -2.025
REMARK INTER:                  -2.025
REMARK INTRA:                   0.000
REMARK UNBOUND:                 0.000
REMARK SMILES CC(=O)[O-]
REMARK SMILES IDX 1 1 2 2 3 3 4 4
REMARK H PARENT
REMARK Flexibility Score: inf
ROOT
ATOM      1  C   UNL     1     -11.360 -20.579  17.263  1.00  0.00     0.063 C 
ATOM      2  C   UNL     1     -11.913 -19.997  18.519  1.00  0.00     0.038 C 
ATOM      3  O   UNL     1     -11.474 -20.374  19.637  1.00  0.00    -0.550 OA
ATOM      4  O   UNL     1     -12.952 -19.078  18.462  1.00  0.00    -0.550 OA
ENDROOT
TORSDOF 0
ENDMDL
MODEL 8
REMARK VINA RESULT:    -1.955     12.794     13.441
REMARK INTER + INTRA:          -1.955
REMARK INTER:                  -1.955
REMARK INTRA:                   0.000
REMARK UNBOUND:                 0.000
REMARK SMILES CC(=O)[O-]
REMARK SMILES IDX 1 1 2 2 3 3 4 4
REMARK H PARENT
REMARK Flexibility Score: inf
ROOT
ATOM      1  C   UNL     1     -11.390 -20.436  16.469  1.00  0.00     0.063 C 
ATOM      2  C   UNL     1     -10.898 -20.490  15.062  1.00  0.00     0.038 C 
ATOM      3  O   UNL     1      -9.728 -20.886  14.816  1.00  0.00    -0.550 OA
ATOM      4  O   UNL     1     -11.709 -20.051  14.023  1.00  0.00    -0.550 OA
ENDROOT
TORSDOF 0
ENDMDL
MODEL 9
REMARK VINA RESULT:    -1.932      4.632      5.077
REMARK INTER + INTRA:          -1.932
REMARK INTER:                  -1.932
REMARK INTRA:                   0.000
REMARK UNBOUND:                 0.000
REMARK SMILES CC(=O)[O-]
REMARK SMILES IDX 1 1 2 2 3 3 4 4
REMARK H PARENT
REMARK Flexibility Score: inf
ROOT
ATOM      1  C   UNL     1     -12.981 -10.361   6.572  1.00  0.00     0.063 C 
ATOM      2  C   UNL     1     -11.594 -10.289   6.032  1.00  0.00     0.038 C 
ATOM      3  O   UNL     1     -10.952 -11.346   5.795  1.00  0.00    -0.550 OA
ATOM      4  O   UNL     1     -10.985  -9.056   5.839  1.00  0.00    -0.550 OA
ENDROOT
TORSDOF 0
ENDMDL
