MODEL 1
REMARK VINA RESULT:    -6.215      0.000      0.000
REMARK INTER + INTRA:          -6.853
REMARK INTER:                  -6.578
REMARK INTRA:                  -0.275
REMARK UNBOUND:                -0.275
REMARK SMILES CC1=C[C@H]2C(=C(C)CC[C@@H]2C(C)C)CC1
REMARK SMILES IDX 1 1 2 2 3 3 4 4 10 5 9 6 8 7 6 8 5 9 14 10 15 11 7 12 11 13
REMARK SMILES IDX 12 14 13 15
REMARK H PARENT
REMARK Flexibility Score: inf
ROOT
ATOM      1  C   UNL     1       3.658  -4.703  20.336  1.00  0.00     0.039 C 
ATOM      2  C   UNL     1       4.287  -3.634  19.487  1.00  0.00    -0.076 C 
ATOM      3  C   UNL     1       3.899  -3.470  18.209  1.00  0.00    -0.020 C 
ATOM      4  C   UNL     1       4.569  -2.419  17.344  1.00  0.00     0.041 C 
ATOM      5  C   UNL     1       4.155  -2.551  15.852  1.00  0.00     0.003 C 
ATOM      6  C   UNL     1       5.110  -1.713  14.985  1.00  0.00     0.009 C 
ATOM      7  C   UNL     1       6.536  -2.236  15.120  1.00  0.00     0.031 C 
ATOM      8  C   UNL     1       6.982  -2.354  16.561  1.00  0.00    -0.073 C 
ATOM      9  C   UNL     1       6.083  -2.497  17.578  1.00  0.00    -0.064 C 
ATOM     10  C   UNL     1       6.563  -2.696  19.016  1.00  0.00     0.036 C 
ATOM     11  C   UNL     1       5.402  -2.765  20.023  1.00  0.00     0.035 C 
ATOM     12  C   UNL     1       8.470  -2.431  16.816  1.00  0.00     0.039 C 
ENDROOT
BRANCH   5  13
ATOM     13  C   UNL     1       2.649  -2.193  15.609  1.00  0.00    -0.013 C 
ATOM     14  C   UNL     1       2.125  -2.825  14.310  1.00  0.00     0.007 C 
ATOM     15  C   UNL     1       2.354  -0.681  15.610  1.00  0.00     0.007 C 
ENDBRANCH   5  13
TORSDOF 1
ENDMDL
MODEL 2
REMARK VINA RESULT:    -5.866      1.962      4.596
REMARK INTER + INTRA:          -6.484
REMARK INTER:                  -6.218
REMARK INTRA:                  -0.266
REMARK UNBOUND:                -0.275
REMARK SMILES CC1=C[C@H]2C(=C(C)CC[C@@H]2C(C)C)CC1
REMARK SMILES IDX 1 1 2 2 3 3 4 4 10 5 9 6 8 7 6 8 5 9 14 10 15 11 7 12 11 13
REMARK SMILES IDX 12 14 13 15
REMARK H PARENT
REMARK Flexibility Score: inf
ROOT
ATOM      1  C   UNL     1       1.554  -0.521  14.582  1.00  0.00     0.039 C 
ATOM      2  C   UNL     1       2.267  -1.574  15.383  1.00  0.00    -0.076 C 
ATOM      3  C   UNL     1       1.856  -1.869  16.630  1.00  0.00    -0.020 C 
ATOM      4  C   UNL     1       2.608  -2.901  17.449  1.00  0.00     0.041 C 
ATOM      5  C   UNL     1       2.132  -2.921  18.928  1.00  0.00     0.003 C 
ATOM      6  C   UNL     1       3.142  -3.713  19.776  1.00  0.00     0.009 C 
ATOM      7  C   UNL     1       4.507  -3.033  19.735  1.00  0.00     0.031 C 
ATOM      8  C   UNL     1       4.985  -2.766  18.325  1.00  0.00    -0.073 C 
ATOM      9  C   UNL     1       4.111  -2.647  17.284  1.00  0.00    -0.064 C 
ATOM     10  C   UNL     1       4.614  -2.297  15.883  1.00  0.00     0.036 C 
ATOM     11  C   UNL     1       3.487  -2.280  14.836  1.00  0.00     0.035 C 
ATOM     12  C   UNL     1       6.464  -2.514  18.137  1.00  0.00     0.039 C 
ENDROOT
BRANCH   5  13
ATOM     13  C   UNL     1       0.666  -3.453  19.085  1.00  0.00    -0.013 C 
ATOM     14  C   UNL     1      -0.237  -2.417  19.774  1.00  0.00     0.007 C 
ATOM     15  C   UNL     1       0.562  -4.805  19.817  1.00  0.00     0.007 C 
ENDBRANCH   5  13
TORSDOF 1
ENDMDL
MODEL 3
REMARK VINA RESULT:    -5.782      1.091      4.180
REMARK INTER + INTRA:          -6.395
REMARK INTER:                  -6.178
REMARK INTRA:                  -0.217
REMARK UNBOUND:                -0.275
REMARK SMILES CC1=C[C@H]2C(=C(C)CC[C@@H]2C(C)C)CC1
REMARK SMILES IDX 1 1 2 2 3 3 4 4 10 5 9 6 8 7 6 8 5 9 14 10 15 11 7 12 11 13
REMARK SMILES IDX 12 14 13 15
REMARK H PARENT
REMARK Flexibility Score: inf
ROOT
ATOM      1  C   UNL     1       1.748  -0.374  15.047  1.00  0.00     0.039 C 
ATOM      2  C   UNL     1       2.808  -1.368  15.433  1.00  0.00    -0.076 C 
ATOM      3  C   UNL     1       3.002  -1.680  16.727  1.00  0.00    -0.020 C 
ATOM      4  C   UNL     1       4.103  -2.650  17.113  1.00  0.00     0.041 C 
ATOM      5  C   UNL     1       4.322  -2.690  18.651  1.00  0.00     0.003 C 
ATOM      6  C   UNL     1       5.652  -3.402  18.955  1.00  0.00     0.009 C 
ATOM      7  C   UNL     1       6.813  -2.628  18.340  1.00  0.00     0.031 C 
ATOM      8  C   UNL     1       6.609  -2.340  16.869  1.00  0.00    -0.073 C 
ATOM      9  C   UNL     1       5.363  -2.292  16.315  1.00  0.00    -0.064 C 
ATOM     10  C   UNL     1       5.180  -1.920  14.844  1.00  0.00     0.036 C 
ATOM     11  C   UNL     1       3.711  -1.991  14.393  1.00  0.00     0.035 C 
ATOM     12  C   UNL     1       7.837  -1.986  16.061  1.00  0.00     0.039 C 
ENDROOT
BRANCH   5  13
ATOM     13  C   UNL     1       3.111  -3.323  19.418  1.00  0.00    -0.013 C 
ATOM     14  C   UNL     1       3.510  -3.755  20.838  1.00  0.00     0.007 C 
ATOM     15  C   UNL     1       2.446  -4.501  18.682  1.00  0.00     0.007 C 
ENDBRANCH   5  13
TORSDOF 1
ENDMDL
MODEL 4
REMARK VINA RESULT:    -5.772      1.719      4.851
REMARK INTER + INTRA:          -6.384
REMARK INTER:                  -6.133
REMARK INTRA:                  -0.251
REMARK UNBOUND:                -0.275
REMARK SMILES CC1=C[C@H]2C(=C(C)CC[C@@H]2C(C)C)CC1
REMARK SMILES IDX 1 1 2 2 3 3 4 4 10 5 9 6 8 7 6 8 5 9 14 10 15 11 7 12 11 13
REMARK SMILES IDX 12 14 13 15
REMARK H PARENT
REMARK Flexibility Score: inf
ROOT
ATOM      1  C   UNL     1      -0.652  -0.174  15.528  1.00  0.00     0.039 C 
ATOM      2  C   UNL     1       0.452  -1.192  15.600  1.00  0.00    -0.076 C 
ATOM      3  C   UNL     1       0.963  -1.552  16.792  1.00  0.00    -0.020 C 
ATOM      4  C   UNL     1       2.107  -2.546  16.855  1.00  0.00     0.041 C 
ATOM      5  C   UNL     1       2.709  -2.642  18.284  1.00  0.00     0.003 C 
ATOM      6  C   UNL     1       4.058  -3.378  18.218  1.00  0.00     0.009 C 
ATOM      7  C   UNL     1       5.039  -2.596  17.351  1.00  0.00     0.031 C 
ATOM      8  C   UNL     1       4.474  -2.256  15.990  1.00  0.00    -0.073 C 
ATOM      9  C   UNL     1       3.129  -2.174  15.774  1.00  0.00    -0.064 C 
ATOM     10  C   UNL     1       2.586  -1.750  14.410  1.00  0.00     0.036 C 
ATOM     11  C   UNL     1       1.049  -1.789  14.346  1.00  0.00     0.035 C 
ATOM     12  C   UNL     1       5.463  -1.887  14.907  1.00  0.00     0.039 C 
ENDROOT
BRANCH   5  13
ATOM     13  C   UNL     1       1.721  -3.288  19.315  1.00  0.00    -0.013 C 
ATOM     14  C   UNL     1       2.440  -3.672  20.618  1.00  0.00     0.007 C 
ATOM     15  C   UNL     1       0.946  -4.502  18.769  1.00  0.00     0.007 C 
ENDBRANCH   5  13
TORSDOF 1
ENDMDL
MODEL 5
REMARK VINA RESULT:    -5.730      1.809      2.593
REMARK INTER + INTRA:          -6.340
REMARK INTER:                  -6.048
REMARK INTRA:                  -0.291
REMARK UNBOUND:                -0.275
REMARK SMILES CC1=C[C@H]2C(=C(C)CC[C@@H]2C(C)C)CC1
REMARK SMILES IDX 1 1 2 2 3 3 4 4 10 5 9 6 8 7 6 8 5 9 14 10 15 11 7 12 11 13
REMARK SMILES IDX 12 14 13 15
REMARK H PARENT
REMARK Flexibility Score: inf
ROOT
ATOM      1  C   UNL     1       0.319  -5.299  19.713  1.00  0.00     0.039 C 
ATOM      2  C   UNL     1       1.188  -4.152  19.278  1.00  0.00    -0.076 C 
ATOM      3  C   UNL     1       1.209  -3.773  17.987  1.00  0.00    -0.020 C 
ATOM      4  C   UNL     1       2.122  -2.644  17.546  1.00  0.00     0.041 C 
ATOM      5  C   UNL     1       2.182  -2.523  15.998  1.00  0.00     0.003 C 
ATOM      6  C   UNL     1       3.363  -1.620  15.605  1.00  0.00     0.009 C 
ATOM      7  C   UNL     1       4.675  -2.241  16.073  1.00  0.00     0.031 C 
ATOM      8  C   UNL     1       4.659  -2.602  17.542  1.00  0.00    -0.073 C 
ATOM      9  C   UNL     1       3.492  -2.846  18.206  1.00  0.00    -0.064 C 
ATOM     10  C   UNL     1       3.508  -3.288  19.669  1.00  0.00     0.036 C 
ATOM     11  C   UNL     1       2.094  -3.442  20.257  1.00  0.00     0.035 C 
ATOM     12  C   UNL     1       5.998  -2.805  18.215  1.00  0.00     0.039 C 
ENDROOT
BRANCH   5  13
ATOM     13  C   UNL     1       0.825  -2.043  15.376  1.00  0.00    -0.013 C 
ATOM     14  C   UNL     1       0.931  -1.886  13.851  1.00  0.00     0.007 C 
ATOM     15  C   UNL     1       0.271  -0.747  15.997  1.00  0.00     0.007 C 
ENDBRANCH   5  13
TORSDOF 1
ENDMDL
MODEL 6
REMARK VINA RESULT:    -5.714      1.505      5.292
REMARK INTER + INTRA:          -6.323
REMARK INTER:                  -6.057
REMARK INTRA:                  -0.266
REMARK UNBOUND:                -0.275
REMARK SMILES CC1=C[C@H]2C(=C(C)CC[C@@H]2C(C)C)CC1
REMARK SMILES IDX 1 1 2 2 3 3 4 4 10 5 9 6 8 7 6 8 5 9 14 10 15 11 7 12 11 13
REMARK SMILES IDX 12 14 13 15
REMARK H PARENT
REMARK Flexibility Score: inf
ROOT
ATOM      1  C   UNL     1       3.031  -1.106  13.773  1.00  0.00     0.039 C 
ATOM      2  C   UNL     1       2.838  -1.377  15.239  1.00  0.00    -0.076 C 
ATOM      3  C   UNL     1       3.863  -1.830  15.983  1.00  0.00    -0.020 C 
ATOM      4  C   UNL     1       3.650  -2.144  17.452  1.00  0.00     0.041 C 
ATOM      5  C   UNL     1       4.873  -2.877  18.068  1.00  0.00     0.003 C 
ATOM      6  C   UNL     1       4.475  -3.474  19.429  1.00  0.00     0.009 C 
ATOM      7  C   UNL     1       3.362  -4.500  19.245  1.00  0.00     0.031 C 
ATOM      8  C   UNL     1       2.188  -3.955  18.462  1.00  0.00    -0.073 C 
ATOM      9  C   UNL     1       2.330  -2.912  17.594  1.00  0.00    -0.064 C 
ATOM     10  C   UNL     1       1.145  -2.433  16.755  1.00  0.00     0.036 C 
ATOM     11  C   UNL     1       1.487  -1.204  15.894  1.00  0.00     0.035 C 
ATOM     12  C   UNL     1       0.875  -4.694  18.588  1.00  0.00     0.039 C 
ENDROOT
BRANCH   5  13
ATOM     13  C   UNL     1       6.143  -1.963  18.160  1.00  0.00    -0.013 C 
ATOM     14  C   UNL     1       7.362  -2.628  17.500  1.00  0.00     0.007 C 
ATOM     15  C   UNL     1       6.500  -1.524  19.592  1.00  0.00     0.007 C 
ENDBRANCH   5  13
TORSDOF 1
ENDMDL
MODEL 7
REMARK VINA RESULT:    -5.657      4.027      6.534
REMARK INTER + INTRA:          -6.262
REMARK INTER:                  -5.978
REMARK INTRA:                  -0.284
REMARK UNBOUND:                -0.275
REMARK SMILES CC1=C[C@H]2C(=C(C)CC[C@@H]2C(C)C)CC1
REMARK SMILES IDX 1 1 2 2 3 3 4 4 10 5 9 6 8 7 6 8 5 9 14 10 15 11 7 12 11 13
REMARK SMILES IDX 12 14 13 15
REMARK H PARENT
REMARK Flexibility Score: inf
ROOT
ATOM      1  C   UNL     1      -1.228  -0.358  22.385  1.00  0.00     0.039 C 
ATOM      2  C   UNL     1      -1.051  -1.247  21.186  1.00  0.00    -0.076 C 
ATOM      3  C   UNL     1      -0.112  -2.211  21.192  1.00  0.00    -0.020 C 
ATOM      4  C   UNL     1       0.091  -3.076  19.962  1.00  0.00     0.041 C 
ATOM      5  C   UNL     1       1.369  -3.953  20.079  1.00  0.00     0.003 C 
ATOM      6  C   UNL     1       1.715  -4.532  18.697  1.00  0.00     0.009 C 
ATOM      7  C   UNL     1       2.013  -3.403  17.716  1.00  0.00     0.031 C 
ATOM      8  C   UNL     1       0.918  -2.361  17.673  1.00  0.00    -0.073 C 
ATOM      9  C   UNL     1       0.072  -2.169  18.726  1.00  0.00    -0.064 C 
ATOM     10  C   UNL     1      -0.975  -1.055  18.689  1.00  0.00     0.036 C 
ATOM     11  C   UNL     1      -1.876  -1.047  19.936  1.00  0.00     0.035 C 
ATOM     12  C   UNL     1       0.877  -1.456  16.462  1.00  0.00     0.039 C 
ENDROOT
BRANCH   5  13
ATOM     13  C   UNL     1       1.245  -5.060  21.182  1.00  0.00    -0.013 C 
ATOM     14  C   UNL     1       2.601  -5.723  21.467  1.00  0.00     0.007 C 
ATOM     15  C   UNL     1       0.190  -6.139  20.873  1.00  0.00     0.007 C 
ENDBRANCH   5  13
TORSDOF 1
ENDMDL
MODEL 8
REMARK VINA RESULT:    -5.655      2.035      4.256
REMARK INTER + INTRA:          -6.260
REMARK INTER:                  -5.993
REMARK INTRA:                  -0.267
REMARK UNBOUND:                -0.275
REMARK SMILES CC1=C[C@H]2C(=C(C)CC[C@@H]2C(C)C)CC1
REMARK SMILES IDX 1 1 2 2 3 3 4 4 10 5 9 6 8 7 6 8 5 9 14 10 15 11 7 12 11 13
REMARK SMILES IDX 12 14 13 15
REMARK H PARENT
REMARK Flexibility Score: inf
ROOT
ATOM      1  C   UNL     1       6.126  -2.960  19.387  1.00  0.00     0.039 C 
ATOM      2  C   UNL     1       4.722  -3.240  18.932  1.00  0.00    -0.076 C 
ATOM      3  C   UNL     1       4.223  -2.613  17.851  1.00  0.00    -0.020 C 
ATOM      4  C   UNL     1       2.790  -2.867  17.423  1.00  0.00     0.041 C 
ATOM      5  C   UNL     1       2.335  -1.877  16.315  1.00  0.00     0.003 C 
ATOM      6  C   UNL     1       0.805  -1.944  16.173  1.00  0.00     0.009 C 
ATOM      7  C   UNL     1       0.138  -1.520  17.477  1.00  0.00     0.031 C 
ATOM      8  C   UNL     1       0.663  -2.280  18.675  1.00  0.00    -0.073 C 
ATOM      9  C   UNL     1       1.903  -2.849  18.674  1.00  0.00    -0.064 C 
ATOM     10  C   UNL     1       2.441  -3.542  19.926  1.00  0.00     0.036 C 
ATOM     11  C   UNL     1       3.823  -4.180  19.702  1.00  0.00     0.035 C 
ATOM     12  C   UNL     1      -0.195  -2.278  19.920  1.00  0.00     0.039 C 
ENDROOT
BRANCH   5  13
ATOM     13  C   UNL     1       3.077  -2.109  14.954  1.00  0.00    -0.013 C 
ATOM     14  C   UNL     1       3.420  -0.777  14.268  1.00  0.00     0.007 C 
ATOM     15  C   UNL     1       2.320  -3.023  13.973  1.00  0.00     0.007 C 
ENDBRANCH   5  13
TORSDOF 1
ENDMDL
MODEL 9
REMARK VINA RESULT:    -5.611      2.350      3.793
REMARK INTER + INTRA:          -6.214
REMARK INTER:                  -6.089
REMARK INTRA:                  -0.125
REMARK UNBOUND:                -0.275
REMARK SMILES CC1=C[C@H]2C(=C(C)CC[C@@H]2C(C)C)CC1
REMARK SMILES IDX 1 1 2 2 3 3 4 4 10 5 9 6 8 7 6 8 5 9 14 10 15 11 7 12 11 13
REMARK SMILES IDX 12 14 13 15
REMARK H PARENT
REMARK Flexibility Score: inf
ROOT
ATOM      1  C   UNL     1       4.997  -5.144  20.043  1.00  0.00     0.039 C 
ATOM      2  C   UNL     1       4.493  -3.929  19.316  1.00  0.00    -0.076 C 
ATOM      3  C   UNL     1       3.170  -3.722  19.182  1.00  0.00    -0.020 C 
ATOM      4  C   UNL     1       2.669  -2.517  18.409  1.00  0.00     0.041 C 
ATOM      5  C   UNL     1       1.136  -2.588  18.162  1.00  0.00     0.003 C 
ATOM      6  C   UNL     1       0.745  -1.550  17.096  1.00  0.00     0.009 C 
ATOM      7  C   UNL     1       1.444  -1.865  15.777  1.00  0.00     0.031 C 
ATOM      8  C   UNL     1       2.939  -2.031  15.933  1.00  0.00    -0.073 C 
ATOM      9  C   UNL     1       3.499  -2.388  17.125  1.00  0.00    -0.064 C 
ATOM     10  C   UNL     1       5.005  -2.627  17.236  1.00  0.00     0.036 C 
ATOM     11  C   UNL     1       5.449  -2.950  18.674  1.00  0.00     0.035 C 
ATOM     12  C   UNL     1       3.779  -1.906  14.682  1.00  0.00     0.039 C 
ENDROOT
BRANCH   5  13
ATOM     13  C   UNL     1       0.303  -2.440  19.481  1.00  0.00    -0.013 C 
ATOM     14  C   UNL     1      -0.133  -3.809  20.027  1.00  0.00     0.007 C 
ATOM     15  C   UNL     1      -0.922  -1.515  19.351  1.00  0.00     0.007 C 
ENDBRANCH   5  13
TORSDOF 1
ENDMDL
