MODEL 1
REMARK VINA RESULT:    -6.658      0.000      0.000
REMARK INTER + INTRA:         -19.783
REMARK INTER:                 -16.779
REMARK INTRA:                  -3.004
REMARK UNBOUND:                -3.004
REMARK SMILES CCCCCCCCCCCCCCCCCCCCCCCCCCCC(=O)[O-]
REMARK SMILES IDX 15 1 16 2 17 3 18 4 19 5 20 6 21 7 22 8 23 9 24 10 25 11
REMARK SMILES IDX 26 12 27 13 28 14 29 15 30 16 14 17 13 18 12 19 11 20 10 21
REMARK SMILES IDX 9 22 8 23 7 24 6 25 5 26 4 27 3 28 2 29 1 30
REMARK H PARENT
REMARK Flexibility Score: inf
ROOT
ATOM      1  C   UNL     1      13.684   2.201  16.386  1.00  0.00     0.000 C 
ENDROOT
BRANCH   1   2
ATOM      2  C   UNL     1      13.830   2.534  14.891  1.00  0.00     0.000 C 
BRANCH   2   3
ATOM      3  C   UNL     1      15.258   2.386  14.327  1.00  0.00     0.000 C 
BRANCH   3   4
ATOM      4  C   UNL     1      15.449   2.885  12.880  1.00  0.00     0.000 C 
BRANCH   4   5
ATOM      5  C   UNL     1      15.765   1.790  11.845  1.00  0.00     0.000 C 
BRANCH   5   6
ATOM      6  C   UNL     1      16.970   0.921  12.238  1.00  0.00     0.000 C 
BRANCH   6   7
ATOM      7  C   UNL     1      18.010   0.800  11.112  1.00  0.00     0.000 C 
BRANCH   7   8
ATOM      8  C   UNL     1      17.412   0.910   9.693  1.00  0.00     0.000 C 
BRANCH   8   9
ATOM      9  C   UNL     1      18.330   0.290   8.623  1.00  0.00     0.000 C 
BRANCH   9  10
ATOM     10  C   UNL     1      18.609   1.242   7.445  1.00  0.00     0.000 C 
BRANCH  10  11
ATOM     11  C   UNL     1      20.057   1.229   6.923  1.00  0.00     0.000 C 
BRANCH  11  12
ATOM     12  C   UNL     1      20.659  -0.185   6.856  1.00  0.00     0.006 C 
BRANCH  12  13
ATOM     13  C   UNL     1      21.864  -0.257   5.908  1.00  0.00     0.053 C 
BRANCH  13  14
ATOM     14  C   UNL     1      22.419  -1.645   5.816  1.00  0.00     0.041 C 
ATOM     15  O   UNL     1      21.720  -2.632   6.165  1.00  0.00    -0.550 OA
ATOM     16  O   UNL     1      23.692  -1.852   5.302  1.00  0.00    -0.550 OA
ENDBRANCH  13  14
ENDBRANCH  12  13
ENDBRANCH  11  12
ENDBRANCH  10  11
ENDBRANCH   9  10
ENDBRANCH   8   9
ENDBRANCH   7   8
ENDBRANCH   6   7
ENDBRANCH   5   6
ENDBRANCH   4   5
ENDBRANCH   3   4
ENDBRANCH   2   3
ENDBRANCH   1   2
BRANCH   1  17
ATOM     17  C   UNL     1      13.054   3.346  17.194  1.00  0.00     0.000 C 
BRANCH  17  18
ATOM     18  C   UNL     1      13.750   3.503  18.555  1.00  0.00     0.000 C 
BRANCH  18  19
ATOM     19  C   UNL     1      14.755   2.375  18.839  1.00  0.00     0.000 C 
BRANCH  19  20
ATOM     20  C   UNL     1      14.625   1.811  20.265  1.00  0.00     0.000 C 
BRANCH  20  21
ATOM     21  C   UNL     1      14.675   0.272  20.309  1.00  0.00     0.000 C 
BRANCH  21  22
ATOM     22  C   UNL     1      14.049  -0.442  19.095  1.00  0.00    -0.000 C 
BRANCH  22  23
ATOM     23  C   UNL     1      15.039  -1.366  18.366  1.00  0.00    -0.000 C 
BRANCH  23  24
ATOM     24  C   UNL     1      16.379  -1.496  19.108  1.00  0.00    -0.000 C 
BRANCH  24  25
ATOM     25  C   UNL     1      17.585  -1.147  18.222  1.00  0.00    -0.000 C 
BRANCH  25  26
ATOM     26  C   UNL     1      17.834   0.366  18.206  1.00  0.00    -0.000 C 
BRANCH  26  27
ATOM     27  C   UNL     1      17.790   0.919  16.776  1.00  0.00    -0.000 C 
BRANCH  27  28
ATOM     28  C   UNL     1      17.530  -0.203  15.761  1.00  0.00    -0.000 C 
BRANCH  28  29
ATOM     29  C   UNL     1      18.803  -0.629  15.013  1.00  0.00    -0.003 C 
ATOM     30  C   UNL     1      20.061   0.054  15.551  1.00  0.00     0.004 C 
ENDBRANCH  28  29
ENDBRANCH  27  28
ENDBRANCH  26  27
ENDBRANCH  25  26
ENDBRANCH  24  25
ENDBRANCH  23  24
ENDBRANCH  22  23
ENDBRANCH  21  22
ENDBRANCH  20  21
ENDBRANCH  19  20
ENDBRANCH  18  19
ENDBRANCH  17  18
ENDBRANCH   1  17
TORSDOF 26
ENDMDL
MODEL 2
REMARK VINA RESULT:    -6.514      4.016      9.737
REMARK INTER + INTRA:         -19.420
REMARK INTER:                 -15.271
REMARK INTRA:                  -4.149
REMARK UNBOUND:                -3.004
REMARK SMILES CCCCCCCCCCCCCCCCCCCCCCCCCCCC(=O)[O-]
REMARK SMILES IDX 15 1 16 2 17 3 18 4 19 5 20 6 21 7 22 8 23 9 24 10 25 11
REMARK SMILES IDX 26 12 27 13 28 14 29 15 30 16 14 17 13 18 12 19 11 20 10 21
REMARK SMILES IDX 9 22 8 23 7 24 6 25 5 26 4 27 3 28 2 29 1 30
REMARK H PARENT
REMARK Flexibility Score: inf
ROOT
ATOM      1  C   UNL     1      18.719  -0.352  14.362  1.00  0.00     0.000 C 
ENDROOT
BRANCH   1   2
ATOM      2  C   UNL     1      19.261  -1.754  14.693  1.00  0.00     0.000 C 
BRANCH   2   3
ATOM      3  C   UNL     1      19.356  -2.075  16.198  1.00  0.00     0.000 C 
BRANCH   3   4
ATOM      4  C   UNL     1      18.230  -2.973  16.752  1.00  0.00     0.000 C 
BRANCH   4   5
ATOM      5  C   UNL     1      17.059  -2.226  17.415  1.00  0.00     0.000 C 
BRANCH   5   6
ATOM      6  C   UNL     1      17.337  -1.854  18.880  1.00  0.00     0.000 C 
BRANCH   6   7
ATOM      7  C   UNL     1      17.762  -0.386  19.052  1.00  0.00     0.000 C 
BRANCH   7   8
ATOM      8  C   UNL     1      16.603   0.560  19.437  1.00  0.00     0.000 C 
BRANCH   8   9
ATOM      9  C   UNL     1      15.571  -0.126  20.352  1.00  0.00     0.000 C 
BRANCH   9  10
ATOM     10  C   UNL     1      14.132  -0.027  19.815  1.00  0.00     0.000 C 
BRANCH  10  11
ATOM     11  C   UNL     1      13.962  -0.396  18.330  1.00  0.00     0.000 C 
BRANCH  11  12
ATOM     12  C   UNL     1      13.668   0.823  17.438  1.00  0.00     0.006 C 
BRANCH  12  13
ATOM     13  C   UNL     1      13.556   2.121  18.249  1.00  0.00     0.053 C 
BRANCH  13  14
ATOM     14  C   UNL     1      14.008   3.312  17.462  1.00  0.00     0.041 C 
ATOM     15  O   UNL     1      15.232   3.492  17.229  1.00  0.00    -0.550 OA
ATOM     16  O   UNL     1      13.073   4.200  16.947  1.00  0.00    -0.550 OA
ENDBRANCH  13  14
ENDBRANCH  12  13
ENDBRANCH  11  12
ENDBRANCH  10  11
ENDBRANCH   9  10
ENDBRANCH   8   9
ENDBRANCH   7   8
ENDBRANCH   6   7
ENDBRANCH   5   6
ENDBRANCH   4   5
ENDBRANCH   3   4
ENDBRANCH   2   3
ENDBRANCH   1   2
BRANCH   1  17
ATOM     17  C   UNL     1      18.382   0.469  15.615  1.00  0.00     0.000 C 
BRANCH  17  18
ATOM     18  C   UNL     1      16.919   0.940  15.585  1.00  0.00     0.000 C 
BRANCH  18  19
ATOM     19  C   UNL     1      16.024   0.035  14.722  1.00  0.00     0.000 C 
BRANCH  19  20
ATOM     20  C   UNL     1      15.004   0.831  13.890  1.00  0.00     0.000 C 
BRANCH  20  21
ATOM     21  C   UNL     1      15.242   2.353  13.945  1.00  0.00     0.000 C 
BRANCH  21  22
ATOM     22  C   UNL     1      15.473   3.032  12.581  1.00  0.00    -0.000 C 
BRANCH  22  23
ATOM     23  C   UNL     1      15.841   2.036  11.469  1.00  0.00    -0.000 C 
BRANCH  23  24
ATOM     24  C   UNL     1      17.357   1.958  11.226  1.00  0.00    -0.000 C 
BRANCH  24  25
ATOM     25  C   UNL     1      17.811   0.573  10.739  1.00  0.00    -0.000 C 
BRANCH  25  26
ATOM     26  C   UNL     1      17.374   0.331   9.290  1.00  0.00    -0.000 C 
BRANCH  26  27
ATOM     27  C   UNL     1      18.587   0.204   8.360  1.00  0.00    -0.000 C 
BRANCH  27  28
ATOM     28  C   UNL     1      18.639   1.373   7.364  1.00  0.00    -0.000 C 
BRANCH  28  29
ATOM     29  C   UNL     1      20.025   1.538   6.722  1.00  0.00    -0.003 C 
ATOM     30  C   UNL     1      20.834   0.241   6.718  1.00  0.00     0.004 C 
ENDBRANCH  28  29
ENDBRANCH  27  28
ENDBRANCH  26  27
ENDBRANCH  25  26
ENDBRANCH  24  25
ENDBRANCH  23  24
ENDBRANCH  22  23
ENDBRANCH  21  22
ENDBRANCH  20  21
ENDBRANCH  19  20
ENDBRANCH  18  19
ENDBRANCH  17  18
ENDBRANCH   1  17
TORSDOF 26
ENDMDL
MODEL 3
REMARK VINA RESULT:    -6.485      1.386      2.581
REMARK INTER + INTRA:         -19.345
REMARK INTER:                 -15.723
REMARK INTRA:                  -3.622
REMARK UNBOUND:                -3.004
REMARK SMILES CCCCCCCCCCCCCCCCCCCCCCCCCCCC(=O)[O-]
REMARK SMILES IDX 15 1 16 2 17 3 18 4 19 5 20 6 21 7 22 8 23 9 24 10 25 11
REMARK SMILES IDX 26 12 27 13 28 14 29 15 30 16 14 17 13 18 12 19 11 20 10 21
REMARK SMILES IDX 9 22 8 23 7 24 6 25 5 26 4 27 3 28 2 29 1 30
REMARK H PARENT
REMARK Flexibility Score: inf
ROOT
ATOM      1  C   UNL     1      13.913   4.190  17.676  1.00  0.00     0.000 C 
ENDROOT
BRANCH   1   2
ATOM      2  C   UNL     1      13.056   3.244  16.817  1.00  0.00     0.000 C 
BRANCH   2   3
ATOM      3  C   UNL     1      13.740   2.728  15.536  1.00  0.00     0.000 C 
BRANCH   3   4
ATOM      4  C   UNL     1      15.236   2.380  15.683  1.00  0.00     0.000 C 
BRANCH   4   5
ATOM      5  C   UNL     1      15.798   1.427  14.613  1.00  0.00     0.000 C 
BRANCH   5   6
ATOM      6  C   UNL     1      14.751   1.019  13.564  1.00  0.00     0.000 C 
BRANCH   6   7
ATOM      7  C   UNL     1      15.159   1.410  12.133  1.00  0.00     0.000 C 
BRANCH   7   8
ATOM      8  C   UNL     1      16.295   2.454  12.070  1.00  0.00     0.000 C 
BRANCH   8   9
ATOM      9  C   UNL     1      17.471   1.984  11.195  1.00  0.00     0.000 C 
BRANCH   9  10
ATOM     10  C   UNL     1      17.443   0.469  10.914  1.00  0.00     0.000 C 
BRANCH  10  11
ATOM     11  C   UNL     1      17.623   0.075   9.437  1.00  0.00     0.000 C 
BRANCH  11  12
ATOM     12  C   UNL     1      18.500   1.066   8.653  1.00  0.00     0.006 C 
BRANCH  12  13
ATOM     13  C   UNL     1      18.813   0.566   7.236  1.00  0.00     0.053 C 
BRANCH  13  14
ATOM     14  C   UNL     1      20.163   1.020   6.770  1.00  0.00     0.041 C 
ATOM     15  O   UNL     1      20.362   2.230   6.485  1.00  0.00    -0.550 OA
ATOM     16  O   UNL     1      21.212   0.115   6.693  1.00  0.00    -0.550 OA
ENDBRANCH  13  14
ENDBRANCH  12  13
ENDBRANCH  11  12
ENDBRANCH  10  11
ENDBRANCH   9  10
ENDBRANCH   8   9
ENDBRANCH   7   8
ENDBRANCH   6   7
ENDBRANCH   5   6
ENDBRANCH   4   5
ENDBRANCH   3   4
ENDBRANCH   2   3
ENDBRANCH   1   2
BRANCH   1  17
ATOM     17  C   UNL     1      13.984   3.759  19.149  1.00  0.00     0.000 C 
BRANCH  17  18
ATOM     18  C   UNL     1      14.597   2.357  19.280  1.00  0.00     0.000 C 
BRANCH  18  19
ATOM     19  C   UNL     1      14.723   1.899  20.743  1.00  0.00     0.000 C 
BRANCH  19  20
ATOM     20  C   UNL     1      14.851   0.372  20.877  1.00  0.00     0.000 C 
BRANCH  20  21
ATOM     21  C   UNL     1      13.554  -0.374  20.509  1.00  0.00     0.000 C 
BRANCH  21  22
ATOM     22  C   UNL     1      13.652  -1.298  19.281  1.00  0.00    -0.000 C 
BRANCH  22  23
ATOM     23  C   UNL     1      13.985  -0.540  17.984  1.00  0.00    -0.000 C 
BRANCH  23  24
ATOM     24  C   UNL     1      15.355  -0.932  17.408  1.00  0.00    -0.000 C 
BRANCH  24  25
ATOM     25  C   UNL     1      16.239  -1.671  18.426  1.00  0.00    -0.000 C 
BRANCH  25  26
ATOM     26  C   UNL     1      17.573  -0.943  18.624  1.00  0.00    -0.000 C 
BRANCH  26  27
ATOM     27  C   UNL     1      17.488   0.510  18.141  1.00  0.00    -0.000 C 
BRANCH  27  28
ATOM     28  C   UNL     1      18.613   0.825  17.144  1.00  0.00    -0.000 C 
BRANCH  28  29
ATOM     29  C   UNL     1      18.635  -0.145  15.953  1.00  0.00    -0.003 C 
ATOM     30  C   UNL     1      20.041  -0.374  15.401  1.00  0.00     0.004 C 
ENDBRANCH  28  29
ENDBRANCH  27  28
ENDBRANCH  26  27
ENDBRANCH  25  26
ENDBRANCH  24  25
ENDBRANCH  23  24
ENDBRANCH  22  23
ENDBRANCH  21  22
ENDBRANCH  20  21
ENDBRANCH  19  20
ENDBRANCH  18  19
ENDBRANCH  17  18
ENDBRANCH   1  17
TORSDOF 26
ENDMDL
MODEL 4
REMARK VINA RESULT:    -6.392      2.651      8.667
REMARK INTER + INTRA:         -19.111
REMARK INTER:                 -16.431
REMARK INTRA:                  -2.681
REMARK UNBOUND:                -3.004
REMARK SMILES CCCCCCCCCCCCCCCCCCCCCCCCCCCC(=O)[O-]
REMARK SMILES IDX 15 1 16 2 17 3 18 4 19 5 20 6 21 7 22 8 23 9 24 10 25 11
REMARK SMILES IDX 26 12 27 13 28 14 29 15 30 16 14 17 13 18 12 19 11 20 10 21
REMARK SMILES IDX 9 22 8 23 7 24 6 25 5 26 4 27 3 28 2 29 1 30
REMARK H PARENT
REMARK Flexibility Score: inf
ROOT
ATOM      1  C   UNL     1      13.277   2.254  16.810  1.00  0.00     0.000 C 
ENDROOT
BRANCH   1   2
ATOM      2  C   UNL     1      13.345   3.526  17.675  1.00  0.00     0.000 C 
BRANCH   2   3
ATOM      3  C   UNL     1      14.009   3.340  19.054  1.00  0.00     0.000 C 
BRANCH   3   4
ATOM      4  C   UNL     1      14.936   2.113  19.178  1.00  0.00     0.000 C 
BRANCH   4   5
ATOM      5  C   UNL     1      14.769   1.292  20.470  1.00  0.00     0.000 C 
BRANCH   5   6
ATOM      6  C   UNL     1      15.644   0.029  20.495  1.00  0.00     0.000 C 
BRANCH   6   7
ATOM      7  C   UNL     1      16.693   0.008  19.369  1.00  0.00     0.000 C 
BRANCH   7   8
ATOM      8  C   UNL     1      17.017  -1.407  18.843  1.00  0.00     0.000 C 
BRANCH   8   9
ATOM      9  C   UNL     1      16.157  -1.786  17.623  1.00  0.00     0.000 C 
BRANCH   9  10
ATOM     10  C   UNL     1      15.913  -0.603  16.668  1.00  0.00     0.000 C 
BRANCH  10  11
ATOM     11  C   UNL     1      16.438  -0.803  15.234  1.00  0.00     0.000 C 
BRANCH  11  12
ATOM     12  C   UNL     1      17.676   0.055  14.923  1.00  0.00     0.006 C 
BRANCH  12  13
ATOM     13  C   UNL     1      18.749  -0.733  14.157  1.00  0.00     0.053 C 
BRANCH  13  14
ATOM     14  C   UNL     1      19.686  -1.444  15.085  1.00  0.00     0.041 C 
ATOM     15  O   UNL     1      20.072  -2.613  14.824  1.00  0.00    -0.550 OA
ATOM     16  O   UNL     1      20.169  -0.797  16.214  1.00  0.00    -0.550 OA
ENDBRANCH  13  14
ENDBRANCH  12  13
ENDBRANCH  11  12
ENDBRANCH  10  11
ENDBRANCH   9  10
ENDBRANCH   8   9
ENDBRANCH   7   8
ENDBRANCH   6   7
ENDBRANCH   5   6
ENDBRANCH   4   5
ENDBRANCH   3   4
ENDBRANCH   2   3
ENDBRANCH   1   2
BRANCH   1  17
ATOM     17  C   UNL     1      13.273   2.557  15.304  1.00  0.00     0.000 C 
BRANCH  17  18
ATOM     18  C   UNL     1      14.708   2.677  14.767  1.00  0.00     0.000 C 
BRANCH  18  19
ATOM     19  C   UNL     1      14.921   1.886  13.466  1.00  0.00     0.000 C 
BRANCH  19  20
ATOM     20  C   UNL     1      15.529   2.746  12.343  1.00  0.00     0.000 C 
BRANCH  20  21
ATOM     21  C   UNL     1      16.043   1.908  11.157  1.00  0.00     0.000 C 
BRANCH  21  22
ATOM     22  C   UNL     1      17.328   1.102  11.428  1.00  0.00    -0.000 C 
BRANCH  22  23
ATOM     23  C   UNL     1      17.766   0.248  10.227  1.00  0.00    -0.000 C 
BRANCH  23  24
ATOM     24  C   UNL     1      18.235   1.101   9.037  1.00  0.00    -0.000 C 
BRANCH  24  25
ATOM     25  C   UNL     1      18.337   0.295   7.732  1.00  0.00    -0.000 C 
BRANCH  25  26
ATOM     26  C   UNL     1      19.610   0.662   6.960  1.00  0.00    -0.000 C 
BRANCH  26  27
ATOM     27  C   UNL     1      20.703  -0.394   7.160  1.00  0.00    -0.000 C 
BRANCH  27  28
ATOM     28  C   UNL     1      21.854  -0.190   6.164  1.00  0.00    -0.000 C 
BRANCH  28  29
ATOM     29  C   UNL     1      22.219  -1.479   5.412  1.00  0.00    -0.003 C 
ATOM     30  C   UNL     1      23.728  -1.656   5.237  1.00  0.00     0.004 C 
ENDBRANCH  28  29
ENDBRANCH  27  28
ENDBRANCH  26  27
ENDBRANCH  25  26
ENDBRANCH  24  25
ENDBRANCH  23  24
ENDBRANCH  22  23
ENDBRANCH  21  22
ENDBRANCH  20  21
ENDBRANCH  19  20
ENDBRANCH  18  19
ENDBRANCH  17  18
ENDBRANCH   1  17
TORSDOF 26
ENDMDL
MODEL 5
REMARK VINA RESULT:    -6.320      1.639      4.747
REMARK INTER + INTRA:         -18.931
REMARK INTER:                 -15.767
REMARK INTRA:                  -3.164
REMARK UNBOUND:                -3.004
REMARK SMILES CCCCCCCCCCCCCCCCCCCCCCCCCCCC(=O)[O-]
REMARK SMILES IDX 15 1 16 2 17 3 18 4 19 5 20 6 21 7 22 8 23 9 24 10 25 11
REMARK SMILES IDX 26 12 27 13 28 14 29 15 30 16 14 17 13 18 12 19 11 20 10 21
REMARK SMILES IDX 9 22 8 23 7 24 6 25 5 26 4 27 3 28 2 29 1 30
REMARK H PARENT
REMARK Flexibility Score: inf
ROOT
ATOM      1  C   UNL     1      17.121  -0.299  17.609  1.00  0.00     0.000 C 
ENDROOT
BRANCH   1   2
ATOM      2  C   UNL     1      18.119  -1.470  17.609  1.00  0.00     0.000 C 
BRANCH   2   3
ATOM      3  C   UNL     1      18.248  -2.215  16.265  1.00  0.00     0.000 C 
BRANCH   3   4
ATOM      4  C   UNL     1      19.533  -1.917  15.467  1.00  0.00     0.000 C 
BRANCH   4   5
ATOM      5  C   UNL     1      19.315  -1.256  14.094  1.00  0.00     0.000 C 
BRANCH   5   6
ATOM      6  C   UNL     1      18.108  -0.305  14.070  1.00  0.00     0.000 C 
BRANCH   6   7
ATOM      7  C   UNL     1      17.497  -0.154  12.666  1.00  0.00     0.000 C 
BRANCH   7   8
ATOM      8  C   UNL     1      16.633   1.115  12.493  1.00  0.00     0.000 C 
BRANCH   8   9
ATOM      9  C   UNL     1      16.555   1.571  11.025  1.00  0.00     0.000 C 
BRANCH   9  10
ATOM     10  C   UNL     1      17.819   1.219  10.218  1.00  0.00     0.000 C 
BRANCH  10  11
ATOM     11  C   UNL     1      17.607   0.201   9.083  1.00  0.00     0.000 C 
BRANCH  11  12
ATOM     12  C   UNL     1      18.789   0.140   8.102  1.00  0.00     0.006 C 
BRANCH  12  13
ATOM     13  C   UNL     1      18.877   1.395   7.221  1.00  0.00     0.053 C 
BRANCH  13  14
ATOM     14  C   UNL     1      20.267   1.621   6.711  1.00  0.00     0.041 C 
ATOM     15  O   UNL     1      20.681   2.791   6.496  1.00  0.00    -0.550 OA
ATOM     16  O   UNL     1      21.119   0.544   6.513  1.00  0.00    -0.550 OA
ENDBRANCH  13  14
ENDBRANCH  12  13
ENDBRANCH  11  12
ENDBRANCH  10  11
ENDBRANCH   9  10
ENDBRANCH   8   9
ENDBRANCH   7   8
ENDBRANCH   6   7
ENDBRANCH   5   6
ENDBRANCH   4   5
ENDBRANCH   3   4
ENDBRANCH   2   3
ENDBRANCH   1   2
BRANCH   1  17
ATOM     17  C   UNL     1      17.806   1.069  17.746  1.00  0.00     0.000 C 
BRANCH  17  18
ATOM     18  C   UNL     1      16.999   2.160  17.025  1.00  0.00     0.000 C 
BRANCH  18  19
ATOM     19  C   UNL     1      15.893   1.582  16.126  1.00  0.00     0.000 C 
BRANCH  19  20
ATOM     20  C   UNL     1      15.282   2.636  15.187  1.00  0.00     0.000 C 
BRANCH  20  21
ATOM     21  C   UNL     1      13.742   2.632  15.200  1.00  0.00     0.000 C 
BRANCH  21  22
ATOM     22  C   UNL     1      13.095   2.806  16.588  1.00  0.00    -0.000 C 
BRANCH  22  23
ATOM     23  C   UNL     1      13.731   3.939  17.409  1.00  0.00    -0.000 C 
BRANCH  23  24
ATOM     24  C   UNL     1      13.973   3.541  18.875  1.00  0.00    -0.000 C 
BRANCH  24  25
ATOM     25  C   UNL     1      13.932   2.020  19.092  1.00  0.00    -0.000 C 
BRANCH  25  26
ATOM     26  C   UNL     1      14.982   1.584  20.120  1.00  0.00    -0.000 C 
BRANCH  26  27
ATOM     27  C   UNL     1      14.931   0.070  20.355  1.00  0.00    -0.000 C 
BRANCH  27  28
ATOM     28  C   UNL     1      13.485  -0.446  20.302  1.00  0.00    -0.000 C 
BRANCH  28  29
ATOM     29  C   UNL     1      13.154  -1.136  18.970  1.00  0.00    -0.003 C 
ATOM     30  C   UNL     1      14.353  -1.870  18.370  1.00  0.00     0.004 C 
ENDBRANCH  28  29
ENDBRANCH  27  28
ENDBRANCH  26  27
ENDBRANCH  25  26
ENDBRANCH  24  25
ENDBRANCH  23  24
ENDBRANCH  22  23
ENDBRANCH  21  22
ENDBRANCH  20  21
ENDBRANCH  19  20
ENDBRANCH  18  19
ENDBRANCH  17  18
ENDBRANCH   1  17
TORSDOF 26
ENDMDL
MODEL 6
REMARK VINA RESULT:    -6.190      3.169      9.494
REMARK INTER + INTRA:         -18.603
REMARK INTER:                 -15.853
REMARK INTRA:                  -2.751
REMARK UNBOUND:                -3.004
REMARK SMILES CCCCCCCCCCCCCCCCCCCCCCCCCCCC(=O)[O-]
REMARK SMILES IDX 15 1 16 2 17 3 18 4 19 5 20 6 21 7 22 8 23 9 24 10 25 11
REMARK SMILES IDX 26 12 27 13 28 14 29 15 30 16 14 17 13 18 12 19 11 20 10 21
REMARK SMILES IDX 9 22 8 23 7 24 6 25 5 26 4 27 3 28 2 29 1 30
REMARK H PARENT
REMARK Flexibility Score: inf
ROOT
ATOM      1  C   UNL     1      17.520  -2.067  17.039  1.00  0.00     0.000 C 
ENDROOT
BRANCH   1   2
ATOM      2  C   UNL     1      16.000  -2.207  17.238  1.00  0.00     0.000 C 
BRANCH   2   3
ATOM      3  C   UNL     1      15.456  -1.596  18.545  1.00  0.00     0.000 C 
BRANCH   3   4
ATOM      4  C   UNL     1      13.949  -1.265  18.539  1.00  0.00     0.000 C 
BRANCH   4   5
ATOM      5  C   UNL     1      13.433  -0.528  19.788  1.00  0.00     0.000 C 
BRANCH   5   6
ATOM      6  C   UNL     1      14.564  -0.035  20.704  1.00  0.00     0.000 C 
BRANCH   6   7
ATOM      7  C   UNL     1      14.740   1.493  20.664  1.00  0.00     0.000 C 
BRANCH   7   8
ATOM      8  C   UNL     1      14.995   2.056  19.249  1.00  0.00     0.000 C 
BRANCH   8   9
ATOM      9  C   UNL     1      14.006   3.178  18.881  1.00  0.00     0.000 C 
BRANCH   9  10
ATOM     10  C   UNL     1      13.586   3.147  17.400  1.00  0.00     0.000 C 
BRANCH  10  11
ATOM     11  C   UNL     1      13.664   1.764  16.728  1.00  0.00     0.000 C 
BRANCH  11  12
ATOM     12  C   UNL     1      15.040   1.473  16.107  1.00  0.00     0.006 C 
BRANCH  12  13
ATOM     13  C   UNL     1      15.504   2.600  15.174  1.00  0.00     0.053 C 
BRANCH  13  14
ATOM     14  C   UNL     1      15.022   2.396  13.770  1.00  0.00     0.041 C 
ATOM     15  O   UNL     1      15.163   3.306  12.912  1.00  0.00    -0.550 OA
ATOM     16  O   UNL     1      14.457   1.184  13.400  1.00  0.00    -0.550 OA
ENDBRANCH  13  14
ENDBRANCH  12  13
ENDBRANCH  11  12
ENDBRANCH  10  11
ENDBRANCH   9  10
ENDBRANCH   8   9
ENDBRANCH   7   8
ENDBRANCH   6   7
ENDBRANCH   5   6
ENDBRANCH   4   5
ENDBRANCH   3   4
ENDBRANCH   2   3
ENDBRANCH   1   2
BRANCH   1  17
ATOM     17  C   UNL     1      18.074  -0.746  17.593  1.00  0.00     0.000 C 
BRANCH  17  18
ATOM     18  C   UNL     1      18.498   0.192  16.451  1.00  0.00     0.000 C 
BRANCH  18  19
ATOM     19  C   UNL     1      18.833  -0.567  15.156  1.00  0.00     0.000 C 
BRANCH  19  20
ATOM     20  C   UNL     1      17.784  -0.347  14.053  1.00  0.00     0.000 C 
BRANCH  20  21
ATOM     21  C   UNL     1      18.412  -0.006  12.687  1.00  0.00     0.000 C 
BRANCH  21  22
ATOM     22  C   UNL     1      17.583   0.942  11.800  1.00  0.00    -0.000 C 
BRANCH  22  23
ATOM     23  C   UNL     1      17.319   0.372  10.396  1.00  0.00    -0.000 C 
BRANCH  23  24
ATOM     24  C   UNL     1      17.948   1.229   9.284  1.00  0.00    -0.000 C 
BRANCH  24  25
ATOM     25  C   UNL     1      18.567   0.383   8.161  1.00  0.00    -0.000 C 
BRANCH  25  26
ATOM     26  C   UNL     1      19.188   1.277   7.080  1.00  0.00    -0.000 C 
BRANCH  26  27
ATOM     27  C   UNL     1      20.667   0.935   6.861  1.00  0.00    -0.000 C 
BRANCH  27  28
ATOM     28  C   UNL     1      20.839  -0.546   6.491  1.00  0.00    -0.000 C 
BRANCH  28  29
ATOM     29  C   UNL     1      22.315  -0.959   6.384  1.00  0.00    -0.003 C 
ATOM     30  C   UNL     1      22.604  -1.809   5.147  1.00  0.00     0.004 C 
ENDBRANCH  28  29
ENDBRANCH  27  28
ENDBRANCH  26  27
ENDBRANCH  25  26
ENDBRANCH  24  25
ENDBRANCH  23  24
ENDBRANCH  22  23
ENDBRANCH  21  22
ENDBRANCH  20  21
ENDBRANCH  19  20
ENDBRANCH  18  19
ENDBRANCH  17  18
ENDBRANCH   1  17
TORSDOF 26
ENDMDL
MODEL 7
REMARK VINA RESULT:    -6.066      2.763      5.669
REMARK INTER + INTRA:         -18.290
REMARK INTER:                 -16.464
REMARK INTRA:                  -1.826
REMARK UNBOUND:                -3.004
REMARK SMILES CCCCCCCCCCCCCCCCCCCCCCCCCCCC(=O)[O-]
REMARK SMILES IDX 15 1 16 2 17 3 18 4 19 5 20 6 21 7 22 8 23 9 24 10 25 11
REMARK SMILES IDX 26 12 27 13 28 14 29 15 30 16 14 17 13 18 12 19 11 20 10 21
REMARK SMILES IDX 9 22 8 23 7 24 6 25 5 26 4 27 3 28 2 29 1 30
REMARK H PARENT
REMARK Flexibility Score: inf
ROOT
ATOM      1  C   UNL     1      17.297   0.992  11.493  1.00  0.00     0.000 C 
ENDROOT
BRANCH   1   2
ATOM      2  C   UNL     1      17.494   0.226  10.172  1.00  0.00     0.000 C 
BRANCH   2   3
ATOM      3  C   UNL     1      18.069   1.065   9.013  1.00  0.00     0.000 C 
BRANCH   3   4
ATOM      4  C   UNL     1      18.797   0.260   7.917  1.00  0.00     0.000 C 
BRANCH   4   5
ATOM      5  C   UNL     1      19.485   1.104   6.829  1.00  0.00     0.000 C 
BRANCH   5   6
ATOM      6  C   UNL     1      20.914   0.634   6.518  1.00  0.00     0.000 C 
BRANCH   6   7
ATOM      7  C   UNL     1      21.111  -0.873   6.758  1.00  0.00     0.000 C 
BRANCH   7   8
ATOM      8  C   UNL     1      22.003  -1.563   5.703  1.00  0.00     0.000 C 
BRANCH   8   9
ATOM      9  C   UNL     1      23.332  -0.817   5.486  1.00  0.00     0.000 C 
BRANCH   9  10
ATOM     10  C   UNL     1      24.567  -1.698   5.750  1.00  0.00     0.000 C 
BRANCH  10  11
ATOM     11  C   UNL     1      25.905  -0.941   5.826  1.00  0.00     0.000 C 
BRANCH  11  12
ATOM     12  C   UNL     1      26.967  -1.680   6.658  1.00  0.00     0.006 C 
BRANCH  12  13
ATOM     13  C   UNL     1      27.900  -2.529   5.783  1.00  0.00     0.053 C 
BRANCH  13  14
ATOM     14  C   UNL     1      29.260  -2.673   6.395  1.00  0.00     0.041 C 
ATOM     15  O   UNL     1      30.017  -3.615   6.043  1.00  0.00    -0.550 OA
ATOM     16  O   UNL     1      29.707  -1.742   7.322  1.00  0.00    -0.550 OA
ENDBRANCH  13  14
ENDBRANCH  12  13
ENDBRANCH  11  12
ENDBRANCH  10  11
ENDBRANCH   9  10
ENDBRANCH   8   9
ENDBRANCH   7   8
ENDBRANCH   6   7
ENDBRANCH   5   6
ENDBRANCH   4   5
ENDBRANCH   3   4
ENDBRANCH   2   3
ENDBRANCH   1   2
BRANCH   1  17
ATOM     17  C   UNL     1      16.306   2.158  11.364  1.00  0.00     0.000 C 
BRANCH  17  18
ATOM     18  C   UNL     1      15.723   2.534  12.735  1.00  0.00     0.000 C 
BRANCH  18  19
ATOM     19  C   UNL     1      14.863   1.412  13.340  1.00  0.00     0.000 C 
BRANCH  19  20
ATOM     20  C   UNL     1      14.303   1.778  14.726  1.00  0.00     0.000 C 
BRANCH  20  21
ATOM     21  C   UNL     1      15.376   2.339  15.678  1.00  0.00     0.000 C 
BRANCH  21  22
ATOM     22  C   UNL     1      14.907   2.591  17.124  1.00  0.00    -0.000 C 
BRANCH  22  23
ATOM     23  C   UNL     1      13.734   1.687  17.540  1.00  0.00    -0.000 C 
BRANCH  23  24
ATOM     24  C   UNL     1      13.872   1.168  18.981  1.00  0.00    -0.000 C 
BRANCH  24  25
ATOM     25  C   UNL     1      15.271   1.412  19.569  1.00  0.00    -0.000 C 
BRANCH  25  26
ATOM     26  C   UNL     1      15.863   0.115  20.130  1.00  0.00    -0.000 C 
BRANCH  26  27
ATOM     27  C   UNL     1      16.718  -0.604  19.079  1.00  0.00    -0.000 C 
BRANCH  27  28
ATOM     28  C   UNL     1      15.855  -1.533  18.211  1.00  0.00    -0.000 C 
BRANCH  28  29
ATOM     29  C   UNL     1      16.606  -2.052  16.976  1.00  0.00    -0.003 C 
ATOM     30  C   UNL     1      16.603  -1.053  15.819  1.00  0.00     0.004 C 
ENDBRANCH  28  29
ENDBRANCH  27  28
ENDBRANCH  26  27
ENDBRANCH  25  26
ENDBRANCH  24  25
ENDBRANCH  23  24
ENDBRANCH  22  23
ENDBRANCH  21  22
ENDBRANCH  20  21
ENDBRANCH  19  20
ENDBRANCH  18  19
ENDBRANCH  17  18
ENDBRANCH   1  17
TORSDOF 26
ENDMDL
MODEL 8
REMARK VINA RESULT:    -6.001      1.103      4.378
REMARK INTER + INTRA:         -18.126
REMARK INTER:                 -15.273
REMARK INTRA:                  -2.853
REMARK UNBOUND:                -3.004
REMARK SMILES CCCCCCCCCCCCCCCCCCCCCCCCCCCC(=O)[O-]
REMARK SMILES IDX 15 1 16 2 17 3 18 4 19 5 20 6 21 7 22 8 23 9 24 10 25 11
REMARK SMILES IDX 26 12 27 13 28 14 29 15 30 16 14 17 13 18 12 19 11 20 10 21
REMARK SMILES IDX 9 22 8 23 7 24 6 25 5 26 4 27 3 28 2 29 1 30
REMARK H PARENT
REMARK Flexibility Score: inf
ROOT
ATOM      1  C   UNL     1      16.838  -1.278  16.592  1.00  0.00     0.000 C 
ENDROOT
BRANCH   1   2
ATOM      2  C   UNL     1      18.316  -1.613  16.860  1.00  0.00     0.000 C 
BRANCH   2   3
ATOM      3  C   UNL     1      19.175  -1.827  15.597  1.00  0.00     0.000 C 
BRANCH   3   4
ATOM      4  C   UNL     1      19.243  -0.622  14.636  1.00  0.00     0.000 C 
BRANCH   4   5
ATOM      5  C   UNL     1      18.487  -0.798  13.307  1.00  0.00     0.000 C 
BRANCH   5   6
ATOM      6  C   UNL     1      18.451   0.485  12.462  1.00  0.00     0.000 C 
BRANCH   6   7
ATOM      7  C   UNL     1      17.275   0.513  11.470  1.00  0.00     0.000 C 
BRANCH   7   8
ATOM      8  C   UNL     1      17.603   1.209  10.131  1.00  0.00     0.000 C 
BRANCH   8   9
ATOM      9  C   UNL     1      17.983   0.203   9.029  1.00  0.00     0.000 C 
BRANCH   9  10
ATOM     10  C   UNL     1      18.405   0.884   7.714  1.00  0.00     0.000 C 
BRANCH  10  11
ATOM     11  C   UNL     1      19.911   0.820   7.399  1.00  0.00     0.000 C 
BRANCH  11  12
ATOM     12  C   UNL     1      20.340  -0.521   6.781  1.00  0.00     0.006 C 
BRANCH  12  13
ATOM     13  C   UNL     1      21.793  -0.492   6.285  1.00  0.00     0.053 C 
BRANCH  13  14
ATOM     14  C   UNL     1      22.235  -1.830   5.777  1.00  0.00     0.041 C 
ATOM     15  O   UNL     1      23.164  -1.912   4.931  1.00  0.00    -0.550 OA
ATOM     16  O   UNL     1      21.651  -2.988   6.271  1.00  0.00    -0.550 OA
ENDBRANCH  13  14
ENDBRANCH  12  13
ENDBRANCH  11  12
ENDBRANCH  10  11
ENDBRANCH   9  10
ENDBRANCH   8   9
ENDBRANCH   7   8
ENDBRANCH   6   7
ENDBRANCH   5   6
ENDBRANCH   4   5
ENDBRANCH   3   4
ENDBRANCH   2   3
ENDBRANCH   1   2
BRANCH   1  17
ATOM     17  C   UNL     1      16.428   0.096  17.142  1.00  0.00     0.000 C 
BRANCH  17  18
ATOM     18  C   UNL     1      16.793   1.213  16.153  1.00  0.00     0.000 C 
BRANCH  18  19
ATOM     19  C   UNL     1      15.857   1.254  14.934  1.00  0.00     0.000 C 
BRANCH  19  20
ATOM     20  C   UNL     1      15.059   2.567  14.844  1.00  0.00     0.000 C 
BRANCH  20  21
ATOM     21  C   UNL     1      13.549   2.369  15.077  1.00  0.00     0.000 C 
BRANCH  21  22
ATOM     22  C   UNL     1      13.095   2.439  16.547  1.00  0.00    -0.000 C 
BRANCH  22  23
ATOM     23  C   UNL     1      13.489   3.756  17.235  1.00  0.00    -0.000 C 
BRANCH  23  24
ATOM     24  C   UNL     1      14.121   3.532  18.619  1.00  0.00    -0.000 C 
BRANCH  24  25
ATOM     25  C   UNL     1      13.959   2.088  19.119  1.00  0.00    -0.000 C 
BRANCH  25  26
ATOM     26  C   UNL     1      15.090   1.712  20.083  1.00  0.00    -0.000 C 
BRANCH  26  27
ATOM     27  C   UNL     1      15.047   0.219  20.431  1.00  0.00    -0.000 C 
BRANCH  27  28
ATOM     28  C   UNL     1      13.677  -0.172  21.005  1.00  0.00    -0.000 C 
BRANCH  28  29
ATOM     29  C   UNL     1      12.952  -1.215  20.140  1.00  0.00    -0.003 C 
ATOM     30  C   UNL     1      13.573  -1.368  18.752  1.00  0.00     0.004 C 
ENDBRANCH  28  29
ENDBRANCH  27  28
ENDBRANCH  26  27
ENDBRANCH  25  26
ENDBRANCH  24  25
ENDBRANCH  23  24
ENDBRANCH  22  23
ENDBRANCH  21  22
ENDBRANCH  20  21
ENDBRANCH  19  20
ENDBRANCH  18  19
ENDBRANCH  17  18
ENDBRANCH   1  17
TORSDOF 26
ENDMDL
MODEL 9
REMARK VINA RESULT:    -5.973      3.739     11.511
REMARK INTER + INTRA:         -18.056
REMARK INTER:                 -16.443
REMARK INTRA:                  -1.613
REMARK UNBOUND:                -3.004
REMARK SMILES CCCCCCCCCCCCCCCCCCCCCCCCCCCC(=O)[O-]
REMARK SMILES IDX 15 1 16 2 17 3 18 4 19 5 20 6 21 7 22 8 23 9 24 10 25 11
REMARK SMILES IDX 26 12 27 13 28 14 29 15 30 16 14 17 13 18 12 19 11 20 10 21
REMARK SMILES IDX 9 22 8 23 7 24 6 25 5 26 4 27 3 28 2 29 1 30
REMARK H PARENT
REMARK Flexibility Score: inf
ROOT
ATOM      1  C   UNL     1      17.027   0.940  11.602  1.00  0.00     0.000 C 
ENDROOT
BRANCH   1   2
ATOM      2  C   UNL     1      15.984   2.037  11.325  1.00  0.00     0.000 C 
BRANCH   2   3
ATOM      3  C   UNL     1      15.502   2.807  12.570  1.00  0.00     0.000 C 
BRANCH   3   4
ATOM      4  C   UNL     1      14.900   1.934  13.691  1.00  0.00     0.000 C 
BRANCH   4   5
ATOM      5  C   UNL     1      14.743   2.632  15.054  1.00  0.00     0.000 C 
BRANCH   5   6
ATOM      6  C   UNL     1      13.305   2.580  15.593  1.00  0.00     0.000 C 
BRANCH   6   7
ATOM      7  C   UNL     1      13.096   3.481  16.822  1.00  0.00     0.000 C 
BRANCH   7   8
ATOM      8  C   UNL     1      14.271   3.455  17.824  1.00  0.00     0.000 C 
BRANCH   8   9
ATOM      9  C   UNL     1      14.078   2.394  18.922  1.00  0.00     0.000 C 
BRANCH   9  10
ATOM     10  C   UNL     1      14.785   1.063  18.604  1.00  0.00     0.000 C 
BRANCH  10  11
ATOM     11  C   UNL     1      16.108   0.831  19.356  1.00  0.00     0.000 C 
BRANCH  11  12
ATOM     12  C   UNL     1      17.308   0.633  18.414  1.00  0.00     0.006 C 
BRANCH  12  13
ATOM     13  C   UNL     1      16.943   0.900  16.947  1.00  0.00     0.053 C 
BRANCH  13  14
ATOM     14  C   UNL     1      17.287  -0.262  16.066  1.00  0.00     0.041 C 
ATOM     15  O   UNL     1      17.867  -0.073  14.965  1.00  0.00    -0.550 OA
ATOM     16  O   UNL     1      17.007  -1.556  16.482  1.00  0.00    -0.550 OA
ENDBRANCH  13  14
ENDBRANCH  12  13
ENDBRANCH  11  12
ENDBRANCH  10  11
ENDBRANCH   9  10
ENDBRANCH   8   9
ENDBRANCH   7   8
ENDBRANCH   6   7
ENDBRANCH   5   6
ENDBRANCH   4   5
ENDBRANCH   3   4
ENDBRANCH   2   3
ENDBRANCH   1   2
BRANCH   1  17
ATOM     17  C   UNL     1      17.398   0.137  10.346  1.00  0.00     0.000 C 
BRANCH  17  18
ATOM     18  C   UNL     1      18.104   1.031   9.315  1.00  0.00     0.000 C 
BRANCH  18  19
ATOM     19  C   UNL     1      18.657   0.235   8.121  1.00  0.00     0.000 C 
BRANCH  19  20
ATOM     20  C   UNL     1      19.227   1.142   7.017  1.00  0.00     0.000 C 
BRANCH  20  21
ATOM     21  C   UNL     1      20.621   0.697   6.535  1.00  0.00     0.000 C 
BRANCH  21  22
ATOM     22  C   UNL     1      21.002  -0.757   6.874  1.00  0.00    -0.000 C 
BRANCH  22  23
ATOM     23  C   UNL     1      21.916  -1.399   5.817  1.00  0.00    -0.000 C 
BRANCH  23  24
ATOM     24  C   UNL     1      23.259  -0.665   5.674  1.00  0.00    -0.000 C 
BRANCH  24  25
ATOM     25  C   UNL     1      24.429  -1.617   5.381  1.00  0.00    -0.000 C 
BRANCH  25  26
ATOM     26  C   UNL     1      25.772  -0.947   5.692  1.00  0.00    -0.000 C 
BRANCH  26  27
ATOM     27  C   UNL     1      26.735  -1.928   6.374  1.00  0.00    -0.000 C 
BRANCH  27  28
ATOM     28  C   UNL     1      28.174  -1.716   5.881  1.00  0.00    -0.000 C 
BRANCH  28  29
ATOM     29  C   UNL     1      29.204  -2.491   6.718  1.00  0.00    -0.003 C 
ATOM     30  C   UNL     1      29.768  -3.708   5.984  1.00  0.00     0.004 C 
ENDBRANCH  28  29
ENDBRANCH  27  28
ENDBRANCH  26  27
ENDBRANCH  25  26
ENDBRANCH  24  25
ENDBRANCH  23  24
ENDBRANCH  22  23
ENDBRANCH  21  22
ENDBRANCH  20  21
ENDBRANCH  19  20
ENDBRANCH  18  19
ENDBRANCH  17  18
ENDBRANCH   1  17
TORSDOF 26
ENDMDL
