MODEL 1
REMARK VINA RESULT:    -3.480      0.000      0.000
REMARK INTER + INTRA:         -12.169
REMARK INTER:                  -7.956
REMARK INTRA:                  -4.213
REMARK UNBOUND:                -4.213
REMARK SMILES CCCCCCCCCCCCCCCCCCCCCCCC(=O)[O-]
REMARK SMILES IDX 13 1 14 2 15 3 16 4 17 5 18 6 19 7 20 8 21 9 22 10 23 11
REMARK SMILES IDX 24 12 25 13 26 14 12 15 11 16 10 17 9 18 8 19 7 20 6 21 5 22
REMARK SMILES IDX 4 23 3 24 2 25 1 26
REMARK H PARENT
REMARK Flexibility Score: inf
ROOT
ATOM      1  C   UNL     1      -0.636   8.984  36.668  1.00  0.00     0.000 C 
ENDROOT
BRANCH   1   2
ATOM      2  C   UNL     1       0.753   9.599  36.416  1.00  0.00     0.000 C 
BRANCH   2   3
ATOM      3  C   UNL     1       1.437  10.069  37.710  1.00  0.00     0.000 C 
BRANCH   3   4
ATOM      4  C   UNL     1       2.354   8.992  38.315  1.00  0.00     0.000 C 
BRANCH   4   5
ATOM      5  C   UNL     1       1.872   8.499  39.692  1.00  0.00     0.000 C 
BRANCH   5   6
ATOM      6  C   UNL     1       1.091   9.537  40.524  1.00  0.00     0.000 C 
BRANCH   6   7
ATOM      7  C   UNL     1       0.811   9.135  41.985  1.00  0.00     0.000 C 
BRANCH   7   8
ATOM      8  C   UNL     1       1.045   7.648  42.304  1.00  0.00     0.000 C 
BRANCH   8   9
ATOM      9  C   UNL     1      -0.262   6.847  42.403  1.00  0.00     0.000 C 
BRANCH   9  10
ATOM     10  C   UNL     1      -0.020   5.487  43.074  1.00  0.00     0.006 C 
BRANCH  10  11
ATOM     11  C   UNL     1       0.783   4.532  42.182  1.00  0.00     0.053 C 
BRANCH  11  12
ATOM     12  C   UNL     1       0.522   3.097  42.525  1.00  0.00     0.041 C 
ATOM     13  O   UNL     1      -0.639   2.622  42.417  1.00  0.00    -0.550 OA
ATOM     14  O   UNL     1       1.556   2.292  42.987  1.00  0.00    -0.550 OA
ENDBRANCH  11  12
ENDBRANCH  10  11
ENDBRANCH   9  10
ENDBRANCH   8   9
ENDBRANCH   7   8
ENDBRANCH   6   7
ENDBRANCH   5   6
ENDBRANCH   4   5
ENDBRANCH   3   4
ENDBRANCH   2   3
ENDBRANCH   1   2
BRANCH   1  15
ATOM     15  C   UNL     1      -1.586   9.956  37.389  1.00  0.00     0.000 C 
BRANCH  15  16
ATOM     16  C   UNL     1      -2.058   9.413  38.749  1.00  0.00     0.000 C 
BRANCH  16  17
ATOM     17  C   UNL     1      -1.727   7.923  38.946  1.00  0.00     0.000 C 
BRANCH  17  18
ATOM     18  C   UNL     1      -2.733   7.137  39.806  1.00  0.00    -0.000 C 
BRANCH  18  19
ATOM     19  C   UNL     1      -2.978   5.708  39.292  1.00  0.00    -0.000 C 
BRANCH  19  20
ATOM     20  C   UNL     1      -1.997   4.695  39.903  1.00  0.00    -0.000 C 
BRANCH  20  21
ATOM     21  C   UNL     1      -0.957   4.196  38.884  1.00  0.00    -0.000 C 
BRANCH  21  22
ATOM     22  C   UNL     1      -1.332   4.558  37.438  1.00  0.00    -0.000 C 
BRANCH  22  23
ATOM     23  C   UNL     1      -0.190   5.278  36.701  1.00  0.00    -0.000 C 
BRANCH  23  24
ATOM     24  C   UNL     1       0.953   5.697  37.640  1.00  0.00    -0.000 C 
BRANCH  24  25
ATOM     25  C   UNL     1       2.165   4.743  37.602  1.00  0.00    -0.003 C 
ATOM     26  C   UNL     1       3.427   5.384  38.183  1.00  0.00     0.004 C 
ENDBRANCH  24  25
ENDBRANCH  23  24
ENDBRANCH  22  23
ENDBRANCH  21  22
ENDBRANCH  20  21
ENDBRANCH  19  20
ENDBRANCH  18  19
ENDBRANCH  17  18
ENDBRANCH  16  17
ENDBRANCH  15  16
ENDBRANCH   1  15
TORSDOF 22
ENDMDL
MODEL 2
REMARK VINA RESULT:    -3.476      2.575      4.269
REMARK INTER + INTRA:         -12.160
REMARK INTER:                  -7.356
REMARK INTRA:                  -4.805
REMARK UNBOUND:                -4.213
REMARK SMILES CCCCCCCCCCCCCCCCCCCCCCCC(=O)[O-]
REMARK SMILES IDX 13 1 14 2 15 3 16 4 17 5 18 6 19 7 20 8 21 9 22 10 23 11
REMARK SMILES IDX 24 12 25 13 26 14 12 15 11 16 10 17 9 18 8 19 7 20 6 21 5 22
REMARK SMILES IDX 4 23 3 24 2 25 1 26
REMARK H PARENT
REMARK Flexibility Score: inf
ROOT
ATOM      1  C   UNL     1       1.897   8.911  39.405  1.00  0.00     0.000 C 
ENDROOT
BRANCH   1   2
ATOM      2  C   UNL     1       0.837   9.396  40.410  1.00  0.00     0.000 C 
BRANCH   2   3
ATOM      3  C   UNL     1       1.007   8.766  41.802  1.00  0.00     0.000 C 
BRANCH   3   4
ATOM      4  C   UNL     1      -0.281   8.093  42.305  1.00  0.00     0.000 C 
BRANCH   4   5
ATOM      5  C   UNL     1      -1.357   7.965  41.210  1.00  0.00     0.000 C 
BRANCH   5   6
ATOM      6  C   UNL     1      -1.687   6.521  40.780  1.00  0.00     0.000 C 
BRANCH   6   7
ATOM      7  C   UNL     1      -0.917   5.417  41.531  1.00  0.00     0.000 C 
BRANCH   7   8
ATOM      8  C   UNL     1       0.053   4.598  40.662  1.00  0.00     0.000 C 
BRANCH   8   9
ATOM      9  C   UNL     1       1.267   5.414  40.193  1.00  0.00     0.000 C 
BRANCH   9  10
ATOM     10  C   UNL     1       2.092   4.626  39.165  1.00  0.00     0.006 C 
BRANCH  10  11
ATOM     11  C   UNL     1       2.921   5.543  38.258  1.00  0.00     0.053 C 
BRANCH  11  12
ATOM     12  C   UNL     1       4.207   4.898  37.838  1.00  0.00     0.041 C 
ATOM     13  O   UNL     1       5.114   4.686  38.686  1.00  0.00    -0.550 OA
ATOM     14  O   UNL     1       4.414   4.556  36.508  1.00  0.00    -0.550 OA
ENDBRANCH  11  12
ENDBRANCH  10  11
ENDBRANCH   9  10
ENDBRANCH   8   9
ENDBRANCH   7   8
ENDBRANCH   6   7
ENDBRANCH   5   6
ENDBRANCH   4   5
ENDBRANCH   3   4
ENDBRANCH   2   3
ENDBRANCH   1   2
BRANCH   1  15
ATOM     15  C   UNL     1       1.347   8.818  37.971  1.00  0.00     0.000 C 
BRANCH  15  16
ATOM     16  C   UNL     1      -0.107   9.312  37.868  1.00  0.00     0.000 C 
BRANCH  16  17
ATOM     17  C   UNL     1      -1.080   8.213  37.402  1.00  0.00     0.000 C 
BRANCH  17  18
ATOM     18  C   UNL     1      -0.445   6.829  37.180  1.00  0.00    -0.000 C 
BRANCH  18  19
ATOM     19  C   UNL     1      -1.424   5.669  37.434  1.00  0.00    -0.000 C 
BRANCH  19  20
ATOM     20  C   UNL     1      -1.261   4.536  36.410  1.00  0.00    -0.000 C 
BRANCH  20  21
ATOM     21  C   UNL     1       0.212   4.285  36.041  1.00  0.00    -0.000 C 
BRANCH  21  22
ATOM     22  C   UNL     1       0.429   4.189  34.523  1.00  0.00    -0.000 C 
BRANCH  22  23
ATOM     23  C   UNL     1       1.743   4.853  34.077  1.00  0.00    -0.000 C 
BRANCH  23  24
ATOM     24  C   UNL     1       1.898   6.284  34.615  1.00  0.00    -0.000 C 
BRANCH  24  25
ATOM     25  C   UNL     1       1.539   7.375  33.584  1.00  0.00    -0.003 C 
ATOM     26  C   UNL     1       1.293   8.734  34.240  1.00  0.00     0.004 C 
ENDBRANCH  24  25
ENDBRANCH  23  24
ENDBRANCH  22  23
ENDBRANCH  21  22
ENDBRANCH  20  21
ENDBRANCH  19  20
ENDBRANCH  18  19
ENDBRANCH  17  18
ENDBRANCH  16  17
ENDBRANCH  15  16
ENDBRANCH   1  15
TORSDOF 22
ENDMDL
MODEL 3
REMARK VINA RESULT:    -3.449      4.238      7.146
REMARK INTER + INTRA:         -12.099
REMARK INTER:                  -8.316
REMARK INTRA:                  -3.783
REMARK UNBOUND:                -4.213
REMARK SMILES CCCCCCCCCCCCCCCCCCCCCCCC(=O)[O-]
REMARK SMILES IDX 13 1 14 2 15 3 16 4 17 5 18 6 19 7 20 8 21 9 22 10 23 11
REMARK SMILES IDX 24 12 25 13 26 14 12 15 11 16 10 17 9 18 8 19 7 20 6 21 5 22
REMARK SMILES IDX 4 23 3 24 2 25 1 26
REMARK H PARENT
REMARK Flexibility Score: inf
ROOT
ATOM      1  C   UNL     1       2.240   7.642  37.317  1.00  0.00     0.000 C 
ENDROOT
BRANCH   1   2
ATOM      2  C   UNL     1       2.076   6.772  38.577  1.00  0.00     0.000 C 
BRANCH   2   3
ATOM      3  C   UNL     1       2.581   5.334  38.374  1.00  0.00     0.000 C 
BRANCH   3   4
ATOM      4  C   UNL     1       3.632   5.232  37.256  1.00  0.00     0.000 C 
BRANCH   4   5
ATOM      5  C   UNL     1       3.191   4.311  36.103  1.00  0.00     0.000 C 
BRANCH   5   6
ATOM      6  C   UNL     1       4.115   4.318  34.868  1.00  0.00     0.000 C 
BRANCH   6   7
ATOM      7  C   UNL     1       3.834   3.216  33.827  1.00  0.00     0.000 C 
BRANCH   7   8
ATOM      8  C   UNL     1       3.038   3.678  32.594  1.00  0.00     0.000 C 
BRANCH   8   9
ATOM      9  C   UNL     1       1.520   3.538  32.778  1.00  0.00     0.000 C 
BRANCH   9  10
ATOM     10  C   UNL     1       0.803   4.849  32.422  1.00  0.00     0.006 C 
BRANCH  10  11
ATOM     11  C   UNL     1       1.487   6.073  33.045  1.00  0.00     0.053 C 
BRANCH  11  12
ATOM     12  C   UNL     1       1.686   7.170  32.043  1.00  0.00     0.041 C 
ATOM     13  O   UNL     1       1.748   8.369  32.423  1.00  0.00    -0.550 OA
ATOM     14  O   UNL     1       1.778   6.870  30.690  1.00  0.00    -0.550 OA
ENDBRANCH  11  12
ENDBRANCH  10  11
ENDBRANCH   9  10
ENDBRANCH   8   9
ENDBRANCH   7   8
ENDBRANCH   6   7
ENDBRANCH   5   6
ENDBRANCH   4   5
ENDBRANCH   3   4
ENDBRANCH   2   3
ENDBRANCH   1   2
BRANCH   1  15
ATOM     15  C   UNL     1       1.011   7.576  36.394  1.00  0.00     0.000 C 
BRANCH  15  16
ATOM     16  C   UNL     1       0.711   8.926  35.720  1.00  0.00     0.000 C 
BRANCH  16  17
ATOM     17  C   UNL     1       0.103   9.956  36.689  1.00  0.00     0.000 C 
BRANCH  17  18
ATOM     18  C   UNL     1      -1.431   9.915  36.809  1.00  0.00    -0.000 C 
BRANCH  18  19
ATOM     19  C   UNL     1      -1.916   9.648  38.245  1.00  0.00    -0.000 C 
BRANCH  19  20
ATOM     20  C   UNL     1      -0.767   9.242  39.181  1.00  0.00    -0.000 C 
BRANCH  20  21
ATOM     21  C   UNL     1      -1.100   7.989  40.011  1.00  0.00    -0.000 C 
BRANCH  21  22
ATOM     22  C   UNL     1      -2.501   7.437  39.704  1.00  0.00    -0.000 C 
BRANCH  22  23
ATOM     23  C   UNL     1      -2.498   5.911  39.510  1.00  0.00    -0.000 C 
BRANCH  23  24
ATOM     24  C   UNL     1      -1.341   5.427  38.623  1.00  0.00    -0.000 C 
BRANCH  24  25
ATOM     25  C   UNL     1      -1.712   5.315  37.129  1.00  0.00    -0.003 C 
ATOM     26  C   UNL     1      -0.812   4.332  36.379  1.00  0.00     0.004 C 
ENDBRANCH  24  25
ENDBRANCH  23  24
ENDBRANCH  22  23
ENDBRANCH  21  22
ENDBRANCH  20  21
ENDBRANCH  19  20
ENDBRANCH  18  19
ENDBRANCH  17  18
ENDBRANCH  16  17
ENDBRANCH  15  16
ENDBRANCH   1  15
TORSDOF 22
ENDMDL
MODEL 4
REMARK VINA RESULT:    -3.405      2.417      4.969
REMARK INTER + INTRA:         -11.997
REMARK INTER:                  -8.061
REMARK INTRA:                  -3.936
REMARK UNBOUND:                -4.213
REMARK SMILES CCCCCCCCCCCCCCCCCCCCCCCC(=O)[O-]
REMARK SMILES IDX 13 1 14 2 15 3 16 4 17 5 18 6 19 7 20 8 21 9 22 10 23 11
REMARK SMILES IDX 24 12 25 13 26 14 12 15 11 16 10 17 9 18 8 19 7 20 6 21 5 22
REMARK SMILES IDX 4 23 3 24 2 25 1 26
REMARK H PARENT
REMARK Flexibility Score: inf
ROOT
ATOM      1  C   UNL     1       1.113   6.212  39.094  1.00  0.00     0.000 C 
ENDROOT
BRANCH   1   2
ATOM      2  C   UNL     1       2.284   7.211  39.052  1.00  0.00     0.000 C 
BRANCH   2   3
ATOM      3  C   UNL     1       1.817   8.674  39.096  1.00  0.00     0.000 C 
BRANCH   3   4
ATOM      4  C   UNL     1       2.551   9.557  38.072  1.00  0.00     0.000 C 
BRANCH   4   5
ATOM      5  C   UNL     1       1.628  10.065  36.948  1.00  0.00     0.000 C 
BRANCH   5   6
ATOM      6  C   UNL     1       0.945   8.964  36.112  1.00  0.00     0.000 C 
BRANCH   6   7
ATOM      7  C   UNL     1      -0.576   8.826  36.319  1.00  0.00     0.000 C 
BRANCH   7   8
ATOM      8  C   UNL     1      -1.261  10.060  36.930  1.00  0.00     0.000 C 
BRANCH   8   9
ATOM      9  C   UNL     1      -1.803   9.803  38.344  1.00  0.00     0.000 C 
BRANCH   9  10
ATOM     10  C   UNL     1      -1.755   8.306  38.684  1.00  0.00     0.006 C 
BRANCH  10  11
ATOM     11  C   UNL     1      -2.565   7.969  39.943  1.00  0.00     0.053 C 
BRANCH  11  12
ATOM     12  C   UNL     1      -1.686   7.503  41.063  1.00  0.00     0.041 C 
ATOM     13  O   UNL     1      -1.829   6.347  41.541  1.00  0.00    -0.550 OA
ATOM     14  O   UNL     1      -0.726   8.354  41.596  1.00  0.00    -0.550 OA
ENDBRANCH  11  12
ENDBRANCH  10  11
ENDBRANCH   9  10
ENDBRANCH   8   9
ENDBRANCH   7   8
ENDBRANCH   6   7
ENDBRANCH   5   6
ENDBRANCH   4   5
ENDBRANCH   3   4
ENDBRANCH   2   3
ENDBRANCH   1   2
BRANCH   1  15
ATOM     15  C   UNL     1       0.826   5.586  37.718  1.00  0.00     0.000 C 
BRANCH  15  16
ATOM     16  C   UNL     1      -0.642   5.149  37.569  1.00  0.00     0.000 C 
BRANCH  16  17
ATOM     17  C   UNL     1      -0.899   4.347  36.280  1.00  0.00     0.000 C 
BRANCH  17  18
ATOM     18  C   UNL     1       0.356   3.747  35.622  1.00  0.00    -0.000 C 
BRANCH  18  19
ATOM     19  C   UNL     1       0.624   4.305  34.213  1.00  0.00    -0.000 C 
BRANCH  19  20
ATOM     20  C   UNL     1       1.343   5.662  34.253  1.00  0.00    -0.000 C 
BRANCH  20  21
ATOM     21  C   UNL     1       2.658   5.655  33.454  1.00  0.00    -0.000 C 
BRANCH  21  22
ATOM     22  C   UNL     1       3.388   4.304  33.538  1.00  0.00    -0.000 C 
BRANCH  22  23
ATOM     23  C   UNL     1       4.693   4.395  34.347  1.00  0.00    -0.000 C 
BRANCH  23  24
ATOM     24  C   UNL     1       4.570   3.773  35.747  1.00  0.00    -0.000 C 
BRANCH  24  25
ATOM     25  C   UNL     1       4.037   4.752  36.814  1.00  0.00    -0.003 C 
ATOM     26  C   UNL     1       4.794   4.636  38.138  1.00  0.00     0.004 C 
ENDBRANCH  24  25
ENDBRANCH  23  24
ENDBRANCH  22  23
ENDBRANCH  21  22
ENDBRANCH  20  21
ENDBRANCH  19  20
ENDBRANCH  18  19
ENDBRANCH  17  18
ENDBRANCH  16  17
ENDBRANCH  15  16
ENDBRANCH   1  15
TORSDOF 22
ENDMDL
MODEL 5
REMARK VINA RESULT:    -3.315      2.860      5.168
REMARK INTER + INTRA:         -11.791
REMARK INTER:                  -7.307
REMARK INTRA:                  -4.484
REMARK UNBOUND:                -4.213
REMARK SMILES CCCCCCCCCCCCCCCCCCCCCCCC(=O)[O-]
REMARK SMILES IDX 13 1 14 2 15 3 16 4 17 5 18 6 19 7 20 8 21 9 22 10 23 11
REMARK SMILES IDX 24 12 25 13 26 14 12 15 11 16 10 17 9 18 8 19 7 20 6 21 5 22
REMARK SMILES IDX 4 23 3 24 2 25 1 26
REMARK H PARENT
REMARK Flexibility Score: inf
ROOT
ATOM      1  C   UNL     1       0.653   8.687  39.522  1.00  0.00     0.000 C 
ENDROOT
BRANCH   1   2
ATOM      2  C   UNL     1       0.145  10.054  39.026  1.00  0.00     0.000 C 
BRANCH   2   3
ATOM      3  C   UNL     1      -1.250   9.972  38.387  1.00  0.00     0.000 C 
BRANCH   3   4
ATOM      4  C   UNL     1      -1.225   9.301  37.003  1.00  0.00     0.000 C 
BRANCH   4   5
ATOM      5  C   UNL     1      -0.257   9.988  36.022  1.00  0.00     0.000 C 
BRANCH   5   6
ATOM      6  C   UNL     1       0.902   9.104  35.517  1.00  0.00     0.000 C 
BRANCH   6   7
ATOM      7  C   UNL     1       0.876   7.641  36.003  1.00  0.00     0.000 C 
BRANCH   7   8
ATOM      8  C   UNL     1       2.173   7.158  36.673  1.00  0.00     0.000 C 
BRANCH   8   9
ATOM      9  C   UNL     1       2.457   5.669  36.420  1.00  0.00     0.000 C 
BRANCH   9  10
ATOM     10  C   UNL     1       2.275   5.323  34.935  1.00  0.00     0.006 C 
BRANCH  10  11
ATOM     11  C   UNL     1       2.028   3.825  34.714  1.00  0.00     0.053 C 
BRANCH  11  12
ATOM     12  C   UNL     1       0.613   3.547  34.308  1.00  0.00     0.041 C 
ATOM     13  O   UNL     1       0.372   2.808  33.318  1.00  0.00    -0.550 OA
ATOM     14  O   UNL     1      -0.439   4.126  35.007  1.00  0.00    -0.550 OA
ENDBRANCH  11  12
ENDBRANCH  10  11
ENDBRANCH   9  10
ENDBRANCH   8   9
ENDBRANCH   7   8
ENDBRANCH   6   7
ENDBRANCH   5   6
ENDBRANCH   4   5
ENDBRANCH   3   4
ENDBRANCH   2   3
ENDBRANCH   1   2
BRANCH   1  15
ATOM     15  C   UNL     1       1.007   8.701  41.019  1.00  0.00     0.000 C 
BRANCH  15  16
ATOM     16  C   UNL     1      -0.236   8.571  41.916  1.00  0.00     0.000 C 
BRANCH  16  17
ATOM     17  C   UNL     1      -0.704   7.114  42.084  1.00  0.00     0.000 C 
BRANCH  17  18
ATOM     18  C   UNL     1      -2.191   6.865  41.778  1.00  0.00    -0.000 C 
BRANCH  18  19
ATOM     19  C   UNL     1      -2.578   7.227  40.333  1.00  0.00    -0.000 C 
BRANCH  19  20
ATOM     20  C   UNL     1      -2.678   5.988  39.431  1.00  0.00    -0.000 C 
BRANCH  20  21
ATOM     21  C   UNL     1      -1.606   5.977  38.326  1.00  0.00    -0.000 C 
BRANCH  21  22
ATOM     22  C   UNL     1      -0.643   4.786  38.455  1.00  0.00    -0.000 C 
BRANCH  22  23
ATOM     23  C   UNL     1       0.463   5.039  39.494  1.00  0.00    -0.000 C 
BRANCH  23  24
ATOM     24  C   UNL     1       0.744   3.811  40.374  1.00  0.00    -0.000 C 
BRANCH  24  25
ATOM     25  C   UNL     1      -0.509   2.961  40.669  1.00  0.00    -0.003 C 
ATOM     26  C   UNL     1      -1.208   3.385  41.962  1.00  0.00     0.004 C 
ENDBRANCH  24  25
ENDBRANCH  23  24
ENDBRANCH  22  23
ENDBRANCH  21  22
ENDBRANCH  20  21
ENDBRANCH  19  20
ENDBRANCH  18  19
ENDBRANCH  17  18
ENDBRANCH  16  17
ENDBRANCH  15  16
ENDBRANCH   1  15
TORSDOF 22
ENDMDL
MODEL 6
REMARK VINA RESULT:    -3.254      2.971      5.098
REMARK INTER + INTRA:         -11.652
REMARK INTER:                  -7.832
REMARK INTRA:                  -3.820
REMARK UNBOUND:                -4.213
REMARK SMILES CCCCCCCCCCCCCCCCCCCCCCCC(=O)[O-]
REMARK SMILES IDX 13 1 14 2 15 3 16 4 17 5 18 6 19 7 20 8 21 9 22 10 23 11
REMARK SMILES IDX 24 12 25 13 26 14 12 15 11 16 10 17 9 18 8 19 7 20 6 21 5 22
REMARK SMILES IDX 4 23 3 24 2 25 1 26
REMARK H PARENT
REMARK Flexibility Score: inf
ROOT
ATOM      1  C   UNL     1       0.139   5.021  40.223  1.00  0.00     0.000 C 
ENDROOT
BRANCH   1   2
ATOM      2  C   UNL     1       1.404   5.368  39.416  1.00  0.00     0.000 C 
BRANCH   2   3
ATOM      3  C   UNL     1       1.458   6.848  39.005  1.00  0.00     0.000 C 
BRANCH   3   4
ATOM      4  C   UNL     1       2.212   7.063  37.681  1.00  0.00     0.000 C 
BRANCH   4   5
ATOM      5  C   UNL     1       1.632   8.217  36.842  1.00  0.00     0.000 C 
BRANCH   5   6
ATOM      6  C   UNL     1       0.155   8.050  36.430  1.00  0.00     0.000 C 
BRANCH   6   7
ATOM      7  C   UNL     1      -0.713   9.318  36.560  1.00  0.00     0.000 C 
BRANCH   7   8
ATOM      8  C   UNL     1      -0.955   9.792  38.003  1.00  0.00     0.000 C 
BRANCH   8   9
ATOM      9  C   UNL     1      -1.959   8.910  38.760  1.00  0.00     0.000 C 
BRANCH   9  10
ATOM     10  C   UNL     1      -1.402   8.501  40.132  1.00  0.00     0.006 C 
BRANCH  10  11
ATOM     11  C   UNL     1      -2.413   7.687  40.951  1.00  0.00     0.053 C 
BRANCH  11  12
ATOM     12  C   UNL     1      -1.906   7.395  42.330  1.00  0.00     0.041 C 
ATOM     13  O   UNL     1      -0.989   8.099  42.829  1.00  0.00    -0.550 OA
ATOM     14  O   UNL     1      -2.429   6.331  43.054  1.00  0.00    -0.550 OA
ENDBRANCH  11  12
ENDBRANCH  10  11
ENDBRANCH   9  10
ENDBRANCH   8   9
ENDBRANCH   7   8
ENDBRANCH   6   7
ENDBRANCH   5   6
ENDBRANCH   4   5
ENDBRANCH   3   4
ENDBRANCH   2   3
ENDBRANCH   1   2
BRANCH   1  15
ATOM     15  C   UNL     1      -0.877   4.210  39.401  1.00  0.00     0.000 C 
BRANCH  15  16
ATOM     16  C   UNL     1      -1.937   5.103  38.734  1.00  0.00     0.000 C 
BRANCH  16  17
ATOM     17  C   UNL     1      -1.806   5.144  37.201  1.00  0.00     0.000 C 
BRANCH  17  18
ATOM     18  C   UNL     1      -1.006   3.984  36.582  1.00  0.00    -0.000 C 
BRANCH  18  19
ATOM     19  C   UNL     1      -0.140   4.419  35.386  1.00  0.00    -0.000 C 
BRANCH  19  20
ATOM     20  C   UNL     1       1.351   4.126  35.612  1.00  0.00    -0.000 C 
BRANCH  20  21
ATOM     21  C   UNL     1       2.260   4.955  34.687  1.00  0.00    -0.000 C 
BRANCH  21  22
ATOM     22  C   UNL     1       3.034   4.081  33.687  1.00  0.00    -0.000 C 
BRANCH  22  23
ATOM     23  C   UNL     1       2.563   4.294  32.238  1.00  0.00    -0.000 C 
BRANCH  23  24
ATOM     24  C   UNL     1       1.449   5.346  32.124  1.00  0.00    -0.000 C 
BRANCH  24  25
ATOM     25  C   UNL     1       1.630   6.312  30.934  1.00  0.00    -0.003 C 
ATOM     26  C   UNL     1       1.882   7.751  31.387  1.00  0.00     0.004 C 
ENDBRANCH  24  25
ENDBRANCH  23  24
ENDBRANCH  22  23
ENDBRANCH  21  22
ENDBRANCH  20  21
ENDBRANCH  19  20
ENDBRANCH  18  19
ENDBRANCH  17  18
ENDBRANCH  16  17
ENDBRANCH  15  16
ENDBRANCH   1  15
TORSDOF 22
ENDMDL
MODEL 7
REMARK VINA RESULT:    -3.198      3.957      6.870
REMARK INTER + INTRA:         -11.524
REMARK INTER:                  -7.410
REMARK INTRA:                  -4.114
REMARK UNBOUND:                -4.213
REMARK SMILES CCCCCCCCCCCCCCCCCCCCCCCC(=O)[O-]
REMARK SMILES IDX 13 1 14 2 15 3 16 4 17 5 18 6 19 7 20 8 21 9 22 10 23 11
REMARK SMILES IDX 24 12 25 13 26 14 12 15 11 16 10 17 9 18 8 19 7 20 6 21 5 22
REMARK SMILES IDX 4 23 3 24 2 25 1 26
REMARK H PARENT
REMARK Flexibility Score: inf
ROOT
ATOM      1  C   UNL     1      -1.311   6.007  41.719  1.00  0.00     0.000 C 
ENDROOT
BRANCH   1   2
ATOM      2  C   UNL     1      -2.241   4.932  41.128  1.00  0.00     0.000 C 
BRANCH   2   3
ATOM      3  C   UNL     1      -1.473   3.820  40.396  1.00  0.00     0.000 C 
BRANCH   3   4
ATOM      4  C   UNL     1      -0.685   4.348  39.185  1.00  0.00     0.000 C 
BRANCH   4   5
ATOM      5  C   UNL     1      -1.594   4.952  38.097  1.00  0.00     0.000 C 
BRANCH   5   6
ATOM      6  C   UNL     1      -0.899   5.246  36.751  1.00  0.00     0.000 C 
BRANCH   6   7
ATOM      7  C   UNL     1      -0.576   4.007  35.892  1.00  0.00     0.000 C 
BRANCH   7   8
ATOM      8  C   UNL     1       0.450   4.246  34.771  1.00  0.00     0.000 C 
BRANCH   8   9
ATOM      9  C   UNL     1       1.083   5.644  34.830  1.00  0.00     0.000 C 
BRANCH   9  10
ATOM     10  C   UNL     1       2.268   5.749  33.858  1.00  0.00     0.006 C 
BRANCH  10  11
ATOM     11  C   UNL     1       1.824   5.679  32.391  1.00  0.00     0.053 C 
BRANCH  11  12
ATOM     12  C   UNL     1       1.728   7.040  31.772  1.00  0.00     0.041 C 
ATOM     13  O   UNL     1       1.592   7.159  30.526  1.00  0.00    -0.550 OA
ATOM     14  O   UNL     1       1.813   8.175  32.567  1.00  0.00    -0.550 OA
ENDBRANCH  11  12
ENDBRANCH  10  11
ENDBRANCH   9  10
ENDBRANCH   8   9
ENDBRANCH   7   8
ENDBRANCH   6   7
ENDBRANCH   5   6
ENDBRANCH   4   5
ENDBRANCH   3   4
ENDBRANCH   2   3
ENDBRANCH   1   2
BRANCH   1  15
ATOM     15  C   UNL     1      -1.896   7.424  41.592  1.00  0.00     0.000 C 
BRANCH  15  16
ATOM     16  C   UNL     1      -1.180   8.259  40.516  1.00  0.00     0.000 C 
BRANCH  16  17
ATOM     17  C   UNL     1      -1.998   8.390  39.218  1.00  0.00     0.000 C 
BRANCH  17  18
ATOM     18  C   UNL     1      -1.485   9.449  38.226  1.00  0.00    -0.000 C 
BRANCH  18  19
ATOM     19  C   UNL     1      -0.534   8.868  37.164  1.00  0.00    -0.000 C 
BRANCH  19  20
ATOM     20  C   UNL     1       0.935   9.219  37.445  1.00  0.00    -0.000 C 
BRANCH  20  21
ATOM     21  C   UNL     1       1.841   7.976  37.474  1.00  0.00    -0.000 C 
BRANCH  21  22
ATOM     22  C   UNL     1       1.695   7.174  38.778  1.00  0.00    -0.000 C 
BRANCH  22  23
ATOM     23  C   UNL     1       2.623   5.947  38.816  1.00  0.00    -0.000 C 
BRANCH  23  24
ATOM     24  C   UNL     1       3.214   5.606  37.439  1.00  0.00    -0.000 C 
BRANCH  24  25
ATOM     25  C   UNL     1       3.700   4.146  37.319  1.00  0.00    -0.003 C 
ATOM     26  C   UNL     1       2.612   3.139  37.697  1.00  0.00     0.004 C 
ENDBRANCH  24  25
ENDBRANCH  23  24
ENDBRANCH  22  23
ENDBRANCH  21  22
ENDBRANCH  20  21
ENDBRANCH  19  20
ENDBRANCH  18  19
ENDBRANCH  17  18
ENDBRANCH  16  17
ENDBRANCH  15  16
ENDBRANCH   1  15
TORSDOF 22
ENDMDL
MODEL 8
REMARK VINA RESULT:    -3.178      2.924      4.506
REMARK INTER + INTRA:         -11.479
REMARK INTER:                  -7.136
REMARK INTRA:                  -4.343
REMARK UNBOUND:                -4.213
REMARK SMILES CCCCCCCCCCCCCCCCCCCCCCCC(=O)[O-]
REMARK SMILES IDX 13 1 14 2 15 3 16 4 17 5 18 6 19 7 20 8 21 9 22 10 23 11
REMARK SMILES IDX 24 12 25 13 26 14 12 15 11 16 10 17 9 18 8 19 7 20 6 21 5 22
REMARK SMILES IDX 4 23 3 24 2 25 1 26
REMARK H PARENT
REMARK Flexibility Score: inf
ROOT
ATOM      1  C   UNL     1      -1.500   8.458  38.653  1.00  0.00     0.000 C 
ENDROOT
BRANCH   1   2
ATOM      2  C   UNL     1      -1.427   9.667  37.703  1.00  0.00     0.000 C 
BRANCH   2   3
ATOM      3  C   UNL     1      -0.472   9.435  36.521  1.00  0.00     0.000 C 
BRANCH   3   4
ATOM      4  C   UNL     1       0.906  10.082  36.742  1.00  0.00     0.000 C 
BRANCH   4   5
ATOM      5  C   UNL     1       2.006   9.053  37.063  1.00  0.00     0.000 C 
BRANCH   5   6
ATOM      6  C   UNL     1       2.244   8.793  38.565  1.00  0.00     0.000 C 
BRANCH   6   7
ATOM      7  C   UNL     1       2.098   7.325  39.011  1.00  0.00     0.000 C 
BRANCH   7   8
ATOM      8  C   UNL     1       2.939   6.317  38.209  1.00  0.00     0.000 C 
BRANCH   8   9
ATOM      9  C   UNL     1       2.784   4.875  38.715  1.00  0.00     0.000 C 
BRANCH   9  10
ATOM     10  C   UNL     1       3.183   3.867  37.627  1.00  0.00     0.006 C 
BRANCH  10  11
ATOM     11  C   UNL     1       4.287   4.409  36.709  1.00  0.00     0.053 C 
BRANCH  11  12
ATOM     12  C   UNL     1       5.516   3.553  36.750  1.00  0.00     0.041 C 
ATOM     13  O   UNL     1       5.546   2.523  37.474  1.00  0.00    -0.550 OA
ATOM     14  O   UNL     1       6.636   3.906  36.008  1.00  0.00    -0.550 OA
ENDBRANCH  11  12
ENDBRANCH  10  11
ENDBRANCH   9  10
ENDBRANCH   8   9
ENDBRANCH   7   8
ENDBRANCH   6   7
ENDBRANCH   5   6
ENDBRANCH   4   5
ENDBRANCH   3   4
ENDBRANCH   2   3
ENDBRANCH   1   2
BRANCH   1  15
ATOM     15  C   UNL     1      -1.089   8.816  40.092  1.00  0.00     0.000 C 
BRANCH  15  16
ATOM     16  C   UNL     1      -1.005   7.578  41.002  1.00  0.00     0.000 C 
BRANCH  16  17
ATOM     17  C   UNL     1      -1.640   6.326  40.370  1.00  0.00     0.000 C 
BRANCH  17  18
ATOM     18  C   UNL     1      -0.778   5.053  40.435  1.00  0.00    -0.000 C 
BRANCH  18  19
ATOM     19  C   UNL     1      -0.971   4.132  39.217  1.00  0.00    -0.000 C 
BRANCH  19  20
ATOM     20  C   UNL     1      -1.318   4.918  37.943  1.00  0.00    -0.000 C 
BRANCH  20  21
ATOM     21  C   UNL     1      -0.381   4.580  36.770  1.00  0.00    -0.000 C 
BRANCH  21  22
ATOM     22  C   UNL     1       0.191   5.836  36.094  1.00  0.00    -0.000 C 
BRANCH  22  23
ATOM     23  C   UNL     1       1.170   5.493  34.957  1.00  0.00    -0.000 C 
BRANCH  23  24
ATOM     24  C   UNL     1       1.644   6.736  34.187  1.00  0.00    -0.000 C 
BRANCH  24  25
ATOM     25  C   UNL     1       2.026   6.446  32.720  1.00  0.00    -0.003 C 
ATOM     26  C   UNL     1       1.832   7.665  31.818  1.00  0.00     0.004 C 
ENDBRANCH  24  25
ENDBRANCH  23  24
ENDBRANCH  22  23
ENDBRANCH  21  22
ENDBRANCH  20  21
ENDBRANCH  19  20
ENDBRANCH  18  19
ENDBRANCH  17  18
ENDBRANCH  16  17
ENDBRANCH  15  16
ENDBRANCH   1  15
TORSDOF 22
ENDMDL
MODEL 9
REMARK VINA RESULT:    -3.169      3.487      6.485
REMARK INTER + INTRA:         -11.458
REMARK INTER:                  -7.357
REMARK INTRA:                  -4.101
REMARK UNBOUND:                -4.213
REMARK SMILES CCCCCCCCCCCCCCCCCCCCCCCC(=O)[O-]
REMARK SMILES IDX 13 1 14 2 15 3 16 4 17 5 18 6 19 7 20 8 21 9 22 10 23 11
REMARK SMILES IDX 24 12 25 13 26 14 12 15 11 16 10 17 9 18 8 19 7 20 6 21 5 22
REMARK SMILES IDX 4 23 3 24 2 25 1 26
REMARK H PARENT
REMARK Flexibility Score: inf
ROOT
ATOM      1  C   UNL     1      -2.213   6.581  39.003  1.00  0.00     0.000 C 
ENDROOT
BRANCH   1   2
ATOM      2  C   UNL     1      -1.719   5.433  38.103  1.00  0.00     0.000 C 
BRANCH   2   3
ATOM      3  C   UNL     1      -0.217   5.525  37.794  1.00  0.00     0.000 C 
BRANCH   3   4
ATOM      4  C   UNL     1       0.578   4.345  38.380  1.00  0.00     0.000 C 
BRANCH   4   5
ATOM      5  C   UNL     1       1.930   4.772  38.980  1.00  0.00     0.000 C 
BRANCH   5   6
ATOM      6  C   UNL     1       3.107   3.818  38.692  1.00  0.00     0.000 C 
BRANCH   6   7
ATOM      7  C   UNL     1       4.215   4.392  37.788  1.00  0.00     0.000 C 
BRANCH   7   8
ATOM      8  C   UNL     1       3.714   5.249  36.612  1.00  0.00     0.000 C 
BRANCH   8   9
ATOM      9  C   UNL     1       3.518   4.437  35.323  1.00  0.00     0.000 C 
BRANCH   9  10
ATOM     10  C   UNL     1       2.036   4.398  34.921  1.00  0.00     0.006 C 
BRANCH  10  11
ATOM     11  C   UNL     1       1.532   5.760  34.427  1.00  0.00     0.053 C 
BRANCH  11  12
ATOM     12  C   UNL     1       1.583   5.864  32.933  1.00  0.00     0.041 C 
ATOM     13  O   UNL     1       1.768   4.834  32.233  1.00  0.00    -0.550 OA
ATOM     14  O   UNL     1       1.450   7.101  32.315  1.00  0.00    -0.550 OA
ENDBRANCH  11  12
ENDBRANCH  10  11
ENDBRANCH   9  10
ENDBRANCH   8   9
ENDBRANCH   7   8
ENDBRANCH   6   7
ENDBRANCH   5   6
ENDBRANCH   4   5
ENDBRANCH   3   4
ENDBRANCH   2   3
ENDBRANCH   1   2
BRANCH   1  15
ATOM     15  C   UNL     1      -2.596   6.099  40.413  1.00  0.00     0.000 C 
BRANCH  15  16
ATOM     16  C   UNL     1      -1.735   6.752  41.508  1.00  0.00     0.000 C 
BRANCH  16  17
ATOM     17  C   UNL     1      -0.353   6.091  41.657  1.00  0.00     0.000 C 
BRANCH  17  18
ATOM     18  C   UNL     1       0.831   7.069  41.765  1.00  0.00    -0.000 C 
BRANCH  18  19
ATOM     19  C   UNL     1       0.498   8.479  41.246  1.00  0.00    -0.000 C 
BRANCH  19  20
ATOM     20  C   UNL     1       1.314   8.847  39.998  1.00  0.00    -0.000 C 
BRANCH  20  21
ATOM     21  C   UNL     1       0.441   8.954  38.735  1.00  0.00    -0.000 C 
BRANCH  21  22
ATOM     22  C   UNL     1      -0.721   9.946  38.908  1.00  0.00    -0.000 C 
BRANCH  22  23
ATOM     23  C   UNL     1      -1.668   9.952  37.695  1.00  0.00    -0.000 C 
BRANCH  23  24
ATOM     24  C   UNL     1      -1.105   9.171  36.497  1.00  0.00    -0.000 C 
BRANCH  24  25
ATOM     25  C   UNL     1      -0.592  10.075  35.357  1.00  0.00    -0.003 C 
ATOM     26  C   UNL     1       0.692   9.536  34.723  1.00  0.00     0.004 C 
ENDBRANCH  24  25
ENDBRANCH  23  24
ENDBRANCH  22  23
ENDBRANCH  21  22
ENDBRANCH  20  21
ENDBRANCH  19  20
ENDBRANCH  18  19
ENDBRANCH  17  18
ENDBRANCH  16  17
ENDBRANCH  15  16
ENDBRANCH   1  15
TORSDOF 22
ENDMDL
