MODEL 1
REMARK VINA RESULT:    -6.240      0.000      0.000
REMARK INTER + INTRA:          -7.439
REMARK INTER:                  -7.151
REMARK INTRA:                  -0.287
REMARK UNBOUND:                -0.287
REMARK SMILES O=C1C[C@@H](c2ccc(O)cc2)Oc2cc(O)cc(O)c21
REMARK SMILES IDX 3 1 4 2 12 3 13 4 14 5 15 6 17 7 18 8 20 9 2 10 1 11 5 12
REMARK SMILES IDX 6 13 11 14 7 15 10 16 8 17 9 18 19 20 16 22
REMARK H PARENT 9 19 19 21 16 23
REMARK Flexibility Score: inf
ROOT
ATOM      1  C   UNL     1      28.744  60.207   1.772  1.00  0.00     0.131 C 
ATOM      2  C   UNL     1      30.199  59.748   1.607  1.00  0.00     0.211 C 
ATOM      3  O   UNL     1      30.325  58.868   0.486  1.00  0.00    -0.484 OA
ATOM      4  C   UNL     1      29.630  59.070  -0.714  1.00  0.00     0.138 A 
ATOM      5  C   UNL     1      30.008  58.345  -1.846  1.00  0.00     0.093 A 
ATOM      6  C   UNL     1      29.343  58.536  -3.061  1.00  0.00     0.123 A 
ATOM      7  C   UNL     1      28.278  59.434  -3.135  1.00  0.00     0.093 A 
ATOM      8  C   UNL     1      27.856  60.142  -2.003  1.00  0.00     0.133 A 
ATOM      9  C   UNL     1      28.559  59.988  -0.779  1.00  0.00     0.102 A 
ATOM     10  C   UNL     1      28.245  60.738   0.462  1.00  0.00     0.174 C 
ATOM     11  O   UNL     1      27.620  61.832   0.437  1.00  0.00    -0.294 OA
ENDROOT
BRANCH   2  12
ATOM     12  C   UNL     1      30.687  59.060   2.860  1.00  0.00    -0.007 A 
ATOM     13  C   UNL     1      32.013  59.228   3.298  1.00  0.00     0.011 A 
ATOM     14  C   UNL     1      29.835  58.198   3.571  1.00  0.00     0.011 A 
ATOM     15  C   UNL     1      32.469  58.565   4.441  1.00  0.00     0.046 A 
ATOM     16  C   UNL     1      30.295  57.536   4.714  1.00  0.00     0.046 A 
ATOM     17  C   UNL     1      31.609  57.719   5.153  1.00  0.00     0.115 A 
BRANCH  17  18
ATOM     18  O   UNL     1      32.052  57.053   6.294  1.00  0.00    -0.508 OA
ATOM     19  H   UNL     1      31.417  56.525   6.880  1.00  0.00     0.293 HD
ENDBRANCH  17  18
ENDBRANCH   2  12
BRANCH   8  20
ATOM     20  O   UNL     1      26.724  60.950  -2.137  1.00  0.00    -0.507 OA
ATOM     21  H   UNL     1      26.523  61.743  -1.544  1.00  0.00     0.293 HD
ENDBRANCH   8  20
BRANCH   6  22
ATOM     22  O   UNL     1      29.729  57.832  -4.200  1.00  0.00    -0.508 OA
ATOM     23  H   UNL     1      30.700  57.598  -4.374  1.00  0.00     0.293 HD
ENDBRANCH   6  22
TORSDOF 4
ENDMDL
MODEL 2
REMARK VINA RESULT:    -6.098      1.821      7.181
REMARK INTER + INTRA:          -7.277
REMARK INTER:                  -6.981
REMARK INTRA:                  -0.295
REMARK UNBOUND:                -0.287
REMARK SMILES O=C1C[C@@H](c2ccc(O)cc2)Oc2cc(O)cc(O)c21
REMARK SMILES IDX 3 1 4 2 12 3 13 4 14 5 15 6 17 7 18 8 20 9 2 10 1 11 5 12
REMARK SMILES IDX 6 13 11 14 7 15 10 16 8 17 9 18 19 20 16 22
REMARK H PARENT 9 19 19 21 16 23
REMARK Flexibility Score: inf
ROOT
ATOM      1  C   UNL     1      31.316  58.540   1.931  1.00  0.00     0.131 C 
ATOM      2  C   UNL     1      30.068  59.422   1.787  1.00  0.00     0.211 C 
ATOM      3  O   UNL     1      29.023  58.959   2.648  1.00  0.00    -0.484 OA
ATOM      4  C   UNL     1      29.266  58.487   3.944  1.00  0.00     0.138 A 
ATOM      5  C   UNL     1      28.187  58.318   4.816  1.00  0.00     0.093 A 
ATOM      6  C   UNL     1      28.400  57.862   6.121  1.00  0.00     0.123 A 
ATOM      7  C   UNL     1      29.692  57.548   6.544  1.00  0.00     0.093 A 
ATOM      8  C   UNL     1      30.783  57.672   5.674  1.00  0.00     0.133 A 
ATOM      9  C   UNL     1      30.578  58.180   4.364  1.00  0.00     0.102 A 
ATOM     10  C   UNL     1      31.666  58.419   3.384  1.00  0.00     0.174 C 
ATOM     11  O   UNL     1      32.863  58.576   3.745  1.00  0.00    -0.294 OA
ENDROOT
BRANCH   2  12
ATOM     12  C   UNL     1      29.588  59.439   0.355  1.00  0.00    -0.007 A 
ATOM     13  C   UNL     1      28.483  60.224  -0.020  1.00  0.00     0.011 A 
ATOM     14  C   UNL     1      30.208  58.625  -0.607  1.00  0.00     0.011 A 
ATOM     15  C   UNL     1      28.025  60.213  -1.341  1.00  0.00     0.046 A 
ATOM     16  C   UNL     1      29.747  58.616  -1.927  1.00  0.00     0.046 A 
ATOM     17  C   UNL     1      28.658  59.409  -2.298  1.00  0.00     0.115 A 
BRANCH  17  18
ATOM     18  O   UNL     1      28.209  59.390  -3.617  1.00  0.00    -0.508 OA
ATOM     19  H   UNL     1      27.445  58.791  -3.908  1.00  0.00     0.293 HD
ENDBRANCH  17  18
ENDBRANCH   2  12
BRANCH   8  20
ATOM     20  O   UNL     1      32.029  57.250   6.143  1.00  0.00    -0.507 OA
ATOM     21  H   UNL     1      32.661  56.664   5.616  1.00  0.00     0.293 HD
ENDBRANCH   8  20
BRANCH   6  22
ATOM     22  O   UNL     1      27.332  57.711   7.003  1.00  0.00    -0.508 OA
ATOM     23  H   UNL     1      27.342  57.006   7.730  1.00  0.00     0.293 HD
ENDBRANCH   6  22
TORSDOF 4
ENDMDL
MODEL 3
REMARK VINA RESULT:    -5.935      1.844      6.736
REMARK INTER + INTRA:          -7.090
REMARK INTER:                  -6.783
REMARK INTRA:                  -0.306
REMARK UNBOUND:                -0.287
REMARK SMILES O=C1C[C@@H](c2ccc(O)cc2)Oc2cc(O)cc(O)c21
REMARK SMILES IDX 3 1 4 2 12 3 13 4 14 5 15 6 17 7 18 8 20 9 2 10 1 11 5 12
REMARK SMILES IDX 6 13 11 14 7 15 10 16 8 17 9 18 19 20 16 22
REMARK H PARENT 9 19 19 21 16 23
REMARK Flexibility Score: inf
ROOT
ATOM      1  C   UNL     1      30.705  61.309   0.837  1.00  0.00     0.131 C 
ATOM      2  C   UNL     1      29.703  60.147   0.845  1.00  0.00     0.211 C 
ATOM      3  O   UNL     1      30.215  59.046   1.602  1.00  0.00    -0.484 OA
ATOM      4  C   UNL     1      30.931  59.217   2.794  1.00  0.00     0.138 A 
ATOM      5  C   UNL     1      31.154  58.109   3.615  1.00  0.00     0.093 A 
ATOM      6  C   UNL     1      31.851  58.251   4.818  1.00  0.00     0.123 A 
ATOM      7  C   UNL     1      32.351  59.501   5.186  1.00  0.00     0.093 A 
ATOM      8  C   UNL     1      32.173  60.618   4.359  1.00  0.00     0.133 A 
ATOM      9  C   UNL     1      31.424  60.488   3.161  1.00  0.00     0.102 A 
ATOM     10  C   UNL     1      31.114  61.615   2.246  1.00  0.00     0.174 C 
ATOM     11  O   UNL     1      31.133  62.812   2.638  1.00  0.00    -0.294 OA
ENDROOT
BRANCH   2  12
ATOM     12  C   UNL     1      29.388  59.703  -0.564  1.00  0.00    -0.007 A 
ATOM     13  C   UNL     1      30.110  58.655  -1.162  1.00  0.00     0.011 A 
ATOM     14  C   UNL     1      28.406  60.373  -1.313  1.00  0.00     0.011 A 
ATOM     15  C   UNL     1      29.835  58.269  -2.477  1.00  0.00     0.046 A 
ATOM     16  C   UNL     1      28.134  59.984  -2.628  1.00  0.00     0.046 A 
ATOM     17  C   UNL     1      28.844  58.932  -3.212  1.00  0.00     0.115 A 
BRANCH  17  18
ATOM     18  O   UNL     1      28.562  58.555  -4.524  1.00  0.00    -0.508 OA
ATOM     19  H   UNL     1      29.007  59.009  -5.313  1.00  0.00     0.293 HD
ENDBRANCH  17  18
ENDBRANCH   2  12
BRANCH   8  20
ATOM     20  O   UNL     1      32.784  61.811   4.753  1.00  0.00    -0.507 OA
ATOM     21  H   UNL     1      32.542  62.319   5.592  1.00  0.00     0.293 HD
ENDBRANCH   8  20
BRANCH   6  22
ATOM     22  O   UNL     1      32.059  57.155   5.652  1.00  0.00    -0.508 OA
ATOM     23  H   UNL     1      31.513  57.020   6.495  1.00  0.00     0.293 HD
ENDBRANCH   6  22
TORSDOF 4
ENDMDL
MODEL 4
REMARK VINA RESULT:    -5.905      4.001      6.654
REMARK INTER + INTRA:          -7.055
REMARK INTER:                  -6.762
REMARK INTRA:                  -0.293
REMARK UNBOUND:                -0.287
REMARK SMILES O=C1C[C@@H](c2ccc(O)cc2)Oc2cc(O)cc(O)c21
REMARK SMILES IDX 3 1 4 2 12 3 13 4 14 5 15 6 17 7 18 8 20 9 2 10 1 11 5 12
REMARK SMILES IDX 6 13 11 14 7 15 10 16 8 17 9 18 19 20 16 22
REMARK H PARENT 9 19 19 21 16 23
REMARK Flexibility Score: inf
ROOT
ATOM      1  C   UNL     1      30.066  57.939   7.219  1.00  0.00     0.131 C 
ATOM      2  C   UNL     1      28.682  57.419   6.807  1.00  0.00     0.211 C 
ATOM      3  O   UNL     1      28.245  58.053   5.602  1.00  0.00    -0.484 OA
ATOM      4  C   UNL     1      29.112  58.331   4.537  1.00  0.00     0.138 A 
ATOM      5  C   UNL     1      28.572  58.689   3.300  1.00  0.00     0.093 A 
ATOM      6  C   UNL     1      29.411  58.959   2.214  1.00  0.00     0.123 A 
ATOM      7  C   UNL     1      30.796  58.897   2.377  1.00  0.00     0.093 A 
ATOM      8  C   UNL     1      31.360  58.578   3.619  1.00  0.00     0.133 A 
ATOM      9  C   UNL     1      30.511  58.257   4.711  1.00  0.00     0.102 A 
ATOM     10  C   UNL     1      30.997  57.839   6.049  1.00  0.00     0.174 C 
ATOM     11  O   UNL     1      32.147  57.352   6.215  1.00  0.00    -0.294 OA
ENDROOT
BRANCH   2  12
ATOM     12  C   UNL     1      27.675  57.651   7.908  1.00  0.00    -0.007 A 
ATOM     13  C   UNL     1      28.057  58.277   9.108  1.00  0.00     0.011 A 
ATOM     14  C   UNL     1      26.355  57.190   7.766  1.00  0.00     0.011 A 
ATOM     15  C   UNL     1      27.128  58.462  10.135  1.00  0.00     0.046 A 
ATOM     16  C   UNL     1      25.428  57.376   8.797  1.00  0.00     0.046 A 
ATOM     17  C   UNL     1      25.810  58.013   9.981  1.00  0.00     0.115 A 
BRANCH  17  18
ATOM     18  O   UNL     1      24.875  58.192  10.999  1.00  0.00    -0.508 OA
ATOM     19  H   UNL     1      24.061  58.782  10.873  1.00  0.00     0.293 HD
ENDBRANCH  17  18
ENDBRANCH   2  12
BRANCH   8  20
ATOM     20  O   UNL     1      32.752  58.629   3.723  1.00  0.00    -0.507 OA
ATOM     21  H   UNL     1      33.246  58.876   4.568  1.00  0.00     0.293 HD
ENDBRANCH   8  20
BRANCH   6  22
ATOM     22  O   UNL     1      28.879  59.296   0.972  1.00  0.00    -0.508 OA
ATOM     23  H   UNL     1      28.251  58.673   0.478  1.00  0.00     0.293 HD
ENDBRANCH   6  22
TORSDOF 4
ENDMDL
MODEL 5
REMARK VINA RESULT:    -5.739      3.382      5.307
REMARK INTER + INTRA:          -6.865
REMARK INTER:                  -6.575
REMARK INTRA:                  -0.290
REMARK UNBOUND:                -0.287
REMARK SMILES O=C1C[C@@H](c2ccc(O)cc2)Oc2cc(O)cc(O)c21
REMARK SMILES IDX 3 1 4 2 12 3 13 4 14 5 15 6 17 7 18 8 20 9 2 10 1 11 5 12
REMARK SMILES IDX 6 13 11 14 7 15 10 16 8 17 9 18 19 20 16 22
REMARK H PARENT 9 19 19 21 16 23
REMARK Flexibility Score: inf
ROOT
ATOM      1  C   UNL     1      30.563  58.798   5.571  1.00  0.00     0.131 C 
ATOM      2  C   UNL     1      29.218  58.062   5.645  1.00  0.00     0.211 C 
ATOM      3  O   UNL     1      28.354  58.487   4.587  1.00  0.00    -0.484 OA
ATOM      4  C   UNL     1      28.816  58.742   3.290  1.00  0.00     0.138 A 
ATOM      5  C   UNL     1      27.888  58.878   2.255  1.00  0.00     0.093 A 
ATOM      6  C   UNL     1      28.320  59.119   0.947  1.00  0.00     0.123 A 
ATOM      7  C   UNL     1      29.684  59.251   0.680  1.00  0.00     0.093 A 
ATOM      8  C   UNL     1      30.629  59.157   1.710  1.00  0.00     0.133 A 
ATOM      9  C   UNL     1      30.198  58.866   3.030  1.00  0.00     0.102 A 
ATOM     10  C   UNL     1      31.114  58.675   4.182  1.00  0.00     0.174 C 
ATOM     11  O   UNL     1      32.324  58.361   4.023  1.00  0.00    -0.294 OA
ENDROOT
BRANCH   2  12
ATOM     12  C   UNL     1      28.554  58.296   6.981  1.00  0.00    -0.007 A 
ATOM     13  C   UNL     1      27.422  57.552   7.357  1.00  0.00     0.011 A 
ATOM     14  C   UNL     1      29.029  59.302   7.839  1.00  0.00     0.011 A 
ATOM     15  C   UNL     1      26.793  57.794   8.582  1.00  0.00     0.046 A 
ATOM     16  C   UNL     1      28.397  59.542   9.064  1.00  0.00     0.046 A 
ATOM     17  C   UNL     1      27.281  58.789   9.439  1.00  0.00     0.115 A 
BRANCH  17  18
ATOM     18  O   UNL     1      26.662  59.039  10.662  1.00  0.00    -0.508 OA
ATOM     19  H   UNL     1      25.990  58.392  11.057  1.00  0.00     0.293 HD
ENDBRANCH  17  18
ENDBRANCH   2  12
BRANCH   8  20
ATOM     20  O   UNL     1      31.965  59.394   1.377  1.00  0.00    -0.507 OA
ATOM     21  H   UNL     1      32.660  58.668   1.281  1.00  0.00     0.293 HD
ENDBRANCH   8  20
BRANCH   6  22
ATOM     22  O   UNL     1      27.402  59.235  -0.094  1.00  0.00    -0.508 OA
ATOM     23  H   UNL     1      26.581  59.823  -0.013  1.00  0.00     0.293 HD
ENDBRANCH   6  22
TORSDOF 4
ENDMDL
MODEL 6
REMARK VINA RESULT:    -5.707      2.356      3.612
REMARK INTER + INTRA:          -6.829
REMARK INTER:                  -6.548
REMARK INTRA:                  -0.281
REMARK UNBOUND:                -0.287
REMARK SMILES O=C1C[C@@H](c2ccc(O)cc2)Oc2cc(O)cc(O)c21
REMARK SMILES IDX 3 1 4 2 12 3 13 4 14 5 15 6 17 7 18 8 20 9 2 10 1 11 5 12
REMARK SMILES IDX 6 13 11 14 7 15 10 16 8 17 9 18 19 20 16 22
REMARK H PARENT 9 19 19 21 16 23
REMARK Flexibility Score: inf
ROOT
ATOM      1  C   UNL     1      29.503  58.254   4.557  1.00  0.00     0.131 C 
ATOM      2  C   UNL     1      30.598  59.309   4.772  1.00  0.00     0.211 C 
ATOM      3  O   UNL     1      31.316  59.543   3.556  1.00  0.00    -0.484 OA
ATOM      4  C   UNL     1      30.687  59.591   2.305  1.00  0.00     0.138 A 
ATOM      5  C   UNL     1      31.395  60.095   1.211  1.00  0.00     0.093 A 
ATOM      6  C   UNL     1      30.789  60.169  -0.047  1.00  0.00     0.123 A 
ATOM      7  C   UNL     1      29.482  59.709  -0.216  1.00  0.00     0.093 A 
ATOM      8  C   UNL     1      28.769  59.163   0.859  1.00  0.00     0.133 A 
ATOM      9  C   UNL     1      29.362  59.131   2.148  1.00  0.00     0.102 A 
ATOM     10  C   UNL     1      28.675  58.641   3.369  1.00  0.00     0.174 C 
ATOM     11  O   UNL     1      27.419  58.594   3.450  1.00  0.00    -0.294 OA
ENDROOT
BRANCH   2  12
ATOM     12  C   UNL     1      31.551  58.876   5.860  1.00  0.00    -0.007 A 
ATOM     13  C   UNL     1      31.599  57.534   6.276  1.00  0.00     0.011 A 
ATOM     14  C   UNL     1      32.362  59.823   6.507  1.00  0.00     0.011 A 
ATOM     15  C   UNL     1      32.462  57.144   7.305  1.00  0.00     0.046 A 
ATOM     16  C   UNL     1      33.223  59.430   7.536  1.00  0.00     0.046 A 
ATOM     17  C   UNL     1      33.278  58.092   7.936  1.00  0.00     0.115 A 
BRANCH  17  18
ATOM     18  O   UNL     1      34.141  57.714   8.962  1.00  0.00    -0.508 OA
ATOM     19  H   UNL     1      35.108  58.015   8.978  1.00  0.00     0.293 HD
ENDBRANCH  17  18
ENDBRANCH   2  12
BRANCH   8  20
ATOM     20  O   UNL     1      27.502  58.641   0.588  1.00  0.00    -0.507 OA
ATOM     21  H   UNL     1      27.142  58.487  -0.343  1.00  0.00     0.293 HD
ENDBRANCH   8  20
BRANCH   6  22
ATOM     22  O   UNL     1      31.481  60.690  -1.138  1.00  0.00    -0.508 OA
ATOM     23  H   UNL     1      32.313  60.241  -1.502  1.00  0.00     0.293 HD
ENDBRANCH   6  22
TORSDOF 4
ENDMDL
MODEL 7
REMARK VINA RESULT:    -5.625      2.249      3.898
REMARK INTER + INTRA:          -6.734
REMARK INTER:                  -6.419
REMARK INTRA:                  -0.315
REMARK UNBOUND:                -0.287
REMARK SMILES O=C1C[C@@H](c2ccc(O)cc2)Oc2cc(O)cc(O)c21
REMARK SMILES IDX 3 1 4 2 12 3 13 4 14 5 15 6 17 7 18 8 20 9 2 10 1 11 5 12
REMARK SMILES IDX 6 13 11 14 7 15 10 16 8 17 9 18 19 20 16 22
REMARK H PARENT 9 19 19 21 16 23
REMARK Flexibility Score: inf
ROOT
ATOM      1  C   UNL     1      31.635  58.876   3.126  1.00  0.00     0.131 C 
ATOM      2  C   UNL     1      30.689  57.966   3.922  1.00  0.00     0.211 C 
ATOM      3  O   UNL     1      29.333  58.401   3.777  1.00  0.00    -0.484 OA
ATOM      4  C   UNL     1      28.817  58.873   2.563  1.00  0.00     0.138 A 
ATOM      5  C   UNL     1      27.434  59.013   2.425  1.00  0.00     0.093 A 
ATOM      6  C   UNL     1      26.888  59.468   1.221  1.00  0.00     0.123 A 
ATOM      7  C   UNL     1      27.731  59.810   0.163  1.00  0.00     0.093 A 
ATOM      8  C   UNL     1      29.122  59.715   0.293  1.00  0.00     0.133 A 
ATOM      9  C   UNL     1      29.679  59.208   1.497  1.00  0.00     0.102 A 
ATOM     10  C   UNL     1      31.131  58.998   1.720  1.00  0.00     0.174 C 
ATOM     11  O   UNL     1      31.937  58.867   0.761  1.00  0.00    -0.294 OA
ENDROOT
BRANCH   2  12
ATOM     12  C   UNL     1      31.072  57.944   5.382  1.00  0.00    -0.007 A 
ATOM     13  C   UNL     1      30.108  57.676   6.371  1.00  0.00     0.011 A 
ATOM     14  C   UNL     1      32.387  58.248   5.773  1.00  0.00     0.011 A 
ATOM     15  C   UNL     1      30.461  57.687   7.723  1.00  0.00     0.046 A 
ATOM     16  C   UNL     1      32.737  58.259   7.127  1.00  0.00     0.046 A 
ATOM     17  C   UNL     1      31.778  57.977   8.104  1.00  0.00     0.115 A 
BRANCH  17  18
ATOM     18  O   UNL     1      32.141  57.991   9.449  1.00  0.00    -0.508 OA
ATOM     19  H   UNL     1      33.112  57.964   9.736  1.00  0.00     0.293 HD
ENDBRANCH  17  18
ENDBRANCH   2  12
BRANCH   8  20
ATOM     20  O   UNL     1      29.899  60.164  -0.777  1.00  0.00    -0.507 OA
ATOM     21  H   UNL     1      30.887  59.979  -0.875  1.00  0.00     0.293 HD
ENDBRANCH   8  20
BRANCH   6  22
ATOM     22  O   UNL     1      25.509  59.590   1.068  1.00  0.00    -0.508 OA
ATOM     23  H   UNL     1      25.029  60.461   1.265  1.00  0.00     0.293 HD
ENDBRANCH   6  22
TORSDOF 4
ENDMDL
MODEL 8
REMARK VINA RESULT:    -5.613      2.472      7.833
REMARK INTER + INTRA:          -6.721
REMARK INTER:                  -6.401
REMARK INTRA:                  -0.320
REMARK UNBOUND:                -0.287
REMARK SMILES O=C1C[C@@H](c2ccc(O)cc2)Oc2cc(O)cc(O)c21
REMARK SMILES IDX 3 1 4 2 12 3 13 4 14 5 15 6 17 7 18 8 20 9 2 10 1 11 5 12
REMARK SMILES IDX 6 13 11 14 7 15 10 16 8 17 9 18 19 20 16 22
REMARK H PARENT 9 19 19 21 16 23
REMARK Flexibility Score: inf
ROOT
ATOM      1  C   UNL     1      31.449  58.341   4.067  1.00  0.00     0.131 C 
ATOM      2  C   UNL     1      30.137  59.082   3.775  1.00  0.00     0.211 C 
ATOM      3  O   UNL     1      29.058  58.507   4.519  1.00  0.00    -0.484 OA
ATOM      4  C   UNL     1      29.203  58.062   5.839  1.00  0.00     0.138 A 
ATOM      5  C   UNL     1      28.059  57.776   6.587  1.00  0.00     0.093 A 
ATOM      6  C   UNL     1      28.172  57.345   7.912  1.00  0.00     0.123 A 
ATOM      7  C   UNL     1      29.435  57.172   8.480  1.00  0.00     0.093 A 
ATOM      8  C   UNL     1      30.596  57.415   7.736  1.00  0.00     0.133 A 
ATOM      9  C   UNL     1      30.486  57.899   6.406  1.00  0.00     0.102 A 
ATOM     10  C   UNL     1      31.645  58.257   5.551  1.00  0.00     0.174 C 
ATOM     11  O   UNL     1      32.769  58.542   6.042  1.00  0.00    -0.294 OA
ENDROOT
BRANCH   2  12
ATOM     12  C   UNL     1      29.822  59.049   2.298  1.00  0.00    -0.007 A 
ATOM     13  C   UNL     1      28.507  58.823   1.852  1.00  0.00     0.011 A 
ATOM     14  C   UNL     1      30.852  59.188   1.353  1.00  0.00     0.011 A 
ATOM     15  C   UNL     1      28.227  58.763   0.484  1.00  0.00     0.046 A 
ATOM     16  C   UNL     1      30.568  59.127  -0.015  1.00  0.00     0.046 A 
ATOM     17  C   UNL     1      29.257  58.917  -0.453  1.00  0.00     0.115 A 
BRANCH  17  18
ATOM     18  O   UNL     1      28.989  58.859  -1.819  1.00  0.00    -0.508 OA
ATOM     19  H   UNL     1      29.538  59.383  -2.489  1.00  0.00     0.293 HD
ENDBRANCH  17  18
ENDBRANCH   2  12
BRANCH   8  20
ATOM     20  O   UNL     1      31.820  57.129   8.345  1.00  0.00    -0.507 OA
ATOM     21  H   UNL     1      32.714  57.428   7.984  1.00  0.00     0.293 HD
ENDBRANCH   8  20
BRANCH   6  22
ATOM     22  O   UNL     1      27.034  57.078   8.671  1.00  0.00    -0.508 OA
ATOM     23  H   UNL     1      27.028  57.202   9.677  1.00  0.00     0.293 HD
ENDBRANCH   6  22
TORSDOF 4
ENDMDL
MODEL 9
REMARK VINA RESULT:    -5.596     11.716     13.399
REMARK INTER + INTRA:          -6.701
REMARK INTER:                  -6.408
REMARK INTRA:                  -0.293
REMARK UNBOUND:                -0.287
REMARK SMILES O=C1C[C@@H](c2ccc(O)cc2)Oc2cc(O)cc(O)c21
REMARK SMILES IDX 3 1 4 2 12 3 13 4 14 5 15 6 17 7 18 8 20 9 2 10 1 11 5 12
REMARK SMILES IDX 6 13 11 14 7 15 10 16 8 17 9 18 19 20 16 22
REMARK H PARENT 9 19 19 21 16 23
REMARK Flexibility Score: inf
ROOT
ATOM      1  C   UNL     1      33.368  68.202   9.966  1.00  0.00     0.131 C 
ATOM      2  C   UNL     1      33.587  69.547   9.259  1.00  0.00     0.211 C 
ATOM      3  O   UNL     1      33.657  69.364   7.842  1.00  0.00    -0.484 OA
ATOM      4  C   UNL     1      32.832  68.463   7.154  1.00  0.00     0.138 A 
ATOM      5  C   UNL     1      32.759  68.540   5.761  1.00  0.00     0.093 A 
ATOM      6  C   UNL     1      31.935  67.664   5.049  1.00  0.00     0.123 A 
ATOM      7  C   UNL     1      31.203  66.691   5.732  1.00  0.00     0.093 A 
ATOM      8  C   UNL     1      31.292  66.571   7.124  1.00  0.00     0.133 A 
ATOM      9  C   UNL     1      32.090  67.488   7.856  1.00  0.00     0.102 A 
ATOM     10  C   UNL     1      32.203  67.500   9.336  1.00  0.00     0.174 C 
ATOM     11  O   UNL     1      31.320  66.984  10.072  1.00  0.00    -0.294 OA
ENDROOT
BRANCH   2  12
ATOM     12  C   UNL     1      34.847  70.213   9.757  1.00  0.00    -0.007 A 
ATOM     13  C   UNL     1      35.643  69.595  10.738  1.00  0.00     0.011 A 
ATOM     14  C   UNL     1      35.207  71.486   9.284  1.00  0.00     0.011 A 
ATOM     15  C   UNL     1      36.793  70.230  11.217  1.00  0.00     0.046 A 
ATOM     16  C   UNL     1      36.358  72.118   9.766  1.00  0.00     0.046 A 
ATOM     17  C   UNL     1      37.153  71.493  10.730  1.00  0.00     0.115 A 
BRANCH  17  18
ATOM     18  O   UNL     1      38.297  72.135  11.201  1.00  0.00    -0.508 OA
ATOM     19  H   UNL     1      38.770  72.844  10.653  1.00  0.00     0.293 HD
ENDBRANCH  17  18
ENDBRANCH   2  12
BRANCH   8  20
ATOM     20  O   UNL     1      30.602  65.513   7.722  1.00  0.00    -0.507 OA
ATOM     21  H   UNL     1      30.995  64.913   8.433  1.00  0.00     0.293 HD
ENDBRANCH   8  20
BRANCH   6  22
ATOM     22  O   UNL     1      31.840  67.747   3.662  1.00  0.00    -0.508 OA
ATOM     23  H   UNL     1      31.381  67.026   3.118  1.00  0.00     0.293 HD
ENDBRANCH   6  22
TORSDOF 4
ENDMDL
