MODEL 1
REMARK VINA RESULT:    -3.933      0.000      0.000
REMARK INTER + INTRA:          -4.367
REMARK INTER:                  -4.278
REMARK INTRA:                  -0.089
REMARK UNBOUND:                -0.089
REMARK SMILES C=C(C)[C@H]1CC=C(C)[C@H](O)C1
REMARK SMILES IDX 8 1 7 2 6 3 5 4 4 5 11 6 9 7 10 8 2 10 1 11 3 12
REMARK H PARENT 10 9
REMARK Flexibility Score: inf
ROOT
ATOM      1  C   UNL     1     -40.124  26.231   3.212  1.00  0.00     0.042 C 
ATOM      2  C   UNL     1     -39.600  25.371   4.330  1.00  0.00    -0.049 C 
ATOM      3  C   UNL     1     -38.603  24.498   4.068  1.00  0.00    -0.025 C 
ATOM      4  C   UNL     1     -38.052  23.543   5.098  1.00  0.00     0.035 C 
ATOM      5  C   UNL     1     -38.319  24.020   6.535  1.00  0.00     0.021 C 
ATOM      6  C   UNL     1     -39.791  24.432   6.685  1.00  0.00     0.044 C 
ATOM      7  C   UNL     1     -40.123  25.599   5.737  1.00  0.00     0.140 C 
ENDROOT
BRANCH   7   8
ATOM      8  O   UNL     1     -39.572  26.793   6.232  1.00  0.00    -0.389 OA
ATOM      9  H   UNL     1     -38.661  26.575   6.562  1.00  0.00     0.211 HD
ENDBRANCH   7   8
BRANCH   5  10
ATOM     10  C   UNL     1     -37.919  22.968   7.560  1.00  0.00    -0.077 C 
ATOM     11  C   UNL     1     -36.698  22.965   8.123  1.00  0.00     0.008 C 
ATOM     12  C   UNL     1     -38.921  21.905   7.929  1.00  0.00     0.039 C 
ENDBRANCH   5  10
TORSDOF 2
ENDMDL
MODEL 2
REMARK VINA RESULT:    -3.528      1.398      2.266
REMARK INTER + INTRA:          -3.927
REMARK INTER:                  -3.836
REMARK INTRA:                  -0.090
REMARK UNBOUND:                -0.089
REMARK SMILES C=C(C)[C@H]1CC=C(C)[C@H](O)C1
REMARK SMILES IDX 8 1 7 2 6 3 5 4 4 5 11 6 9 7 10 8 2 10 1 11 3 12
REMARK H PARENT 10 9
REMARK Flexibility Score: inf
ROOT
ATOM      1  C   UNL     1     -40.125  26.539   3.215  1.00  0.00     0.042 C 
ATOM      2  C   UNL     1     -39.584  25.635   4.289  1.00  0.00    -0.049 C 
ATOM      3  C   UNL     1     -39.726  26.001   5.582  1.00  0.00    -0.025 C 
ATOM      4  C   UNL     1     -39.163  25.203   6.732  1.00  0.00     0.035 C 
ATOM      5  C   UNL     1     -38.921  23.732   6.356  1.00  0.00     0.021 C 
ATOM      6  C   UNL     1     -38.171  23.650   5.017  1.00  0.00     0.044 C 
ATOM      7  C   UNL     1     -39.007  24.288   3.892  1.00  0.00     0.140 C 
ENDROOT
BRANCH   7   8
ATOM      8  O   UNL     1     -40.065  23.435   3.535  1.00  0.00    -0.389 OA
ATOM      9  H   UNL     1     -40.849  23.705   4.081  1.00  0.00     0.211 HD
ENDBRANCH   7   8
BRANCH   5  10
ATOM     10  C   UNL     1     -38.189  22.982   7.460  1.00  0.00    -0.077 C 
ATOM     11  C   UNL     1     -38.771  21.969   8.125  1.00  0.00     0.008 C 
ATOM     12  C   UNL     1     -36.788  23.408   7.813  1.00  0.00     0.039 C 
ENDBRANCH   5  10
TORSDOF 2
ENDMDL
MODEL 3
REMARK VINA RESULT:    -0.958      1.945      4.565
REMARK INTER + INTRA:          -1.131
REMARK INTER:                  -1.033
REMARK INTRA:                  -0.098
REMARK UNBOUND:                -0.089
REMARK SMILES C=C(C)[C@H]1CC=C(C)[C@H](O)C1
REMARK SMILES IDX 8 1 7 2 6 3 5 4 4 5 11 6 9 7 10 8 2 10 1 11 3 12
REMARK H PARENT 10 9
REMARK Flexibility Score: inf
ROOT
ATOM      1  C   UNL     1     -38.085  21.818   8.111  1.00  0.00     0.042 C 
ATOM      2  C   UNL     1     -38.571  22.894   7.177  1.00  0.00    -0.049 C 
ATOM      3  C   UNL     1     -38.162  24.166   7.381  1.00  0.00    -0.025 C 
ATOM      4  C   UNL     1     -38.641  25.329   6.547  1.00  0.00     0.035 C 
ATOM      5  C   UNL     1     -39.161  24.883   5.170  1.00  0.00     0.021 C 
ATOM      6  C   UNL     1     -40.125  23.698   5.333  1.00  0.00     0.044 C 
ATOM      7  C   UNL     1     -39.401  22.497   5.970  1.00  0.00     0.140 C 
ENDROOT
BRANCH   7   8
ATOM      8  O   UNL     1     -38.557  21.888   5.026  1.00  0.00    -0.389 OA
ATOM      9  H   UNL     1     -37.808  21.477   5.533  1.00  0.00     0.211 HD
ENDBRANCH   7   8
BRANCH   5  10
ATOM     10  C   UNL     1     -39.804  26.035   4.411  1.00  0.00    -0.077 C 
ATOM     11  C   UNL     1     -40.112  25.931   3.107  1.00  0.00     0.008 C 
ATOM     12  C   UNL     1     -40.079  27.319   5.150  1.00  0.00     0.039 C 
ENDBRANCH   5  10
TORSDOF 2
ENDMDL
