MODEL 1
REMARK VINA RESULT:    -5.652      0.000      0.000
REMARK INTER + INTRA:          -7.328
REMARK INTER:                  -6.643
REMARK INTRA:                  -0.685
REMARK UNBOUND:                -0.685
REMARK SMILES C=C(C)[C@@H]1CC[C@@]2(CO)CC[C@]3(C)[C@H](CC[C@H]4[C@]5(C)CC[C@H](O)C(C)(C)[C@@H]5CC[C@]43C)[C@@H]12
REMARK SMILES IDX 4 1 5 2 6 3 7 4 32 5 14 6 15 7 16 8 17 9 18 10 20 11 21 12
REMARK SMILES IDX 22 13 24 14 27 15 28 16 29 17 30 18 12 19 11 20 10 21 13 22
REMARK SMILES IDX 31 23 25 24 26 25 19 26 2 27 3 28 1 29 8 30 9 31 23 33
REMARK H PARENT 9 32 23 34
REMARK Flexibility Score: inf
ROOT
ATOM      1  C   UNL     1     -47.716  27.797   1.256  1.00  0.00     0.018 C 
ATOM      2  C   UNL     1     -47.999  26.387   1.746  1.00  0.00     0.009 C 
ATOM      3  C   UNL     1     -49.142  26.556   2.717  1.00  0.00     0.010 C 
ATOM      4  C   UNL     1     -50.057  27.656   2.112  1.00  0.00    -0.003 C 
ATOM      5  C   UNL     1     -49.081  28.547   1.259  1.00  0.00     0.008 C 
ATOM      6  C   UNL     1     -48.979  30.003   1.830  1.00  0.00    -0.000 C 
ATOM      7  C   UNL     1     -47.939  30.880   1.158  1.00  0.00     0.005 C 
ATOM      8  C   UNL     1     -47.634  32.076   2.065  1.00  0.00     0.005 C 
ATOM      9  C   UNL     1     -48.817  32.615   2.978  1.00  0.00     0.002 C 
ATOM     10  C   UNL     1     -48.485  34.128   3.420  1.00  0.00    -0.026 C 
ATOM     11  C   UNL     1     -49.334  34.601   4.646  1.00  0.00     0.010 C 
ATOM     12  C   UNL     1     -49.133  36.079   5.028  1.00  0.00     0.033 C 
ATOM     13  C   UNL     1     -49.417  37.025   3.849  1.00  0.00     0.120 C 
ATOM     14  C   UNL     1     -48.584  36.676   2.572  1.00  0.00    -0.006 C 
ATOM     15  C   UNL     1     -48.684  35.123   2.199  1.00  0.00     0.003 C 
ATOM     16  C   UNL     1     -49.980  34.802   1.390  1.00  0.00     0.005 C 
ATOM     17  C   UNL     1     -50.228  33.317   1.050  1.00  0.00     0.008 C 
ATOM     18  C   UNL     1     -50.217  32.340   2.279  1.00  0.00    -0.024 C 
ATOM     19  C   UNL     1     -50.368  30.738   1.882  1.00  0.00    -0.024 C 
ATOM     20  C   UNL     1     -51.240  29.881   2.906  1.00  0.00     0.008 C 
ATOM     21  C   UNL     1     -50.748  28.452   3.262  1.00  0.00     0.010 C 
ATOM     22  C   UNL     1     -51.099  30.651   0.502  1.00  0.00     0.012 C 
ATOM     23  C   UNL     1     -51.458  32.727   3.152  1.00  0.00     0.012 C 
ATOM     24  C   UNL     1     -47.101  37.104   2.786  1.00  0.00     0.014 C 
ATOM     25  C   UNL     1     -49.080  37.573   1.399  1.00  0.00     0.014 C 
ATOM     26  C   UNL     1     -46.994  34.125   3.916  1.00  0.00     0.012 C 
ENDROOT
BRANCH   1  27
ATOM     27  C   UNL     1     -47.010  27.783  -0.097  1.00  0.00    -0.077 C 
ATOM     28  C   UNL     1     -45.677  28.464  -0.301  1.00  0.00     0.039 C 
ATOM     29  C   UNL     1     -47.601  27.213  -1.158  1.00  0.00     0.008 C 
ENDBRANCH   1  27
BRANCH   4  30
ATOM     30  C   UNL     1     -51.135  26.968   1.220  1.00  0.00     0.163 C 
BRANCH  30  31
ATOM     31  O   UNL     1     -50.932  27.264  -0.139  1.00  0.00    -0.396 OA
ATOM     32  H   UNL     1     -51.270  28.188  -0.296  1.00  0.00     0.210 HD
ENDBRANCH  30  31
ENDBRANCH   4  30
BRANCH  13  33
ATOM     33  O   UNL     1     -50.795  37.008   3.568  1.00  0.00    -0.393 OA
ATOM     34  H   UNL     1     -51.093  37.953   3.506  1.00  0.00     0.210 HD
ENDBRANCH  13  33
TORSDOF 4
ENDMDL
MODEL 2
REMARK VINA RESULT:    -5.269     13.675     16.727
REMARK INTER + INTRA:          -6.878
REMARK INTER:                  -6.178
REMARK INTRA:                  -0.700
REMARK UNBOUND:                -0.685
REMARK SMILES C=C(C)[C@@H]1CC[C@@]2(CO)CC[C@]3(C)[C@H](CC[C@H]4[C@]5(C)CC[C@H](O)C(C)(C)[C@@H]5CC[C@]43C)[C@@H]12
REMARK SMILES IDX 4 1 5 2 6 3 7 4 32 5 14 6 15 7 16 8 17 9 18 10 20 11 21 12
REMARK SMILES IDX 22 13 24 14 27 15 28 16 29 17 30 18 12 19 11 20 10 21 13 22
REMARK SMILES IDX 31 23 25 24 26 25 19 26 2 27 3 28 1 29 8 30 9 31 23 33
REMARK H PARENT 9 32 23 34
REMARK Flexibility Score: inf
ROOT
ATOM      1  C   UNL     1     -40.784  38.787  12.405  1.00  0.00     0.018 C 
ATOM      2  C   UNL     1     -41.834  39.766  11.909  1.00  0.00     0.009 C 
ATOM      3  C   UNL     1     -43.145  39.065  12.172  1.00  0.00     0.010 C 
ATOM      4  C   UNL     1     -42.967  38.318  13.521  1.00  0.00    -0.003 C 
ATOM      5  C   UNL     1     -41.424  38.021  13.600  1.00  0.00     0.008 C 
ATOM      6  C   UNL     1     -41.129  36.483  13.572  1.00  0.00    -0.000 C 
ATOM      7  C   UNL     1     -39.659  36.116  13.486  1.00  0.00     0.005 C 
ATOM      8  C   UNL     1     -39.533  34.662  13.025  1.00  0.00     0.005 C 
ATOM      9  C   UNL     1     -40.690  33.660  13.456  1.00  0.00     0.002 C 
ATOM     10  C   UNL     1     -40.135  32.151  13.357  1.00  0.00    -0.026 C 
ATOM     11  C   UNL     1     -41.280  31.086  13.329  1.00  0.00     0.010 C 
ATOM     12  C   UNL     1     -40.792  29.626  13.355  1.00  0.00     0.033 C 
ATOM     13  C   UNL     1     -39.892  29.336  14.567  1.00  0.00     0.120 C 
ATOM     14  C   UNL     1     -38.677  30.317  14.671  1.00  0.00    -0.006 C 
ATOM     15  C   UNL     1     -39.131  31.846  14.548  1.00  0.00     0.003 C 
ATOM     16  C   UNL     1     -39.650  32.410  15.908  1.00  0.00     0.005 C 
ATOM     17  C   UNL     1     -40.198  33.853  15.889  1.00  0.00     0.008 C 
ATOM     18  C   UNL     1     -41.329  34.124  14.834  1.00  0.00    -0.024 C 
ATOM     19  C   UNL     1     -41.822  35.705  14.749  1.00  0.00    -0.024 C 
ATOM     20  C   UNL     1     -43.384  35.898  14.496  1.00  0.00     0.008 C 
ATOM     21  C   UNL     1     -43.830  37.018  13.517  1.00  0.00     0.010 C 
ATOM     22  C   UNL     1     -41.512  36.380  16.125  1.00  0.00     0.012 C 
ATOM     23  C   UNL     1     -42.561  33.271  15.290  1.00  0.00     0.012 C 
ATOM     24  C   UNL     1     -37.624  29.957  13.582  1.00  0.00     0.014 C 
ATOM     25  C   UNL     1     -37.945  30.051  16.021  1.00  0.00     0.014 C 
ATOM     26  C   UNL     1     -39.418  32.036  11.963  1.00  0.00     0.012 C 
ENDROOT
BRANCH   1  27
ATOM     27  C   UNL     1     -39.477  39.500  12.744  1.00  0.00    -0.077 C 
ATOM     28  C   UNL     1     -38.388  39.687  11.714  1.00  0.00     0.039 C 
ATOM     29  C   UNL     1     -39.245  39.920  13.996  1.00  0.00     0.008 C 
ENDBRANCH   1  27
BRANCH   4  30
ATOM     30  C   UNL     1     -43.431  39.260  14.674  1.00  0.00     0.163 C 
BRANCH  30  31
ATOM     31  O   UNL     1     -42.335  39.717  15.427  1.00  0.00    -0.396 OA
ATOM     32  H   UNL     1     -42.643  39.820  16.368  1.00  0.00     0.210 HD
ENDBRANCH  30  31
ENDBRANCH   4  30
BRANCH  13  33
ATOM     33  O   UNL     1     -40.670  29.377  15.738  1.00  0.00    -0.393 OA
ATOM     34  H   UNL     1     -41.559  29.739  15.485  1.00  0.00     0.210 HD
ENDBRANCH  13  33
TORSDOF 4
ENDMDL
MODEL 3
REMARK VINA RESULT:    -5.186      2.294      4.783
REMARK INTER + INTRA:          -6.780
REMARK INTER:                  -6.319
REMARK INTRA:                  -0.461
REMARK UNBOUND:                -0.685
REMARK SMILES C=C(C)[C@@H]1CC[C@@]2(CO)CC[C@]3(C)[C@H](CC[C@H]4[C@]5(C)CC[C@H](O)C(C)(C)[C@@H]5CC[C@]43C)[C@@H]12
REMARK SMILES IDX 4 1 5 2 6 3 7 4 32 5 14 6 15 7 16 8 17 9 18 10 20 11 21 12
REMARK SMILES IDX 22 13 24 14 27 15 28 16 29 17 30 18 12 19 11 20 10 21 13 22
REMARK SMILES IDX 31 23 25 24 26 25 19 26 2 27 3 28 1 29 8 30 9 31 23 33
REMARK H PARENT 9 32 23 34
REMARK Flexibility Score: inf
ROOT
ATOM      1  C   UNL     1     -49.514  30.632   1.171  1.00  0.00     0.018 C 
ATOM      2  C   UNL     1     -49.078  29.882  -0.077  1.00  0.00     0.009 C 
ATOM      3  C   UNL     1     -48.135  30.836  -0.770  1.00  0.00     0.010 C 
ATOM      4  C   UNL     1     -47.334  31.539   0.359  1.00  0.00    -0.003 C 
ATOM      5  C   UNL     1     -48.306  31.519   1.596  1.00  0.00     0.008 C 
ATOM      6  C   UNL     1     -48.728  32.965   2.024  1.00  0.00    -0.000 C 
ATOM      7  C   UNL     1     -49.788  33.026   3.109  1.00  0.00     0.005 C 
ATOM      8  C   UNL     1     -50.416  34.423   3.115  1.00  0.00     0.005 C 
ATOM      9  C   UNL     1     -49.486  35.640   2.692  1.00  0.00     0.002 C 
ATOM     10  C   UNL     1     -50.124  37.005   3.261  1.00  0.00    -0.026 C 
ATOM     11  C   UNL     1     -49.555  38.280   2.555  1.00  0.00     0.010 C 
ATOM     12  C   UNL     1     -50.050  39.611   3.149  1.00  0.00     0.033 C 
ATOM     13  C   UNL     1     -49.754  39.720   4.654  1.00  0.00     0.120 C 
ATOM     14  C   UNL     1     -50.321  38.514   5.475  1.00  0.00    -0.006 C 
ATOM     15  C   UNL     1     -49.912  37.108   4.831  1.00  0.00     0.003 C 
ATOM     16  C   UNL     1     -48.477  36.669   5.257  1.00  0.00     0.005 C 
ATOM     17  C   UNL     1     -47.940  35.367   4.625  1.00  0.00     0.008 C 
ATOM     18  C   UNL     1     -47.972  35.323   3.056  1.00  0.00    -0.024 C 
ATOM     19  C   UNL     1     -47.503  33.875   2.400  1.00  0.00    -0.024 C 
ATOM     20  C   UNL     1     -46.663  34.000   1.050  1.00  0.00     0.008 C 
ATOM     21  C   UNL     1     -46.962  32.987  -0.088  1.00  0.00     0.010 C 
ATOM     22  C   UNL     1     -46.571  33.159   3.433  1.00  0.00     0.012 C 
ATOM     23  C   UNL     1     -46.955  36.411   2.571  1.00  0.00     0.012 C 
ATOM     24  C   UNL     1     -51.868  38.647   5.592  1.00  0.00     0.014 C 
ATOM     25  C   UNL     1     -49.810  38.636   6.942  1.00  0.00     0.014 C 
ATOM     26  C   UNL     1     -51.651  36.964   2.893  1.00  0.00     0.012 C 
ENDROOT
BRANCH   1  27
ATOM     27  C   UNL     1     -50.000  29.671   2.253  1.00  0.00    -0.077 C 
ATOM     28  C   UNL     1     -49.040  28.790   3.018  1.00  0.00     0.039 C 
ATOM     29  C   UNL     1     -51.312  29.546   2.501  1.00  0.00     0.008 C 
ENDBRANCH   1  27
BRANCH   4  30
ATOM     30  C   UNL     1     -46.037  30.718   0.633  1.00  0.00     0.163 C 
BRANCH  30  31
ATOM     31  O   UNL     1     -44.895  31.419   0.210  1.00  0.00    -0.396 OA
ATOM     32  H   UNL     1     -45.016  32.371   0.474  1.00  0.00     0.210 HD
ENDBRANCH  30  31
ENDBRANCH   4  30
BRANCH  13  33
ATOM     33  O   UNL     1     -48.366  39.845   4.841  1.00  0.00    -0.393 OA
ATOM     34  H   UNL     1     -48.220  40.082   5.793  1.00  0.00     0.210 HD
ENDBRANCH  13  33
TORSDOF 4
ENDMDL
MODEL 4
REMARK VINA RESULT:    -4.948      1.779      8.145
REMARK INTER + INTRA:          -6.500
REMARK INTER:                  -5.785
REMARK INTRA:                  -0.715
REMARK UNBOUND:                -0.685
REMARK SMILES C=C(C)[C@@H]1CC[C@@]2(CO)CC[C@]3(C)[C@H](CC[C@H]4[C@]5(C)CC[C@H](O)C(C)(C)[C@@H]5CC[C@]43C)[C@@H]12
REMARK SMILES IDX 4 1 5 2 6 3 7 4 32 5 14 6 15 7 16 8 17 9 18 10 20 11 21 12
REMARK SMILES IDX 22 13 24 14 27 15 28 16 29 17 30 18 12 19 11 20 10 21 13 22
REMARK SMILES IDX 31 23 25 24 26 25 19 26 2 27 3 28 1 29 8 30 9 31 23 33
REMARK H PARENT 9 32 23 34
REMARK Flexibility Score: inf
ROOT
ATOM      1  C   UNL     1     -51.101  37.115   3.597  1.00  0.00     0.018 C 
ATOM      2  C   UNL     1     -50.988  38.093   4.754  1.00  0.00     0.009 C 
ATOM      3  C   UNL     1     -49.858  37.545   5.592  1.00  0.00     0.010 C 
ATOM      4  C   UNL     1     -48.813  36.989   4.588  1.00  0.00    -0.003 C 
ATOM      5  C   UNL     1     -49.662  36.584   3.327  1.00  0.00     0.008 C 
ATOM      6  C   UNL     1     -49.616  35.039   3.071  1.00  0.00    -0.000 C 
ATOM      7  C   UNL     1     -50.536  34.547   1.969  1.00  0.00     0.005 C 
ATOM      8  C   UNL     1     -50.730  33.036   2.118  1.00  0.00     0.005 C 
ATOM      9  C   UNL     1     -49.518  32.203   2.722  1.00  0.00     0.002 C 
ATOM     10  C   UNL     1     -49.693  30.656   2.309  1.00  0.00    -0.026 C 
ATOM     11  C   UNL     1     -48.829  29.693   3.189  1.00  0.00     0.010 C 
ATOM     12  C   UNL     1     -48.874  28.218   2.751  1.00  0.00     0.033 C 
ATOM     13  C   UNL     1     -48.457  28.035   1.283  1.00  0.00     0.120 C 
ATOM     14  C   UNL     1     -49.291  28.920   0.298  1.00  0.00    -0.006 C 
ATOM     15  C   UNL     1     -49.353  30.447   0.772  1.00  0.00     0.003 C 
ATOM     16  C   UNL     1     -48.080  31.241   0.342  1.00  0.00     0.005 C 
ATOM     17  C   UNL     1     -47.989  32.705   0.822  1.00  0.00     0.008 C 
ATOM     18  C   UNL     1     -48.140  32.911   2.371  1.00  0.00    -0.024 C 
ATOM     19  C   UNL     1     -48.157  34.497   2.854  1.00  0.00    -0.024 C 
ATOM     20  C   UNL     1     -47.412  34.777   4.235  1.00  0.00     0.008 C 
ATOM     21  C   UNL     1     -48.068  35.776   5.226  1.00  0.00     0.010 C 
ATOM     22  C   UNL     1     -47.404  35.337   1.770  1.00  0.00     0.012 C 
ATOM     23  C   UNL     1     -46.887  32.235   3.022  1.00  0.00     0.012 C 
ATOM     24  C   UNL     1     -50.721  28.323   0.148  1.00  0.00     0.014 C 
ATOM     25  C   UNL     1     -48.668  28.794  -1.125  1.00  0.00     0.014 C 
ATOM     26  C   UNL     1     -51.187  30.283   2.618  1.00  0.00     0.012 C 
ENDROOT
BRANCH   1  27
ATOM     27  C   UNL     1     -51.769  37.762   2.386  1.00  0.00    -0.077 C 
ATOM     28  C   UNL     1     -50.969  38.202   1.183  1.00  0.00     0.039 C 
ATOM     29  C   UNL     1     -53.087  38.012   2.399  1.00  0.00     0.008 C 
ENDBRANCH   1  27
BRANCH   4  30
ATOM     30  C   UNL     1     -47.794  38.122   4.255  1.00  0.00     0.163 C 
BRANCH  30  31
ATOM     31  O   UNL     1     -47.944  38.564   2.929  1.00  0.00    -0.396 OA
ATOM     32  H   UNL     1     -48.916  38.526   2.711  1.00  0.00     0.210 HD
ENDBRANCH  30  31
ENDBRANCH   4  30
BRANCH  13  33
ATOM     33  O   UNL     1     -47.082  28.307   1.158  1.00  0.00    -0.393 OA
ATOM     34  H   UNL     1     -46.635  27.451   0.933  1.00  0.00     0.210 HD
ENDBRANCH  13  33
TORSDOF 4
ENDMDL
MODEL 5
REMARK VINA RESULT:    -4.805      1.901      4.011
REMARK INTER + INTRA:          -6.333
REMARK INTER:                  -5.653
REMARK INTRA:                  -0.680
REMARK UNBOUND:                -0.685
REMARK SMILES C=C(C)[C@@H]1CC[C@@]2(CO)CC[C@]3(C)[C@H](CC[C@H]4[C@]5(C)CC[C@H](O)C(C)(C)[C@@H]5CC[C@]43C)[C@@H]12
REMARK SMILES IDX 4 1 5 2 6 3 7 4 32 5 14 6 15 7 16 8 17 9 18 10 20 11 21 12
REMARK SMILES IDX 22 13 24 14 27 15 28 16 29 17 30 18 12 19 11 20 10 21 13 22
REMARK SMILES IDX 31 23 25 24 26 25 19 26 2 27 3 28 1 29 8 30 9 31 23 33
REMARK H PARENT 9 32 23 34
REMARK Flexibility Score: inf
ROOT
ATOM      1  C   UNL     1     -48.439  25.945   0.355  1.00  0.00     0.018 C 
ATOM      2  C   UNL     1     -48.694  25.009  -0.814  1.00  0.00     0.009 C 
ATOM      3  C   UNL     1     -48.791  25.927  -2.008  1.00  0.00     0.010 C 
ATOM      4  C   UNL     1     -47.738  27.044  -1.774  1.00  0.00    -0.003 C 
ATOM      5  C   UNL     1     -47.614  27.139  -0.208  1.00  0.00     0.008 C 
ATOM      6  C   UNL     1     -48.102  28.528   0.327  1.00  0.00    -0.000 C 
ATOM      7  C   UNL     1     -48.162  28.644   1.839  1.00  0.00     0.005 C 
ATOM      8  C   UNL     1     -49.047  29.836   2.213  1.00  0.00     0.005 C 
ATOM      9  C   UNL     1     -49.066  31.070   1.211  1.00  0.00     0.002 C 
ATOM     10  C   UNL     1     -49.587  32.374   2.001  1.00  0.00    -0.026 C 
ATOM     11  C   UNL     1     -50.057  33.516   1.041  1.00  0.00     0.010 C 
ATOM     12  C   UNL     1     -50.451  34.823   1.752  1.00  0.00     0.033 C 
ATOM     13  C   UNL     1     -49.315  35.370   2.632  1.00  0.00     0.120 C 
ATOM     14  C   UNL     1     -48.792  34.323   3.671  1.00  0.00    -0.006 C 
ATOM     15  C   UNL     1     -48.465  32.914   2.987  1.00  0.00     0.003 C 
ATOM     16  C   UNL     1     -47.052  32.902   2.327  1.00  0.00     0.005 C 
ATOM     17  C   UNL     1     -46.662  31.621   1.559  1.00  0.00     0.008 C 
ATOM     18  C   UNL     1     -47.677  31.174   0.447  1.00  0.00    -0.024 C 
ATOM     19  C   UNL     1     -47.302  29.735  -0.286  1.00  0.00    -0.024 C 
ATOM     20  C   UNL     1     -47.624  29.682  -1.846  1.00  0.00     0.008 C 
ATOM     21  C   UNL     1     -48.234  28.375  -2.419  1.00  0.00     0.010 C 
ATOM     22  C   UNL     1     -45.760  29.513  -0.147  1.00  0.00     0.012 C 
ATOM     23  C   UNL     1     -47.632  32.288  -0.654  1.00  0.00     0.012 C 
ATOM     24  C   UNL     1     -49.836  34.160   4.815  1.00  0.00     0.014 C 
ATOM     25  C   UNL     1     -47.535  34.915   4.376  1.00  0.00     0.014 C 
ATOM     26  C   UNL     1     -50.871  31.928   2.788  1.00  0.00     0.012 C 
ENDROOT
BRANCH   1  27
ATOM     27  C   UNL     1     -47.772  25.212   1.517  1.00  0.00    -0.077 C 
ATOM     28  C   UNL     1     -46.350  24.711   1.424  1.00  0.00     0.039 C 
ATOM     29  C   UNL     1     -48.469  24.941   2.630  1.00  0.00     0.008 C 
ENDBRANCH   1  27
BRANCH   4  30
ATOM     30  C   UNL     1     -46.394  26.603  -2.431  1.00  0.00     0.163 C 
BRANCH  30  31
ATOM     31  O   UNL     1     -45.400  26.394  -1.459  1.00  0.00    -0.396 OA
ATOM     32  H   UNL     1     -44.845  25.624  -1.763  1.00  0.00     0.210 HD
ENDBRANCH  30  31
ENDBRANCH   4  30
BRANCH  13  33
ATOM     33  O   UNL     1     -48.270  35.820   1.806  1.00  0.00    -0.393 OA
ATOM     34  H   UNL     1     -48.359  36.806   1.733  1.00  0.00     0.210 HD
ENDBRANCH  13  33
TORSDOF 4
ENDMDL
MODEL 6
REMARK VINA RESULT:    -4.728      1.772      8.083
REMARK INTER + INTRA:          -6.242
REMARK INTER:                  -5.563
REMARK INTRA:                  -0.680
REMARK UNBOUND:                -0.685
REMARK SMILES C=C(C)[C@@H]1CC[C@@]2(CO)CC[C@]3(C)[C@H](CC[C@H]4[C@]5(C)CC[C@H](O)C(C)(C)[C@@H]5CC[C@]43C)[C@@H]12
REMARK SMILES IDX 4 1 5 2 6 3 7 4 32 5 14 6 15 7 16 8 17 9 18 10 20 11 21 12
REMARK SMILES IDX 22 13 24 14 27 15 28 16 29 17 30 18 12 19 11 20 10 21 13 22
REMARK SMILES IDX 31 23 25 24 26 25 19 26 2 27 3 28 1 29 8 30 9 31 23 33
REMARK H PARENT 9 32 23 34
REMARK Flexibility Score: inf
ROOT
ATOM      1  C   UNL     1     -48.988  33.431   1.899  1.00  0.00     0.018 C 
ATOM      2  C   UNL     1     -49.529  34.673   1.212  1.00  0.00     0.009 C 
ATOM      3  C   UNL     1     -50.506  34.137   0.195  1.00  0.00     0.010 C 
ATOM      4  C   UNL     1     -51.207  32.928   0.872  1.00  0.00    -0.003 C 
ATOM      5  C   UNL     1     -50.144  32.388   1.899  1.00  0.00     0.008 C 
ATOM      6  C   UNL     1     -49.667  30.942   1.530  1.00  0.00    -0.000 C 
ATOM      7  C   UNL     1     -48.527  30.411   2.380  1.00  0.00     0.005 C 
ATOM      8  C   UNL     1     -47.877  29.227   1.658  1.00  0.00     0.005 C 
ATOM      9  C   UNL     1     -48.816  28.329   0.743  1.00  0.00     0.002 C 
ATOM     10  C   UNL     1     -48.113  26.896   0.525  1.00  0.00    -0.026 C 
ATOM     11  C   UNL     1     -48.713  26.106  -0.685  1.00  0.00     0.010 C 
ATOM     12  C   UNL     1     -48.152  24.682  -0.857  1.00  0.00     0.033 C 
ATOM     13  C   UNL     1     -48.331  23.832   0.411  1.00  0.00     0.120 C 
ATOM     14  C   UNL     1     -47.724  24.505   1.687  1.00  0.00    -0.006 C 
ATOM     15  C   UNL     1     -48.204  26.023   1.848  1.00  0.00     0.003 C 
ATOM     16  C   UNL     1     -49.610  26.120   2.517  1.00  0.00     0.005 C 
ATOM     17  C   UNL     1     -50.215  27.534   2.644  1.00  0.00     0.008 C 
ATOM     18  C   UNL     1     -50.303  28.346   1.303  1.00  0.00    -0.024 C 
ATOM     19  C   UNL     1     -50.845  29.903   1.477  1.00  0.00    -0.024 C 
ATOM     20  C   UNL     1     -51.782  30.415   0.294  1.00  0.00     0.008 C 
ATOM     21  C   UNL     1     -51.588  31.870  -0.210  1.00  0.00     0.010 C 
ATOM     22  C   UNL     1     -51.707  29.968   2.781  1.00  0.00     0.012 C 
ATOM     23  C   UNL     1     -51.336  27.587   0.403  1.00  0.00     0.012 C 
ATOM     24  C   UNL     1     -46.170  24.412   1.633  1.00  0.00     0.014 C 
ATOM     25  C   UNL     1     -48.120  23.651   2.929  1.00  0.00     0.014 C 
ATOM     26  C   UNL     1     -46.620  27.191   0.138  1.00  0.00     0.012 C 
ENDROOT
BRANCH   1  27
ATOM     27  C   UNL     1     -48.437  33.758   3.285  1.00  0.00    -0.077 C 
ATOM     28  C   UNL     1     -49.343  34.181   4.417  1.00  0.00     0.039 C 
ATOM     29  C   UNL     1     -47.114  33.737   3.505  1.00  0.00     0.008 C 
ENDBRANCH   1  27
BRANCH   4  30
ATOM     30  C   UNL     1     -52.493  33.440   1.591  1.00  0.00     0.163 C 
BRANCH  30  31
ATOM     31  O   UNL     1     -52.387  33.290   2.985  1.00  0.00    -0.396 OA
ATOM     32  H   UNL     1     -51.421  33.358   3.219  1.00  0.00     0.210 HD
ENDBRANCH  30  31
ENDBRANCH   4  30
BRANCH  13  33
ATOM     33  O   UNL     1     -49.699  23.559   0.592  1.00  0.00    -0.393 OA
ATOM     34  H   UNL     1     -49.815  23.255   1.530  1.00  0.00     0.210 HD
ENDBRANCH  13  33
TORSDOF 4
ENDMDL
MODEL 7
REMARK VINA RESULT:    -4.594     14.538     17.579
REMARK INTER + INTRA:          -6.085
REMARK INTER:                  -5.407
REMARK INTRA:                  -0.678
REMARK UNBOUND:                -0.685
REMARK SMILES C=C(C)[C@@H]1CC[C@@]2(CO)CC[C@]3(C)[C@H](CC[C@H]4[C@]5(C)CC[C@H](O)C(C)(C)[C@@H]5CC[C@]43C)[C@@H]12
REMARK SMILES IDX 4 1 5 2 6 3 7 4 32 5 14 6 15 7 16 8 17 9 18 10 20 11 21 12
REMARK SMILES IDX 22 13 24 14 27 15 28 16 29 17 30 18 12 19 11 20 10 21 13 22
REMARK SMILES IDX 31 23 25 24 26 25 19 26 2 27 3 28 1 29 8 30 9 31 23 33
REMARK H PARENT 9 32 23 34
REMARK Flexibility Score: inf
ROOT
ATOM      1  C   UNL     1     -37.917  38.043  12.088  1.00  0.00     0.018 C 
ATOM      2  C   UNL     1     -38.661  39.265  11.577  1.00  0.00     0.009 C 
ATOM      3  C   UNL     1     -40.102  39.000  11.941  1.00  0.00     0.010 C 
ATOM      4  C   UNL     1     -40.069  38.299  13.327  1.00  0.00    -0.003 C 
ATOM      5  C   UNL     1     -38.680  37.561  13.356  1.00  0.00     0.008 C 
ATOM      6  C   UNL     1     -38.854  36.005  13.413  1.00  0.00    -0.000 C 
ATOM      7  C   UNL     1     -37.565  35.214  13.285  1.00  0.00     0.005 C 
ATOM      8  C   UNL     1     -37.901  33.767  12.913  1.00  0.00     0.005 C 
ATOM      9  C   UNL     1     -39.273  33.177  13.458  1.00  0.00     0.002 C 
ATOM     10  C   UNL     1     -39.195  31.568  13.430  1.00  0.00    -0.026 C 
ATOM     11  C   UNL     1     -40.602  30.892  13.522  1.00  0.00     0.010 C 
ATOM     12  C   UNL     1     -40.565  29.356  13.618  1.00  0.00     0.033 C 
ATOM     13  C   UNL     1     -39.718  28.870  14.806  1.00  0.00     0.120 C 
ATOM     14  C   UNL     1     -38.264  29.449  14.794  1.00  0.00    -0.006 C 
ATOM     15  C   UNL     1     -38.254  31.036  14.593  1.00  0.00     0.003 C 
ATOM     16  C   UNL     1     -38.500  31.793  15.936  1.00  0.00     0.005 C 
ATOM     17  C   UNL     1     -38.599  33.331  15.850  1.00  0.00     0.008 C 
ATOM     18  C   UNL     1     -39.662  33.875  14.830  1.00  0.00    -0.024 C 
ATOM     19  C   UNL     1     -39.672  35.525  14.666  1.00  0.00    -0.024 C 
ATOM     20  C   UNL     1     -41.120  36.162  14.471  1.00  0.00     0.008 C 
ATOM     21  C   UNL     1     -41.275  37.316  13.444  1.00  0.00     0.010 C 
ATOM     22  C   UNL     1     -39.093  36.142  15.982  1.00  0.00     0.012 C 
ATOM     23  C   UNL     1     -41.060  33.450  15.393  1.00  0.00     0.012 C 
ATOM     24  C   UNL     1     -37.432  28.740  13.684  1.00  0.00     0.014 C 
ATOM     25  C   UNL     1     -37.562  29.041  16.124  1.00  0.00     0.014 C 
ATOM     26  C   UNL     1     -38.630  31.178  12.017  1.00  0.00     0.012 C 
ENDROOT
BRANCH   1  27
ATOM     27  C   UNL     1     -36.440  38.350  12.322  1.00  0.00    -0.077 C 
ATOM     28  C   UNL     1     -35.395  38.063  11.269  1.00  0.00     0.039 C 
ATOM     29  C   UNL     1     -36.032  38.827  13.508  1.00  0.00     0.008 C 
ENDBRANCH   1  27
BRANCH   4  30
ATOM     30  C   UNL     1     -40.164  39.391  14.437  1.00  0.00     0.163 C 
BRANCH  30  31
ATOM     31  O   UNL     1     -39.029  39.368  15.266  1.00  0.00    -0.396 OA
ATOM     32  H   UNL     1     -39.025  38.492  15.740  1.00  0.00     0.210 HD
ENDBRANCH  30  31
ENDBRANCH   4  30
BRANCH  13  33
ATOM     33  O   UNL     1     -40.377  29.196  16.005  1.00  0.00    -0.393 OA
ATOM     34  H   UNL     1     -40.607  28.341  16.453  1.00  0.00     0.210 HD
ENDBRANCH  13  33
TORSDOF 4
ENDMDL
MODEL 8
REMARK VINA RESULT:    -4.592     14.416     16.038
REMARK INTER + INTRA:          -6.083
REMARK INTER:                  -5.493
REMARK INTRA:                  -0.590
REMARK UNBOUND:                -0.685
REMARK SMILES C=C(C)[C@@H]1CC[C@@]2(CO)CC[C@]3(C)[C@H](CC[C@H]4[C@]5(C)CC[C@H](O)C(C)(C)[C@@H]5CC[C@]43C)[C@@H]12
REMARK SMILES IDX 4 1 5 2 6 3 7 4 32 5 14 6 15 7 16 8 17 9 18 10 20 11 21 12
REMARK SMILES IDX 22 13 24 14 27 15 28 16 29 17 30 18 12 19 11 20 10 21 13 22
REMARK SMILES IDX 31 23 25 24 26 25 19 26 2 27 3 28 1 29 8 30 9 31 23 33
REMARK H PARENT 9 32 23 34
REMARK Flexibility Score: inf
ROOT
ATOM      1  C   UNL     1     -36.555  30.500  13.390  1.00  0.00     0.018 C 
ATOM      2  C   UNL     1     -36.257  29.217  14.148  1.00  0.00     0.009 C 
ATOM      3  C   UNL     1     -37.125  29.306  15.379  1.00  0.00     0.010 C 
ATOM      4  C   UNL     1     -38.454  29.962  14.918  1.00  0.00    -0.003 C 
ATOM      5  C   UNL     1     -38.041  30.853  13.689  1.00  0.00     0.008 C 
ATOM      6  C   UNL     1     -38.264  32.377  13.977  1.00  0.00    -0.000 C 
ATOM      7  C   UNL     1     -37.744  33.312  12.902  1.00  0.00     0.005 C 
ATOM      8  C   UNL     1     -37.616  34.722  13.486  1.00  0.00     0.005 C 
ATOM      9  C   UNL     1     -38.651  35.135  14.619  1.00  0.00     0.002 C 
ATOM     10  C   UNL     1     -38.710  36.743  14.709  1.00  0.00    -0.026 C 
ATOM     11  C   UNL     1     -39.340  37.251  16.048  1.00  0.00     0.010 C 
ATOM     12  C   UNL     1     -39.524  38.778  16.125  1.00  0.00     0.033 C 
ATOM     13  C   UNL     1     -40.365  39.320  14.958  1.00  0.00     0.120 C 
ATOM     14  C   UNL     1     -39.799  38.911  13.557  1.00  0.00    -0.006 C 
ATOM     15  C   UNL     1     -39.498  37.342  13.469  1.00  0.00     0.003 C 
ATOM     16  C   UNL     1     -40.784  36.522  13.142  1.00  0.00     0.005 C 
ATOM     17  C   UNL     1     -40.632  34.986  13.119  1.00  0.00     0.008 C 
ATOM     18  C   UNL     1     -40.020  34.355  14.420  1.00  0.00    -0.024 C 
ATOM     19  C   UNL     1     -39.756  32.721  14.332  1.00  0.00    -0.024 C 
ATOM     20  C   UNL     1     -40.043  31.930  15.685  1.00  0.00     0.008 C 
ATOM     21  C   UNL     1     -39.059  30.798  16.089  1.00  0.00     0.010 C 
ATOM     22  C   UNL     1     -40.735  32.133  13.263  1.00  0.00     0.012 C 
ATOM     23  C   UNL     1     -41.070  34.601  15.556  1.00  0.00     0.012 C 
ATOM     24  C   UNL     1     -38.519  39.744  13.251  1.00  0.00     0.014 C 
ATOM     25  C   UNL     1     -40.819  39.355  12.466  1.00  0.00     0.014 C 
ATOM     26  C   UNL     1     -37.219  37.238  14.731  1.00  0.00     0.012 C 
ENDROOT
BRANCH   1  27
ATOM     27  C   UNL     1     -36.229  30.355  11.905  1.00  0.00    -0.077 C 
ATOM     28  C   UNL     1     -35.018  31.019  11.293  1.00  0.00     0.039 C 
ATOM     29  C   UNL     1     -37.060  29.681  11.097  1.00  0.00     0.008 C 
ENDBRANCH   1  27
BRANCH   4  30
ATOM     30  C   UNL     1     -39.447  28.834  14.503  1.00  0.00     0.163 C 
BRANCH  30  31
ATOM     31  O   UNL     1     -39.360  27.736  15.377  1.00  0.00    -0.396 OA
ATOM     32  H   UNL     1     -40.269  27.335  15.443  1.00  0.00     0.210 HD
ENDBRANCH  30  31
ENDBRANCH   4  30
BRANCH  13  33
ATOM     33  O   UNL     1     -41.694  38.884  15.107  1.00  0.00    -0.393 OA
ATOM     34  H   UNL     1     -42.137  39.508  15.739  1.00  0.00     0.210 HD
ENDBRANCH  13  33
TORSDOF 4
ENDMDL
MODEL 9
REMARK VINA RESULT:    -4.549      1.949      8.215
REMARK INTER + INTRA:          -6.031
REMARK INTER:                  -5.327
REMARK INTRA:                  -0.705
REMARK UNBOUND:                -0.685
REMARK SMILES C=C(C)[C@@H]1CC[C@@]2(CO)CC[C@]3(C)[C@H](CC[C@H]4[C@]5(C)CC[C@H](O)C(C)(C)[C@@H]5CC[C@]43C)[C@@H]12
REMARK SMILES IDX 4 1 5 2 6 3 7 4 32 5 14 6 15 7 16 8 17 9 18 10 20 11 21 12
REMARK SMILES IDX 22 13 24 14 27 15 28 16 29 17 30 18 12 19 11 20 10 21 13 22
REMARK SMILES IDX 31 23 25 24 26 25 19 26 2 27 3 28 1 29 8 30 9 31 23 33
REMARK H PARENT 9 32 23 34
REMARK Flexibility Score: inf
ROOT
ATOM      1  C   UNL     1     -49.958  33.015   3.348  1.00  0.00     0.018 C 
ATOM      2  C   UNL     1     -49.387  34.218   4.080  1.00  0.00     0.009 C 
ATOM      3  C   UNL     1     -47.935  34.244   3.669  1.00  0.00     0.010 C 
ATOM      4  C   UNL     1     -47.905  33.818   2.177  1.00  0.00    -0.003 C 
ATOM      5  C   UNL     1     -49.170  32.898   2.010  1.00  0.00     0.008 C 
ATOM      6  C   UNL     1     -48.771  31.424   1.660  1.00  0.00    -0.000 C 
ATOM      7  C   UNL     1     -49.926  30.439   1.638  1.00  0.00     0.005 C 
ATOM      8  C   UNL     1     -49.369  29.015   1.729  1.00  0.00     0.005 C 
ATOM      9  C   UNL     1     -47.942  28.751   1.080  1.00  0.00     0.002 C 
ATOM     10  C   UNL     1     -47.782  27.172   0.802  1.00  0.00    -0.026 C 
ATOM     11  C   UNL     1     -46.293  26.744   0.582  1.00  0.00     0.010 C 
ATOM     12  C   UNL     1     -46.107  25.265   0.197  1.00  0.00     0.033 C 
ATOM     13  C   UNL     1     -46.909  24.888  -1.059  1.00  0.00     0.120 C 
ATOM     14  C   UNL     1     -48.430  25.229  -0.936  1.00  0.00    -0.006 C 
ATOM     15  C   UNL     1     -48.668  26.731  -0.439  1.00  0.00     0.003 C 
ATOM     16  C   UNL     1     -48.577  27.753  -1.614  1.00  0.00     0.005 C 
ATOM     17  C   UNL     1     -48.703  29.245  -1.239  1.00  0.00     0.008 C 
ATOM     18  C   UNL     1     -47.702  29.744  -0.137  1.00  0.00    -0.024 C 
ATOM     19  C   UNL     1     -47.930  31.316   0.337  1.00  0.00    -0.024 C 
ATOM     20  C   UNL     1     -46.586  32.115   0.647  1.00  0.00     0.008 C 
ATOM     21  C   UNL     1     -46.572  33.067   1.874  1.00  0.00     0.010 C 
ATOM     22  C   UNL     1     -48.632  32.074  -0.837  1.00  0.00     0.012 C 
ATOM     23  C   UNL     1     -46.274  29.646  -0.772  1.00  0.00     0.012 C 
ATOM     24  C   UNL     1     -49.115  24.208   0.021  1.00  0.00     0.014 C 
ATOM     25  C   UNL     1     -49.105  24.976  -2.318  1.00  0.00     0.014 C 
ATOM     26  C   UNL     1     -48.240  26.444   2.117  1.00  0.00     0.012 C 
ENDROOT
BRANCH   1  27
ATOM     27  C   UNL     1     -51.471  33.135   3.179  1.00  0.00    -0.077 C 
ATOM     28  C   UNL     1     -52.420  32.162   3.837  1.00  0.00     0.039 C 
ATOM     29  C   UNL     1     -51.985  34.081   2.379  1.00  0.00     0.008 C 
ENDBRANCH   1  27
BRANCH   4  30
ATOM     30  C   UNL     1     -48.006  35.100   1.293  1.00  0.00     0.163 C 
BRANCH  30  31
ATOM     31  O   UNL     1     -49.227  35.141   0.599  1.00  0.00    -0.396 OA
ATOM     32  H   UNL     1     -49.213  34.404  -0.071  1.00  0.00     0.210 HD
ENDBRANCH  30  31
ENDBRANCH   4  30
BRANCH  13  33
ATOM     33  O   UNL     1     -46.341  25.527  -2.176  1.00  0.00    -0.393 OA
ATOM     34  H   UNL     1     -47.070  26.027  -2.628  1.00  0.00     0.210 HD
ENDBRANCH  13  33
TORSDOF 4
ENDMDL
