MODEL 1
REMARK VINA RESULT:    -5.588      0.000      0.000
REMARK INTER + INTRA:         -11.093
REMARK INTER:                  -8.855
REMARK INTRA:                  -2.238
REMARK UNBOUND:                -2.238
REMARK SMILES C[C@H]1O[C@@H](O[C@@H]2[C@@H](Oc3cc(O)c4c(c3)O[C@H](c3ccc(O)cc3)CC4=O)O[C@@H](CO)[C@@H](O)[C@H]2O)[C@@H](O)[C@@H](O)[C@@H]1O
REMARK SMILES IDX 6 1 34 2 32 3 29 4 28 5 7 6 5 7 4 8 1 9 2 10 40 11 3 12
REMARK SMILES IDX 38 13 36 14 41 15 39 17 37 19 35 21 8 23 9 24 10 25 15 26
REMARK SMILES IDX 11 27 14 28 13 29 16 30 26 31 17 32 27 33 25 34 12 35 18 37
REMARK SMILES IDX 19 38 24 39 20 40 23 41 21 42 22 43 33 45 30 47 31 48
REMARK H PARENT 41 16 39 18 37 20 35 22 12 36 22 44 33 46 31 49
REMARK Flexibility Score: inf
ROOT
ATOM      1  C   UNL     1      47.198  14.969  84.957  1.00  0.00     0.221 C 
ATOM      2  C   UNL     1      48.603  14.772  84.343  1.00  0.00     0.181 C 
ATOM      3  C   UNL     1      49.752  14.862  85.391  1.00  0.00     0.177 C 
ATOM      4  C   UNL     1      49.195  15.179  86.796  1.00  0.00     0.179 C 
ATOM      5  O   UNL     1      48.238  14.207  87.149  1.00  0.00    -0.332 OA
ATOM      6  C   UNL     1      47.056  14.289  86.356  1.00  0.00     0.339 C 
ENDROOT
BRANCH   1   7
ATOM      7  O   UNL     1      46.918  16.356  85.102  1.00  0.00    -0.337 OA
BRANCH   7   8
ATOM      8  C   UNL     1      45.587  16.700  84.734  1.00  0.00     0.282 C 
ATOM      9  C   UNL     1      47.698  17.988  82.828  1.00  0.00     0.041 C 
ATOM     10  C   UNL     1      46.180  18.191  82.957  1.00  0.00     0.150 C 
ATOM     11  C   UNL     1      45.792  19.440  83.799  1.00  0.00     0.174 C 
ATOM     12  O   UNL     1      45.505  16.999  83.347  1.00  0.00    -0.344 OA
ATOM     13  C   UNL     1      45.826  19.161  85.309  1.00  0.00     0.179 C 
ATOM     14  C   UNL     1      45.076  17.854  85.614  1.00  0.00     0.202 C 
BRANCH  11  15
ATOM     15  O   UNL     1      44.494  19.857  83.446  1.00  0.00    -0.388 OA
ATOM     16  H   UNL     1      44.568  20.315  82.569  1.00  0.00     0.211 HD
ENDBRANCH  11  15
BRANCH  13  17
ATOM     17  O   UNL     1      47.154  19.093  85.753  1.00  0.00    -0.387 OA
ATOM     18  H   UNL     1      47.553  19.995  85.633  1.00  0.00     0.211 HD
ENDBRANCH  13  17
BRANCH  14  19
ATOM     19  O   UNL     1      45.209  17.517  86.969  1.00  0.00    -0.385 OA
ATOM     20  H   UNL     1      44.294  17.272  87.293  1.00  0.00     0.211 HD
ENDBRANCH  14  19
ENDBRANCH   7   8
ENDBRANCH   1   7
BRANCH   2  21
ATOM     21  O   UNL     1      48.631  13.549  83.651  1.00  0.00    -0.387 OA
ATOM     22  H   UNL     1      48.661  13.767  82.687  1.00  0.00     0.211 HD
ENDBRANCH   2  21
BRANCH   6  23
ATOM     23  O   UNL     1      46.551  12.967  86.163  1.00  0.00    -0.462 OA
BRANCH  23  24
ATOM     24  C   UNL     1      45.222  12.655  85.843  1.00  0.00     0.130 A 
ATOM     25  C   UNL     1      44.305  12.186  86.802  1.00  0.00     0.093 A 
ATOM     26  C   UNL     1      44.798  12.846  84.524  1.00  0.00     0.094 A 
ATOM     27  C   UNL     1      42.966  11.976  86.464  1.00  0.00     0.133 A 
ATOM     28  C   UNL     1      43.447  12.709  84.191  1.00  0.00     0.138 A 
ATOM     29  C   UNL     1      42.515  12.297  85.162  1.00  0.00     0.102 A 
ATOM     30  O   UNL     1      43.025  13.028  82.889  1.00  0.00    -0.484 OA
ATOM     31  C   UNL     1      41.089  12.323  84.782  1.00  0.00     0.174 C 
ATOM     32  C   UNL     1      41.656  13.294  82.559  1.00  0.00     0.211 C 
ATOM     33  O   UNL     1      40.188  12.454  85.648  1.00  0.00    -0.294 OA
ATOM     34  C   UNL     1      40.735  12.321  83.327  1.00  0.00     0.131 C 
BRANCH  27  35
ATOM     35  O   UNL     1      42.126  11.437  87.442  1.00  0.00    -0.507 OA
ATOM     36  H   UNL     1      41.333  10.849  87.224  1.00  0.00     0.293 HD
ENDBRANCH  27  35
BRANCH  32  37
ATOM     37  C   UNL     1      41.298  14.752  82.820  1.00  0.00    -0.007 A 
ATOM     38  C   UNL     1      42.283  15.735  83.059  1.00  0.00     0.011 A 
ATOM     39  C   UNL     1      39.949  15.147  82.795  1.00  0.00     0.011 A 
ATOM     40  C   UNL     1      41.914  17.066  83.293  1.00  0.00     0.046 A 
ATOM     41  C   UNL     1      39.586  16.476  83.044  1.00  0.00     0.046 A 
ATOM     42  C   UNL     1      40.569  17.437  83.299  1.00  0.00     0.115 A 
BRANCH  42  43
ATOM     43  O   UNL     1      40.221  18.763  83.554  1.00  0.00    -0.508 OA
ATOM     44  H   UNL     1      39.736  19.322  82.861  1.00  0.00     0.293 HD
ENDBRANCH  42  43
ENDBRANCH  32  37
ENDBRANCH  23  24
ENDBRANCH   6  23
BRANCH   3  45
ATOM     45  O   UNL     1      50.467  13.652  85.428  1.00  0.00    -0.387 OA
ATOM     46  H   UNL     1      49.845  12.939  85.119  1.00  0.00     0.211 HD
ENDBRANCH   3  45
BRANCH   4  47
ATOM     47  C   UNL     1      50.299  15.240  87.868  1.00  0.00     0.191 C 
BRANCH  47  48
ATOM     48  O   UNL     1      50.723  16.558  88.104  1.00  0.00    -0.394 OA
ATOM     49  H   UNL     1      50.156  16.915  88.839  1.00  0.00     0.210 HD
ENDBRANCH  47  48
ENDBRANCH   4  47
TORSDOF 14
ENDMDL
MODEL 2
REMARK VINA RESULT:    -5.192      0.890      1.287
REMARK INTER + INTRA:         -10.465
REMARK INTER:                  -8.210
REMARK INTRA:                  -2.255
REMARK UNBOUND:                -2.238
REMARK SMILES C[C@H]1O[C@@H](O[C@@H]2[C@@H](Oc3cc(O)c4c(c3)O[C@H](c3ccc(O)cc3)CC4=O)O[C@@H](CO)[C@@H](O)[C@H]2O)[C@@H](O)[C@@H](O)[C@@H]1O
REMARK SMILES IDX 6 1 34 2 32 3 29 4 28 5 7 6 5 7 4 8 1 9 2 10 40 11 3 12
REMARK SMILES IDX 38 13 36 14 41 15 39 17 37 19 35 21 8 23 9 24 10 25 15 26
REMARK SMILES IDX 11 27 14 28 13 29 16 30 26 31 17 32 27 33 25 34 12 35 18 37
REMARK SMILES IDX 19 38 24 39 20 40 23 41 21 42 22 43 33 45 30 47 31 48
REMARK H PARENT 41 16 39 18 37 20 35 22 12 36 22 44 33 46 31 49
REMARK Flexibility Score: inf
ROOT
ATOM      1  C   UNL     1      47.218  14.867  84.843  1.00  0.00     0.221 C 
ATOM      2  C   UNL     1      48.630  14.703  84.237  1.00  0.00     0.181 C 
ATOM      3  C   UNL     1      49.770  14.822  85.291  1.00  0.00     0.177 C 
ATOM      4  C   UNL     1      49.199  15.126  86.692  1.00  0.00     0.179 C 
ATOM      5  O   UNL     1      48.263  14.132  87.042  1.00  0.00    -0.332 OA
ATOM      6  C   UNL     1      47.084  14.185  86.242  1.00  0.00     0.339 C 
ENDROOT
BRANCH   1   7
ATOM      7  O   UNL     1      46.904  16.248  84.985  1.00  0.00    -0.337 OA
BRANCH   7   8
ATOM      8  C   UNL     1      46.044  16.734  83.961  1.00  0.00     0.282 C 
ATOM      9  C   UNL     1      47.784  19.007  85.205  1.00  0.00     0.041 C 
ATOM     10  C   UNL     1      46.607  19.046  84.218  1.00  0.00     0.150 C 
ATOM     11  C   UNL     1      45.242  19.363  84.894  1.00  0.00     0.174 C 
ATOM     12  O   UNL     1      46.578  17.908  83.364  1.00  0.00    -0.344 OA
ATOM     13  C   UNL     1      44.599  18.119  85.524  1.00  0.00     0.179 C 
ATOM     14  C   UNL     1      44.627  16.954  84.521  1.00  0.00     0.202 C 
BRANCH  11  15
ATOM     15  O   UNL     1      44.357  19.892  83.935  1.00  0.00    -0.388 OA
ATOM     16  H   UNL     1      44.665  20.815  83.737  1.00  0.00     0.211 HD
ENDBRANCH  11  15
BRANCH  13  17
ATOM     17  O   UNL     1      45.272  17.779  86.706  1.00  0.00    -0.387 OA
ATOM     18  H   UNL     1      45.351  18.607  87.250  1.00  0.00     0.211 HD
ENDBRANCH  13  17
BRANCH  14  19
ATOM     19  O   UNL     1      44.164  15.775  85.124  1.00  0.00    -0.385 OA
ATOM     20  H   UNL     1      44.946  15.376  85.606  1.00  0.00     0.211 HD
ENDBRANCH  14  19
ENDBRANCH   7   8
ENDBRANCH   1   7
BRANCH   2  21
ATOM     21  O   UNL     1      48.691  13.480  83.547  1.00  0.00    -0.387 OA
ATOM     22  H   UNL     1      48.097  12.852  84.028  1.00  0.00     0.211 HD
ENDBRANCH   2  21
BRANCH   6  23
ATOM     23  O   UNL     1      46.611  12.852  86.048  1.00  0.00    -0.462 OA
BRANCH  23  24
ATOM     24  C   UNL     1      45.285  12.505  85.756  1.00  0.00     0.130 A 
ATOM     25  C   UNL     1      44.355  12.167  86.757  1.00  0.00     0.093 A 
ATOM     26  C   UNL     1      44.876  12.526  84.418  1.00  0.00     0.094 A 
ATOM     27  C   UNL     1      43.019  11.920  86.433  1.00  0.00     0.133 A 
ATOM     28  C   UNL     1      43.528  12.351  84.090  1.00  0.00     0.138 A 
ATOM     29  C   UNL     1      42.584  12.072  85.095  1.00  0.00     0.102 A 
ATOM     30  O   UNL     1      43.122  12.500  82.752  1.00  0.00    -0.484 OA
ATOM     31  C   UNL     1      41.162  12.053  84.698  1.00  0.00     0.174 C 
ATOM     32  C   UNL     1      41.758  12.726  82.375  1.00  0.00     0.211 C 
ATOM     33  O   UNL     1      40.252  12.298  85.530  1.00  0.00    -0.294 OA
ATOM     34  C   UNL     1      40.824  11.864  83.252  1.00  0.00     0.131 C 
BRANCH  27  35
ATOM     35  O   UNL     1      42.166  11.515  87.462  1.00  0.00    -0.507 OA
ATOM     36  H   UNL     1      41.167  11.413  87.343  1.00  0.00     0.293 HD
ENDBRANCH  27  35
BRANCH  32  37
ATOM     37  C   UNL     1      41.404  14.207  82.441  1.00  0.00    -0.007 A 
ATOM     38  C   UNL     1      40.139  14.657  82.878  1.00  0.00     0.011 A 
ATOM     39  C   UNL     1      42.372  15.164  82.090  1.00  0.00     0.011 A 
ATOM     40  C   UNL     1      39.852  16.027  82.926  1.00  0.00     0.046 A 
ATOM     41  C   UNL     1      42.074  16.532  82.127  1.00  0.00     0.046 A 
ATOM     42  C   UNL     1      40.811  16.965  82.541  1.00  0.00     0.115 A 
BRANCH  42  43
ATOM     43  O   UNL     1      40.500  18.324  82.579  1.00  0.00    -0.508 OA
ATOM     44  H   UNL     1      41.207  19.020  82.787  1.00  0.00     0.293 HD
ENDBRANCH  42  43
ENDBRANCH  32  37
ENDBRANCH  23  24
ENDBRANCH   6  23
BRANCH   3  45
ATOM     45  O   UNL     1      50.514  13.629  85.333  1.00  0.00    -0.387 OA
ATOM     46  H   UNL     1      49.939  12.944  85.772  1.00  0.00     0.211 HD
ENDBRANCH   3  45
BRANCH   4  47
ATOM     47  C   UNL     1      50.295  15.214  87.771  1.00  0.00     0.191 C 
BRANCH  47  48
ATOM     48  O   UNL     1      50.778  13.944  88.125  1.00  0.00    -0.394 OA
ATOM     49  H   UNL     1      51.293  13.604  87.344  1.00  0.00     0.210 HD
ENDBRANCH  47  48
ENDBRANCH   4  47
TORSDOF 14
ENDMDL
MODEL 3
REMARK VINA RESULT:    -4.972      2.130      3.519
REMARK INTER + INTRA:         -10.117
REMARK INTER:                  -8.327
REMARK INTRA:                  -1.790
REMARK UNBOUND:                -2.238
REMARK SMILES C[C@H]1O[C@@H](O[C@@H]2[C@@H](Oc3cc(O)c4c(c3)O[C@H](c3ccc(O)cc3)CC4=O)O[C@@H](CO)[C@@H](O)[C@H]2O)[C@@H](O)[C@@H](O)[C@@H]1O
REMARK SMILES IDX 6 1 34 2 32 3 29 4 28 5 7 6 5 7 4 8 1 9 2 10 40 11 3 12
REMARK SMILES IDX 38 13 36 14 41 15 39 17 37 19 35 21 8 23 9 24 10 25 15 26
REMARK SMILES IDX 11 27 14 28 13 29 16 30 26 31 17 32 27 33 25 34 12 35 18 37
REMARK SMILES IDX 19 38 24 39 20 40 23 41 21 42 22 43 33 45 30 47 31 48
REMARK H PARENT 41 16 39 18 37 20 35 22 12 36 22 44 33 46 31 49
REMARK Flexibility Score: inf
ROOT
ATOM      1  C   UNL     1      46.065  14.305  84.794  1.00  0.00     0.221 C 
ATOM      2  C   UNL     1      47.410  13.933  84.130  1.00  0.00     0.181 C 
ATOM      3  C   UNL     1      48.600  13.886  85.133  1.00  0.00     0.177 C 
ATOM      4  C   UNL     1      48.141  14.277  86.555  1.00  0.00     0.179 C 
ATOM      5  O   UNL     1      47.085  13.432  86.953  1.00  0.00    -0.332 OA
ATOM      6  C   UNL     1      45.893  13.655  86.203  1.00  0.00     0.339 C 
ENDROOT
BRANCH   1   7
ATOM      7  O   UNL     1      45.963  15.716  84.935  1.00  0.00    -0.337 OA
BRANCH   7   8
ATOM      8  C   UNL     1      45.366  16.350  83.809  1.00  0.00     0.282 C 
ATOM      9  C   UNL     1      47.969  17.808  84.728  1.00  0.00     0.041 C 
ATOM     10  C   UNL     1      46.892  18.191  83.700  1.00  0.00     0.150 C 
ATOM     11  C   UNL     1      45.829  19.180  84.256  1.00  0.00     0.174 C 
ATOM     12  O   UNL     1      46.338  17.053  83.047  1.00  0.00    -0.344 OA
ATOM     13  C   UNL     1      44.730  18.467  85.057  1.00  0.00     0.179 C 
ATOM     14  C   UNL     1      44.210  17.257  84.265  1.00  0.00     0.202 C 
BRANCH  11  15
ATOM     15  O   UNL     1      45.231  19.873  83.187  1.00  0.00    -0.388 OA
ATOM     16  H   UNL     1      45.024  19.200  82.487  1.00  0.00     0.211 HD
ENDBRANCH  11  15
BRANCH  13  17
ATOM     17  O   UNL     1      45.228  18.072  86.307  1.00  0.00    -0.387 OA
ATOM     18  H   UNL     1      46.051  18.602  86.479  1.00  0.00     0.211 HD
ENDBRANCH  13  17
BRANCH  14  19
ATOM     19  O   UNL     1      43.299  16.519  85.036  1.00  0.00    -0.385 OA
ATOM     20  H   UNL     1      43.845  15.921  85.625  1.00  0.00     0.211 HD
ENDBRANCH  14  19
ENDBRANCH   7   8
ENDBRANCH   1   7
BRANCH   2  21
ATOM     21  O   UNL     1      47.261  12.711  83.450  1.00  0.00    -0.387 OA
ATOM     22  H   UNL     1      46.345  12.704  83.075  1.00  0.00     0.211 HD
ENDBRANCH   2  21
BRANCH   6  23
ATOM     23  O   UNL     1      45.222  12.404  86.043  1.00  0.00    -0.462 OA
BRANCH  23  24
ATOM     24  C   UNL     1      44.252  12.133  85.069  1.00  0.00     0.130 A 
ATOM     25  C   UNL     1      44.366  11.057  84.169  1.00  0.00     0.093 A 
ATOM     26  C   UNL     1      43.119  12.953  85.018  1.00  0.00     0.094 A 
ATOM     27  C   UNL     1      43.333  10.763  83.276  1.00  0.00     0.133 A 
ATOM     28  C   UNL     1      42.050  12.626  84.179  1.00  0.00     0.138 A 
ATOM     29  C   UNL     1      42.136  11.515  83.319  1.00  0.00     0.102 A 
ATOM     30  O   UNL     1      40.873  13.393  84.236  1.00  0.00    -0.484 OA
ATOM     31  C   UNL     1      40.915  11.140  82.579  1.00  0.00     0.174 C 
ATOM     32  C   UNL     1      39.616  12.928  83.728  1.00  0.00     0.211 C 
ATOM     33  O   UNL     1      40.727   9.959  82.194  1.00  0.00    -0.294 OA
ATOM     34  C   UNL     1      39.839  12.166  82.403  1.00  0.00     0.131 C 
BRANCH  27  35
ATOM     35  O   UNL     1      43.543   9.731  82.358  1.00  0.00    -0.507 OA
ATOM     36  H   UNL     1      43.963   8.846  82.609  1.00  0.00     0.293 HD
ENDBRANCH  27  35
BRANCH  32  37
ATOM     37  C   UNL     1      38.881  12.083  84.761  1.00  0.00    -0.007 A 
ATOM     38  C   UNL     1      39.087  12.247  86.148  1.00  0.00     0.011 A 
ATOM     39  C   UNL     1      37.944  11.128  84.331  1.00  0.00     0.011 A 
ATOM     40  C   UNL     1      38.391  11.452  87.067  1.00  0.00     0.046 A 
ATOM     41  C   UNL     1      37.261  10.327  85.254  1.00  0.00     0.046 A 
ATOM     42  C   UNL     1      37.488  10.484  86.624  1.00  0.00     0.115 A 
BRANCH  42  43
ATOM     43  O   UNL     1      36.819   9.689  87.555  1.00  0.00    -0.508 OA
ATOM     44  H   UNL     1      35.828   9.810  87.733  1.00  0.00     0.293 HD
ENDBRANCH  42  43
ENDBRANCH  32  37
ENDBRANCH  23  24
ENDBRANCH   6  23
BRANCH   3  45
ATOM     45  O   UNL     1      49.162  12.597  85.156  1.00  0.00    -0.387 OA
ATOM     46  H   UNL     1      49.133  12.252  84.222  1.00  0.00     0.211 HD
ENDBRANCH   3  45
BRANCH   4  47
ATOM     47  C   UNL     1      49.284  14.206  87.585  1.00  0.00     0.191 C 
BRANCH  47  48
ATOM     48  O   UNL     1      49.684  15.486  88.005  1.00  0.00    -0.394 OA
ATOM     49  H   UNL     1      49.059  15.759  88.729  1.00  0.00     0.210 HD
ENDBRANCH  47  48
ENDBRANCH   4  47
TORSDOF 14
ENDMDL
MODEL 4
REMARK VINA RESULT:    -4.960      3.708      6.758
REMARK INTER + INTRA:         -10.097
REMARK INTER:                  -8.284
REMARK INTRA:                  -1.813
REMARK UNBOUND:                -2.238
REMARK SMILES C[C@H]1O[C@@H](O[C@@H]2[C@@H](Oc3cc(O)c4c(c3)O[C@H](c3ccc(O)cc3)CC4=O)O[C@@H](CO)[C@@H](O)[C@H]2O)[C@@H](O)[C@@H](O)[C@@H]1O
REMARK SMILES IDX 6 1 34 2 32 3 29 4 28 5 7 6 5 7 4 8 1 9 2 10 40 11 3 12
REMARK SMILES IDX 38 13 36 14 41 15 39 17 37 19 35 21 8 23 9 24 10 25 15 26
REMARK SMILES IDX 11 27 14 28 13 29 16 30 26 31 17 32 27 33 25 34 12 35 18 37
REMARK SMILES IDX 19 38 24 39 20 40 23 41 21 42 22 43 33 45 30 47 31 48
REMARK H PARENT 41 16 39 18 37 20 35 22 12 36 22 44 33 46 31 49
REMARK Flexibility Score: inf
ROOT
ATOM      1  C   UNL     1      44.150  12.047  83.060  1.00  0.00     0.221 C 
ATOM      2  C   UNL     1      44.866  11.191  81.991  1.00  0.00     0.181 C 
ATOM      3  C   UNL     1      45.107   9.719  82.440  1.00  0.00     0.177 C 
ATOM      4  C   UNL     1      44.606   9.492  83.883  1.00  0.00     0.179 C 
ATOM      5  O   UNL     1      43.245   9.849  83.966  1.00  0.00    -0.332 OA
ATOM      6  C   UNL     1      43.038  11.252  83.816  1.00  0.00     0.339 C 
ENDROOT
BRANCH   1   7
ATOM      7  O   UNL     1      45.089  12.522  84.016  1.00  0.00    -0.337 OA
BRANCH   7   8
ATOM      8  C   UNL     1      44.501  13.348  85.015  1.00  0.00     0.282 C 
ATOM      9  C   UNL     1      46.940  14.730  83.642  1.00  0.00     0.041 C 
ATOM     10  C   UNL     1      46.101  15.123  84.868  1.00  0.00     0.150 C 
ATOM     11  C   UNL     1      46.756  14.722  86.221  1.00  0.00     0.174 C 
ATOM     12  O   UNL     1      44.740  14.723  84.744  1.00  0.00    -0.344 OA
ATOM     13  C   UNL     1      46.495  13.253  86.584  1.00  0.00     0.179 C 
ATOM     14  C   UNL     1      45.002  12.930  86.409  1.00  0.00     0.202 C 
BRANCH  11  15
ATOM     15  O   UNL     1      46.244  15.538  87.248  1.00  0.00    -0.388 OA
ATOM     16  H   UNL     1      45.622  14.976  87.779  1.00  0.00     0.211 HD
ENDBRANCH  11  15
BRANCH  13  17
ATOM     17  O   UNL     1      47.287  12.415  85.785  1.00  0.00    -0.387 OA
ATOM     18  H   UNL     1      46.678  11.762  85.348  1.00  0.00     0.211 HD
ENDBRANCH  13  17
BRANCH  14  19
ATOM     19  O   UNL     1      44.769  11.561  86.609  1.00  0.00    -0.385 OA
ATOM     20  H   UNL     1      45.637  11.167  86.915  1.00  0.00     0.211 HD
ENDBRANCH  14  19
ENDBRANCH   7   8
ENDBRANCH   1   7
BRANCH   2  21
ATOM     21  O   UNL     1      44.134  11.251  80.792  1.00  0.00    -0.387 OA
ATOM     22  H   UNL     1      43.350  11.829  80.966  1.00  0.00     0.211 HD
ENDBRANCH   2  21
BRANCH   6  23
ATOM     23  O   UNL     1      41.799  11.453  83.134  1.00  0.00    -0.462 OA
BRANCH  23  24
ATOM     24  C   UNL     1      40.710  12.174  83.644  1.00  0.00     0.130 A 
ATOM     25  C   UNL     1      39.895  12.984  82.832  1.00  0.00     0.093 A 
ATOM     26  C   UNL     1      40.418  12.054  85.007  1.00  0.00     0.094 A 
ATOM     27  C   UNL     1      38.763  13.610  83.360  1.00  0.00     0.133 A 
ATOM     28  C   UNL     1      39.250  12.617  85.530  1.00  0.00     0.138 A 
ATOM     29  C   UNL     1      38.400  13.378  84.707  1.00  0.00     0.102 A 
ATOM     30  O   UNL     1      38.914  12.377  86.874  1.00  0.00    -0.484 OA
ATOM     31  C   UNL     1      37.112  13.810  85.285  1.00  0.00     0.174 C 
ATOM     32  C   UNL     1      37.591  12.567  87.390  1.00  0.00     0.211 C 
ATOM     33  O   UNL     1      36.118  14.045  84.553  1.00  0.00    -0.294 OA
ATOM     34  C   UNL     1      36.968  13.839  86.775  1.00  0.00     0.131 C 
BRANCH  27  35
ATOM     35  O   UNL     1      38.041  14.462  82.520  1.00  0.00    -0.507 OA
ATOM     36  H   UNL     1      38.015  15.465  82.642  1.00  0.00     0.293 HD
ENDBRANCH  27  35
BRANCH  32  37
ATOM     37  C   UNL     1      36.725  11.334  87.159  1.00  0.00    -0.007 A 
ATOM     38  C   UNL     1      37.280  10.042  87.024  1.00  0.00     0.011 A 
ATOM     39  C   UNL     1      35.327  11.472  87.107  1.00  0.00     0.011 A 
ATOM     40  C   UNL     1      36.451   8.933  86.814  1.00  0.00     0.046 A 
ATOM     41  C   UNL     1      34.505  10.361  86.883  1.00  0.00     0.046 A 
ATOM     42  C   UNL     1      35.066   9.090  86.731  1.00  0.00     0.115 A 
BRANCH  42  43
ATOM     43  O   UNL     1      34.259   7.976  86.502  1.00  0.00    -0.508 OA
ATOM     44  H   UNL     1      33.314   8.075  86.151  1.00  0.00     0.293 HD
ENDBRANCH  42  43
ENDBRANCH  32  37
ENDBRANCH  23  24
ENDBRANCH   6  23
BRANCH   3  45
ATOM     45  O   UNL     1      44.450   8.835  81.566  1.00  0.00    -0.387 OA
ATOM     46  H   UNL     1      44.966   8.833  80.714  1.00  0.00     0.211 HD
ENDBRANCH   3  45
BRANCH   4  47
ATOM     47  C   UNL     1      44.793   8.036  84.350  1.00  0.00     0.191 C 
BRANCH  47  48
ATOM     48  O   UNL     1      44.004   7.747  85.475  1.00  0.00    -0.394 OA
ATOM     49  H   UNL     1      44.297   6.857  85.811  1.00  0.00     0.210 HD
ENDBRANCH  47  48
ENDBRANCH   4  47
TORSDOF 14
ENDMDL
MODEL 5
REMARK VINA RESULT:    -4.927      4.683      8.345
REMARK INTER + INTRA:         -10.045
REMARK INTER:                  -8.347
REMARK INTRA:                  -1.698
REMARK UNBOUND:                -2.238
REMARK SMILES C[C@H]1O[C@@H](O[C@@H]2[C@@H](Oc3cc(O)c4c(c3)O[C@H](c3ccc(O)cc3)CC4=O)O[C@@H](CO)[C@@H](O)[C@H]2O)[C@@H](O)[C@@H](O)[C@@H]1O
REMARK SMILES IDX 6 1 34 2 32 3 29 4 28 5 7 6 5 7 4 8 1 9 2 10 40 11 3 12
REMARK SMILES IDX 38 13 36 14 41 15 39 17 37 19 35 21 8 23 9 24 10 25 15 26
REMARK SMILES IDX 11 27 14 28 13 29 16 30 26 31 17 32 27 33 25 34 12 35 18 37
REMARK SMILES IDX 19 38 24 39 20 40 23 41 21 42 22 43 33 45 30 47 31 48
REMARK H PARENT 41 16 39 18 37 20 35 22 12 36 22 44 33 46 31 49
REMARK Flexibility Score: inf
ROOT
ATOM      1  C   UNL     1      43.277  11.302  85.075  1.00  0.00     0.221 C 
ATOM      2  C   UNL     1      44.344  12.299  85.582  1.00  0.00     0.181 C 
ATOM      3  C   UNL     1      44.564  13.507  84.623  1.00  0.00     0.177 C 
ATOM      4  C   UNL     1      43.682  13.380  83.362  1.00  0.00     0.179 C 
ATOM      5  O   UNL     1      42.332  13.254  83.747  1.00  0.00    -0.332 OA
ATOM      6  C   UNL     1      42.063  12.017  84.402  1.00  0.00     0.339 C 
ENDROOT
BRANCH   1   7
ATOM      7  O   UNL     1      43.853  10.410  84.129  1.00  0.00    -0.337 OA
BRANCH   7   8
ATOM      8  C   UNL     1      45.115   9.895  84.540  1.00  0.00     0.282 C 
ATOM      9  C   UNL     1      45.063  10.567  81.493  1.00  0.00     0.041 C 
ATOM     10  C   UNL     1      46.104   9.843  82.361  1.00  0.00     0.150 C 
ATOM     11  C   UNL     1      46.000   8.292  82.289  1.00  0.00     0.174 C 
ATOM     12  O   UNL     1      46.154  10.357  83.688  1.00  0.00    -0.344 OA
ATOM     13  C   UNL     1      44.915   7.735  83.222  1.00  0.00     0.179 C 
ATOM     14  C   UNL     1      45.060   8.360  84.620  1.00  0.00     0.202 C 
BRANCH  11  15
ATOM     15  O   UNL     1      47.237   7.724  82.644  1.00  0.00    -0.388 OA
ATOM     16  H   UNL     1      47.103   7.263  83.514  1.00  0.00     0.211 HD
ENDBRANCH  11  15
BRANCH  13  17
ATOM     17  O   UNL     1      43.645   7.992  82.687  1.00  0.00    -0.387 OA
ATOM     18  H   UNL     1      43.658   8.916  82.324  1.00  0.00     0.211 HD
ENDBRANCH  13  17
BRANCH  14  19
ATOM     19  O   UNL     1      43.999   7.962  85.447  1.00  0.00    -0.385 OA
ATOM     20  H   UNL     1      44.379   7.861  86.368  1.00  0.00     0.211 HD
ENDBRANCH  14  19
ENDBRANCH   7   8
ENDBRANCH   1   7
BRANCH   2  21
ATOM     21  O   UNL     1      43.993  12.725  86.875  1.00  0.00    -0.387 OA
ATOM     22  H   UNL     1      43.099  13.145  86.803  1.00  0.00     0.211 HD
ENDBRANCH   2  21
BRANCH   6  23
ATOM     23  O   UNL     1      41.066  12.244  85.399  1.00  0.00    -0.462 OA
BRANCH  23  24
ATOM     24  C   UNL     1      39.685  12.285  85.159  1.00  0.00     0.130 A 
ATOM     25  C   UNL     1      39.141  12.197  83.865  1.00  0.00     0.093 A 
ATOM     26  C   UNL     1      38.826  12.389  86.259  1.00  0.00     0.094 A 
ATOM     27  C   UNL     1      37.758  12.145  83.676  1.00  0.00     0.133 A 
ATOM     28  C   UNL     1      37.444  12.266  86.088  1.00  0.00     0.138 A 
ATOM     29  C   UNL     1      36.899  12.118  84.800  1.00  0.00     0.102 A 
ATOM     30  O   UNL     1      36.611  12.249  87.221  1.00  0.00    -0.484 OA
ATOM     31  C   UNL     1      35.452  11.840  84.708  1.00  0.00     0.174 C 
ATOM     32  C   UNL     1      35.268  11.749  87.190  1.00  0.00     0.211 C 
ATOM     33  O   UNL     1      34.970  11.232  83.720  1.00  0.00    -0.294 OA
ATOM     34  C   UNL     1      34.581  12.180  85.876  1.00  0.00     0.131 C 
BRANCH  27  35
ATOM     35  O   UNL     1      37.282  12.136  82.362  1.00  0.00    -0.507 OA
ATOM     36  H   UNL     1      36.675  11.413  82.000  1.00  0.00     0.293 HD
ENDBRANCH  27  35
BRANCH  32  37
ATOM     37  C   UNL     1      35.236  10.238  87.387  1.00  0.00    -0.007 A 
ATOM     38  C   UNL     1      36.399   9.497  87.695  1.00  0.00     0.011 A 
ATOM     39  C   UNL     1      34.012   9.556  87.292  1.00  0.00     0.011 A 
ATOM     40  C   UNL     1      36.329   8.109  87.870  1.00  0.00     0.046 A 
ATOM     41  C   UNL     1      33.951   8.166  87.454  1.00  0.00     0.046 A 
ATOM     42  C   UNL     1      35.111   7.440  87.738  1.00  0.00     0.115 A 
BRANCH  42  43
ATOM     43  O   UNL     1      35.065   6.055  87.898  1.00  0.00    -0.508 OA
ATOM     44  H   UNL     1      35.904   5.490  87.831  1.00  0.00     0.293 HD
ENDBRANCH  42  43
ENDBRANCH  32  37
ENDBRANCH  23  24
ENDBRANCH   6  23
BRANCH   3  45
ATOM     45  O   UNL     1      44.268  14.710  85.287  1.00  0.00    -0.387 OA
ATOM     46  H   UNL     1      44.477  14.568  86.251  1.00  0.00     0.211 HD
ENDBRANCH   3  45
BRANCH   4  47
ATOM     47  C   UNL     1      43.845  14.576  82.405  1.00  0.00     0.191 C 
BRANCH  47  48
ATOM     48  O   UNL     1      43.149  15.706  82.865  1.00  0.00    -0.394 OA
ATOM     49  H   UNL     1      43.700  16.108  83.589  1.00  0.00     0.210 HD
ENDBRANCH  47  48
ENDBRANCH   4  47
TORSDOF 14
ENDMDL
MODEL 6
REMARK VINA RESULT:    -4.914      3.031      5.133
REMARK INTER + INTRA:         -10.025
REMARK INTER:                  -7.831
REMARK INTRA:                  -2.194
REMARK UNBOUND:                -2.238
REMARK SMILES C[C@H]1O[C@@H](O[C@@H]2[C@@H](Oc3cc(O)c4c(c3)O[C@H](c3ccc(O)cc3)CC4=O)O[C@@H](CO)[C@@H](O)[C@H]2O)[C@@H](O)[C@@H](O)[C@@H]1O
REMARK SMILES IDX 6 1 34 2 32 3 29 4 28 5 7 6 5 7 4 8 1 9 2 10 40 11 3 12
REMARK SMILES IDX 38 13 36 14 41 15 39 17 37 19 35 21 8 23 9 24 10 25 15 26
REMARK SMILES IDX 11 27 14 28 13 29 16 30 26 31 17 32 27 33 25 34 12 35 18 37
REMARK SMILES IDX 19 38 24 39 20 40 23 41 21 42 22 43 33 45 30 47 31 48
REMARK H PARENT 41 16 39 18 37 20 35 22 12 36 22 44 33 46 31 49
REMARK Flexibility Score: inf
ROOT
ATOM      1  C   UNL     1      44.375  13.924  83.537  1.00  0.00     0.221 C 
ATOM      2  C   UNL     1      45.825  13.551  83.154  1.00  0.00     0.181 C 
ATOM      3  C   UNL     1      46.831  13.700  84.333  1.00  0.00     0.177 C 
ATOM      4  C   UNL     1      46.126  14.238  85.598  1.00  0.00     0.179 C 
ATOM      5  O   UNL     1      45.051  13.390  85.929  1.00  0.00    -0.332 OA
ATOM      6  C   UNL     1      43.994  13.447  84.974  1.00  0.00     0.339 C 
ENDROOT
BRANCH   1   7
ATOM      7  O   UNL     1      44.199  15.334  83.471  1.00  0.00    -0.337 OA
BRANCH   7   8
ATOM      8  C   UNL     1      43.010  15.780  84.114  1.00  0.00     0.282 C 
ATOM      9  C   UNL     1      42.918  16.249  81.030  1.00  0.00     0.041 C 
ATOM     10  C   UNL     1      41.982  16.705  82.160  1.00  0.00     0.150 C 
ATOM     11  C   UNL     1      42.251  18.161  82.638  1.00  0.00     0.174 C 
ATOM     12  O   UNL     1      41.907  15.754  83.218  1.00  0.00    -0.344 OA
ATOM     13  C   UNL     1      43.411  18.242  83.641  1.00  0.00     0.179 C 
ATOM     14  C   UNL     1      43.232  17.172  84.731  1.00  0.00     0.202 C 
BRANCH  11  15
ATOM     15  O   UNL     1      41.091  18.675  83.246  1.00  0.00    -0.388 OA
ATOM     16  H   UNL     1      40.558  19.108  82.529  1.00  0.00     0.211 HD
ENDBRANCH  11  15
BRANCH  13  17
ATOM     17  O   UNL     1      44.634  18.079  82.974  1.00  0.00    -0.387 OA
ATOM     18  H   UNL     1      45.266  17.657  83.614  1.00  0.00     0.211 HD
ENDBRANCH  13  17
BRANCH  14  19
ATOM     19  O   UNL     1      44.349  17.146  85.580  1.00  0.00    -0.385 OA
ATOM     20  H   UNL     1      44.741  18.067  85.563  1.00  0.00     0.211 HD
ENDBRANCH  14  19
ENDBRANCH   7   8
ENDBRANCH   1   7
BRANCH   2  21
ATOM     21  O   UNL     1      45.837  12.247  82.628  1.00  0.00    -0.387 OA
ATOM     22  H   UNL     1      46.477  12.251  81.874  1.00  0.00     0.211 HD
ENDBRANCH   2  21
BRANCH   6  23
ATOM     23  O   UNL     1      43.406  12.149  84.876  1.00  0.00    -0.462 OA
BRANCH  23  24
ATOM     24  C   UNL     1      42.244  11.847  84.152  1.00  0.00     0.130 A 
ATOM     25  C   UNL     1      42.238  10.931  83.084  1.00  0.00     0.093 A 
ATOM     26  C   UNL     1      41.048  12.465  84.533  1.00  0.00     0.094 A 
ATOM     27  C   UNL     1      41.042  10.585  82.450  1.00  0.00     0.133 A 
ATOM     28  C   UNL     1      39.837  12.075  83.954  1.00  0.00     0.138 A 
ATOM     29  C   UNL     1      39.820  11.114  82.926  1.00  0.00     0.102 A 
ATOM     30  O   UNL     1      38.636  12.620  84.441  1.00  0.00    -0.484 OA
ATOM     31  C   UNL     1      38.498  10.639  82.470  1.00  0.00     0.174 C 
ATOM     32  C   UNL     1      37.357  12.020  84.200  1.00  0.00     0.211 C 
ATOM     33  O   UNL     1      38.361   9.502  81.952  1.00  0.00    -0.294 OA
ATOM     34  C   UNL     1      37.295  11.483  82.754  1.00  0.00     0.131 C 
BRANCH  27  35
ATOM     35  O   UNL     1      41.116   9.730  81.347  1.00  0.00    -0.507 OA
ATOM     36  H   UNL     1      41.976   9.545  80.850  1.00  0.00     0.293 HD
ENDBRANCH  27  35
BRANCH  32  37
ATOM     37  C   UNL     1      37.053  10.938  85.229  1.00  0.00    -0.007 A 
ATOM     38  C   UNL     1      37.611  10.956  86.526  1.00  0.00     0.011 A 
ATOM     39  C   UNL     1      36.164   9.900  84.897  1.00  0.00     0.011 A 
ATOM     40  C   UNL     1      37.306   9.944  87.444  1.00  0.00     0.046 A 
ATOM     41  C   UNL     1      35.874   8.883  85.814  1.00  0.00     0.046 A 
ATOM     42  C   UNL     1      36.449   8.901  87.088  1.00  0.00     0.115 A 
BRANCH  42  43
ATOM     43  O   UNL     1      36.173   7.892  88.010  1.00  0.00    -0.508 OA
ATOM     44  H   UNL     1      35.219   7.644  88.249  1.00  0.00     0.293 HD
ENDBRANCH  42  43
ENDBRANCH  32  37
ENDBRANCH  23  24
ENDBRANCH   6  23
BRANCH   3  45
ATOM     45  O   UNL     1      47.429  12.459  84.617  1.00  0.00    -0.387 OA
ATOM     46  H   UNL     1      47.843  12.537  85.520  1.00  0.00     0.211 HD
ENDBRANCH   3  45
BRANCH   4  47
ATOM     47  C   UNL     1      47.083  14.364  86.798  1.00  0.00     0.191 C 
BRANCH  47  48
ATOM     48  O   UNL     1      46.577  15.238  87.775  1.00  0.00    -0.394 OA
ATOM     49  H   UNL     1      46.138  14.674  88.466  1.00  0.00     0.210 HD
ENDBRANCH  47  48
ENDBRANCH   4  47
TORSDOF 14
ENDMDL
MODEL 7
REMARK VINA RESULT:    -4.834      3.105      6.002
REMARK INTER + INTRA:          -9.898
REMARK INTER:                  -8.060
REMARK INTRA:                  -1.839
REMARK UNBOUND:                -2.238
REMARK SMILES C[C@H]1O[C@@H](O[C@@H]2[C@@H](Oc3cc(O)c4c(c3)O[C@H](c3ccc(O)cc3)CC4=O)O[C@@H](CO)[C@@H](O)[C@H]2O)[C@@H](O)[C@@H](O)[C@@H]1O
REMARK SMILES IDX 6 1 34 2 32 3 29 4 28 5 7 6 5 7 4 8 1 9 2 10 40 11 3 12
REMARK SMILES IDX 38 13 36 14 41 15 39 17 37 19 35 21 8 23 9 24 10 25 15 26
REMARK SMILES IDX 11 27 14 28 13 29 16 30 26 31 17 32 27 33 25 34 12 35 18 37
REMARK SMILES IDX 19 38 24 39 20 40 23 41 21 42 22 43 33 45 30 47 31 48
REMARK H PARENT 41 16 39 18 37 20 35 22 12 36 22 44 33 46 31 49
REMARK Flexibility Score: inf
ROOT
ATOM      1  C   UNL     1      43.897  13.189  83.043  1.00  0.00     0.221 C 
ATOM      2  C   UNL     1      44.278  12.620  81.658  1.00  0.00     0.181 C 
ATOM      3  C   UNL     1      44.269  11.063  81.609  1.00  0.00     0.177 C 
ATOM      4  C   UNL     1      43.922  10.467  82.990  1.00  0.00     0.179 C 
ATOM      5  O   UNL     1      42.686  10.986  83.425  1.00  0.00    -0.332 OA
ATOM      6  C   UNL     1      42.753  12.377  83.730  1.00  0.00     0.339 C 
ENDROOT
BRANCH   1   7
ATOM      7  O   UNL     1      45.030  13.183  83.903  1.00  0.00    -0.337 OA
BRANCH   7   8
ATOM      8  C   UNL     1      44.790  13.831  85.148  1.00  0.00     0.282 C 
ATOM      9  C   UNL     1      47.272  15.015  83.671  1.00  0.00     0.041 C 
ATOM     10  C   UNL     1      46.721  15.244  85.088  1.00  0.00     0.150 C 
ATOM     11  C   UNL     1      47.444  14.400  86.177  1.00  0.00     0.174 C 
ATOM     12  O   UNL     1      45.301  15.158  85.137  1.00  0.00    -0.344 OA
ATOM     13  C   UNL     1      46.903  12.966  86.259  1.00  0.00     0.179 C 
ATOM     14  C   UNL     1      45.366  12.991  86.301  1.00  0.00     0.202 C 
BRANCH  11  15
ATOM     15  O   UNL     1      47.280  15.018  87.431  1.00  0.00    -0.388 OA
ATOM     16  H   UNL     1      47.416  15.991  87.293  1.00  0.00     0.211 HD
ENDBRANCH  11  15
BRANCH  13  17
ATOM     17  O   UNL     1      47.362  12.217  85.166  1.00  0.00    -0.387 OA
ATOM     18  H   UNL     1      47.170  12.743  84.345  1.00  0.00     0.211 HD
ENDBRANCH  13  17
BRANCH  14  19
ATOM     19  O   UNL     1      44.852  11.686  86.244  1.00  0.00    -0.385 OA
ATOM     20  H   UNL     1      44.740  11.384  87.192  1.00  0.00     0.211 HD
ENDBRANCH  14  19
ENDBRANCH   7   8
ENDBRANCH   1   7
BRANCH   2  21
ATOM     21  O   UNL     1      43.425  13.171  80.687  1.00  0.00    -0.387 OA
ATOM     22  H   UNL     1      43.354  12.506  79.959  1.00  0.00     0.211 HD
ENDBRANCH   2  21
BRANCH   6  23
ATOM     23  O   UNL     1      41.504  12.974  83.379  1.00  0.00    -0.462 OA
BRANCH  23  24
ATOM     24  C   UNL     1      40.343  12.926  84.163  1.00  0.00     0.130 A 
ATOM     25  C   UNL     1      40.294  12.256  85.399  1.00  0.00     0.093 A 
ATOM     26  C   UNL     1      39.206  13.597  83.701  1.00  0.00     0.094 A 
ATOM     27  C   UNL     1      39.147  12.312  86.195  1.00  0.00     0.133 A 
ATOM     28  C   UNL     1      38.078  13.720  84.519  1.00  0.00     0.138 A 
ATOM     29  C   UNL     1      38.048  13.100  85.782  1.00  0.00     0.102 A 
ATOM     30  O   UNL     1      36.996  14.504  84.083  1.00  0.00    -0.484 OA
ATOM     31  C   UNL     1      36.893  13.399  86.652  1.00  0.00     0.174 C 
ATOM     32  C   UNL     1      35.991  15.004  84.974  1.00  0.00     0.211 C 
ATOM     33  O   UNL     1      36.984  13.319  87.902  1.00  0.00    -0.294 OA
ATOM     34  C   UNL     1      35.641  13.928  86.024  1.00  0.00     0.131 C 
BRANCH  27  35
ATOM     35  O   UNL     1      39.137  11.561  87.373  1.00  0.00    -0.507 OA
ATOM     36  H   UNL     1      39.495  11.909  88.252  1.00  0.00     0.293 HD
ENDBRANCH  27  35
BRANCH  32  37
ATOM     37  C   UNL     1      36.426  16.315  85.617  1.00  0.00    -0.007 A 
ATOM     38  C   UNL     1      35.961  16.717  86.889  1.00  0.00     0.011 A 
ATOM     39  C   UNL     1      37.343  17.142  84.947  1.00  0.00     0.011 A 
ATOM     40  C   UNL     1      36.386  17.929  87.448  1.00  0.00     0.046 A 
ATOM     41  C   UNL     1      37.753  18.359  85.505  1.00  0.00     0.046 A 
ATOM     42  C   UNL     1      37.271  18.757  86.755  1.00  0.00     0.115 A 
BRANCH  42  43
ATOM     43  O   UNL     1      37.667  19.969  87.321  1.00  0.00    -0.508 OA
ATOM     44  H   UNL     1      37.065  20.784  87.292  1.00  0.00     0.293 HD
ENDBRANCH  42  43
ENDBRANCH  32  37
ENDBRANCH  23  24
ENDBRANCH   6  23
BRANCH   3  45
ATOM     45  O   UNL     1      43.338  10.616  80.654  1.00  0.00    -0.387 OA
ATOM     46  H   UNL     1      43.414   9.624  80.617  1.00  0.00     0.211 HD
ENDBRANCH   3  45
BRANCH   4  47
ATOM     47  C   UNL     1      43.867   8.928  82.973  1.00  0.00     0.191 C 
BRANCH  47  48
ATOM     48  O   UNL     1      42.613   8.459  82.549  1.00  0.00    -0.394 OA
ATOM     49  H   UNL     1      42.778   7.856  81.775  1.00  0.00     0.210 HD
ENDBRANCH  47  48
ENDBRANCH   4  47
TORSDOF 14
ENDMDL
MODEL 8
REMARK VINA RESULT:    -4.819      2.606      6.085
REMARK INTER + INTRA:          -9.874
REMARK INTER:                  -8.139
REMARK INTRA:                  -1.735
REMARK UNBOUND:                -2.238
REMARK SMILES C[C@H]1O[C@@H](O[C@@H]2[C@@H](Oc3cc(O)c4c(c3)O[C@H](c3ccc(O)cc3)CC4=O)O[C@@H](CO)[C@@H](O)[C@H]2O)[C@@H](O)[C@@H](O)[C@@H]1O
REMARK SMILES IDX 6 1 34 2 32 3 29 4 28 5 7 6 5 7 4 8 1 9 2 10 40 11 3 12
REMARK SMILES IDX 38 13 36 14 41 15 39 17 37 19 35 21 8 23 9 24 10 25 15 26
REMARK SMILES IDX 11 27 14 28 13 29 16 30 26 31 17 32 27 33 25 34 12 35 18 37
REMARK SMILES IDX 19 38 24 39 20 40 23 41 21 42 22 43 33 45 30 47 31 48
REMARK H PARENT 41 16 39 18 37 20 35 22 12 36 22 44 33 46 31 49
REMARK Flexibility Score: inf
ROOT
ATOM      1  C   UNL     1      48.352  16.179  84.842  1.00  0.00     0.221 C 
ATOM      2  C   UNL     1      48.995  17.584  84.843  1.00  0.00     0.181 C 
ATOM      3  C   UNL     1      49.740  17.922  83.517  1.00  0.00     0.177 C 
ATOM      4  C   UNL     1      49.692  16.731  82.536  1.00  0.00     0.179 C 
ATOM      5  O   UNL     1      48.349  16.370  82.306  1.00  0.00    -0.332 OA
ATOM      6  C   UNL     1      47.728  15.808  83.459  1.00  0.00     0.339 C 
ENDROOT
BRANCH   1   7
ATOM      7  O   UNL     1      49.326  15.196  85.172  1.00  0.00    -0.337 OA
BRANCH   7   8
ATOM      8  C   UNL     1      50.095  15.534  86.322  1.00  0.00     0.282 C 
ATOM      9  C   UNL     1      51.620  13.576  84.430  1.00  0.00     0.041 C 
ATOM     10  C   UNL     1      51.938  14.085  85.845  1.00  0.00     0.150 C 
ATOM     11  C   UNL     1      51.523  13.092  86.968  1.00  0.00     0.174 C 
ATOM     12  O   UNL     1      51.486  15.418  86.055  1.00  0.00    -0.344 OA
ATOM     13  C   UNL     1      50.033  13.203  87.324  1.00  0.00     0.179 C 
ATOM     14  C   UNL     1      49.654  14.680  87.523  1.00  0.00     0.202 C 
BRANCH  11  15
ATOM     15  O   UNL     1      52.284  13.349  88.124  1.00  0.00    -0.388 OA
ATOM     16  H   UNL     1      51.642  13.586  88.844  1.00  0.00     0.211 HD
ENDBRANCH  11  15
BRANCH  13  17
ATOM     17  O   UNL     1      49.255  12.616  86.316  1.00  0.00    -0.387 OA
ATOM     18  H   UNL     1      49.681  11.750  86.079  1.00  0.00     0.211 HD
ENDBRANCH  13  17
BRANCH  14  19
ATOM     19  O   UNL     1      48.271  14.809  87.720  1.00  0.00    -0.385 OA
ATOM     20  H   UNL     1      48.102  15.774  87.925  1.00  0.00     0.211 HD
ENDBRANCH  14  19
ENDBRANCH   7   8
ENDBRANCH   1   7
BRANCH   2  21
ATOM     21  O   UNL     1      48.004  18.539  85.135  1.00  0.00    -0.387 OA
ATOM     22  H   UNL     1      48.476  19.367  85.398  1.00  0.00     0.211 HD
ENDBRANCH   2  21
BRANCH   6  23
ATOM     23  O   UNL     1      46.354  16.199  83.467  1.00  0.00    -0.462 OA
BRANCH  23  24
ATOM     24  C   UNL     1      45.300  15.421  83.966  1.00  0.00     0.130 A 
ATOM     25  C   UNL     1      43.989  15.515  83.463  1.00  0.00     0.093 A 
ATOM     26  C   UNL     1      45.581  14.502  84.982  1.00  0.00     0.094 A 
ATOM     27  C   UNL     1      42.988  14.655  83.922  1.00  0.00     0.133 A 
ATOM     28  C   UNL     1      44.607  13.590  85.397  1.00  0.00     0.138 A 
ATOM     29  C   UNL     1      43.310  13.641  84.854  1.00  0.00     0.102 A 
ATOM     30  O   UNL     1      44.950  12.595  86.330  1.00  0.00    -0.484 OA
ATOM     31  C   UNL     1      42.381  12.555  85.222  1.00  0.00     0.174 C 
ATOM     32  C   UNL     1      44.170  11.408  86.522  1.00  0.00     0.211 C 
ATOM     33  O   UNL     1      41.430  12.230  84.468  1.00  0.00    -0.294 OA
ATOM     34  C   UNL     1      42.666  11.754  86.455  1.00  0.00     0.131 C 
BRANCH  27  35
ATOM     35  O   UNL     1      41.692  14.853  83.438  1.00  0.00    -0.507 OA
ATOM     36  H   UNL     1      40.907  14.278  83.714  1.00  0.00     0.293 HD
ENDBRANCH  27  35
BRANCH  32  37
ATOM     37  C   UNL     1      44.555  10.326  85.521  1.00  0.00    -0.007 A 
ATOM     38  C   UNL     1      45.435  10.578  84.445  1.00  0.00     0.011 A 
ATOM     39  C   UNL     1      44.051   9.024  85.683  1.00  0.00     0.011 A 
ATOM     40  C   UNL     1      45.767   9.556  83.547  1.00  0.00     0.046 A 
ATOM     41  C   UNL     1      44.375   8.010  84.773  1.00  0.00     0.046 A 
ATOM     42  C   UNL     1      45.230   8.277  83.700  1.00  0.00     0.115 A 
BRANCH  42  43
ATOM     43  O   UNL     1      45.559   7.278  82.784  1.00  0.00    -0.508 OA
ATOM     44  H   UNL     1      46.299   7.411  82.104  1.00  0.00     0.293 HD
ENDBRANCH  42  43
ENDBRANCH  32  37
ENDBRANCH  23  24
ENDBRANCH   6  23
BRANCH   3  45
ATOM     45  O   UNL     1      49.163  19.054  82.915  1.00  0.00    -0.387 OA
ATOM     46  H   UNL     1      49.656  19.848  83.259  1.00  0.00     0.211 HD
ENDBRANCH   3  45
BRANCH   4  47
ATOM     47  C   UNL     1      50.387  17.040  81.197  1.00  0.00     0.191 C 
BRANCH  47  48
ATOM     48  O   UNL     1      51.403  17.998  81.349  1.00  0.00    -0.394 OA
ATOM     49  H   UNL     1      52.245  17.498  81.525  1.00  0.00     0.210 HD
ENDBRANCH  47  48
ENDBRANCH   4  47
TORSDOF 14
ENDMDL
MODEL 9
REMARK VINA RESULT:    -4.771      2.514      5.277
REMARK INTER + INTRA:          -9.798
REMARK INTER:                  -7.917
REMARK INTRA:                  -1.881
REMARK UNBOUND:                -2.238
REMARK SMILES C[C@H]1O[C@@H](O[C@@H]2[C@@H](Oc3cc(O)c4c(c3)O[C@H](c3ccc(O)cc3)CC4=O)O[C@@H](CO)[C@@H](O)[C@H]2O)[C@@H](O)[C@@H](O)[C@@H]1O
REMARK SMILES IDX 6 1 34 2 32 3 29 4 28 5 7 6 5 7 4 8 1 9 2 10 40 11 3 12
REMARK SMILES IDX 38 13 36 14 41 15 39 17 37 19 35 21 8 23 9 24 10 25 15 26
REMARK SMILES IDX 11 27 14 28 13 29 16 30 26 31 17 32 27 33 25 34 12 35 18 37
REMARK SMILES IDX 19 38 24 39 20 40 23 41 21 42 22 43 33 45 30 47 31 48
REMARK H PARENT 41 16 39 18 37 20 35 22 12 36 22 44 33 46 31 49
REMARK Flexibility Score: inf
ROOT
ATOM      1  C   UNL     1      43.882  13.042  83.671  1.00  0.00     0.221 C 
ATOM      2  C   UNL     1      44.572  11.678  83.444  1.00  0.00     0.181 C 
ATOM      3  C   UNL     1      44.515  10.743  84.688  1.00  0.00     0.177 C 
ATOM      4  C   UNL     1      43.814  11.442  85.873  1.00  0.00     0.179 C 
ATOM      5  O   UNL     1      42.529  11.863  85.473  1.00  0.00    -0.332 OA
ATOM      6  C   UNL     1      42.573  12.916  84.514  1.00  0.00     0.339 C 
ENDROOT
BRANCH   1   7
ATOM      7  O   UNL     1      44.765  13.931  84.344  1.00  0.00    -0.337 OA
BRANCH   7   8
ATOM      8  C   UNL     1      45.115  15.069  83.564  1.00  0.00     0.282 C 
ATOM      9  C   UNL     1      47.632  13.515  84.561  1.00  0.00     0.041 C 
ATOM     10  C   UNL     1      47.483  14.871  83.854  1.00  0.00     0.150 C 
ATOM     11  C   UNL     1      47.523  16.084  84.826  1.00  0.00     0.174 C 
ATOM     12  O   UNL     1      46.384  14.892  82.949  1.00  0.00    -0.344 OA
ATOM     13  C   UNL     1      46.164  16.345  85.491  1.00  0.00     0.179 C 
ATOM     14  C   UNL     1      45.054  16.341  84.427  1.00  0.00     0.202 C 
BRANCH  11  15
ATOM     15  O   UNL     1      47.909  17.238  84.118  1.00  0.00    -0.388 OA
ATOM     16  H   UNL     1      48.626  17.675  84.648  1.00  0.00     0.211 HD
ENDBRANCH  11  15
BRANCH  13  17
ATOM     17  O   UNL     1      45.919  15.377  86.476  1.00  0.00    -0.387 OA
ATOM     18  H   UNL     1      46.213  15.759  87.345  1.00  0.00     0.211 HD
ENDBRANCH  13  17
BRANCH  14  19
ATOM     19  O   UNL     1      43.793  16.448  85.033  1.00  0.00    -0.385 OA
ATOM     20  H   UNL     1      43.917  16.194  85.994  1.00  0.00     0.211 HD
ENDBRANCH  14  19
ENDBRANCH   7   8
ENDBRANCH   1   7
BRANCH   2  21
ATOM     21  O   UNL     1      44.008  11.064  82.311  1.00  0.00    -0.387 OA
ATOM     22  H   UNL     1      43.112  10.742  82.579  1.00  0.00     0.211 HD
ENDBRANCH   2  21
BRANCH   6  23
ATOM     23  O   UNL     1      41.474  12.753  83.616  1.00  0.00    -0.462 OA
BRANCH  23  24
ATOM     24  C   UNL     1      40.255  13.440  83.706  1.00  0.00     0.130 A 
ATOM     25  C   UNL     1      39.153  12.931  84.418  1.00  0.00     0.093 A 
ATOM     26  C   UNL     1      40.153  14.688  83.083  1.00  0.00     0.094 A 
ATOM     27  C   UNL     1      37.989  13.689  84.563  1.00  0.00     0.133 A 
ATOM     28  C   UNL     1      39.021  15.484  83.281  1.00  0.00     0.138 A 
ATOM     29  C   UNL     1      37.940  15.003  84.043  1.00  0.00     0.102 A 
ATOM     30  O   UNL     1      38.995  16.785  82.749  1.00  0.00    -0.484 OA
ATOM     31  C   UNL     1      36.849  15.953  84.339  1.00  0.00     0.174 C 
ATOM     32  C   UNL     1      38.086  17.794  83.208  1.00  0.00     0.211 C 
ATOM     33  O   UNL     1      36.123  15.811  85.355  1.00  0.00    -0.294 OA
ATOM     34  C   UNL     1      36.701  17.167  83.477  1.00  0.00     0.131 C 
BRANCH  27  35
ATOM     35  O   UNL     1      36.905  13.095  85.215  1.00  0.00    -0.507 OA
ATOM     36  H   UNL     1      36.044  13.586  85.414  1.00  0.00     0.293 HD
ENDBRANCH  27  35
BRANCH  32  37
ATOM     37  C   UNL     1      38.637  18.518  84.430  1.00  0.00    -0.007 A 
ATOM     38  C   UNL     1      37.799  18.978  85.470  1.00  0.00     0.011 A 
ATOM     39  C   UNL     1      40.024  18.712  84.551  1.00  0.00     0.011 A 
ATOM     40  C   UNL     1      38.343  19.638  86.579  1.00  0.00     0.046 A 
ATOM     41  C   UNL     1      40.560  19.386  85.656  1.00  0.00     0.046 A 
ATOM     42  C   UNL     1      39.719  19.854  86.669  1.00  0.00     0.115 A 
BRANCH  42  43
ATOM     43  O   UNL     1      40.239  20.531  87.772  1.00  0.00    -0.508 OA
ATOM     44  H   UNL     1      39.813  20.448  88.689  1.00  0.00     0.293 HD
ENDBRANCH  42  43
ENDBRANCH  32  37
ENDBRANCH  23  24
ENDBRANCH   6  23
BRANCH   3  45
ATOM     45  O   UNL     1      43.833   9.556  84.368  1.00  0.00    -0.387 OA
ATOM     46  H   UNL     1      43.304   9.300  85.172  1.00  0.00     0.211 HD
ENDBRANCH   3  45
BRANCH   4  47
ATOM     47  C   UNL     1      43.704  10.534  87.113  1.00  0.00     0.191 C 
BRANCH  47  48
ATOM     48  O   UNL     1      42.933  11.128  88.125  1.00  0.00    -0.394 OA
ATOM     49  H   UNL     1      43.134  10.637  88.966  1.00  0.00     0.210 HD
ENDBRANCH  47  48
ENDBRANCH   4  47
TORSDOF 14
ENDMDL
