MODEL 1
REMARK VINA RESULT:    -1.848      0.000      0.000
REMARK INTER + INTRA:          -2.589
REMARK INTER:                  -2.496
REMARK INTRA:                  -0.093
REMARK UNBOUND:                -0.093
REMARK SMILES C=C1C(=O)O[C@H]2[C@H]3O[C@@]3(C)CCC=C(C)CC[C@@H]12
REMARK SMILES IDX 6 1 18 2 2 3 1 4 3 5 4 6 5 7 17 8 16 9 14 10 15 11 13 12
REMARK SMILES IDX 7 14 9 15 8 16 10 17 11 18 12 19
REMARK H PARENT
REMARK Flexibility Score: 70.00
ROOT
ATOM      1  C   UNL     1      88.535 180.573 174.247  1.00  0.00     0.216 C 
ATOM      2  C   UNL     1      89.176 179.160 174.546  1.00  0.00     0.070 C 
ATOM      3  C   UNL     1      88.637 178.837 175.912  1.00  0.00     0.037 C 
ATOM      4  C   UNL     1      89.094 177.964 176.810  1.00  0.00     0.021 C 
ATOM      5  C   UNL     1      87.407 179.594 176.011  1.00  0.00     0.334 C 
ATOM      6  O   UNL     1      86.534 179.465 176.909  1.00  0.00    -0.247 OA
ATOM      7  O   UNL     1      87.295 180.478 174.952  1.00  0.00    -0.455 OA
ENDROOT
BRANCH   2   8
ATOM      8  C   UNL     1      90.630 178.707 174.200  1.00  0.00     0.017 C 
BRANCH   8   9
ATOM      9  C   UNL     1      90.887 178.132 172.804  1.00  0.00     0.031 C 
BRANCH   9  10
ATOM     10  C   UNL     1      90.323 178.917 171.605  1.00  0.00    -0.077 C 
ATOM     11  C   UNL     1      89.606 178.100 170.554  1.00  0.00     0.039 C 
ATOM     12  C   UNL     1      90.474 180.247 171.320  1.00  0.00    -0.028 CG0
ATOM     13  G   UNL     1      91.137 181.348 172.125  1.00  0.00     0.000 G0
ENDBRANCH   9  10
ENDBRANCH   8   9
ENDBRANCH   2   8
BRANCH   1  14
ATOM     14  C   UNL     1      89.186 181.860 174.834  1.00  0.00     0.192 C 
ATOM     15  C   UNL     1      89.875 182.831 173.918  1.00  0.00     0.096 C 
ATOM     16  O   UNL     1      90.583 181.973 174.772  1.00  0.00    -0.362 OA
ATOM     17  C   UNL     1      89.962 184.282 174.395  1.00  0.00     0.045 C 
BRANCH  15  18
ATOM     18  C   UNL     1      90.212 182.559 172.434  1.00  0.00     0.042 C 
BRANCH  18  19
ATOM     19  C   UNL     1      91.142 181.372 172.124  1.00  0.00     0.030 CG0
ATOM     20  G   UNL     1      90.488 180.256 171.332  1.00  0.00     0.000 G0
ENDBRANCH  18  19
ENDBRANCH  15  18
ENDBRANCH   1  14
TORSDOF 0
ENDMDL
MODEL 2
REMARK VINA RESULT:    -1.690      1.535      2.045
REMARK INTER + INTRA:          -2.376
REMARK INTER:                  -2.189
REMARK INTRA:                  -0.187
REMARK UNBOUND:                -0.093
REMARK SMILES C=C1C(=O)O[C@H]2[C@H]3O[C@@]3(C)CCC=C(C)CC[C@@H]12
REMARK SMILES IDX 6 1 18 2 2 3 1 4 3 5 4 6 5 7 17 8 16 9 14 10 15 11 13 12
REMARK SMILES IDX 7 14 9 15 8 16 10 17 11 18 12 19
REMARK H PARENT
REMARK Flexibility Score: 70.00
ROOT
ATOM      1  C   UNL     1      87.922 181.579 174.684  1.00  0.00     0.216 C 
ATOM      2  C   UNL     1      88.113 180.145 175.320  1.00  0.00     0.070 C 
ATOM      3  C   UNL     1      86.955 180.052 176.273  1.00  0.00     0.037 C 
ATOM      4  C   UNL     1      86.791 179.243 177.321  1.00  0.00     0.021 C 
ATOM      5  C   UNL     1      85.960 180.956 175.734  1.00  0.00     0.334 C 
ATOM      6  O   UNL     1      84.760 181.037 176.108  1.00  0.00    -0.247 OA
ATOM      7  O   UNL     1      86.500 181.716 174.712  1.00  0.00    -0.455 OA
ENDROOT
BRANCH   2   8
ATOM      8  C   UNL     1      89.467 179.486 175.736  1.00  0.00     0.017 C 
BRANCH   8   9
ATOM      9  C   UNL     1      90.760 180.120 175.216  1.00  0.00     0.031 C 
BRANCH   9  10
ATOM     10  C   UNL     1      90.922 180.236 173.689  1.00  0.00    -0.077 C 
ATOM     11  C   UNL     1      90.887 178.937 172.916  1.00  0.00     0.039 C 
ATOM     12  C   UNL     1      91.192 181.357 172.951  1.00  0.00    -0.028 CG0
ATOM     13  G   UNL     1      91.311 182.805 173.385  1.00  0.00     0.000 G0
ENDBRANCH   9  10
ENDBRANCH   8   9
ENDBRANCH   2   8
BRANCH   1  14
ATOM     14  C   UNL     1      88.420 182.841 175.450  1.00  0.00     0.192 C 
ATOM     15  C   UNL     1      89.313 183.829 174.757  1.00  0.00     0.096 C 
ATOM     16  O   UNL     1      89.791 182.938 175.729  1.00  0.00    -0.362 OA
ATOM     17  C   UNL     1      89.291 185.264 175.285  1.00  0.00     0.045 C 
BRANCH  15  18
ATOM     18  C   UNL     1      89.996 183.596 173.389  1.00  0.00     0.042 C 
BRANCH  18  19
ATOM     19  C   UNL     1      91.318 182.807 173.381  1.00  0.00     0.030 CG0
ATOM     20  G   UNL     1      91.179 181.359 172.950  1.00  0.00     0.000 G0
ENDBRANCH  18  19
ENDBRANCH  15  18
ENDBRANCH   1  14
TORSDOF 0
ENDMDL
MODEL 3
REMARK VINA RESULT:    -1.630      1.963      3.578
REMARK INTER + INTRA:          -2.295
REMARK INTER:                  -2.075
REMARK INTRA:                  -0.220
REMARK UNBOUND:                -0.093
REMARK SMILES C=C1C(=O)O[C@H]2[C@H]3O[C@@]3(C)CCC=C(C)CC[C@@H]12
REMARK SMILES IDX 6 1 18 2 2 3 1 4 3 5 4 6 5 7 17 8 16 9 14 10 15 11 13 12
REMARK SMILES IDX 7 14 9 15 8 16 10 17 11 18 12 19
REMARK H PARENT
REMARK Flexibility Score: 70.00
ROOT
ATOM      1  C   UNL     1      88.642 181.968 173.424  1.00  0.00     0.216 C 
ATOM      2  C   UNL     1      88.927 182.078 174.975  1.00  0.00     0.070 C 
ATOM      3  C   UNL     1      88.371 183.433 175.315  1.00  0.00     0.037 C 
ATOM      4  C   UNL     1      88.630 184.206 176.371  1.00  0.00     0.021 C 
ATOM      5  C   UNL     1      87.368 183.686 174.302  1.00  0.00     0.334 C 
ATOM      6  O   UNL     1      86.521 184.617 174.322  1.00  0.00    -0.247 OA
ATOM      7  O   UNL     1      87.442 182.734 173.300  1.00  0.00    -0.455 OA
ENDROOT
BRANCH   2   8
ATOM      8  C   UNL     1      90.213 181.598 175.720  1.00  0.00     0.017 C 
BRANCH   8   9
ATOM      9  C   UNL     1      91.146 180.631 174.985  1.00  0.00     0.031 C 
BRANCH   9  10
ATOM     10  C   UNL     1      90.531 179.320 174.464  1.00  0.00    -0.077 C 
ATOM     11  C   UNL     1      89.927 178.407 175.508  1.00  0.00     0.039 C 
ATOM     12  C   UNL     1      90.547 178.828 173.186  1.00  0.00    -0.028 CG0
ATOM     13  G   UNL     1      91.072 179.453 171.907  1.00  0.00     0.000 G0
ENDBRANCH   9  10
ENDBRANCH   8   9
ENDBRANCH   2   8
BRANCH   1  14
ATOM     14  C   UNL     1      89.608 182.645 172.408  1.00  0.00     0.192 C 
ATOM     15  C   UNL     1      90.166 181.847 171.265  1.00  0.00     0.096 C 
ATOM     16  O   UNL     1      90.939 182.205 172.378  1.00  0.00    -0.362 OA
ATOM     17  C   UNL     1      90.590 182.632 170.021  1.00  0.00     0.045 C 
BRANCH  15  18
ATOM     18  C   UNL     1      90.054 180.312 171.120  1.00  0.00     0.042 C 
BRANCH  18  19
ATOM     19  C   UNL     1      91.074 179.451 171.888  1.00  0.00     0.030 CG0
ATOM     20  G   UNL     1      90.544 178.857 173.179  1.00  0.00     0.000 G0
ENDBRANCH  18  19
ENDBRANCH  15  18
ENDBRANCH   1  14
TORSDOF 0
ENDMDL
MODEL 4
REMARK VINA RESULT:    -1.607      2.790      4.925
REMARK INTER + INTRA:          -2.263
REMARK INTER:                  -2.043
REMARK INTRA:                  -0.220
REMARK UNBOUND:                -0.093
REMARK SMILES C=C1C(=O)O[C@H]2[C@H]3O[C@@]3(C)CCC=C(C)CC[C@@H]12
REMARK SMILES IDX 6 1 18 2 2 3 1 4 3 5 4 6 5 7 17 8 16 9 14 10 15 11 13 12
REMARK SMILES IDX 7 14 9 15 8 16 10 17 11 18 12 19
REMARK H PARENT
REMARK Flexibility Score: 70.00
ROOT
ATOM      1  C   UNL     1      88.894 182.715 175.575  1.00  0.00     0.216 C 
ATOM      2  C   UNL     1      90.278 182.135 175.080  1.00  0.00     0.070 C 
ATOM      3  C   UNL     1      91.023 183.374 174.666  1.00  0.00     0.037 C 
ATOM      4  C   UNL     1      92.080 183.488 173.860  1.00  0.00     0.021 C 
ATOM      5  C   UNL     1      90.426 184.440 175.442  1.00  0.00     0.334 C 
ATOM      6  O   UNL     1      90.878 185.610 175.554  1.00  0.00    -0.247 OA
ATOM      7  O   UNL     1      89.286 183.991 176.085  1.00  0.00    -0.455 OA
ENDROOT
BRANCH   2   8
ATOM      8  C   UNL     1      90.495 180.830 174.250  1.00  0.00     0.017 C 
BRANCH   8   9
ATOM      9  C   UNL     1      89.364 179.798 174.231  1.00  0.00     0.031 C 
BRANCH   9  10
ATOM     10  C   UNL     1      88.815 179.331 175.592  1.00  0.00    -0.077 C 
ATOM     11  C   UNL     1      89.801 178.633 176.502  1.00  0.00     0.039 C 
ATOM     12  C   UNL     1      87.524 179.380 176.044  1.00  0.00    -0.028 CG0
ATOM     13  G   UNL     1      86.288 179.983 175.404  1.00  0.00     0.000 G0
ENDBRANCH   9  10
ENDBRANCH   8   9
ENDBRANCH   2   8
BRANCH   1  14
ATOM     14  C   UNL     1      87.784 183.065 174.541  1.00  0.00     0.192 C 
ATOM     15  C   UNL     1      86.393 182.532 174.732  1.00  0.00     0.096 C 
ATOM     16  O   UNL     1      87.265 182.021 173.760  1.00  0.00    -0.362 OA
ATOM     17  C   UNL     1      85.257 183.331 174.091  1.00  0.00     0.045 C 
BRANCH  15  18
ATOM     18  C   UNL     1      85.994 181.450 175.762  1.00  0.00     0.042 C 
BRANCH  18  19
ATOM     19  C   UNL     1      86.275 179.981 175.392  1.00  0.00     0.030 CG0
ATOM     20  G   UNL     1      87.516 179.400 176.042  1.00  0.00     0.000 G0
ENDBRANCH  18  19
ENDBRANCH  15  18
ENDBRANCH   1  14
TORSDOF 0
ENDMDL
MODEL 5
REMARK VINA RESULT:    -1.568      2.288      3.251
REMARK INTER + INTRA:          -2.211
REMARK INTER:                  -2.124
REMARK INTRA:                  -0.087
REMARK UNBOUND:                -0.093
REMARK SMILES C=C1C(=O)O[C@H]2[C@H]3O[C@@]3(C)CCC=C(C)CC[C@@H]12
REMARK SMILES IDX 6 1 18 2 2 3 1 4 3 5 4 6 5 7 17 8 16 9 14 10 15 11 13 12
REMARK SMILES IDX 7 14 9 15 8 16 10 17 11 18 12 19
REMARK H PARENT
REMARK Flexibility Score: 70.00
ROOT
ATOM      1  C   UNL     1      87.750 181.069 175.095  1.00  0.00     0.216 C 
ATOM      2  C   UNL     1      89.085 180.237 174.941  1.00  0.00     0.070 C 
ATOM      3  C   UNL     1      88.894 179.124 175.934  1.00  0.00     0.037 C 
ATOM      4  C   UNL     1      89.808 178.331 176.493  1.00  0.00     0.021 C 
ATOM      5  C   UNL     1      87.458 178.995 176.070  1.00  0.00     0.334 C 
ATOM      6  O   UNL     1      86.857 178.053 176.651  1.00  0.00    -0.247 OA
ATOM      7  O   UNL     1      86.815 180.046 175.441  1.00  0.00    -0.455 OA
ENDROOT
BRANCH   2   8
ATOM      8  C   UNL     1      90.523 180.815 174.746  1.00  0.00     0.017 C 
BRANCH   8   9
ATOM      9  C   UNL     1      90.666 182.327 174.558  1.00  0.00     0.031 C 
BRANCH   9  10
ATOM     10  C   UNL     1      90.183 182.919 173.222  1.00  0.00    -0.077 C 
ATOM     11  C   UNL     1      90.813 182.345 171.973  1.00  0.00     0.039 C 
ATOM     12  C   UNL     1      89.325 183.968 173.023  1.00  0.00    -0.028 CG0
ATOM     13  G   UNL     1      88.531 184.781 174.027  1.00  0.00     0.000 G0
ENDBRANCH   9  10
ENDBRANCH   8   9
ENDBRANCH   2   8
BRANCH   1  14
ATOM     14  C   UNL     1      87.606 182.098 176.255  1.00  0.00     0.192 C 
ATOM     15  C   UNL     1      87.252 183.524 175.946  1.00  0.00     0.096 C 
ATOM     16  O   UNL     1      88.545 183.138 176.327  1.00  0.00    -0.362 OA
ATOM     17  C   UNL     1      86.561 184.316 177.058  1.00  0.00     0.045 C 
BRANCH  15  18
ATOM     18  C   UNL     1      87.239 184.146 174.530  1.00  0.00     0.042 C 
BRANCH  18  19
ATOM     19  C   UNL     1      88.541 184.799 174.031  1.00  0.00     0.030 CG0
ATOM     20  G   UNL     1      89.322 183.957 173.040  1.00  0.00     0.000 G0
ENDBRANCH  18  19
ENDBRANCH  15  18
ENDBRANCH   1  14
TORSDOF 0
ENDMDL
MODEL 6
REMARK VINA RESULT:    -1.485      5.363      8.026
REMARK INTER + INTRA:          -2.099
REMARK INTER:                  -1.895
REMARK INTRA:                  -0.203
REMARK UNBOUND:                -0.093
REMARK SMILES C=C1C(=O)O[C@H]2[C@H]3O[C@@]3(C)CCC=C(C)CC[C@@H]12
REMARK SMILES IDX 6 1 18 2 2 3 1 4 3 5 4 6 5 7 17 8 16 9 14 10 15 11 13 12
REMARK SMILES IDX 7 14 9 15 8 16 10 17 11 18 12 19
REMARK H PARENT
REMARK Flexibility Score: 70.00
ROOT
ATOM      1  C   UNL     1      86.063 182.565 176.806  1.00  0.00     0.216 C 
ATOM      2  C   UNL     1      87.213 183.647 176.873  1.00  0.00     0.070 C 
ATOM      3  C   UNL     1      88.356 182.954 176.186  1.00  0.00     0.037 C 
ATOM      4  C   UNL     1      89.661 183.223 176.249  1.00  0.00     0.021 C 
ATOM      5  C   UNL     1      87.729 181.985 175.312  1.00  0.00     0.334 C 
ATOM      6  O   UNL     1      88.308 181.327 174.409  1.00  0.00    -0.247 OA
ATOM      7  O   UNL     1      86.375 181.894 175.583  1.00  0.00    -0.455 OA
ENDROOT
BRANCH   2   8
ATOM      8  C   UNL     1      87.535 184.587 178.079  1.00  0.00     0.017 C 
BRANCH   8   9
ATOM      9  C   UNL     1      86.471 184.740 179.170  1.00  0.00     0.031 C 
BRANCH   9  10
ATOM     10  C   UNL     1      85.073 185.211 178.728  1.00  0.00    -0.077 C 
ATOM     11  C   UNL     1      85.009 186.563 178.053  1.00  0.00     0.039 C 
ATOM     12  C   UNL     1      83.867 184.606 178.957  1.00  0.00    -0.028 CG0
ATOM     13  G   UNL     1      83.552 183.272 179.608  1.00  0.00     0.000 G0
ENDBRANCH   9  10
ENDBRANCH   8   9
ENDBRANCH   2   8
BRANCH   1  14
ATOM     14  C   UNL     1      86.021 181.411 177.850  1.00  0.00     0.192 C 
ATOM     15  C   UNL     1      84.756 181.141 178.613  1.00  0.00     0.096 C 
ATOM     16  O   UNL     1      85.871 181.756 179.201  1.00  0.00    -0.362 OA
ATOM     17  C   UNL     1      84.564 179.720 179.145  1.00  0.00     0.045 C 
BRANCH  15  18
ATOM     18  C   UNL     1      83.520 182.070 178.631  1.00  0.00     0.042 C 
BRANCH  18  19
ATOM     19  C   UNL     1      83.545 183.264 179.603  1.00  0.00     0.030 CG0
ATOM     20  G   UNL     1      83.855 184.597 178.948  1.00  0.00     0.000 G0
ENDBRANCH  18  19
ENDBRANCH  15  18
ENDBRANCH   1  14
TORSDOF 0
ENDMDL
MODEL 7
REMARK VINA RESULT:    -1.480      5.712      8.045
REMARK INTER + INTRA:          -2.091
REMARK INTER:                  -1.889
REMARK INTRA:                  -0.203
REMARK UNBOUND:                -0.093
REMARK SMILES C=C1C(=O)O[C@H]2[C@H]3O[C@@]3(C)CCC=C(C)CC[C@@H]12
REMARK SMILES IDX 6 1 18 2 2 3 1 4 3 5 4 6 5 7 17 8 16 9 14 10 15 11 13 12
REMARK SMILES IDX 7 14 9 15 8 16 10 17 11 18 12 19
REMARK H PARENT
REMARK Flexibility Score: 70.00
ROOT
ATOM      1  C   UNL     1      85.920 182.771 178.870  1.00  0.00     0.216 C 
ATOM      2  C   UNL     1      86.569 182.297 177.509  1.00  0.00     0.070 C 
ATOM      3  C   UNL     1      87.155 183.569 176.964  1.00  0.00     0.037 C 
ATOM      4  C   UNL     1      87.512 183.861 175.712  1.00  0.00     0.021 C 
ATOM      5  C   UNL     1      87.385 184.398 178.129  1.00  0.00     0.334 C 
ATOM      6  O   UNL     1      88.046 185.469 178.150  1.00  0.00    -0.247 OA
ATOM      7  O   UNL     1      86.796 183.835 179.247  1.00  0.00    -0.455 OA
ENDROOT
BRANCH   2   8
ATOM      8  C   UNL     1      85.965 181.269 176.500  1.00  0.00     0.017 C 
BRANCH   8   9
ATOM      9  C   UNL     1      84.822 180.375 176.988  1.00  0.00     0.031 C 
BRANCH   9  10
ATOM     10  C   UNL     1      85.084 179.520 178.242  1.00  0.00    -0.077 C 
ATOM     11  C   UNL     1      86.228 178.535 178.149  1.00  0.00     0.039 C 
ATOM     12  C   UNL     1      84.352 179.469 179.398  1.00  0.00    -0.028 CG0
ATOM     13  G   UNL     1      83.150 180.288 179.828  1.00  0.00     0.000 G0
ENDBRANCH   9  10
ENDBRANCH   8   9
ENDBRANCH   2   8
BRANCH   1  14
ATOM     14  C   UNL     1      84.515 183.444 178.866  1.00  0.00     0.192 C 
ATOM     15  C   UNL     1      83.439 182.927 179.776  1.00  0.00     0.096 C 
ATOM     16  O   UNL     1      83.431 182.691 178.394  1.00  0.00    -0.362 OA
ATOM     17  C   UNL     1      82.342 183.916 180.175  1.00  0.00     0.045 C 
BRANCH  15  18
ATOM     18  C   UNL     1      83.517 181.606 180.577  1.00  0.00     0.042 C 
BRANCH  18  19
ATOM     19  C   UNL     1      83.155 180.305 179.836  1.00  0.00     0.030 CG0
ATOM     20  G   UNL     1      84.351 179.474 179.412  1.00  0.00     0.000 G0
ENDBRANCH  18  19
ENDBRANCH  15  18
ENDBRANCH   1  14
TORSDOF 0
ENDMDL
MODEL 8
REMARK VINA RESULT:    -1.436      2.884      4.764
REMARK INTER + INTRA:          -2.032
REMARK INTER:                  -1.816
REMARK INTRA:                  -0.217
REMARK UNBOUND:                -0.093
REMARK SMILES C=C1C(=O)O[C@H]2[C@H]3O[C@@]3(C)CCC=C(C)CC[C@@H]12
REMARK SMILES IDX 6 1 18 2 2 3 1 4 3 5 4 6 5 7 17 8 16 9 14 10 15 11 13 12
REMARK SMILES IDX 7 14 9 15 8 16 10 17 11 18 12 19
REMARK H PARENT
REMARK Flexibility Score: 70.00
ROOT
ATOM      1  C   UNL     1      87.175 181.765 176.086  1.00  0.00     0.216 C 
ATOM      2  C   UNL     1      88.692 182.190 175.952  1.00  0.00     0.070 C 
ATOM      3  C   UNL     1      88.647 183.663 176.247  1.00  0.00     0.037 C 
ATOM      4  C   UNL     1      89.541 184.607 175.948  1.00  0.00     0.021 C 
ATOM      5  C   UNL     1      87.464 183.840 177.063  1.00  0.00     0.334 C 
ATOM      6  O   UNL     1      87.157 184.884 177.696  1.00  0.00    -0.247 OA
ATOM      7  O   UNL     1      86.711 182.679 177.082  1.00  0.00    -0.455 OA
ENDROOT
BRANCH   2   8
ATOM      8  C   UNL     1      89.707 181.681 174.879  1.00  0.00     0.017 C 
BRANCH   8   9
ATOM      9  C   UNL     1      89.377 180.381 174.141  1.00  0.00     0.031 C 
BRANCH   9  10
ATOM     10  C   UNL     1      89.020 179.155 175.001  1.00  0.00    -0.077 C 
ATOM     11  C   UNL     1      90.098 178.666 175.943  1.00  0.00     0.039 C 
ATOM     12  C   UNL     1      87.885 178.390 174.952  1.00  0.00    -0.028 CG0
ATOM     13  G   UNL     1      86.623 178.569 174.131  1.00  0.00     0.000 G0
ENDBRANCH   9  10
ENDBRANCH   8   9
ENDBRANCH   2   8
BRANCH   1  14
ATOM     14  C   UNL     1      86.196 181.997 174.898  1.00  0.00     0.192 C 
ATOM     15  C   UNL     1      85.342 180.866 174.405  1.00  0.00     0.096 C 
ATOM     16  O   UNL     1      86.458 181.329 173.694  1.00  0.00    -0.362 OA
ATOM     17  C   UNL     1      84.039 181.245 173.697  1.00  0.00     0.045 C 
BRANCH  15  18
ATOM     18  C   UNL     1      85.507 179.386 174.821  1.00  0.00     0.042 C 
BRANCH  18  19
ATOM     19  C   UNL     1      86.613 178.572 174.124  1.00  0.00     0.030 CG0
ATOM     20  G   UNL     1      87.875 178.398 174.949  1.00  0.00     0.000 G0
ENDBRANCH  18  19
ENDBRANCH  15  18
ENDBRANCH   1  14
TORSDOF 0
ENDMDL
MODEL 9
REMARK VINA RESULT:    -1.418      3.056      4.695
REMARK INTER + INTRA:          -2.008
REMARK INTER:                  -1.804
REMARK INTRA:                  -0.204
REMARK UNBOUND:                -0.093
REMARK SMILES C=C1C(=O)O[C@H]2[C@H]3O[C@@]3(C)CCC=C(C)CC[C@@H]12
REMARK SMILES IDX 6 1 18 2 2 3 1 4 3 5 4 6 5 7 17 8 16 9 14 10 15 11 13 12
REMARK SMILES IDX 7 14 9 15 8 16 10 17 11 18 12 19
REMARK H PARENT
REMARK Flexibility Score: 70.00
ROOT
ATOM      1  C   UNL     1      88.206 183.262 175.552  1.00  0.00     0.216 C 
ATOM      2  C   UNL     1      89.174 182.238 174.837  1.00  0.00     0.070 C 
ATOM      3  C   UNL     1      88.701 180.914 175.366  1.00  0.00     0.037 C 
ATOM      4  C   UNL     1      89.341 179.744 175.395  1.00  0.00     0.021 C 
ATOM      5  C   UNL     1      87.318 181.136 175.732  1.00  0.00     0.334 C 
ATOM      6  O   UNL     1      86.484 180.241 176.033  1.00  0.00    -0.247 OA
ATOM      7  O   UNL     1      87.013 182.485 175.679  1.00  0.00    -0.455 OA
ENDROOT
BRANCH   2   8
ATOM      8  C   UNL     1      90.704 182.429 174.582  1.00  0.00     0.017 C 
BRANCH   8   9
ATOM      9  C   UNL     1      91.261 183.855 174.610  1.00  0.00     0.031 C 
BRANCH   9  10
ATOM     10  C   UNL     1      90.520 184.916 173.776  1.00  0.00    -0.077 C 
ATOM     11  C   UNL     1      90.481 184.680 172.283  1.00  0.00     0.039 C 
ATOM     12  C   UNL     1      89.977 186.098 174.203  1.00  0.00    -0.028 CG0
ATOM     13  G   UNL     1      89.850 186.664 175.605  1.00  0.00     0.000 G0
ENDBRANCH   9  10
ENDBRANCH   8   9
ENDBRANCH   2   8
BRANCH   1  14
ATOM     14  C   UNL     1      88.498 183.715 177.013  1.00  0.00     0.192 C 
ATOM     15  C   UNL     1      88.524 185.178 177.349  1.00  0.00     0.096 C 
ATOM     16  O   UNL     1      89.692 184.408 177.257  1.00  0.00    -0.362 OA
ATOM     17  C   UNL     1      88.223 185.556 178.800  1.00  0.00     0.045 C 
BRANCH  15  18
ATOM     18  C   UNL     1      88.516 186.324 176.310  1.00  0.00     0.042 C 
BRANCH  18  19
ATOM     19  C   UNL     1      89.848 186.659 175.614  1.00  0.00     0.030 CG0
ATOM     20  G   UNL     1      89.982 186.092 174.214  1.00  0.00     0.000 G0
ENDBRANCH  18  19
ENDBRANCH  15  18
ENDBRANCH   1  14
TORSDOF 0
ENDMDL
