MODEL 1
REMARK VINA RESULT:    -5.053      0.000      0.000
REMARK INTER + INTRA:          -6.167
REMARK INTER:                  -6.087
REMARK INTRA:                  -0.079
REMARK UNBOUND:                -0.079
REMARK SMILES CC[C@@H](C)[C@H]([NH3+])C(=O)[O-]
REMARK SMILES IDX 3 1 4 2 5 3 6 4 7 8 8 9 9 10 2 11 1 12
REMARK H PARENT 6 5 6 6 6 7
REMARK Flexibility Score: inf
ROOT
ATOM      1  C   UNL     1     -20.860  69.325   0.227  1.00  0.00     0.050 C 
ATOM      2  C   UNL     1     -21.506  68.699   1.476  1.00  0.00     0.014 C 
ENDROOT
BRANCH   1   3
ATOM      3  C   UNL     1     -21.291  68.591  -1.082  1.00  0.00     0.230 C 
BRANCH   3   4
ATOM      4  N   UNL     1     -22.580  67.902  -0.915  1.00  0.00    -0.350 N 
ATOM      5  H   UNL     1     -23.359  68.598  -0.876  1.00  0.00     0.345 HD
ATOM      6  H   UNL     1     -22.583  67.325  -0.043  1.00  0.00     0.345 HD
ATOM      7  H   UNL     1     -22.763  67.280  -1.736  1.00  0.00     0.345 HD
ENDBRANCH   3   4
BRANCH   3   8
ATOM      8  C   UNL     1     -20.246  67.590  -1.508  1.00  0.00     0.099 C 
ATOM      9  O   UNL     1     -19.042  67.752  -1.181  1.00  0.00    -0.544 OA
ATOM     10  O   UNL     1     -20.607  66.482  -2.266  1.00  0.00    -0.544 OA
ENDBRANCH   3   8
ENDBRANCH   1   3
BRANCH   1  11
ATOM     11  C   UNL     1     -21.115  70.858   0.188  1.00  0.00     0.006 C 
ATOM     12  C   UNL     1     -21.687  71.440   1.483  1.00  0.00     0.004 C 
ENDBRANCH   1  11
TORSDOF 4
ENDMDL
MODEL 2
REMARK VINA RESULT:    -5.016      1.665      2.084
REMARK INTER + INTRA:          -6.122
REMARK INTER:                  -6.056
REMARK INTRA:                  -0.066
REMARK UNBOUND:                -0.079
REMARK SMILES CC[C@@H](C)[C@H]([NH3+])C(=O)[O-]
REMARK SMILES IDX 3 1 4 2 5 3 6 4 7 8 8 9 9 10 2 11 1 12
REMARK H PARENT 6 5 6 6 6 7
REMARK Flexibility Score: inf
ROOT
ATOM      1  C   UNL     1     -21.595  68.072  -0.142  1.00  0.00     0.050 C 
ATOM      2  C   UNL     1     -22.953  68.132  -0.865  1.00  0.00     0.014 C 
ENDROOT
BRANCH   1   3
ATOM      3  C   UNL     1     -20.405  67.976  -1.148  1.00  0.00     0.230 C 
BRANCH   3   4
ATOM      4  N   UNL     1     -20.525  66.793  -2.014  1.00  0.00    -0.350 N 
ATOM      5  H   UNL     1     -20.634  65.930  -1.435  1.00  0.00     0.345 HD
ATOM      6  H   UNL     1     -19.685  66.696  -2.630  1.00  0.00     0.345 HD
ATOM      7  H   UNL     1     -21.379  66.872  -2.614  1.00  0.00     0.345 HD
ENDBRANCH   3   4
BRANCH   3   8
ATOM      8  C   UNL     1     -19.085  67.924  -0.419  1.00  0.00     0.099 C 
ATOM      9  O   UNL     1     -18.253  68.859  -0.548  1.00  0.00    -0.544 OA
ATOM     10  O   UNL     1     -18.780  66.843   0.400  1.00  0.00    -0.544 OA
ENDBRANCH   3   8
ENDBRANCH   1   3
BRANCH   1  11
ATOM     11  C   UNL     1     -21.458  69.248   0.865  1.00  0.00     0.006 C 
ATOM     12  C   UNL     1     -21.238  70.617   0.217  1.00  0.00     0.004 C 
ENDBRANCH   1  11
TORSDOF 4
ENDMDL
MODEL 3
REMARK VINA RESULT:    -4.994      2.448      3.561
REMARK INTER + INTRA:          -6.096
REMARK INTER:                  -6.088
REMARK INTRA:                  -0.008
REMARK UNBOUND:                -0.079
REMARK SMILES CC[C@@H](C)[C@H]([NH3+])C(=O)[O-]
REMARK SMILES IDX 3 1 4 2 5 3 6 4 7 8 8 9 9 10 2 11 1 12
REMARK H PARENT 6 5 6 6 6 7
REMARK Flexibility Score: inf
ROOT
ATOM      1  C   UNL     1     -20.658  68.133  -1.225  1.00  0.00     0.050 C 
ATOM      2  C   UNL     1     -20.576  66.855  -2.081  1.00  0.00     0.014 C 
ENDROOT
BRANCH   1   3
ATOM      3  C   UNL     1     -21.766  68.030  -0.130  1.00  0.00     0.230 C 
BRANCH   3   4
ATOM      4  N   UNL     1     -23.097  68.327  -0.679  1.00  0.00    -0.350 N 
ATOM      5  H   UNL     1     -23.087  68.240  -1.720  1.00  0.00     0.345 HD
ATOM      6  H   UNL     1     -23.403  69.291  -0.412  1.00  0.00     0.345 HD
ATOM      7  H   UNL     1     -23.796  67.637  -0.318  1.00  0.00     0.345 HD
ENDBRANCH   3   4
BRANCH   3   8
ATOM      8  C   UNL     1     -21.481  68.969   1.016  1.00  0.00     0.099 C 
ATOM      9  O   UNL     1     -21.168  68.514   2.146  1.00  0.00    -0.544 OA
ATOM     10  O   UNL     1     -21.563  70.344   0.829  1.00  0.00    -0.544 OA
ENDBRANCH   3   8
ENDBRANCH   1   3
BRANCH   1  11
ATOM     11  C   UNL     1     -19.260  68.503  -0.657  1.00  0.00     0.006 C 
ATOM     12  C   UNL     1     -18.418  67.305  -0.210  1.00  0.00     0.004 C 
ENDBRANCH   1  11
TORSDOF 4
ENDMDL
MODEL 4
REMARK VINA RESULT:    -4.953      2.008      2.691
REMARK INTER + INTRA:          -6.046
REMARK INTER:                  -5.982
REMARK INTRA:                  -0.064
REMARK UNBOUND:                -0.079
REMARK SMILES CC[C@@H](C)[C@H]([NH3+])C(=O)[O-]
REMARK SMILES IDX 3 1 4 2 5 3 6 4 7 8 8 9 9 10 2 11 1 12
REMARK H PARENT 6 5 6 6 6 7
REMARK Flexibility Score: inf
ROOT
ATOM      1  C   UNL     1     -20.785  69.321  -0.474  1.00  0.00     0.050 C 
ATOM      2  C   UNL     1     -20.944  70.773   0.016  1.00  0.00     0.014 C 
ENDROOT
BRANCH   1   3
ATOM      3  C   UNL     1     -19.326  68.800  -0.282  1.00  0.00     0.230 C 
BRANCH   3   4
ATOM      4  N   UNL     1     -18.401  69.416  -1.245  1.00  0.00    -0.350 N 
ATOM      5  H   UNL     1     -17.786  68.688  -1.674  1.00  0.00     0.345 HD
ATOM      6  H   UNL     1     -17.810  70.143  -0.781  1.00  0.00     0.345 HD
ATOM      7  H   UNL     1     -18.939  69.862  -2.024  1.00  0.00     0.345 HD
ENDBRANCH   3   4
BRANCH   3   8
ATOM      8  C   UNL     1     -19.266  67.299  -0.430  1.00  0.00     0.099 C 
ATOM      9  O   UNL     1     -18.852  66.585   0.521  1.00  0.00    -0.544 OA
ATOM     10  O   UNL     1     -19.667  66.696  -1.615  1.00  0.00    -0.544 OA
ENDBRANCH   3   8
ENDBRANCH   1   3
BRANCH   1  11
ATOM     11  C   UNL     1     -21.859  68.404   0.174  1.00  0.00     0.006 C 
ATOM     12  C   UNL     1     -22.951  67.927  -0.787  1.00  0.00     0.004 C 
ENDBRANCH   1  11
TORSDOF 4
ENDMDL
MODEL 5
REMARK VINA RESULT:    -4.757      2.480      3.773
REMARK INTER + INTRA:          -5.809
REMARK INTER:                  -5.670
REMARK INTRA:                  -0.140
REMARK UNBOUND:                -0.079
REMARK SMILES CC[C@@H](C)[C@H]([NH3+])C(=O)[O-]
REMARK SMILES IDX 3 1 4 2 5 3 6 4 7 8 8 9 9 10 2 11 1 12
REMARK H PARENT 6 5 6 6 6 7
REMARK Flexibility Score: inf
ROOT
ATOM      1  C   UNL     1     -21.662  68.488  -0.898  1.00  0.00     0.050 C 
ATOM      2  C   UNL     1     -23.020  67.810  -1.155  1.00  0.00     0.014 C 
ENDROOT
BRANCH   1   3
ATOM      3  C   UNL     1     -21.496  68.912   0.595  1.00  0.00     0.230 C 
BRANCH   3   4
ATOM      4  N   UNL     1     -22.644  68.484   1.409  1.00  0.00    -0.350 N 
ATOM      5  H   UNL     1     -22.510  68.774   2.404  1.00  0.00     0.345 HD
ATOM      6  H   UNL     1     -22.768  67.447   1.361  1.00  0.00     0.345 HD
ATOM      7  H   UNL     1     -23.518  68.947   1.067  1.00  0.00     0.345 HD
ENDBRANCH   3   4
BRANCH   3   8
ATOM      8  C   UNL     1     -21.333  70.407   0.716  1.00  0.00     0.099 C 
ATOM      9  O   UNL     1     -20.879  71.075  -0.249  1.00  0.00    -0.544 OA
ATOM     10  O   UNL     1     -21.682  71.055   1.895  1.00  0.00    -0.544 OA
ENDBRANCH   3   8
ENDBRANCH   1   3
BRANCH   1  11
ATOM     11  C   UNL     1     -20.498  67.599  -1.421  1.00  0.00     0.006 C 
ATOM     12  C   UNL     1     -19.207  67.699  -0.604  1.00  0.00     0.004 C 
ENDBRANCH   1  11
TORSDOF 4
ENDMDL
MODEL 6
REMARK VINA RESULT:    -4.718      2.575      3.822
REMARK INTER + INTRA:          -5.762
REMARK INTER:                  -5.714
REMARK INTRA:                  -0.049
REMARK UNBOUND:                -0.079
REMARK SMILES CC[C@@H](C)[C@H]([NH3+])C(=O)[O-]
REMARK SMILES IDX 3 1 4 2 5 3 6 4 7 8 8 9 9 10 2 11 1 12
REMARK H PARENT 6 5 6 6 6 7
REMARK Flexibility Score: inf
ROOT
ATOM      1  C   UNL     1     -20.063  68.028  -0.754  1.00  0.00     0.050 C 
ATOM      2  C   UNL     1     -18.713  68.767  -0.807  1.00  0.00     0.014 C 
ENDROOT
BRANCH   1   3
ATOM      3  C   UNL     1     -21.268  69.020  -0.711  1.00  0.00     0.230 C 
BRANCH   3   4
ATOM      4  N   UNL     1     -20.962  70.204   0.106  1.00  0.00    -0.350 N 
ATOM      5  H   UNL     1     -20.028  70.593  -0.155  1.00  0.00     0.345 HD
ATOM      6  H   UNL     1     -20.968  69.966   1.124  1.00  0.00     0.345 HD
ATOM      7  H   UNL     1     -21.669  70.955  -0.071  1.00  0.00     0.345 HD
ENDBRANCH   3   4
BRANCH   3   8
ATOM      8  C   UNL     1     -22.502  68.346  -0.164  1.00  0.00     0.099 C 
ATOM      9  O   UNL     1     -22.719  68.331   1.076  1.00  0.00    -0.544 OA
ATOM     10  O   UNL     1     -23.406  67.737  -1.025  1.00  0.00    -0.544 OA
ENDBRANCH   3   8
ENDBRANCH   1   3
BRANCH   1  11
ATOM     11  C   UNL     1     -20.162  66.986  -1.903  1.00  0.00     0.006 C 
ATOM     12  C   UNL     1     -19.347  65.710  -1.677  1.00  0.00     0.004 C 
ENDBRANCH   1  11
TORSDOF 4
ENDMDL
MODEL 7
REMARK VINA RESULT:    -4.208      1.991      2.552
REMARK INTER + INTRA:          -5.148
REMARK INTER:                  -5.008
REMARK INTRA:                  -0.140
REMARK UNBOUND:                -0.079
REMARK SMILES CC[C@@H](C)[C@H]([NH3+])C(=O)[O-]
REMARK SMILES IDX 3 1 4 2 5 3 6 4 7 8 8 9 9 10 2 11 1 12
REMARK H PARENT 6 5 6 6 6 7
REMARK Flexibility Score: inf
ROOT
ATOM      1  C   UNL     1     -19.930  68.868  -0.866  1.00  0.00     0.050 C 
ATOM      2  C   UNL     1     -18.528  69.506  -0.863  1.00  0.00     0.014 C 
ENDROOT
BRANCH   1   3
ATOM      3  C   UNL     1     -19.884  67.360  -0.463  1.00  0.00     0.230 C 
BRANCH   3   4
ATOM      4  N   UNL     1     -18.618  67.017   0.201  1.00  0.00    -0.350 N 
ATOM      5  H   UNL     1     -18.550  67.503   1.124  1.00  0.00     0.345 HD
ATOM      6  H   UNL     1     -17.801  67.284  -0.394  1.00  0.00     0.345 HD
ATOM      7  H   UNL     1     -18.579  65.989   0.391  1.00  0.00     0.345 HD
ENDBRANCH   3   4
BRANCH   3   8
ATOM      8  C   UNL     1     -20.065  66.474  -1.671  1.00  0.00     0.099 C 
ATOM      9  O   UNL     1     -20.974  66.719  -2.506  1.00  0.00    -0.544 OA
ATOM     10  O   UNL     1     -19.231  65.381  -1.867  1.00  0.00    -0.544 OA
ENDBRANCH   3   8
ENDBRANCH   1   3
BRANCH   1  11
ATOM     11  C   UNL     1     -20.915  69.707  -0.006  1.00  0.00     0.006 C 
ATOM     12  C   UNL     1     -21.998  68.887   0.701  1.00  0.00     0.004 C 
ENDBRANCH   1  11
TORSDOF 4
ENDMDL
MODEL 8
REMARK VINA RESULT:    -3.882      2.184      3.046
REMARK INTER + INTRA:          -4.755
REMARK INTER:                  -4.961
REMARK INTRA:                   0.206
REMARK UNBOUND:                -0.079
REMARK SMILES CC[C@@H](C)[C@H]([NH3+])C(=O)[O-]
REMARK SMILES IDX 3 1 4 2 5 3 6 4 7 8 8 9 9 10 2 11 1 12
REMARK H PARENT 6 5 6 6 6 7
REMARK Flexibility Score: inf
ROOT
ATOM      1  C   UNL     1     -21.315  67.878  -0.539  1.00  0.00     0.050 C 
ATOM      2  C   UNL     1     -20.808  67.317  -1.881  1.00  0.00     0.014 C 
ENDROOT
BRANCH   1   3
ATOM      3  C   UNL     1     -20.282  68.852   0.111  1.00  0.00     0.230 C 
BRANCH   3   4
ATOM      4  N   UNL     1     -20.685  70.256  -0.056  1.00  0.00    -0.350 N 
ATOM      5  H   UNL     1     -19.898  70.813  -0.460  1.00  0.00     0.345 HD
ATOM      6  H   UNL     1     -20.973  70.672   0.859  1.00  0.00     0.345 HD
ATOM      7  H   UNL     1     -21.485  70.323  -0.727  1.00  0.00     0.345 HD
ENDBRANCH   3   4
BRANCH   3   8
ATOM      8  C   UNL     1     -18.909  68.657  -0.483  1.00  0.00     0.099 C 
ATOM      9  O   UNL     1     -18.393  69.557  -1.196  1.00  0.00    -0.544 OA
ATOM     10  O   UNL     1     -18.205  67.483  -0.245  1.00  0.00    -0.544 OA
ENDBRANCH   3   8
ENDBRANCH   1   3
BRANCH   1  11
ATOM     11  C   UNL     1     -22.730  68.499  -0.704  1.00  0.00     0.006 C 
ATOM     12  C   UNL     1     -23.791  67.530  -1.233  1.00  0.00     0.004 C 
ENDBRANCH   1  11
TORSDOF 4
ENDMDL
MODEL 9
REMARK VINA RESULT:    -3.771      1.739      2.156
REMARK INTER + INTRA:          -4.622
REMARK INTER:                  -4.508
REMARK INTRA:                  -0.114
REMARK UNBOUND:                -0.079
REMARK SMILES CC[C@@H](C)[C@H]([NH3+])C(=O)[O-]
REMARK SMILES IDX 3 1 4 2 5 3 6 4 7 8 8 9 9 10 2 11 1 12
REMARK H PARENT 6 5 6 6 6 7
REMARK Flexibility Score: inf
ROOT
ATOM      1  C   UNL     1     -20.502  69.840  -0.568  1.00  0.00     0.050 C 
ATOM      2  C   UNL     1     -18.974  69.697  -0.695  1.00  0.00     0.014 C 
ENDROOT
BRANCH   1   3
ATOM      3  C   UNL     1     -21.152  68.576   0.078  1.00  0.00     0.230 C 
BRANCH   3   4
ATOM      4  N   UNL     1     -20.154  67.754   0.779  1.00  0.00    -0.350 N 
ATOM      5  H   UNL     1     -20.001  68.118   1.747  1.00  0.00     0.345 HD
ATOM      6  H   UNL     1     -19.246  67.748   0.261  1.00  0.00     0.345 HD
ATOM      7  H   UNL     1     -20.500  66.770   0.870  1.00  0.00     0.345 HD
ENDBRANCH   3   4
BRANCH   3   8
ATOM      8  C   UNL     1     -21.845  67.733  -0.963  1.00  0.00     0.099 C 
ATOM      9  O   UNL     1     -21.170  67.045  -1.773  1.00  0.00    -0.544 OA
ATOM     10  O   UNL     1     -23.233  67.710  -1.035  1.00  0.00    -0.544 OA
ENDBRANCH   3   8
ENDBRANCH   1   3
BRANCH   1  11
ATOM     11  C   UNL     1     -20.871  71.163   0.157  1.00  0.00     0.006 C 
ATOM     12  C   UNL     1     -21.683  70.979   1.442  1.00  0.00     0.004 C 
ENDBRANCH   1  11
TORSDOF 4
ENDMDL
