MODEL 1
REMARK VINA RESULT:    -3.047      0.000      0.000
REMARK INTER + INTRA:          -3.380
REMARK INTER:                  -3.225
REMARK INTRA:                  -0.155
REMARK UNBOUND:                -0.155
REMARK SMILES C=C(C)[C@@H]1CC=C(C)CC1
REMARK SMILES IDX 8 1 7 2 6 3 5 4 4 5 10 6 9 7 2 8 1 9 3 10
REMARK H PARENT
REMARK Flexibility Score: inf
ROOT
ATOM      1  C   UNL     1     136.375 134.875 161.634  1.00  0.00     0.039 C 
ATOM      2  C   UNL     1     136.232 136.370 161.711  1.00  0.00    -0.077 C 
ATOM      3  C   UNL     1     137.321 137.154 161.687  1.00  0.00    -0.027 C 
ATOM      4  C   UNL     1     137.160 138.644 161.816  1.00  0.00     0.035 C 
ATOM      5  C   UNL     1     136.182 138.978 162.969  1.00  0.00     0.018 C 
ATOM      6  C   UNL     1     134.904 138.075 162.985  1.00  0.00     0.013 C 
ATOM      7  C   UNL     1     134.876 137.020 161.863  1.00  0.00     0.031 C 
ENDROOT
BRANCH   5   8
ATOM      8  C   UNL     1     135.831 140.460 162.966  1.00  0.00    -0.077 C 
ATOM      9  C   UNL     1     134.877 140.944 163.778  1.00  0.00     0.008 C 
ATOM     10  C   UNL     1     136.553 141.412 162.047  1.00  0.00     0.039 C 
ENDBRANCH   5   8
TORSDOF 1
ENDMDL
MODEL 2
REMARK VINA RESULT:    -2.543      1.242      4.394
REMARK INTER + INTRA:          -2.847
REMARK INTER:                  -2.686
REMARK INTRA:                  -0.161
REMARK UNBOUND:                -0.155
REMARK SMILES C=C(C)[C@@H]1CC=C(C)CC1
REMARK SMILES IDX 8 1 7 2 6 3 5 4 4 5 10 6 9 7 2 8 1 9 3 10
REMARK H PARENT
REMARK Flexibility Score: inf
ROOT
ATOM      1  C   UNL     1     135.105 140.969 163.007  1.00  0.00     0.039 C 
ATOM      2  C   UNL     1     135.385 139.496 162.895  1.00  0.00    -0.077 C 
ATOM      3  C   UNL     1     136.129 138.877 163.825  1.00  0.00    -0.027 C 
ATOM      4  C   UNL     1     136.440 137.415 163.668  1.00  0.00     0.035 C 
ATOM      5  C   UNL     1     136.889 137.116 162.216  1.00  0.00     0.018 C 
ATOM      6  C   UNL     1     136.008 137.823 161.133  1.00  0.00     0.013 C 
ATOM      7  C   UNL     1     134.879 138.690 161.721  1.00  0.00     0.031 C 
ENDROOT
BRANCH   5   8
ATOM      8  C   UNL     1     136.984 135.615 161.979  1.00  0.00    -0.077 C 
ATOM      9  C   UNL     1     135.937 134.925 161.496  1.00  0.00     0.008 C 
ATOM     10  C   UNL     1     138.262 134.875 162.284  1.00  0.00     0.039 C 
ENDBRANCH   5   8
TORSDOF 1
ENDMDL
MODEL 3
REMARK VINA RESULT:    -2.504      1.164      4.371
REMARK INTER + INTRA:          -2.805
REMARK INTER:                  -2.643
REMARK INTRA:                  -0.162
REMARK UNBOUND:                -0.155
REMARK SMILES C=C(C)[C@@H]1CC=C(C)CC1
REMARK SMILES IDX 8 1 7 2 6 3 5 4 4 5 10 6 9 7 2 8 1 9 3 10
REMARK H PARENT
REMARK Flexibility Score: inf
ROOT
ATOM      1  C   UNL     1     134.899 141.343 163.409  1.00  0.00     0.039 C 
ATOM      2  C   UNL     1     135.446 140.062 162.843  1.00  0.00    -0.077 C 
ATOM      3  C   UNL     1     134.875 139.502 161.765  1.00  0.00    -0.027 C 
ATOM      4  C   UNL     1     135.404 138.194 161.245  1.00  0.00     0.035 C 
ATOM      5  C   UNL     1     135.624 137.203 162.414  1.00  0.00     0.018 C 
ATOM      6  C   UNL     1     136.308 137.853 163.663  1.00  0.00     0.013 C 
ATOM      7  C   UNL     1     136.612 139.353 163.493  1.00  0.00     0.031 C 
ENDROOT
BRANCH   5   8
ATOM      8  C   UNL     1     136.371 135.965 161.937  1.00  0.00    -0.077 C 
ATOM      9  C   UNL     1     135.705 134.876 161.519  1.00  0.00     0.008 C 
ATOM     10  C   UNL     1     137.879 135.941 161.927  1.00  0.00     0.039 C 
ENDBRANCH   5   8
TORSDOF 1
ENDMDL
