MODEL 1
REMARK VINA RESULT:    -4.096      0.000      0.000
REMARK INTER + INTRA:          -5.106
REMARK INTER:                  -5.054
REMARK INTRA:                  -0.052
REMARK UNBOUND:                -0.052
REMARK SMILES CCCCCC(C)=O
REMARK SMILES IDX 4 1 3 2 2 3 1 4 5 5 6 6 8 7 7 8
REMARK H PARENT
REMARK Flexibility Score: inf
ROOT
ATOM      1  C   UNL     1      25.885  57.073  -9.243  1.00  0.00     0.008 C 
ENDROOT
BRANCH   1   2
ATOM      2  C   UNL     1      26.241  58.560  -9.442  1.00  0.00     0.000 C 
BRANCH   2   3
ATOM      3  C   UNL     1      27.361  58.828 -10.464  1.00  0.00    -0.003 C 
ATOM      4  C   UNL     1      28.005  60.204 -10.299  1.00  0.00     0.004 C 
ENDBRANCH   2   3
ENDBRANCH   1   2
BRANCH   1   5
ATOM      5  C   UNL     1      24.506  56.830  -8.609  1.00  0.00     0.075 C 
BRANCH   5   6
ATOM      6  C   UNL     1      24.452  55.524  -7.857  1.00  0.00     0.129 C 
ATOM      7  O   UNL     1      25.464  54.848  -7.752  1.00  0.00    -0.300 OA
ATOM      8  C   UNL     1      23.176  55.030  -7.243  1.00  0.00     0.087 C 
ENDBRANCH   5   6
ENDBRANCH   1   5
TORSDOF 4
ENDMDL
MODEL 2
REMARK VINA RESULT:    -3.771      2.140      5.032
REMARK INTER + INTRA:          -4.705
REMARK INTER:                  -4.604
REMARK INTRA:                  -0.102
REMARK UNBOUND:                -0.052
REMARK SMILES CCCCCC(C)=O
REMARK SMILES IDX 4 1 3 2 2 3 1 4 5 5 6 6 8 7 7 8
REMARK H PARENT
REMARK Flexibility Score: inf
ROOT
ATOM      1  C   UNL     1      25.919  56.599  -8.534  1.00  0.00     0.008 C 
ENDROOT
BRANCH   1   2
ATOM      2  C   UNL     1      24.908  55.449  -8.346  1.00  0.00     0.000 C 
BRANCH   2   3
ATOM      3  C   UNL     1      24.077  55.522  -7.052  1.00  0.00    -0.003 C 
ATOM      4  C   UNL     1      22.737  54.795  -7.161  1.00  0.00     0.004 C 
ENDBRANCH   2   3
ENDBRANCH   1   2
BRANCH   1   5
ATOM      5  C   UNL     1      25.294  57.921  -9.009  1.00  0.00     0.075 C 
BRANCH   5   6
ATOM      6  C   UNL     1      26.329  58.874  -9.551  1.00  0.00     0.129 C 
ATOM      7  O   UNL     1      26.411  60.001  -9.087  1.00  0.00    -0.300 OA
ATOM      8  C   UNL     1      27.257  58.471 -10.659  1.00  0.00     0.087 C 
ENDBRANCH   5   6
ENDBRANCH   1   5
TORSDOF 4
ENDMDL
MODEL 3
REMARK VINA RESULT:    -3.754      2.340      5.330
REMARK INTER + INTRA:          -4.683
REMARK INTER:                  -4.623
REMARK INTRA:                  -0.060
REMARK UNBOUND:                -0.052
REMARK SMILES CCCCCC(C)=O
REMARK SMILES IDX 4 1 3 2 2 3 1 4 5 5 6 6 8 7 7 8
REMARK H PARENT
REMARK Flexibility Score: inf
ROOT
ATOM      1  C   UNL     1      26.036  58.235  -9.288  1.00  0.00     0.008 C 
ENDROOT
BRANCH   1   2
ATOM      2  C   UNL     1      25.717  56.767  -8.938  1.00  0.00     0.000 C 
BRANCH   2   3
ATOM      3  C   UNL     1      24.249  56.495  -8.562  1.00  0.00    -0.003 C 
ATOM      4  C   UNL     1      24.034  55.109  -7.958  1.00  0.00     0.004 C 
ENDBRANCH   2   3
ENDBRANCH   1   2
BRANCH   1   5
ATOM      5  C   UNL     1      27.001  58.409 -10.472  1.00  0.00     0.075 C 
BRANCH   5   6
ATOM      6  C   UNL     1      28.035  59.475 -10.207  1.00  0.00     0.129 C 
ATOM      7  O   UNL     1      27.758  60.413  -9.473  1.00  0.00    -0.300 OA
ATOM      8  C   UNL     1      29.395  59.417 -10.836  1.00  0.00     0.087 C 
ENDBRANCH   5   6
ENDBRANCH   1   5
TORSDOF 4
ENDMDL
MODEL 4
REMARK VINA RESULT:    -3.565      4.438      6.293
REMARK INTER + INTRA:          -4.450
REMARK INTER:                  -4.281
REMARK INTRA:                  -0.169
REMARK UNBOUND:                -0.052
REMARK SMILES CCCCCC(C)=O
REMARK SMILES IDX 4 1 3 2 2 3 1 4 5 5 6 6 8 7 7 8
REMARK H PARENT
REMARK Flexibility Score: inf
ROOT
ATOM      1  C   UNL     1      30.213  58.963 -12.710  1.00  0.00     0.008 C 
ENDROOT
BRANCH   1   2
ATOM      2  C   UNL     1      29.925  57.523 -13.182  1.00  0.00     0.000 C 
BRANCH   2   3
ATOM      3  C   UNL     1      31.165  56.725 -13.622  1.00  0.00    -0.003 C 
ATOM      4  C   UNL     1      32.368  57.614 -13.936  1.00  0.00     0.004 C 
ENDBRANCH   2   3
ENDBRANCH   1   2
BRANCH   1   5
ATOM      5  C   UNL     1      30.016  59.187 -11.202  1.00  0.00     0.075 C 
BRANCH   5   6
ATOM      6  C   UNL     1      28.637  59.708 -10.883  1.00  0.00     0.129 C 
ATOM      7  O   UNL     1      28.444  60.915 -10.845  1.00  0.00    -0.300 OA
ATOM      8  C   UNL     1      27.496  58.777 -10.601  1.00  0.00     0.087 C 
ENDBRANCH   5   6
ENDBRANCH   1   5
TORSDOF 4
ENDMDL
MODEL 5
REMARK VINA RESULT:    -3.535     16.521     18.503
REMARK INTER + INTRA:          -4.414
REMARK INTER:                  -4.208
REMARK INTRA:                  -0.206
REMARK UNBOUND:                -0.052
REMARK SMILES CCCCCC(C)=O
REMARK SMILES IDX 4 1 3 2 2 3 1 4 5 5 6 6 8 7 7 8
REMARK H PARENT
REMARK Flexibility Score: inf
ROOT
ATOM      1  C   UNL     1      17.322  43.235   1.654  1.00  0.00     0.008 C 
ENDROOT
BRANCH   1   2
ATOM      2  C   UNL     1      16.184  44.241   1.921  1.00  0.00     0.000 C 
BRANCH   2   3
ATOM      3  C   UNL     1      15.694  45.009   0.681  1.00  0.00    -0.003 C 
ATOM      4  C   UNL     1      14.407  45.794   0.934  1.00  0.00     0.004 C 
ENDBRANCH   2   3
ENDBRANCH   1   2
BRANCH   1   5
ATOM      5  C   UNL     1      18.715  43.725   2.084  1.00  0.00     0.075 C 
BRANCH   5   6
ATOM      6  C   UNL     1      19.625  43.949   0.903  1.00  0.00     0.129 C 
ATOM      7  O   UNL     1      20.568  43.193   0.718  1.00  0.00    -0.300 OA
ATOM      8  C   UNL     1      19.406  45.089  -0.047  1.00  0.00     0.087 C 
ENDBRANCH   5   6
ENDBRANCH   1   5
TORSDOF 4
ENDMDL
MODEL 6
REMARK VINA RESULT:    -3.480      6.212      7.478
REMARK INTER + INTRA:          -4.346
REMARK INTER:                  -4.080
REMARK INTRA:                  -0.266
REMARK UNBOUND:                -0.052
REMARK SMILES CCCCCC(C)=O
REMARK SMILES IDX 4 1 3 2 2 3 1 4 5 5 6 6 8 7 7 8
REMARK H PARENT
REMARK Flexibility Score: inf
ROOT
ATOM      1  C   UNL     1      30.262  57.299 -13.229  1.00  0.00     0.008 C 
ENDROOT
BRANCH   1   2
ATOM      2  C   UNL     1      31.489  56.686 -13.934  1.00  0.00     0.000 C 
BRANCH   2   3
ATOM      3  C   UNL     1      32.708  57.619 -14.041  1.00  0.00    -0.003 C 
ATOM      4  C   UNL     1      33.989  56.996 -13.488  1.00  0.00     0.004 C 
ENDBRANCH   2   3
ENDBRANCH   1   2
BRANCH   1   5
ATOM      5  C   UNL     1      30.306  58.830 -13.096  1.00  0.00     0.075 C 
BRANCH   5   6
ATOM      6  C   UNL     1      30.119  59.280 -11.669  1.00  0.00     0.129 C 
ATOM      7  O   UNL     1      29.044  59.746 -11.322  1.00  0.00    -0.300 OA
ATOM      8  C   UNL     1      31.230  59.179 -10.667  1.00  0.00     0.087 C 
ENDBRANCH   5   6
ENDBRANCH   1   5
TORSDOF 4
ENDMDL
MODEL 7
REMARK VINA RESULT:    -3.471     14.999     16.509
REMARK INTER + INTRA:          -4.335
REMARK INTER:                  -4.228
REMARK INTRA:                  -0.107
REMARK UNBOUND:                -0.052
REMARK SMILES CCCCCC(C)=O
REMARK SMILES IDX 4 1 3 2 2 3 1 4 5 5 6 6 8 7 7 8
REMARK H PARENT
REMARK Flexibility Score: inf
ROOT
ATOM      1  C   UNL     1      31.856  45.414   1.172  1.00  0.00     0.008 C 
ENDROOT
BRANCH   1   2
ATOM      2  C   UNL     1      32.615  45.422   2.515  1.00  0.00     0.000 C 
BRANCH   2   3
ATOM      3  C   UNL     1      33.100  46.807   2.977  1.00  0.00    -0.003 C 
ATOM      4  C   UNL     1      32.066  47.551   3.821  1.00  0.00     0.004 C 
ENDBRANCH   2   3
ENDBRANCH   1   2
BRANCH   1   5
ATOM      5  C   UNL     1      30.325  45.360   1.309  1.00  0.00     0.075 C 
BRANCH   5   6
ATOM      6  C   UNL     1      29.653  45.007   0.006  1.00  0.00     0.129 C 
ATOM      7  O   UNL     1      30.181  44.199  -0.744  1.00  0.00    -0.300 OA
ATOM      8  C   UNL     1      28.353  45.636  -0.397  1.00  0.00     0.087 C 
ENDBRANCH   5   6
ENDBRANCH   1   5
TORSDOF 4
ENDMDL
MODEL 8
REMARK VINA RESULT:    -3.455     17.087     18.132
REMARK INTER + INTRA:          -4.315
REMARK INTER:                  -4.057
REMARK INTRA:                  -0.258
REMARK UNBOUND:                -0.052
REMARK SMILES CCCCCC(C)=O
REMARK SMILES IDX 4 1 3 2 2 3 1 4 5 5 6 6 8 7 7 8
REMARK H PARENT
REMARK Flexibility Score: inf
ROOT
ATOM      1  C   UNL     1      17.563  44.203   0.046  1.00  0.00     0.008 C 
ENDROOT
BRANCH   1   2
ATOM      2  C   UNL     1      19.014  44.723   0.078  1.00  0.00     0.000 C 
BRANCH   2   3
ATOM      3  C   UNL     1      19.813  44.338   1.336  1.00  0.00    -0.003 C 
ATOM      4  C   UNL     1      19.006  43.494   2.321  1.00  0.00     0.004 C 
ENDBRANCH   2   3
ENDBRANCH   1   2
BRANCH   1   5
ATOM      5  C   UNL     1      16.512  45.274  -0.290  1.00  0.00     0.075 C 
BRANCH   5   6
ATOM      6  C   UNL     1      15.410  45.327   0.737  1.00  0.00     0.129 C 
ATOM      7  O   UNL     1      14.425  46.021   0.528  1.00  0.00    -0.300 OA
ATOM      8  C   UNL     1      15.499  44.554   2.019  1.00  0.00     0.087 C 
ENDBRANCH   5   6
ENDBRANCH   1   5
TORSDOF 4
ENDMDL
MODEL 9
REMARK VINA RESULT:    -3.402     16.659     18.867
REMARK INTER + INTRA:          -4.250
REMARK INTER:                  -3.869
REMARK INTRA:                  -0.380
REMARK UNBOUND:                -0.052
REMARK SMILES CCCCCC(C)=O
REMARK SMILES IDX 4 1 3 2 2 3 1 4 5 5 6 6 8 7 7 8
REMARK H PARENT
REMARK Flexibility Score: inf
ROOT
ATOM      1  C   UNL     1      17.362  43.487   1.817  1.00  0.00     0.008 C 
ENDROOT
BRANCH   1   2
ATOM      2  C   UNL     1      17.129  42.054   1.296  1.00  0.00     0.000 C 
BRANCH   2   3
ATOM      3  C   UNL     1      16.819  41.954  -0.209  1.00  0.00    -0.003 C 
ATOM      4  C   UNL     1      18.039  41.574  -1.047  1.00  0.00     0.004 C 
ENDBRANCH   2   3
ENDBRANCH   1   2
BRANCH   1   5
ATOM      5  C   UNL     1      18.796  43.761   2.299  1.00  0.00     0.075 C 
BRANCH   5   6
ATOM      6  C   UNL     1      19.759  43.924   1.150  1.00  0.00     0.129 C 
ATOM      7  O   UNL     1      20.764  43.231   1.105  1.00  0.00    -0.300 OA
ATOM      8  C   UNL     1      19.515  44.928   0.064  1.00  0.00     0.087 C 
ENDBRANCH   5   6
ENDBRANCH   1   5
TORSDOF 4
ENDMDL
