MODEL 1
REMARK VINA RESULT:    -4.753      0.000      0.000
REMARK INTER + INTRA:          -5.693
REMARK INTER:                  -6.697
REMARK INTRA:                   1.004
REMARK UNBOUND:                 1.004
REMARK SMILES CC1=CCC(=C(C)C)C(=O)CC(C)=CCC1
REMARK SMILES IDX 12 1 14 2 13 3 15 4 16 5 2 6 1 7 3 8 11 10 9 11 10 12 5 13
REMARK SMILES IDX 6 14 7 15 8 16 4 17
REMARK H PARENT
REMARK Flexibility Score: 60.00
ROOT
ATOM      1  C   UNL     1     -11.178 -16.768  27.953  1.00  0.00    -0.070 C 
ATOM      2  C   UNL     1     -10.662 -17.792  28.675  1.00  0.00    -0.027 C 
ATOM      3  C   UNL     1     -11.388 -16.996  26.475  1.00  0.00     0.039 C 
ENDROOT
BRANCH   2   4
ATOM      4  C   UNL     1     -10.275 -17.751  30.134  1.00  0.00     0.032 C 
BRANCH   4   5
ATOM      5  C   UNL     1     -11.056 -18.771  30.983  1.00  0.00     0.034 C 
BRANCH   5   6
ATOM      6  C   UNL     1     -12.535 -18.782  30.648  1.00  0.00    -0.077 C 
ATOM      7  C   UNL     1     -13.165 -20.087  30.229  1.00  0.00     0.039 C 
ATOM      8  C   UNL     1     -13.330 -17.692  30.727  1.00  0.00    -0.023 CG0
ATOM      9  G   UNL     1     -12.895 -16.311  31.158  1.00  0.00     0.000 G0
ENDBRANCH   5   6
ENDBRANCH   4   5
ENDBRANCH   2   4
BRANCH   1  10
ATOM     10  C   UNL     1     -11.489 -15.399  28.533  1.00  0.00     0.111 C 
BRANCH  10  11
ATOM     11  C   UNL     1     -12.960 -15.243  28.827  1.00  0.00     0.163 C 
ATOM     12  O   UNL     1     -13.751 -15.126  27.852  1.00  0.00    -0.294 OA
BRANCH  11  13
ATOM     13  C   UNL     1     -13.496 -15.274  30.224  1.00  0.00    -0.002 C 
ATOM     14  C   UNL     1     -14.428 -14.371  30.657  1.00  0.00    -0.069 C 
ATOM     15  C   UNL     1     -14.913 -13.245  29.771  1.00  0.00     0.039 C 
ATOM     16  C   UNL     1     -14.993 -14.434  32.059  1.00  0.00     0.039 C 
BRANCH  13  17
ATOM     17  C   UNL     1     -12.906 -16.308  31.165  1.00  0.00     0.066 CG0
ATOM     18  G   UNL     1     -13.321 -17.693  30.729  1.00  0.00     0.000 G0
ENDBRANCH  13  17
ENDBRANCH  11  13
ENDBRANCH  10  11
ENDBRANCH   1  10
TORSDOF 0
ENDMDL
MODEL 2
REMARK VINA RESULT:    -4.201      1.508      4.083
REMARK INTER + INTRA:          -4.916
REMARK INTER:                  -6.069
REMARK INTRA:                   1.153
REMARK UNBOUND:                 1.004
REMARK SMILES CC1=CCC(=C(C)C)C(=O)CC(C)=CCC1
REMARK SMILES IDX 12 1 14 2 13 3 15 4 16 5 2 6 1 7 3 8 11 10 9 11 10 12 5 13
REMARK SMILES IDX 6 14 7 15 8 16 4 17
REMARK H PARENT
REMARK Flexibility Score: 60.00
ROOT
ATOM      1  C   UNL     1     -12.152 -15.904  27.986  1.00  0.00    -0.070 C 
ATOM      2  C   UNL     1     -13.229 -15.135  28.279  1.00  0.00    -0.027 C 
ATOM      3  C   UNL     1     -12.285 -16.881  26.843  1.00  0.00     0.039 C 
ENDROOT
BRANCH   2   4
ATOM      4  C   UNL     1     -13.353 -14.174  29.437  1.00  0.00     0.032 C 
BRANCH   4   5
ATOM      5  C   UNL     1     -14.634 -14.404  30.262  1.00  0.00     0.034 C 
BRANCH   5   6
ATOM      6  C   UNL     1     -14.344 -15.049  31.603  1.00  0.00    -0.077 C 
ATOM      7  C   UNL     1     -14.694 -14.285  32.855  1.00  0.00     0.039 C 
ATOM      8  C   UNL     1     -13.810 -16.283  31.742  1.00  0.00    -0.023 CG0
ATOM      9  G   UNL     1     -13.427 -17.211  30.614  1.00  0.00     0.000 G0
ENDBRANCH   5   6
ENDBRANCH   4   5
ENDBRANCH   2   4
BRANCH   1  10
ATOM     10  C   UNL     1     -10.857 -15.880  28.781  1.00  0.00     0.111 C 
BRANCH  10  11
ATOM     11  C   UNL     1     -11.088 -16.244  30.226  1.00  0.00     0.163 C 
ATOM     12  O   UNL     1     -10.591 -15.498  31.112  1.00  0.00    -0.294 OA
BRANCH  11  13
ATOM     13  C   UNL     1     -11.921 -17.422  30.624  1.00  0.00    -0.002 C 
ATOM     14  C   UNL     1     -11.361 -18.640  30.897  1.00  0.00    -0.069 C 
ATOM     15  C   UNL     1      -9.876 -18.883  30.740  1.00  0.00     0.039 C 
ATOM     16  C   UNL     1     -12.207 -19.815  31.335  1.00  0.00     0.039 C 
BRANCH  13  17
ATOM     17  C   UNL     1     -13.426 -17.228  30.640  1.00  0.00     0.066 CG0
ATOM     18  G   UNL     1     -13.807 -16.279  31.751  1.00  0.00     0.000 G0
ENDBRANCH  13  17
ENDBRANCH  11  13
ENDBRANCH  10  11
ENDBRANCH   1  10
TORSDOF 0
ENDMDL
MODEL 3
REMARK VINA RESULT:    -4.056      2.117      4.676
REMARK INTER + INTRA:          -4.712
REMARK INTER:                  -5.500
REMARK INTRA:                   0.788
REMARK UNBOUND:                 1.004
REMARK SMILES CC1=CCC(=C(C)C)C(=O)CC(C)=CCC1
REMARK SMILES IDX 12 1 14 2 13 3 15 4 16 5 2 6 1 7 3 8 11 10 9 11 10 12 5 13
REMARK SMILES IDX 6 14 7 15 8 16 4 17
REMARK H PARENT
REMARK Flexibility Score: 60.00
ROOT
ATOM      1  C   UNL     1     -13.260 -15.522  30.987  1.00  0.00    -0.070 C 
ATOM      2  C   UNL     1     -14.014 -14.795  30.129  1.00  0.00    -0.027 C 
ATOM      3  C   UNL     1     -13.954 -16.124  32.185  1.00  0.00     0.039 C 
ENDROOT
BRANCH   2   4
ATOM      4  C   UNL     1     -13.514 -14.021  28.933  1.00  0.00     0.032 C 
BRANCH   4   5
ATOM      5  C   UNL     1     -12.559 -14.848  28.050  1.00  0.00     0.034 C 
BRANCH   5   6
ATOM      6  C   UNL     1     -13.275 -15.978  27.336  1.00  0.00    -0.077 C 
ATOM      7  C   UNL     1     -14.465 -15.641  26.474  1.00  0.00     0.039 C 
ATOM      8  C   UNL     1     -12.891 -17.272  27.407  1.00  0.00    -0.023 CG0
ATOM      9  G   UNL     1     -11.709 -17.801  28.186  1.00  0.00     0.000 G0
ENDBRANCH   5   6
ENDBRANCH   4   5
ENDBRANCH   2   4
BRANCH   1  10
ATOM     10  C   UNL     1     -11.758 -15.705  30.844  1.00  0.00     0.111 C 
BRANCH  10  11
ATOM     11  C   UNL     1     -11.393 -17.157  30.654  1.00  0.00     0.163 C 
ATOM     12  O   UNL     1     -10.510 -17.650  31.407  1.00  0.00    -0.294 OA
BRANCH  11  13
ATOM     13  C   UNL     1     -12.079 -18.020  29.643  1.00  0.00    -0.002 C 
ATOM     14  C   UNL     1     -12.956 -19.002  30.013  1.00  0.00    -0.069 C 
ATOM     15  C   UNL     1     -13.224 -19.320  31.467  1.00  0.00     0.039 C 
ATOM     16  C   UNL     1     -13.674 -19.845  28.982  1.00  0.00     0.039 C 
BRANCH  13  17
ATOM     17  C   UNL     1     -11.704 -17.808  28.187  1.00  0.00     0.066 CG0
ATOM     18  G   UNL     1     -12.892 -17.270  27.427  1.00  0.00     0.000 G0
ENDBRANCH  13  17
ENDBRANCH  11  13
ENDBRANCH  10  11
ENDBRANCH   1  10
TORSDOF 0
ENDMDL
MODEL 4
REMARK VINA RESULT:    -3.866      1.746      3.424
REMARK INTER + INTRA:          -4.444
REMARK INTER:                  -5.975
REMARK INTRA:                   1.531
REMARK UNBOUND:                 1.004
REMARK SMILES CC1=CCC(=C(C)C)C(=O)CC(C)=CCC1
REMARK SMILES IDX 12 1 14 2 13 3 15 4 16 5 2 6 1 7 3 8 11 10 9 11 10 12 5 13
REMARK SMILES IDX 6 14 7 15 8 16 4 17
REMARK H PARENT
REMARK Flexibility Score: 60.00
ROOT
ATOM      1  C   UNL     1     -12.460 -18.482  30.295  1.00  0.00    -0.070 C 
ATOM      2  C   UNL     1     -12.869 -18.838  29.053  1.00  0.00    -0.027 C 
ATOM      3  C   UNL     1     -11.329 -19.272  30.908  1.00  0.00     0.039 C 
ENDROOT
BRANCH   2   4
ATOM      4  C   UNL     1     -14.041 -18.260  28.297  1.00  0.00     0.032 C 
BRANCH   4   5
ATOM      5  C   UNL     1     -13.605 -17.318  27.159  1.00  0.00     0.034 C 
BRANCH   5   6
ATOM      6  C   UNL     1     -12.273 -16.654  27.444  1.00  0.00    -0.077 C 
ATOM      7  C   UNL     1     -11.018 -17.315  26.932  1.00  0.00     0.039 C 
ATOM      8  C   UNL     1     -12.145 -15.485  28.112  1.00  0.00    -0.023 CG0
ATOM      9  G   UNL     1     -13.280 -14.658  28.668  1.00  0.00     0.000 G0
ENDBRANCH   5   6
ENDBRANCH   4   5
ENDBRANCH   2   4
BRANCH   1  10
ATOM     10  C   UNL     1     -13.118 -17.387  31.118  1.00  0.00     0.111 C 
BRANCH  10  11
ATOM     11  C   UNL     1     -12.593 -16.023  30.745  1.00  0.00     0.163 C 
ATOM     12  O   UNL     1     -11.364 -15.795  30.906  1.00  0.00    -0.294 OA
BRANCH  11  13
ATOM     13  C   UNL     1     -13.476 -14.971  30.151  1.00  0.00    -0.002 C 
ATOM     14  C   UNL     1     -14.463 -14.366  30.878  1.00  0.00    -0.069 C 
ATOM     15  C   UNL     1     -14.767 -14.779  32.302  1.00  0.00     0.039 C 
ATOM     16  C   UNL     1     -15.326 -13.276  30.282  1.00  0.00     0.039 C 
BRANCH  13  17
ATOM     17  C   UNL     1     -13.277 -14.654  28.680  1.00  0.00     0.066 CG0
ATOM     18  G   UNL     1     -12.143 -15.483  28.127  1.00  0.00     0.000 G0
ENDBRANCH  13  17
ENDBRANCH  11  13
ENDBRANCH  10  11
ENDBRANCH   1  10
TORSDOF 0
ENDMDL
MODEL 5
REMARK VINA RESULT:    -3.488      1.772      4.203
REMARK INTER + INTRA:          -3.911
REMARK INTER:                  -5.611
REMARK INTRA:                   1.700
REMARK UNBOUND:                 1.004
REMARK SMILES CC1=CCC(=C(C)C)C(=O)CC(C)=CCC1
REMARK SMILES IDX 12 1 14 2 13 3 15 4 16 5 2 6 1 7 3 8 11 10 9 11 10 12 5 13
REMARK SMILES IDX 6 14 7 15 8 16 4 17
REMARK H PARENT
REMARK Flexibility Score: 60.00
ROOT
ATOM      1  C   UNL     1     -14.260 -14.083  28.550  1.00  0.00    -0.070 C 
ATOM      2  C   UNL     1     -14.748 -14.771  27.490  1.00  0.00    -0.027 C 
ATOM      3  C   UNL     1     -15.080 -12.925  29.064  1.00  0.00     0.039 C 
ENDROOT
BRANCH   2   4
ATOM      4  C   UNL     1     -14.052 -15.889  26.751  1.00  0.00     0.032 C 
BRANCH   4   5
ATOM      5  C   UNL     1     -12.521 -15.843  26.915  1.00  0.00     0.034 C 
BRANCH   5   6
ATOM      6  C   UNL     1     -11.915 -17.229  27.019  1.00  0.00    -0.077 C 
ATOM      7  C   UNL     1     -10.984 -17.688  25.925  1.00  0.00     0.039 C 
ATOM      8  C   UNL     1     -12.141 -18.072  28.052  1.00  0.00    -0.023 CG0
ATOM      9  G   UNL     1     -13.009 -17.782  29.253  1.00  0.00     0.000 G0
ENDBRANCH   5   6
ENDBRANCH   4   5
ENDBRANCH   2   4
BRANCH   1  10
ATOM     10  C   UNL     1     -12.917 -14.372  29.197  1.00  0.00     0.111 C 
BRANCH  10  11
ATOM     11  C   UNL     1     -13.034 -15.422  30.274  1.00  0.00     0.163 C 
ATOM     12  O   UNL     1     -13.767 -15.172  31.269  1.00  0.00    -0.294 OA
BRANCH  11  13
ATOM     13  C   UNL     1     -12.353 -16.750  30.163  1.00  0.00    -0.002 C 
ATOM     14  C   UNL     1     -11.157 -16.998  30.778  1.00  0.00    -0.069 C 
ATOM     15  C   UNL     1     -10.420 -15.921  31.543  1.00  0.00     0.039 C 
ATOM     16  C   UNL     1     -10.494 -18.355  30.693  1.00  0.00     0.039 C 
BRANCH  13  17
ATOM     17  C   UNL     1     -13.010 -17.790  29.275  1.00  0.00     0.066 CG0
ATOM     18  G   UNL     1     -12.148 -18.046  28.062  1.00  0.00     0.000 G0
ENDBRANCH  13  17
ENDBRANCH  11  13
ENDBRANCH  10  11
ENDBRANCH   1  10
TORSDOF 0
ENDMDL
MODEL 6
REMARK VINA RESULT:    -3.060      1.562      2.113
REMARK INTER + INTRA:          -3.307
REMARK INTER:                  -4.613
REMARK INTRA:                   1.306
REMARK UNBOUND:                 1.004
REMARK SMILES CC1=CCC(=C(C)C)C(=O)CC(C)=CCC1
REMARK SMILES IDX 12 1 14 2 13 3 15 4 16 5 2 6 1 7 3 8 11 10 9 11 10 12 5 13
REMARK SMILES IDX 6 14 7 15 8 16 4 17
REMARK H PARENT
REMARK Flexibility Score: 60.00
ROOT
ATOM      1  C   UNL     1     -13.234 -17.143  27.758  1.00  0.00    -0.070 C 
ATOM      2  C   UNL     1     -13.583 -18.321  28.328  1.00  0.00    -0.027 C 
ATOM      3  C   UNL     1     -14.306 -16.388  27.009  1.00  0.00     0.039 C 
ENDROOT
BRANCH   2   4
ATOM      4  C   UNL     1     -12.656 -19.285  29.029  1.00  0.00     0.032 C 
BRANCH   4   5
ATOM      5  C   UNL     1     -12.552 -19.013  30.542  1.00  0.00     0.034 C 
BRANCH   5   6
ATOM      6  C   UNL     1     -11.312 -18.216  30.896  1.00  0.00    -0.077 C 
ATOM      7  C   UNL     1      -9.979 -18.920  30.878  1.00  0.00     0.039 C 
ATOM      8  C   UNL     1     -11.329 -16.899  31.204  1.00  0.00    -0.023 CG0
ATOM      9  G   UNL     1     -12.554 -16.017  31.240  1.00  0.00     0.000 G0
ENDBRANCH   5   6
ENDBRANCH   4   5
ENDBRANCH   2   4
BRANCH   1  10
ATOM     10  C   UNL     1     -11.822 -16.581  27.777  1.00  0.00     0.111 C 
BRANCH  10  11
ATOM     11  C   UNL     1     -11.650 -15.550  28.864  1.00  0.00     0.163 C 
ATOM     12  O   UNL     1     -10.598 -14.856  28.862  1.00  0.00    -0.294 OA
BRANCH  11  13
ATOM     13  C   UNL     1     -12.706 -15.303  29.896  1.00  0.00    -0.002 C 
ATOM     14  C   UNL     1     -13.730 -14.423  29.680  1.00  0.00    -0.069 C 
ATOM     15  C   UNL     1     -13.811 -13.594  28.418  1.00  0.00     0.039 C 
ATOM     16  C   UNL     1     -14.814 -14.208  30.713  1.00  0.00     0.039 C 
BRANCH  13  17
ATOM     17  C   UNL     1     -12.551 -16.019  31.225  1.00  0.00     0.066 CG0
ATOM     18  G   UNL     1     -11.323 -16.898  31.193  1.00  0.00     0.000 G0
ENDBRANCH  13  17
ENDBRANCH  11  13
ENDBRANCH  10  11
ENDBRANCH   1  10
TORSDOF 0
ENDMDL
MODEL 7
REMARK VINA RESULT:    -2.990      1.421      3.682
REMARK INTER + INTRA:          -3.210
REMARK INTER:                  -5.977
REMARK INTRA:                   2.768
REMARK UNBOUND:                 1.004
REMARK SMILES CC1=CCC(=C(C)C)C(=O)CC(C)=CCC1
REMARK SMILES IDX 12 1 14 2 13 3 15 4 16 5 2 6 1 7 3 8 11 10 9 11 10 12 5 13
REMARK SMILES IDX 6 14 7 15 8 16 4 17
REMARK H PARENT
REMARK Flexibility Score: 60.00
ROOT
ATOM      1  C   UNL     1     -14.020 -14.374  30.127  1.00  0.00    -0.070 C 
ATOM      2  C   UNL     1     -14.052 -15.302  31.113  1.00  0.00    -0.027 C 
ATOM      3  C   UNL     1     -15.113 -13.332  30.117  1.00  0.00     0.039 C 
ENDROOT
BRANCH   2   4
ATOM      4  C   UNL     1     -13.129 -16.489  31.255  1.00  0.00     0.032 C 
BRANCH   4   5
ATOM      5  C   UNL     1     -13.843 -17.829  30.996  1.00  0.00     0.034 C 
BRANCH   5   6
ATOM      6  C   UNL     1     -12.873 -18.931  30.618  1.00  0.00    -0.077 C 
ATOM      7  C   UNL     1     -12.498 -19.946  31.668  1.00  0.00     0.039 C 
ATOM      8  C   UNL     1     -12.342 -19.071  29.382  1.00  0.00    -0.023 CG0
ATOM      9  G   UNL     1     -12.622 -18.181  28.195  1.00  0.00     0.000 G0
ENDBRANCH   5   6
ENDBRANCH   4   5
ENDBRANCH   2   4
BRANCH   1  10
ATOM     10  C   UNL     1     -12.994 -14.367  29.007  1.00  0.00     0.111 C 
BRANCH  10  11
ATOM     11  C   UNL     1     -13.043 -15.642  28.203  1.00  0.00     0.163 C 
ATOM     12  O   UNL     1     -13.880 -15.720  27.264  1.00  0.00    -0.294 OA
BRANCH  11  13
ATOM     13  C   UNL     1     -12.100 -16.776  28.458  1.00  0.00    -0.002 C 
ATOM     14  C   UNL     1     -10.812 -16.563  28.866  1.00  0.00    -0.069 C 
ATOM     15  C   UNL     1     -10.247 -15.167  29.010  1.00  0.00     0.039 C 
ATOM     16  C   UNL     1      -9.878 -17.716  29.159  1.00  0.00     0.039 C 
BRANCH  13  17
ATOM     17  C   UNL     1     -12.612 -18.176  28.173  1.00  0.00     0.066 CG0
ATOM     18  G   UNL     1     -12.337 -19.072  29.357  1.00  0.00     0.000 G0
ENDBRANCH  13  17
ENDBRANCH  11  13
ENDBRANCH  10  11
ENDBRANCH   1  10
TORSDOF 0
ENDMDL
MODEL 8
REMARK VINA RESULT:    -2.980      1.751      3.894
REMARK INTER + INTRA:          -3.195
REMARK INTER:                  -4.677
REMARK INTRA:                   1.482
REMARK UNBOUND:                 1.004
REMARK SMILES CC1=CCC(=C(C)C)C(=O)CC(C)=CCC1
REMARK SMILES IDX 12 1 14 2 13 3 15 4 16 5 2 6 1 7 3 8 11 10 9 11 10 12 5 13
REMARK SMILES IDX 6 14 7 15 8 16 4 17
REMARK H PARENT
REMARK Flexibility Score: 60.00
ROOT
ATOM      1  C   UNL     1     -13.476 -16.137  30.814  1.00  0.00    -0.070 C 
ATOM      2  C   UNL     1     -13.641 -17.478  30.730  1.00  0.00    -0.027 C 
ATOM      3  C   UNL     1     -13.621 -15.502  32.176  1.00  0.00     0.039 C 
ENDROOT
BRANCH   2   4
ATOM      4  C   UNL     1     -13.645 -18.302  29.465  1.00  0.00     0.032 C 
BRANCH   4   5
ATOM      5  C   UNL     1     -12.304 -19.020  29.221  1.00  0.00     0.034 C 
BRANCH   5   6
ATOM      6  C   UNL     1     -11.239 -18.595  30.213  1.00  0.00    -0.077 C 
ATOM      7  C   UNL     1     -11.265 -19.200  31.594  1.00  0.00     0.039 C 
ATOM      8  C   UNL     1     -10.249 -17.721  29.923  1.00  0.00    -0.023 CG0
ATOM      9  G   UNL     1     -10.036 -17.040  28.593  1.00  0.00     0.000 G0
ENDBRANCH   5   6
ENDBRANCH   4   5
ENDBRANCH   2   4
BRANCH   1  10
ATOM     10  C   UNL     1     -13.221 -15.241  29.614  1.00  0.00     0.111 C 
BRANCH  10  11
ATOM     11  C   UNL     1     -11.770 -15.263  29.204  1.00  0.00     0.163 C 
ATOM     12  O   UNL     1     -10.979 -14.467  29.777  1.00  0.00    -0.294 OA
BRANCH  11  13
ATOM     13  C   UNL     1     -11.250 -16.229  28.185  1.00  0.00    -0.002 C 
ATOM     14  C   UNL     1     -11.885 -16.425  26.990  1.00  0.00    -0.069 C 
ATOM     15  C   UNL     1     -13.189 -15.733  26.662  1.00  0.00     0.039 C 
ATOM     16  C   UNL     1     -11.331 -17.375  25.951  1.00  0.00     0.039 C 
BRANCH  13  17
ATOM     17  C   UNL     1     -10.024 -17.039  28.566  1.00  0.00     0.066 CG0
ATOM     18  G   UNL     1     -10.249 -17.710  29.900  1.00  0.00     0.000 G0
ENDBRANCH  13  17
ENDBRANCH  11  13
ENDBRANCH  10  11
ENDBRANCH   1  10
TORSDOF 0
ENDMDL
MODEL 9
REMARK VINA RESULT:    -2.881      1.516      2.016
REMARK INTER + INTRA:          -3.055
REMARK INTER:                  -4.338
REMARK INTRA:                   1.283
REMARK UNBOUND:                 1.004
REMARK SMILES CC1=CCC(=C(C)C)C(=O)CC(C)=CCC1
REMARK SMILES IDX 12 1 14 2 13 3 15 4 16 5 2 6 1 7 3 8 11 10 9 11 10 12 5 13
REMARK SMILES IDX 6 14 7 15 8 16 4 17
REMARK H PARENT
REMARK Flexibility Score: 60.00
ROOT
ATOM      1  C   UNL     1     -13.296 -15.749  27.816  1.00  0.00    -0.070 C 
ATOM      2  C   UNL     1     -12.671 -16.906  27.493  1.00  0.00    -0.027 C 
ATOM      3  C   UNL     1     -14.572 -15.418  27.080  1.00  0.00     0.039 C 
ENDROOT
BRANCH   2   4
ATOM      4  C   UNL     1     -11.339 -17.383  28.021  1.00  0.00     0.032 C 
BRANCH   4   5
ATOM      5  C   UNL     1     -11.467 -18.643  28.898  1.00  0.00     0.034 C 
BRANCH   5   6
ATOM      6  C   UNL     1     -12.907 -18.943  29.263  1.00  0.00    -0.077 C 
ATOM      7  C   UNL     1     -13.697 -19.860  28.363  1.00  0.00     0.039 C 
ATOM      8  C   UNL     1     -13.520 -18.456  30.366  1.00  0.00    -0.023 CG0
ATOM      9  G   UNL     1     -12.888 -17.556  31.401  1.00  0.00     0.000 G0
ENDBRANCH   5   6
ENDBRANCH   4   5
ENDBRANCH   2   4
BRANCH   1  10
ATOM     10  C   UNL     1     -12.751 -14.748  28.821  1.00  0.00     0.111 C 
BRANCH  10  11
ATOM     11  C   UNL     1     -12.254 -15.431  30.071  1.00  0.00     0.163 C 
ATOM     12  O   UNL     1     -11.017 -15.403  30.311  1.00  0.00    -0.294 OA
BRANCH  11  13
ATOM     13  C   UNL     1     -13.189 -16.085  31.040  1.00  0.00    -0.002 C 
ATOM     14  C   UNL     1     -14.211 -15.395  31.630  1.00  0.00    -0.069 C 
ATOM     15  C   UNL     1     -14.410 -13.914  31.393  1.00  0.00     0.039 C 
ATOM     16  C   UNL     1     -15.175 -16.073  32.578  1.00  0.00     0.039 C 
BRANCH  13  17
ATOM     17  C   UNL     1     -12.908 -17.533  31.398  1.00  0.00     0.066 CG0
ATOM     18  G   UNL     1     -13.525 -18.444  30.364  1.00  0.00     0.000 G0
ENDBRANCH  13  17
ENDBRANCH  11  13
ENDBRANCH  10  11
ENDBRANCH   1  10
TORSDOF 0
ENDMDL
