MODEL 1
REMARK VINA RESULT:    -2.498      0.000      0.000
REMARK INTER + INTRA:          -2.952
REMARK INTER:                  -2.936
REMARK INTRA:                  -0.016
REMARK UNBOUND:                -0.016
REMARK SMILES CCCCC(=O)[O-]
REMARK SMILES IDX 4 1 5 2 6 3 7 4 3 5 2 6 1 7
REMARK H PARENT
REMARK Flexibility Score: inf
ROOT
ATOM      1  C   UNL     1      68.186  54.996   9.931  1.00  0.00     0.053 C 
ENDROOT
BRANCH   1   2
ATOM      2  C   UNL     1      66.827  55.104  10.548  1.00  0.00     0.041 C 
ATOM      3  O   UNL     1      66.236  56.215  10.589  1.00  0.00    -0.550 OA
ATOM      4  O   UNL     1      66.235  53.987  11.125  1.00  0.00    -0.550 OA
ENDBRANCH   1   2
BRANCH   1   5
ATOM      5  C   UNL     1      69.241  54.704  11.002  1.00  0.00     0.006 C 
BRANCH   5   6
ATOM      6  C   UNL     1      70.654  54.946  10.461  1.00  0.00    -0.003 C 
ATOM      7  C   UNL     1      71.244  56.239  11.017  1.00  0.00     0.004 C 
ENDBRANCH   5   6
ENDBRANCH   1   5
TORSDOF 3
ENDMDL
MODEL 2
REMARK VINA RESULT:    -2.469      2.086      2.888
REMARK INTER + INTRA:          -2.918
REMARK INTER:                  -2.894
REMARK INTRA:                  -0.024
REMARK UNBOUND:                -0.016
REMARK SMILES CCCCC(=O)[O-]
REMARK SMILES IDX 4 1 5 2 6 3 7 4 3 5 2 6 1 7
REMARK H PARENT
REMARK Flexibility Score: inf
ROOT
ATOM      1  C   UNL     1      66.160  56.295  11.061  1.00  0.00     0.053 C 
ENDROOT
BRANCH   1   2
ATOM      2  C   UNL     1      65.585  57.468  10.332  1.00  0.00     0.041 C 
ATOM      3  O   UNL     1      65.448  57.431   9.081  1.00  0.00    -0.550 OA
ATOM      4  O   UNL     1      65.246  58.621  11.029  1.00  0.00    -0.550 OA
ENDBRANCH   1   2
BRANCH   1   5
ATOM      5  C   UNL     1      67.067  55.479  10.134  1.00  0.00     0.006 C 
BRANCH   5   6
ATOM      6  C   UNL     1      68.330  55.018  10.870  1.00  0.00    -0.003 C 
ATOM      7  C   UNL     1      69.534  54.990   9.932  1.00  0.00     0.004 C 
ENDBRANCH   5   6
ENDBRANCH   1   5
TORSDOF 3
ENDMDL
MODEL 3
REMARK VINA RESULT:    -2.466      2.107      2.791
REMARK INTER + INTRA:          -2.915
REMARK INTER:                  -2.894
REMARK INTRA:                  -0.021
REMARK UNBOUND:                -0.016
REMARK SMILES CCCCC(=O)[O-]
REMARK SMILES IDX 4 1 5 2 6 3 7 4 3 5 2 6 1 7
REMARK H PARENT
REMARK Flexibility Score: inf
ROOT
ATOM      1  C   UNL     1      66.074  56.176  11.059  1.00  0.00     0.053 C 
ENDROOT
BRANCH   1   2
ATOM      2  C   UNL     1      65.541  57.407  10.396  1.00  0.00     0.041 C 
ATOM      3  O   UNL     1      65.148  58.381  11.090  1.00  0.00    -0.550 OA
ATOM      4  O   UNL     1      65.432  57.459   9.011  1.00  0.00    -0.550 OA
ENDBRANCH   1   2
BRANCH   1   5
ATOM      5  C   UNL     1      67.068  55.459  10.139  1.00  0.00     0.006 C 
BRANCH   5   6
ATOM      6  C   UNL     1      68.329  55.049  10.907  1.00  0.00    -0.003 C 
ATOM      7  C   UNL     1      69.544  55.001   9.986  1.00  0.00     0.004 C 
ENDBRANCH   5   6
ENDBRANCH   1   5
TORSDOF 3
ENDMDL
MODEL 4
REMARK VINA RESULT:    -2.310      3.980      5.998
REMARK INTER + INTRA:          -2.732
REMARK INTER:                  -2.623
REMARK INTRA:                  -0.109
REMARK UNBOUND:                -0.016
REMARK SMILES CCCCC(=O)[O-]
REMARK SMILES IDX 4 1 5 2 6 3 7 4 3 5 2 6 1 7
REMARK H PARENT
REMARK Flexibility Score: inf
ROOT
ATOM      1  C   UNL     1      64.852  58.279  10.532  1.00  0.00     0.053 C 
ENDROOT
BRANCH   1   2
ATOM      2  C   UNL     1      65.629  57.269   9.748  1.00  0.00     0.041 C 
ATOM      3  O   UNL     1      65.604  57.287   8.490  1.00  0.00    -0.550 OA
ATOM      4  O   UNL     1      66.341  56.275  10.409  1.00  0.00    -0.550 OA
ENDBRANCH   1   2
BRANCH   1   5
ATOM      5  C   UNL     1      63.510  57.692  10.982  1.00  0.00     0.006 C 
BRANCH   5   6
ATOM      6  C   UNL     1      62.394  58.057   9.996  1.00  0.00    -0.003 C 
ATOM      7  C   UNL     1      61.875  56.819   9.269  1.00  0.00     0.004 C 
ENDBRANCH   5   6
ENDBRANCH   1   5
TORSDOF 3
ENDMDL
MODEL 5
REMARK VINA RESULT:    -2.268      2.623      4.680
REMARK INTER + INTRA:          -2.682
REMARK INTER:                  -2.665
REMARK INTRA:                  -0.017
REMARK UNBOUND:                -0.016
REMARK SMILES CCCCC(=O)[O-]
REMARK SMILES IDX 4 1 5 2 6 3 7 4 3 5 2 6 1 7
REMARK H PARENT
REMARK Flexibility Score: inf
ROOT
ATOM      1  C   UNL     1      66.454  56.391  11.046  1.00  0.00     0.053 C 
ENDROOT
BRANCH   1   2
ATOM      2  C   UNL     1      66.919  55.065  10.532  1.00  0.00     0.041 C 
ATOM      3  O   UNL     1      66.412  54.001  10.974  1.00  0.00    -0.550 OA
ATOM      4  O   UNL     1      67.947  55.004   9.599  1.00  0.00    -0.550 OA
ENDBRANCH   1   2
BRANCH   1   5
ATOM      5  C   UNL     1      65.605  57.108   9.992  1.00  0.00     0.006 C 
BRANCH   5   6
ATOM      6  C   UNL     1      64.474  57.908  10.650  1.00  0.00    -0.003 C 
ATOM      7  C   UNL     1      63.221  57.908   9.779  1.00  0.00     0.004 C 
ENDBRANCH   5   6
ENDBRANCH   1   5
TORSDOF 3
ENDMDL
MODEL 6
REMARK VINA RESULT:    -2.187      3.511      4.676
REMARK INTER + INTRA:          -2.586
REMARK INTER:                  -2.536
REMARK INTRA:                  -0.051
REMARK UNBOUND:                -0.016
REMARK SMILES CCCCC(=O)[O-]
REMARK SMILES IDX 4 1 5 2 6 3 7 4 3 5 2 6 1 7
REMARK H PARENT
REMARK Flexibility Score: inf
ROOT
ATOM      1  C   UNL     1      64.638  57.747   9.507  1.00  0.00     0.053 C 
ENDROOT
BRANCH   1   2
ATOM      2  C   UNL     1      63.215  57.710   9.968  1.00  0.00     0.041 C 
ATOM      3  O   UNL     1      62.908  58.140  11.110  1.00  0.00    -0.550 OA
ATOM      4  O   UNL     1      62.235  57.154   9.154  1.00  0.00    -0.550 OA
ENDBRANCH   1   2
BRANCH   1   5
ATOM      5  C   UNL     1      65.591  57.635  10.700  1.00  0.00     0.006 C 
BRANCH   5   6
ATOM      6  C   UNL     1      65.770  56.173  11.124  1.00  0.00    -0.003 C 
ATOM      7  C   UNL     1      66.910  55.512  10.354  1.00  0.00     0.004 C 
ENDBRANCH   5   6
ENDBRANCH   1   5
TORSDOF 3
ENDMDL
MODEL 7
REMARK VINA RESULT:    -1.465      2.383      3.829
REMARK INTER + INTRA:          -1.739
REMARK INTER:                  -1.689
REMARK INTRA:                  -0.050
REMARK UNBOUND:                -0.016
REMARK SMILES CCCCC(=O)[O-]
REMARK SMILES IDX 4 1 5 2 6 3 7 4 3 5 2 6 1 7
REMARK H PARENT
REMARK Flexibility Score: inf
ROOT
ATOM      1  C   UNL     1      68.519  55.449   9.641  1.00  0.00     0.053 C 
ENDROOT
BRANCH   1   2
ATOM      2  C   UNL     1      69.742  54.994  10.374  1.00  0.00     0.041 C 
ATOM      3  O   UNL     1      69.692  53.983  11.123  1.00  0.00    -0.550 OA
ATOM      4  O   UNL     1      70.924  55.717  10.269  1.00  0.00    -0.550 OA
ENDBRANCH   1   2
BRANCH   1   5
ATOM      5  C   UNL     1      67.310  54.594  10.033  1.00  0.00     0.006 C 
BRANCH   5   6
ATOM      6  C   UNL     1      66.481  55.283  11.123  1.00  0.00    -0.003 C 
ATOM      7  C   UNL     1      65.967  56.639  10.650  1.00  0.00     0.004 C 
ENDBRANCH   5   6
ENDBRANCH   1   5
TORSDOF 3
ENDMDL
MODEL 8
REMARK VINA RESULT:    -0.669      3.304      4.453
REMARK INTER + INTRA:          -0.803
REMARK INTER:                  -0.867
REMARK INTRA:                   0.064
REMARK UNBOUND:                -0.016
REMARK SMILES CCCCC(=O)[O-]
REMARK SMILES IDX 4 1 5 2 6 3 7 4 3 5 2 6 1 7
REMARK H PARENT
REMARK Flexibility Score: inf
ROOT
ATOM      1  C   UNL     1      65.528  57.560  10.680  1.00  0.00     0.053 C 
ENDROOT
BRANCH   1   2
ATOM      2  C   UNL     1      66.004  56.166  10.939  1.00  0.00     0.041 C 
ATOM      3  O   UNL     1      67.236  55.908  10.945  1.00  0.00    -0.550 OA
ATOM      4  O   UNL     1      65.084  55.140  11.125  1.00  0.00    -0.550 OA
ENDBRANCH   1   2
BRANCH   1   5
ATOM      5  C   UNL     1      64.419  57.561   9.623  1.00  0.00     0.006 C 
BRANCH   5   6
ATOM      6  C   UNL     1      64.930  58.125   8.293  1.00  0.00    -0.003 C 
ATOM      7  C   UNL     1      66.126  57.328   7.780  1.00  0.00     0.004 C 
ENDBRANCH   5   6
ENDBRANCH   1   5
TORSDOF 3
ENDMDL
MODEL 9
REMARK VINA RESULT:    -0.098      3.315      4.841
REMARK INTER + INTRA:          -0.132
REMARK INTER:                  -0.115
REMARK INTRA:                  -0.017
REMARK UNBOUND:                -0.016
REMARK SMILES CCCCC(=O)[O-]
REMARK SMILES IDX 4 1 5 2 6 3 7 4 3 5 2 6 1 7
REMARK H PARENT
REMARK Flexibility Score: inf
ROOT
ATOM      1  C   UNL     1      66.676  52.886  10.320  1.00  0.00     0.053 C 
ENDROOT
BRANCH   1   2
ATOM      2  C   UNL     1      66.710  54.287  10.845  1.00  0.00     0.041 C 
ATOM      3  O   UNL     1      67.812  54.850  11.077  1.00  0.00    -0.550 OA
ATOM      4  O   UNL     1      65.523  54.953  11.125  1.00  0.00    -0.550 OA
ENDBRANCH   1   2
BRANCH   1   5
ATOM      5  C   UNL     1      65.688  52.036  11.125  1.00  0.00     0.006 C 
BRANCH   5   6
ATOM      6  C   UNL     1      65.718  50.575  10.661  1.00  0.00    -0.003 C 
ATOM      7  C   UNL     1      64.457  49.833  11.096  1.00  0.00     0.004 C 
ENDBRANCH   5   6
ENDBRANCH   1   5
TORSDOF 3
ENDMDL
