MODEL 1
REMARK VINA RESULT:    -6.110      0.000      0.000
REMARK INTER + INTRA:          -8.368
REMARK INTER:                  -8.968
REMARK INTRA:                   0.599
REMARK UNBOUND:                 0.599
REMARK SMILES Cc1cc2c(C(C)C)c(O)c(O)c(C=O)c2c(O)c1-c1c(C)cc2c(C(C)C)c(O)c(O)c(C=O)c2c1O
REMARK SMILES IDX 1 1 2 2 3 3 4 4 16 5 13 6 11 7 9 8 5 9 17 10 19 11 20 12
REMARK SMILES IDX 37 13 21 14 36 15 23 16 22 17 24 18 33 19 25 20 31 21 29 22
REMARK SMILES IDX 38 23 34 25 35 26 26 27 27 28 28 29 32 30 30 32 18 34 6 36
REMARK SMILES IDX 7 37 8 38 14 39 15 40 10 41 12 43
REMARK H PARENT 38 24 32 31 30 33 18 35 10 42 12 44
REMARK Flexibility Score: inf
ROOT
ATOM      1  C   UNL     1      13.038  22.520  35.060  1.00  0.00     0.045 C 
ATOM      2  C   UNL     1      14.000  23.502  35.684  1.00  0.00    -0.039 A 
ATOM      3  C   UNL     1      15.334  23.129  35.862  1.00  0.00     0.013 A 
ATOM      4  C   UNL     1      16.290  24.014  36.410  1.00  0.00    -0.006 A 
ATOM      5  C   UNL     1      15.858  25.305  36.839  1.00  0.00     0.039 A 
ATOM      6  C   UNL     1      16.820  26.204  37.382  1.00  0.00     0.072 A 
ATOM      7  C   UNL     1      18.103  25.742  37.713  1.00  0.00     0.169 A 
ATOM      8  C   UNL     1      18.490  24.431  37.385  1.00  0.00     0.162 A 
ATOM      9  C   UNL     1      17.654  23.623  36.581  1.00  0.00     0.008 A 
ATOM     10  C   UNL     1      14.474  25.635  36.768  1.00  0.00     0.132 A 
ATOM     11  C   UNL     1      13.560  24.749  36.159  1.00  0.00     0.031 A 
ENDROOT
BRANCH  11  12
ATOM     12  C   UNL     1      12.124  25.115  36.054  1.00  0.00     0.031 A 
ATOM     13  C   UNL     1      11.277  24.989  37.177  1.00  0.00     0.132 A 
ATOM     14  C   UNL     1      11.604  25.573  34.831  1.00  0.00    -0.039 A 
ATOM     15  C   UNL     1       9.891  25.304  37.072  1.00  0.00     0.039 A 
ATOM     16  C   UNL     1      10.274  25.993  34.765  1.00  0.00     0.013 A 
ATOM     17  C   UNL     1      12.464  25.628  33.593  1.00  0.00     0.045 C 
ATOM     18  C   UNL     1       9.423  25.948  35.890  1.00  0.00    -0.006 A 
ATOM     19  C   UNL     1       8.960  25.007  38.108  1.00  0.00     0.072 A 
ATOM     20  C   UNL     1       8.111  26.508  35.852  1.00  0.00     0.008 A 
ATOM     21  C   UNL     1       7.617  25.411  37.987  1.00  0.00     0.169 A 
ATOM     22  C   UNL     1       7.199  26.179  36.881  1.00  0.00     0.162 A 
BRANCH  13  23
ATOM     23  O   UNL     1      11.820  24.593  38.405  1.00  0.00    -0.507 OA
ATOM     24  H   UNL     1      12.739  24.865  38.729  1.00  0.00     0.293 HD
ENDBRANCH  13  23
BRANCH  19  25
ATOM     25  C   UNL     1       9.316  24.138  39.256  1.00  0.00     0.264 C 
ATOM     26  O   UNL     1       9.524  24.625  40.400  1.00  0.00    -0.298 OA
ENDBRANCH  19  25
BRANCH  20  27
ATOM     27  C   UNL     1       7.682  27.467  34.724  1.00  0.00     0.017 C 
ATOM     28  C   UNL     1       8.902  28.125  34.072  1.00  0.00     0.012 C 
ATOM     29  C   UNL     1       6.764  26.816  33.674  1.00  0.00     0.012 C 
ENDBRANCH  20  27
BRANCH  21  30
ATOM     30  O   UNL     1       6.710  25.003  38.974  1.00  0.00    -0.504 OA
ATOM     31  H   UNL     1       6.254  25.614  39.633  1.00  0.00     0.293 HD
ENDBRANCH  21  30
BRANCH  22  32
ATOM     32  O   UNL     1       5.876  26.616  36.769  1.00  0.00    -0.504 OA
ATOM     33  H   UNL     1       5.062  26.019  36.816  1.00  0.00     0.293 HD
ENDBRANCH  22  32
ENDBRANCH  11  12
BRANCH  10  34
ATOM     34  O   UNL     1      14.001  26.815  37.352  1.00  0.00    -0.507 OA
ATOM     35  H   UNL     1      14.284  27.146  38.265  1.00  0.00     0.293 HD
ENDBRANCH  10  34
BRANCH   9  36
ATOM     36  C   UNL     1      18.209  22.327  35.965  1.00  0.00     0.017 C 
ATOM     37  C   UNL     1      19.700  22.164  36.281  1.00  0.00     0.012 C 
ATOM     38  C   UNL     1      17.940  22.192  34.454  1.00  0.00     0.012 C 
ENDBRANCH   9  36
BRANCH   6  39
ATOM     39  C   UNL     1      16.567  27.653  37.551  1.00  0.00     0.264 C 
ATOM     40  O   UNL     1      16.226  28.121  38.671  1.00  0.00    -0.298 OA
ENDBRANCH   6  39
BRANCH   8  41
ATOM     41  O   UNL     1      19.697  23.907  37.856  1.00  0.00    -0.504 OA
ATOM     42  H   UNL     1      20.549  24.441  37.950  1.00  0.00     0.293 HD
ENDBRANCH   8  41
BRANCH   7  43
ATOM     43  O   UNL     1      18.995  26.630  38.326  1.00  0.00    -0.504 OA
ATOM     44  H   UNL     1      19.586  27.277  37.821  1.00  0.00     0.293 HD
ENDBRANCH   7  43
TORSDOF 11
ENDMDL
MODEL 2
REMARK VINA RESULT:    -5.830      1.973      3.205
REMARK INTER + INTRA:          -7.957
REMARK INTER:                  -7.907
REMARK INTRA:                  -0.050
REMARK UNBOUND:                 0.599
REMARK SMILES Cc1cc2c(C(C)C)c(O)c(O)c(C=O)c2c(O)c1-c1c(C)cc2c(C(C)C)c(O)c(O)c(C=O)c2c1O
REMARK SMILES IDX 1 1 2 2 3 3 4 4 16 5 13 6 11 7 9 8 5 9 17 10 19 11 20 12
REMARK SMILES IDX 37 13 21 14 36 15 23 16 22 17 24 18 33 19 25 20 31 21 29 22
REMARK SMILES IDX 38 23 34 25 35 26 26 27 27 28 28 29 32 30 30 32 18 34 6 36
REMARK SMILES IDX 7 37 8 38 14 39 15 40 10 41 12 43
REMARK H PARENT 38 24 32 31 30 33 18 35 10 42 12 44
REMARK Flexibility Score: inf
ROOT
ATOM      1  C   UNL     1      13.825  28.033  36.806  1.00  0.00     0.045 C 
ATOM      2  C   UNL     1      14.403  26.757  36.242  1.00  0.00    -0.039 A 
ATOM      3  C   UNL     1      15.781  26.669  36.029  1.00  0.00     0.013 A 
ATOM      4  C   UNL     1      16.386  25.491  35.535  1.00  0.00    -0.006 A 
ATOM      5  C   UNL     1      15.551  24.385  35.196  1.00  0.00     0.039 A 
ATOM      6  C   UNL     1      16.158  23.193  34.708  1.00  0.00     0.072 A 
ATOM      7  C   UNL     1      17.511  23.195  34.338  1.00  0.00     0.169 A 
ATOM      8  C   UNL     1      18.308  24.329  34.576  1.00  0.00     0.162 A 
ATOM      9  C   UNL     1      17.798  25.410  35.329  1.00  0.00     0.008 A 
ATOM     10  C   UNL     1      14.137  24.524  35.298  1.00  0.00     0.132 A 
ATOM     11  C   UNL     1      13.573  25.693  35.854  1.00  0.00     0.031 A 
ENDROOT
BRANCH  11  12
ATOM     12  C   UNL     1      12.099  25.816  35.992  1.00  0.00     0.031 A 
ATOM     13  C   UNL     1      11.459  25.376  37.172  1.00  0.00     0.132 A 
ATOM     14  C   UNL     1      11.339  26.359  34.943  1.00  0.00    -0.039 A 
ATOM     15  C   UNL     1      10.041  25.458  37.295  1.00  0.00     0.039 A 
ATOM     16  C   UNL     1       9.966  26.547  35.115  1.00  0.00     0.013 A 
ATOM     17  C   UNL     1      11.985  26.751  33.636  1.00  0.00     0.045 C 
ATOM     18  C   UNL     1       9.310  26.184  36.311  1.00  0.00    -0.006 A 
ATOM     19  C   UNL     1       9.332  24.850  38.370  1.00  0.00     0.072 A 
ATOM     20  C   UNL     1       7.938  26.508  36.534  1.00  0.00     0.008 A 
ATOM     21  C   UNL     1       7.941  25.029  38.488  1.00  0.00     0.169 A 
ATOM     22  C   UNL     1       7.250  25.873  37.594  1.00  0.00     0.162 A 
BRANCH  13  23
ATOM     23  O   UNL     1      12.233  24.897  38.235  1.00  0.00    -0.507 OA
ATOM     24  H   UNL     1      11.849  24.600  39.123  1.00  0.00     0.293 HD
ENDBRANCH  13  23
BRANCH  19  25
ATOM     25  C   UNL     1       9.983  23.890  39.295  1.00  0.00     0.264 C 
ATOM     26  O   UNL     1       9.842  23.995  40.543  1.00  0.00    -0.298 OA
ENDBRANCH  19  25
BRANCH  20  27
ATOM     27  C   UNL     1       7.206  27.539  35.653  1.00  0.00     0.017 C 
ATOM     28  C   UNL     1       6.912  26.963  34.265  1.00  0.00     0.012 C 
ATOM     29  C   UNL     1       5.935  28.118  36.303  1.00  0.00     0.012 C 
ENDBRANCH  20  27
BRANCH  21  30
ATOM     30  O   UNL     1       7.265  24.324  39.492  1.00  0.00    -0.504 OA
ATOM     31  H   UNL     1       6.745  23.471  39.354  1.00  0.00     0.293 HD
ENDBRANCH  21  30
BRANCH  22  32
ATOM     32  O   UNL     1       5.875  26.086  37.724  1.00  0.00    -0.504 OA
ATOM     33  H   UNL     1       5.243  25.495  38.246  1.00  0.00     0.293 HD
ENDBRANCH  22  32
ENDBRANCH  11  12
BRANCH  10  34
ATOM     34  O   UNL     1      13.293  23.526  34.797  1.00  0.00    -0.507 OA
ATOM     35  H   UNL     1      12.514  23.135  35.311  1.00  0.00     0.293 HD
ENDBRANCH  10  34
BRANCH   9  36
ATOM     36  C   UNL     1      18.757  26.494  35.854  1.00  0.00     0.017 C 
ATOM     37  C   UNL     1      18.365  26.935  37.268  1.00  0.00     0.012 C 
ATOM     38  C   UNL     1      18.902  27.705  34.911  1.00  0.00     0.012 C 
ENDBRANCH   9  36
BRANCH   6  39
ATOM     39  C   UNL     1      15.448  21.895  34.637  1.00  0.00     0.264 C 
ATOM     40  O   UNL     1      14.916  21.396  35.665  1.00  0.00    -0.298 OA
ENDBRANCH   6  39
BRANCH   8  41
ATOM     41  O   UNL     1      19.606  24.407  34.063  1.00  0.00    -0.504 OA
ATOM     42  H   UNL     1      20.196  23.605  33.889  1.00  0.00     0.293 HD
ENDBRANCH   8  41
BRANCH   7  43
ATOM     43  O   UNL     1      18.053  22.032  33.780  1.00  0.00    -0.504 OA
ATOM     44  H   UNL     1      17.603  21.488  33.056  1.00  0.00     0.293 HD
ENDBRANCH   7  43
TORSDOF 11
ENDMDL
MODEL 3
REMARK VINA RESULT:    -5.698      1.791      8.905
REMARK INTER + INTRA:          -7.763
REMARK INTER:                  -7.628
REMARK INTRA:                  -0.135
REMARK UNBOUND:                 0.599
REMARK SMILES Cc1cc2c(C(C)C)c(O)c(O)c(C=O)c2c(O)c1-c1c(C)cc2c(C(C)C)c(O)c(O)c(C=O)c2c1O
REMARK SMILES IDX 1 1 2 2 3 3 4 4 16 5 13 6 11 7 9 8 5 9 17 10 19 11 20 12
REMARK SMILES IDX 37 13 21 14 36 15 23 16 22 17 24 18 33 19 25 20 31 21 29 22
REMARK SMILES IDX 38 23 34 25 35 26 26 27 27 28 28 29 32 30 30 32 18 34 6 36
REMARK SMILES IDX 7 37 8 38 14 39 15 40 10 41 12 43
REMARK H PARENT 38 24 32 31 30 33 18 35 10 42 12 44
REMARK Flexibility Score: inf
ROOT
ATOM      1  C   UNL     1      12.628  23.725  38.098  1.00  0.00     0.045 C 
ATOM      2  C   UNL     1      11.751  24.618  37.253  1.00  0.00    -0.039 A 
ATOM      3  C   UNL     1      10.411  24.790  37.609  1.00  0.00     0.013 A 
ATOM      4  C   UNL     1       9.549  25.639  36.878  1.00  0.00    -0.006 A 
ATOM      5  C   UNL     1      10.056  26.292  35.715  1.00  0.00     0.039 A 
ATOM      6  C   UNL     1       9.193  27.155  34.982  1.00  0.00     0.072 A 
ATOM      7  C   UNL     1       7.817  27.168  35.255  1.00  0.00     0.169 A 
ATOM      8  C   UNL     1       7.303  26.435  36.339  1.00  0.00     0.162 A 
ATOM      9  C   UNL     1       8.181  25.813  37.256  1.00  0.00     0.008 A 
ATOM     10  C   UNL     1      11.387  26.015  35.288  1.00  0.00     0.132 A 
ATOM     11  C   UNL     1      12.237  25.212  36.077  1.00  0.00     0.031 A 
ENDROOT
BRANCH  11  12
ATOM     12  C   UNL     1      13.636  24.958  35.645  1.00  0.00     0.031 A 
ATOM     13  C   UNL     1      14.677  25.808  36.080  1.00  0.00     0.132 A 
ATOM     14  C   UNL     1      13.922  23.880  34.790  1.00  0.00    -0.039 A 
ATOM     15  C   UNL     1      16.015  25.591  35.639  1.00  0.00     0.039 A 
ATOM     16  C   UNL     1      15.249  23.601  34.457  1.00  0.00     0.013 A 
ATOM     17  C   UNL     1      12.818  23.014  34.235  1.00  0.00     0.045 C 
ATOM     18  C   UNL     1      16.318  24.389  34.936  1.00  0.00    -0.006 A 
ATOM     19  C   UNL     1      17.060  26.526  35.884  1.00  0.00     0.072 A 
ATOM     20  C   UNL     1      17.676  24.016  34.709  1.00  0.00     0.008 A 
ATOM     21  C   UNL     1      18.380  26.227  35.497  1.00  0.00     0.169 A 
ATOM     22  C   UNL     1      18.694  24.971  34.938  1.00  0.00     0.162 A 
BRANCH  13  23
ATOM     23  O   UNL     1      14.390  26.839  36.983  1.00  0.00    -0.507 OA
ATOM     24  H   UNL     1      13.629  26.809  37.650  1.00  0.00     0.293 HD
ENDBRANCH  13  23
BRANCH  19  25
ATOM     25  C   UNL     1      16.787  27.893  36.395  1.00  0.00     0.264 C 
ATOM     26  O   UNL     1      16.731  28.124  37.632  1.00  0.00    -0.298 OA
ENDBRANCH  19  25
BRANCH  20  27
ATOM     27  C   UNL     1      18.048  22.598  34.234  1.00  0.00     0.017 C 
ATOM     28  C   UNL     1      18.911  21.880  35.276  1.00  0.00     0.012 C 
ATOM     29  C   UNL     1      16.835  21.744  33.823  1.00  0.00     0.012 C 
ENDBRANCH  20  27
BRANCH  21  30
ATOM     30  O   UNL     1      19.358  27.218  35.653  1.00  0.00    -0.504 OA
ATOM     31  H   UNL     1      19.174  28.200  35.787  1.00  0.00     0.293 HD
ENDBRANCH  21  30
BRANCH  22  32
ATOM     32  O   UNL     1      20.007  24.651  34.583  1.00  0.00    -0.504 OA
ATOM     33  H   UNL     1      20.303  23.770  34.186  1.00  0.00     0.293 HD
ENDBRANCH  22  32
ENDBRANCH  11  12
BRANCH  10  34
ATOM     34  O   UNL     1      11.844  26.494  34.054  1.00  0.00    -0.507 OA
ATOM     35  H   UNL     1      12.643  26.115  33.563  1.00  0.00     0.293 HD
ENDBRANCH  10  34
BRANCH   9  36
ATOM     36  C   UNL     1       7.638  25.291  38.598  1.00  0.00     0.017 C 
ATOM     37  C   UNL     1       8.030  26.224  39.749  1.00  0.00     0.012 C 
ATOM     38  C   UNL     1       8.033  23.832  38.902  1.00  0.00     0.012 C 
ENDBRANCH   9  36
BRANCH   6  39
ATOM     39  C   UNL     1       9.684  28.124  33.975  1.00  0.00     0.264 C 
ATOM     40  O   UNL     1       9.299  28.058  32.776  1.00  0.00    -0.298 OA
ENDBRANCH   6  39
BRANCH   8  41
ATOM     41  O   UNL     1       5.924  26.304  36.520  1.00  0.00    -0.504 OA
ATOM     42  H   UNL     1       5.240  26.458  35.793  1.00  0.00     0.293 HD
ENDBRANCH   8  41
BRANCH   7  43
ATOM     43  O   UNL     1       6.985  27.963  34.457  1.00  0.00    -0.504 OA
ATOM     44  H   UNL     1       7.268  28.842  34.045  1.00  0.00     0.293 HD
ENDBRANCH   7  43
TORSDOF 11
ENDMDL
MODEL 4
REMARK VINA RESULT:    -5.058      2.024      8.923
REMARK INTER + INTRA:          -6.824
REMARK INTER:                  -6.264
REMARK INTRA:                  -0.560
REMARK UNBOUND:                 0.599
REMARK SMILES Cc1cc2c(C(C)C)c(O)c(O)c(C=O)c2c(O)c1-c1c(C)cc2c(C(C)C)c(O)c(O)c(C=O)c2c1O
REMARK SMILES IDX 1 1 2 2 3 3 4 4 16 5 13 6 11 7 9 8 5 9 17 10 19 11 20 12
REMARK SMILES IDX 37 13 21 14 36 15 23 16 22 17 24 18 33 19 25 20 31 21 29 22
REMARK SMILES IDX 38 23 34 25 35 26 26 27 27 28 28 29 32 30 30 32 18 34 6 36
REMARK SMILES IDX 7 37 8 38 14 39 15 40 10 41 12 43
REMARK H PARENT 38 24 32 31 30 33 18 35 10 42 12 44
REMARK Flexibility Score: inf
ROOT
ATOM      1  C   UNL     1      11.926  27.391  33.871  1.00  0.00     0.045 C 
ATOM      2  C   UNL     1      11.211  26.742  35.031  1.00  0.00    -0.039 A 
ATOM      3  C   UNL     1       9.850  26.996  35.220  1.00  0.00     0.013 A 
ATOM      4  C   UNL     1       9.117  26.393  36.268  1.00  0.00    -0.006 A 
ATOM      5  C   UNL     1       9.808  25.544  37.185  1.00  0.00     0.039 A 
ATOM      6  C   UNL     1       9.071  24.927  38.236  1.00  0.00     0.072 A 
ATOM      7  C   UNL     1       7.757  25.338  38.506  1.00  0.00     0.169 A 
ATOM      8  C   UNL     1       7.115  26.259  37.660  1.00  0.00     0.162 A 
ATOM      9  C   UNL     1       7.724  26.654  36.447  1.00  0.00     0.008 A 
ATOM     10  C   UNL     1      11.219  25.388  37.060  1.00  0.00     0.132 A 
ATOM     11  C   UNL     1      11.905  25.956  35.965  1.00  0.00     0.031 A 
ENDROOT
BRANCH  11  12
ATOM     12  C   UNL     1      13.370  25.757  35.820  1.00  0.00     0.031 A 
ATOM     13  C   UNL     1      13.868  24.601  35.180  1.00  0.00     0.132 A 
ATOM     14  C   UNL     1      14.262  26.714  36.334  1.00  0.00    -0.039 A 
ATOM     15  C   UNL     1      15.274  24.388  35.071  1.00  0.00     0.039 A 
ATOM     16  C   UNL     1      15.633  26.559  36.120  1.00  0.00     0.013 A 
ATOM     17  C   UNL     1      13.760  27.911  37.104  1.00  0.00     0.045 C 
ATOM     18  C   UNL     1      16.156  25.451  35.419  1.00  0.00    -0.006 A 
ATOM     19  C   UNL     1      15.825  23.156  34.617  1.00  0.00     0.072 A 
ATOM     20  C   UNL     1      17.540  25.371  35.081  1.00  0.00     0.008 A 
ATOM     21  C   UNL     1      17.218  23.025  34.452  1.00  0.00     0.169 A 
ATOM     22  C   UNL     1      18.069  24.131  34.656  1.00  0.00     0.162 A 
BRANCH  13  23
ATOM     23  O   UNL     1      12.970  23.688  34.615  1.00  0.00    -0.507 OA
ATOM     24  H   UNL     1      12.875  23.532  33.620  1.00  0.00     0.293 HD
ENDBRANCH  13  23
BRANCH  19  25
ATOM     25  C   UNL     1      14.997  21.935  34.461  1.00  0.00     0.264 C 
ATOM     26  O   UNL     1      14.766  21.179  35.442  1.00  0.00    -0.298 OA
ENDBRANCH  19  25
BRANCH  20  27
ATOM     27  C   UNL     1      18.456  26.608  35.161  1.00  0.00     0.017 C 
ATOM     28  C   UNL     1      19.330  26.563  36.417  1.00  0.00     0.012 C 
ATOM     29  C   UNL     1      19.302  26.835  33.894  1.00  0.00     0.012 C 
ENDBRANCH  20  27
BRANCH  21  30
ATOM     30  O   UNL     1      17.729  21.765  34.113  1.00  0.00    -0.504 OA
ATOM     31  H   UNL     1      17.209  21.029  33.662  1.00  0.00     0.293 HD
ENDBRANCH  21  30
BRANCH  22  32
ATOM     32  O   UNL     1      19.448  24.021  34.460  1.00  0.00    -0.504 OA
ATOM     33  H   UNL     1      20.073  24.794  34.283  1.00  0.00     0.293 HD
ENDBRANCH  22  32
ENDBRANCH  11  12
BRANCH  10  34
ATOM     34  O   UNL     1      11.942  24.716  38.052  1.00  0.00    -0.507 OA
ATOM     35  H   UNL     1      12.591  23.962  37.864  1.00  0.00     0.293 HD
ENDBRANCH  10  34
BRANCH   9  36
ATOM     36  C   UNL     1       6.896  27.400  35.386  1.00  0.00     0.017 C 
ATOM     37  C   UNL     1       5.875  26.464  34.728  1.00  0.00     0.012 C 
ATOM     38  C   UNL     1       7.751  28.125  34.327  1.00  0.00     0.012 C 
ENDBRANCH   9  36
BRANCH   6  39
ATOM     39  C   UNL     1       9.594  23.793  39.031  1.00  0.00     0.264 C 
ATOM     40  O   UNL     1       9.813  23.919  40.266  1.00  0.00    -0.298 OA
ENDBRANCH   6  39
BRANCH   8  41
ATOM     41  O   UNL     1       5.875  26.802  38.010  1.00  0.00    -0.504 OA
ATOM     42  H   UNL     1       5.088  26.870  37.380  1.00  0.00     0.293 HD
ENDBRANCH   8  41
BRANCH   7  43
ATOM     43  O   UNL     1       7.092  24.773  39.601  1.00  0.00    -0.504 OA
ATOM     44  H   UNL     1       6.516  25.297  40.245  1.00  0.00     0.293 HD
ENDBRANCH   7  43
TORSDOF 11
ENDMDL
MODEL 5
REMARK VINA RESULT:    -4.948      2.483      8.930
REMARK INTER + INTRA:          -6.663
REMARK INTER:                  -6.114
REMARK INTRA:                  -0.549
REMARK UNBOUND:                 0.599
REMARK SMILES Cc1cc2c(C(C)C)c(O)c(O)c(C=O)c2c(O)c1-c1c(C)cc2c(C(C)C)c(O)c(O)c(C=O)c2c1O
REMARK SMILES IDX 1 1 2 2 3 3 4 4 16 5 13 6 11 7 9 8 5 9 17 10 19 11 20 12
REMARK SMILES IDX 37 13 21 14 36 15 23 16 22 17 24 18 33 19 25 20 31 21 29 22
REMARK SMILES IDX 38 23 34 25 35 26 26 27 27 28 28 29 32 30 30 32 18 34 6 36
REMARK SMILES IDX 7 37 8 38 14 39 15 40 10 41 12 43
REMARK H PARENT 38 24 32 31 30 33 18 35 10 42 12 44
REMARK Flexibility Score: inf
ROOT
ATOM      1  C   UNL     1      12.716  24.555  38.435  1.00  0.00     0.045 C 
ATOM      2  C   UNL     1      11.799  25.241  37.452  1.00  0.00    -0.039 A 
ATOM      3  C   UNL     1      10.425  25.264  37.703  1.00  0.00     0.013 A 
ATOM      4  C   UNL     1       9.519  25.920  36.839  1.00  0.00    -0.006 A 
ATOM      5  C   UNL     1      10.026  26.525  35.650  1.00  0.00     0.039 A 
ATOM      6  C   UNL     1       9.117  27.195  34.781  1.00  0.00     0.072 A 
ATOM      7  C   UNL     1       7.734  27.048  34.965  1.00  0.00     0.169 A 
ATOM      8  C   UNL     1       7.238  26.356  36.083  1.00  0.00     0.162 A 
ATOM      9  C   UNL     1       8.116  25.943  37.111  1.00  0.00     0.008 A 
ATOM     10  C   UNL     1      11.409  26.392  35.337  1.00  0.00     0.132 A 
ATOM     11  C   UNL     1      12.293  25.784  36.254  1.00  0.00     0.031 A 
ENDROOT
BRANCH  11  12
ATOM     12  C   UNL     1      13.741  25.682  35.938  1.00  0.00     0.031 A 
ATOM     13  C   UNL     1      14.252  24.516  35.326  1.00  0.00     0.132 A 
ATOM     14  C   UNL     1      14.607  26.740  36.263  1.00  0.00    -0.039 A 
ATOM     15  C   UNL     1      15.646  24.398  35.054  1.00  0.00     0.039 A 
ATOM     16  C   UNL     1      15.949  26.669  35.887  1.00  0.00     0.013 A 
ATOM     17  C   UNL     1      14.104  27.957  37.001  1.00  0.00     0.045 C 
ATOM     18  C   UNL     1      16.473  25.548  35.208  1.00  0.00    -0.006 A 
ATOM     19  C   UNL     1      16.239  23.176  34.625  1.00  0.00     0.072 A 
ATOM     20  C   UNL     1      17.808  25.541  34.703  1.00  0.00     0.008 A 
ATOM     21  C   UNL     1      17.607  23.134  34.294  1.00  0.00     0.169 A 
ATOM     22  C   UNL     1      18.382  24.312  34.306  1.00  0.00     0.162 A 
BRANCH  13  23
ATOM     23  O   UNL     1      13.371  23.496  34.949  1.00  0.00    -0.507 OA
ATOM     24  H   UNL     1      13.656  22.542  34.767  1.00  0.00     0.293 HD
ENDBRANCH  13  23
BRANCH  19  25
ATOM     25  C   UNL     1      15.502  21.889  34.666  1.00  0.00     0.264 C 
ATOM     26  O   UNL     1      15.037  21.442  35.749  1.00  0.00    -0.298 OA
ENDBRANCH  19  25
BRANCH  20  27
ATOM     27  C   UNL     1      18.621  26.844  34.574  1.00  0.00     0.017 C 
ATOM     28  C   UNL     1      19.754  26.887  35.604  1.00  0.00     0.012 C 
ATOM     29  C   UNL     1      19.144  27.110  33.150  1.00  0.00     0.012 C 
ENDBRANCH  20  27
BRANCH  21  30
ATOM     30  O   UNL     1      18.176  21.891  33.986  1.00  0.00    -0.504 OA
ATOM     31  H   UNL     1      17.664  21.031  33.868  1.00  0.00     0.293 HD
ENDBRANCH  21  30
BRANCH  22  32
ATOM     32  O   UNL     1      19.732  24.287  33.944  1.00  0.00    -0.504 OA
ATOM     33  H   UNL     1      20.458  24.842  34.373  1.00  0.00     0.293 HD
ENDBRANCH  22  32
ENDBRANCH  11  12
BRANCH  10  34
ATOM     34  O   UNL     1      11.893  26.812  34.092  1.00  0.00    -0.507 OA
ATOM     35  H   UNL     1      11.497  26.526  33.207  1.00  0.00     0.293 HD
ENDBRANCH  10  34
BRANCH   9  36
ATOM     36  C   UNL     1       7.545  25.478  38.462  1.00  0.00     0.017 C 
ATOM     37  C   UNL     1       7.533  26.626  39.477  1.00  0.00     0.012 C 
ATOM     38  C   UNL     1       8.245  24.231  39.036  1.00  0.00     0.012 C 
ENDBRANCH   9  36
BRANCH   6  39
ATOM     39  C   UNL     1       9.555  28.124  33.715  1.00  0.00     0.264 C 
ATOM     40  O   UNL     1       8.995  28.120  32.586  1.00  0.00    -0.298 OA
ENDBRANCH   6  39
BRANCH   8  41
ATOM     41  O   UNL     1       5.876  26.059  36.189  1.00  0.00    -0.504 OA
ATOM     42  H   UNL     1       5.187  26.688  36.576  1.00  0.00     0.293 HD
ENDBRANCH   8  41
BRANCH   7  43
ATOM     43  O   UNL     1       6.871  27.649  34.041  1.00  0.00    -0.504 OA
ATOM     44  H   UNL     1       7.155  27.965  33.123  1.00  0.00     0.293 HD
ENDBRANCH   7  43
TORSDOF 11
ENDMDL
MODEL 6
REMARK VINA RESULT:    -4.395      2.464      9.186
REMARK INTER + INTRA:          -5.852
REMARK INTER:                  -7.824
REMARK INTRA:                   1.972
REMARK UNBOUND:                 0.599
REMARK SMILES Cc1cc2c(C(C)C)c(O)c(O)c(C=O)c2c(O)c1-c1c(C)cc2c(C(C)C)c(O)c(O)c(C=O)c2c1O
REMARK SMILES IDX 1 1 2 2 3 3 4 4 16 5 13 6 11 7 9 8 5 9 17 10 19 11 20 12
REMARK SMILES IDX 37 13 21 14 36 15 23 16 22 17 24 18 33 19 25 20 31 21 29 22
REMARK SMILES IDX 38 23 34 25 35 26 26 27 27 28 28 29 32 30 30 32 18 34 6 36
REMARK SMILES IDX 7 37 8 38 14 39 15 40 10 41 12 43
REMARK H PARENT 38 24 32 31 30 33 18 35 10 42 12 44
REMARK Flexibility Score: inf
ROOT
ATOM      1  C   UNL     1      13.777  28.125  35.859  1.00  0.00     0.045 C 
ATOM      2  C   UNL     1      12.981  26.872  36.131  1.00  0.00    -0.039 A 
ATOM      3  C   UNL     1      11.611  26.976  36.380  1.00  0.00     0.013 A 
ATOM      4  C   UNL     1      10.805  25.837  36.609  1.00  0.00    -0.006 A 
ATOM      5  C   UNL     1      11.429  24.554  36.638  1.00  0.00     0.039 A 
ATOM      6  C   UNL     1      10.619  23.403  36.859  1.00  0.00     0.072 A 
ATOM      7  C   UNL     1       9.290  23.551  37.280  1.00  0.00     0.169 A 
ATOM      8  C   UNL     1       8.709  24.830  37.355  1.00  0.00     0.162 A 
ATOM      9  C   UNL     1       9.402  25.955  36.855  1.00  0.00     0.008 A 
ATOM     10  C   UNL     1      12.845  24.466  36.507  1.00  0.00     0.132 A 
ATOM     11  C   UNL     1      13.607  25.617  36.218  1.00  0.00     0.031 A 
ENDROOT
BRANCH  11  12
ATOM     12  C   UNL     1      15.079  25.513  36.044  1.00  0.00     0.031 A 
ATOM     13  C   UNL     1      15.621  24.579  35.134  1.00  0.00     0.132 A 
ATOM     14  C   UNL     1      15.935  26.334  36.798  1.00  0.00    -0.039 A 
ATOM     15  C   UNL     1      17.033  24.449  34.991  1.00  0.00     0.039 A 
ATOM     16  C   UNL     1      17.311  26.287  36.568  1.00  0.00     0.013 A 
ATOM     17  C   UNL     1      15.388  27.274  37.844  1.00  0.00     0.045 C 
ATOM     18  C   UNL     1      17.876  25.416  35.612  1.00  0.00    -0.006 A 
ATOM     19  C   UNL     1      17.630  23.395  34.242  1.00  0.00     0.072 A 
ATOM     20  C   UNL     1      19.263  25.473  35.282  1.00  0.00     0.008 A 
ATOM     21  C   UNL     1      19.027  23.358  34.065  1.00  0.00     0.169 A 
ATOM     22  C   UNL     1      19.837  24.403  34.558  1.00  0.00     0.162 A 
BRANCH  13  23
ATOM     23  O   UNL     1      14.758  23.812  34.342  1.00  0.00    -0.507 OA
ATOM     24  H   UNL     1      13.894  23.407  34.679  1.00  0.00     0.293 HD
ENDBRANCH  13  23
BRANCH  19  25
ATOM     25  C   UNL     1      16.847  22.228  33.767  1.00  0.00     0.264 C 
ATOM     26  O   UNL     1      16.338  21.413  34.582  1.00  0.00    -0.298 OA
ENDBRANCH  19  25
BRANCH  20  27
ATOM     27  C   UNL     1      20.133  26.677  35.688  1.00  0.00     0.017 C 
ATOM     28  C   UNL     1      20.270  27.670  34.530  1.00  0.00     0.012 C 
ATOM     29  C   UNL     1      19.661  27.377  36.977  1.00  0.00     0.012 C 
ENDBRANCH  20  27
BRANCH  21  30
ATOM     30  O   UNL     1      19.584  22.247  33.420  1.00  0.00    -0.504 OA
ATOM     31  H   UNL     1      20.478  22.233  32.954  1.00  0.00     0.293 HD
ENDBRANCH  21  30
BRANCH  22  32
ATOM     32  O   UNL     1      21.220  24.394  34.357  1.00  0.00    -0.504 OA
ATOM     33  H   UNL     1      21.899  24.818  34.973  1.00  0.00     0.293 HD
ENDBRANCH  22  32
ENDBRANCH  11  12
BRANCH  10  34
ATOM     34  O   UNL     1      13.497  23.245  36.718  1.00  0.00    -0.507 OA
ATOM     35  H   UNL     1      13.140  22.353  36.401  1.00  0.00     0.293 HD
ENDBRANCH  10  34
BRANCH   9  36
ATOM     36  C   UNL     1       8.652  27.282  36.646  1.00  0.00     0.017 C 
ATOM     37  C   UNL     1       8.282  27.921  37.990  1.00  0.00     0.012 C 
ATOM     38  C   UNL     1       7.420  27.162  35.728  1.00  0.00     0.012 C 
ENDBRANCH   9  36
BRANCH   6  39
ATOM     39  C   UNL     1      11.084  22.024  36.587  1.00  0.00     0.264 C 
ATOM     40  O   UNL     1      11.241  21.618  35.404  1.00  0.00    -0.298 OA
ENDBRANCH   6  39
BRANCH   8  41
ATOM     41  O   UNL     1       7.447  25.005  37.930  1.00  0.00    -0.504 OA
ATOM     42  H   UNL     1       6.868  25.820  37.789  1.00  0.00     0.293 HD
ENDBRANCH   8  41
BRANCH   7  43
ATOM     43  O   UNL     1       8.549  22.400  37.572  1.00  0.00    -0.504 OA
ATOM     44  H   UNL     1       7.689  22.146  37.104  1.00  0.00     0.293 HD
ENDBRANCH   7  43
TORSDOF 11
ENDMDL
MODEL 7
REMARK VINA RESULT:    -3.562     13.728     17.930
REMARK INTER + INTRA:          -4.628
REMARK INTER:                  -4.555
REMARK INTRA:                  -0.074
REMARK UNBOUND:                 0.599
REMARK SMILES Cc1cc2c(C(C)C)c(O)c(O)c(C=O)c2c(O)c1-c1c(C)cc2c(C(C)C)c(O)c(O)c(C=O)c2c1O
REMARK SMILES IDX 1 1 2 2 3 3 4 4 16 5 13 6 11 7 9 8 5 9 17 10 19 11 20 12
REMARK SMILES IDX 37 13 21 14 36 15 23 16 22 17 24 18 33 19 25 20 31 21 29 22
REMARK SMILES IDX 38 23 34 25 35 26 26 27 27 28 28 29 32 30 30 32 18 34 6 36
REMARK SMILES IDX 7 37 8 38 14 39 15 40 10 41 12 43
REMARK H PARENT 38 24 32 31 30 33 18 35 10 42 12 44
REMARK Flexibility Score: inf
ROOT
ATOM      1  C   UNL     1      18.908  12.529  29.362  1.00  0.00     0.045 C 
ATOM      2  C   UNL     1      17.825  11.643  28.796  1.00  0.00    -0.039 A 
ATOM      3  C   UNL     1      17.422  11.822  27.470  1.00  0.00     0.013 A 
ATOM      4  C   UNL     1      16.437  11.002  26.873  1.00  0.00    -0.006 A 
ATOM      5  C   UNL     1      15.805  10.002  27.670  1.00  0.00     0.039 A 
ATOM      6  C   UNL     1      14.819   9.168  27.069  1.00  0.00     0.072 A 
ATOM      7  C   UNL     1      14.311   9.486  25.801  1.00  0.00     0.169 A 
ATOM      8  C   UNL     1      14.866  10.544  25.060  1.00  0.00     0.162 A 
ATOM      9  C   UNL     1      16.038  11.190  25.513  1.00  0.00     0.008 A 
ATOM     10  C   UNL     1      16.132   9.907  29.054  1.00  0.00     0.132 A 
ATOM     11  C   UNL     1      17.164  10.700  29.599  1.00  0.00     0.031 A 
ENDROOT
BRANCH  11  12
ATOM     12  C   UNL     1      17.526  10.568  31.035  1.00  0.00     0.031 A 
ATOM     13  C   UNL     1      17.298  11.641  31.924  1.00  0.00     0.132 A 
ATOM     14  C   UNL     1      18.109   9.379  31.504  1.00  0.00    -0.039 A 
ATOM     15  C   UNL     1      17.677  11.533  33.294  1.00  0.00     0.039 A 
ATOM     16  C   UNL     1      18.369   9.234  32.868  1.00  0.00     0.013 A 
ATOM     17  C   UNL     1      18.449   8.253  30.559  1.00  0.00     0.045 C 
ATOM     18  C   UNL     1      18.084  10.262  33.793  1.00  0.00    -0.006 A 
ATOM     19  C   UNL     1      17.655  12.646  34.181  1.00  0.00     0.072 A 
ATOM     20  C   UNL     1      18.219  10.056  35.199  1.00  0.00     0.008 A 
ATOM     21  C   UNL     1      17.962  12.469  35.544  1.00  0.00     0.169 A 
ATOM     22  C   UNL     1      18.217  11.180  36.057  1.00  0.00     0.162 A 
BRANCH  13  23
ATOM     23  O   UNL     1      16.657  12.795  31.458  1.00  0.00    -0.507 OA
ATOM     24  H   UNL     1      15.653  12.922  31.458  1.00  0.00     0.293 HD
ENDBRANCH  13  23
BRANCH  19  25
ATOM     25  C   UNL     1      17.473  14.036  33.693  1.00  0.00     0.264 C 
ATOM     26  O   UNL     1      16.328  14.558  33.634  1.00  0.00    -0.298 OA
ENDBRANCH  19  25
BRANCH  20  27
ATOM     27  C   UNL     1      18.354   8.640  35.791  1.00  0.00     0.017 C 
ATOM     28  C   UNL     1      19.778   8.391  36.298  1.00  0.00     0.012 C 
ATOM     29  C   UNL     1      17.307   8.318  36.873  1.00  0.00     0.012 C 
ENDBRANCH  20  27
BRANCH  21  30
ATOM     30  O   UNL     1      18.039  13.605  36.360  1.00  0.00    -0.504 OA
ATOM     31  H   UNL     1      18.751  14.316  36.300  1.00  0.00     0.293 HD
ENDBRANCH  21  30
BRANCH  22  32
ATOM     32  O   UNL     1      18.489  10.988  37.414  1.00  0.00    -0.504 OA
ATOM     33  H   UNL     1      19.068  11.591  37.981  1.00  0.00     0.293 HD
ENDBRANCH  22  32
ENDBRANCH  11  12
BRANCH  10  34
ATOM     34  O   UNL     1      15.395   9.065  29.895  1.00  0.00    -0.507 OA
ATOM     35  H   UNL     1      14.467   8.723  29.679  1.00  0.00     0.293 HD
ENDBRANCH  10  34
BRANCH   9  36
ATOM     36  C   UNL     1      16.815  12.117  24.561  1.00  0.00     0.017 C 
ATOM     37  C   UNL     1      18.142  11.478  24.136  1.00  0.00     0.012 C 
ATOM     38  C   UNL     1      17.032  13.538  25.117  1.00  0.00     0.012 C 
ENDBRANCH   9  36
BRANCH   6  39
ATOM     39  C   UNL     1      14.342   7.909  27.684  1.00  0.00     0.264 C 
ATOM     40  O   UNL     1      13.255   7.875  28.323  1.00  0.00    -0.298 OA
ENDBRANCH   6  39
BRANCH   8  41
ATOM     41  O   UNL     1      14.262  10.977  23.876  1.00  0.00    -0.504 OA
ATOM     42  H   UNL     1      14.722  10.989  22.977  1.00  0.00     0.293 HD
ENDBRANCH   8  41
BRANCH   7  43
ATOM     43  O   UNL     1      13.280   8.696  25.277  1.00  0.00    -0.504 OA
ATOM     44  H   UNL     1      12.357   9.044  25.056  1.00  0.00     0.293 HD
ENDBRANCH   7  43
TORSDOF 11
ENDMDL
MODEL 8
REMARK VINA RESULT:    -3.524     14.090     16.999
REMARK INTER + INTRA:          -4.573
REMARK INTER:                  -4.992
REMARK INTRA:                   0.419
REMARK UNBOUND:                 0.599
REMARK SMILES Cc1cc2c(C(C)C)c(O)c(O)c(C=O)c2c(O)c1-c1c(C)cc2c(C(C)C)c(O)c(O)c(C=O)c2c1O
REMARK SMILES IDX 1 1 2 2 3 3 4 4 16 5 13 6 11 7 9 8 5 9 17 10 19 11 20 12
REMARK SMILES IDX 37 13 21 14 36 15 23 16 22 17 24 18 33 19 25 20 31 21 29 22
REMARK SMILES IDX 38 23 34 25 35 26 26 27 27 28 28 29 32 30 30 32 18 34 6 36
REMARK SMILES IDX 7 37 8 38 14 39 15 40 10 41 12 43
REMARK H PARENT 38 24 32 31 30 33 18 35 10 42 12 44
REMARK Flexibility Score: inf
ROOT
ATOM      1  C   UNL     1      16.433  13.938  31.435  1.00  0.00     0.045 C 
ATOM      2  C   UNL     1      17.493  12.926  31.797  1.00  0.00    -0.039 A 
ATOM      3  C   UNL     1      18.427  13.243  32.787  1.00  0.00     0.013 A 
ATOM      4  C   UNL     1      19.422  12.326  33.194  1.00  0.00    -0.006 A 
ATOM      5  C   UNL     1      19.501  11.064  32.532  1.00  0.00     0.039 A 
ATOM      6  C   UNL     1      20.497  10.134  32.946  1.00  0.00     0.072 A 
ATOM      7  C   UNL     1      21.524  10.544  33.809  1.00  0.00     0.169 A 
ATOM      8  C   UNL     1      21.501  11.830  34.377  1.00  0.00     0.162 A 
ATOM      9  C   UNL     1      20.368  12.658  34.214  1.00  0.00     0.008 A 
ATOM     10  C   UNL     1      18.626  10.796  31.440  1.00  0.00     0.132 A 
ATOM     11  C   UNL     1      17.605  11.710  31.103  1.00  0.00     0.031 A 
ENDROOT
BRANCH  11  12
ATOM     12  C   UNL     1      16.671  11.407  29.988  1.00  0.00     0.031 A 
ATOM     13  C   UNL     1      17.118  11.482  28.650  1.00  0.00     0.132 A 
ATOM     14  C   UNL     1      15.338  11.060  30.264  1.00  0.00    -0.039 A 
ATOM     15  C   UNL     1      16.216  11.228  27.575  1.00  0.00     0.039 A 
ATOM     16  C   UNL     1      14.492  10.697  29.215  1.00  0.00     0.013 A 
ATOM     17  C   UNL     1      14.810  11.063  31.678  1.00  0.00     0.045 C 
ATOM     18  C   UNL     1      14.931  10.691  27.873  1.00  0.00    -0.006 A 
ATOM     19  C   UNL     1      16.558  11.483  26.217  1.00  0.00     0.072 A 
ATOM     20  C   UNL     1      14.107  10.185  26.824  1.00  0.00     0.008 A 
ATOM     21  C   UNL     1      15.661  11.140  25.187  1.00  0.00     0.169 A 
ATOM     22  C   UNL     1      14.455  10.471  25.484  1.00  0.00     0.162 A 
BRANCH  13  23
ATOM     23  O   UNL     1      18.464  11.766  28.390  1.00  0.00    -0.507 OA
ATOM     24  H   UNL     1      18.796  12.184  27.531  1.00  0.00     0.293 HD
ENDBRANCH  13  23
BRANCH  19  25
ATOM     25  C   UNL     1      17.771  12.252  25.843  1.00  0.00     0.264 C 
ATOM     26  O   UNL     1      18.437  11.954  24.816  1.00  0.00    -0.298 OA
ENDBRANCH  19  25
BRANCH  20  27
ATOM     27  C   UNL     1      12.862   9.328  27.126  1.00  0.00     0.017 C 
ATOM     28  C   UNL     1      11.590  10.010  26.613  1.00  0.00     0.012 C 
ATOM     29  C   UNL     1      12.968   7.879  26.617  1.00  0.00     0.012 C 
ENDBRANCH  20  27
BRANCH  21  30
ATOM     30  O   UNL     1      15.985  11.509  23.875  1.00  0.00    -0.504 OA
ATOM     31  H   UNL     1      16.521  10.949  23.230  1.00  0.00     0.293 HD
ENDBRANCH  21  30
BRANCH  22  32
ATOM     32  O   UNL     1      13.575  10.094  24.466  1.00  0.00    -0.504 OA
ATOM     33  H   UNL     1      13.723   9.329  23.824  1.00  0.00     0.293 HD
ENDBRANCH  22  32
ENDBRANCH  11  12
BRANCH  10  34
ATOM     34  O   UNL     1      18.807   9.649  30.658  1.00  0.00    -0.507 OA
ATOM     35  H   UNL     1      18.311   8.780  30.808  1.00  0.00     0.293 HD
ENDBRANCH  10  34
BRANCH   9  36
ATOM     36  C   UNL     1      20.210  13.916  35.086  1.00  0.00     0.017 C 
ATOM     37  C   UNL     1      21.481  14.182  35.900  1.00  0.00     0.012 C 
ATOM     38  C   UNL     1      18.962  13.893  35.990  1.00  0.00     0.012 C 
ENDBRANCH   9  36
BRANCH   6  39
ATOM     39  C   UNL     1      20.469   8.701  32.573  1.00  0.00     0.264 C 
ATOM     40  O   UNL     1      21.282   8.239  31.728  1.00  0.00    -0.298 OA
ENDBRANCH   6  39
BRANCH   8  41
ATOM     41  O   UNL     1      22.597  12.308  35.100  1.00  0.00    -0.504 OA
ATOM     42  H   UNL     1      22.538  12.690  36.033  1.00  0.00     0.293 HD
ENDBRANCH   8  41
BRANCH   7  43
ATOM     43  O   UNL     1      22.535   9.629  34.127  1.00  0.00    -0.504 OA
ATOM     44  H   UNL     1      22.778   9.359  35.070  1.00  0.00     0.293 HD
ENDBRANCH   7  43
TORSDOF 11
ENDMDL
