MODEL 1
REMARK VINA RESULT:    -6.719      0.000      0.000
REMARK INTER + INTRA:          -8.173
REMARK INTER:                  -7.898
REMARK INTRA:                  -0.275
REMARK UNBOUND:                -0.275
REMARK SMILES O=c1cc(-c2ccc(O)c(O)c2)oc2cc(O)cc(O)c12
REMARK SMILES IDX 4 1 3 2 2 3 1 4 21 5 19 6 18 7 16 8 15 9 14 10 13 11 5 12
REMARK SMILES IDX 6 13 7 14 8 15 12 16 10 17 9 18 11 20 20 22 17 24
REMARK H PARENT 9 19 11 21 20 23 17 25
REMARK Flexibility Score: inf
ROOT
ATOM      1  C   UNL     1      45.276  45.499   9.778  1.00  0.00     0.138 A 
ATOM      2  C   UNL     1      45.672  44.653  10.828  1.00  0.00     0.100 A 
ATOM      3  C   UNL     1      45.608  43.270  10.655  1.00  0.00     0.197 A 
ATOM      4  O   UNL     1      45.966  42.517  11.601  1.00  0.00    -0.289 OA
ATOM      5  C   UNL     1      45.150  42.742   9.431  1.00  0.00     0.107 A 
ATOM      6  C   UNL     1      45.053  41.353   9.173  1.00  0.00     0.134 A 
ATOM      7  C   UNL     1      44.592  40.909   7.926  1.00  0.00     0.093 A 
ATOM      8  C   UNL     1      44.229  41.825   6.933  1.00  0.00     0.123 A 
ATOM      9  C   UNL     1      44.323  43.196   7.182  1.00  0.00     0.094 A 
ATOM     10  C   UNL     1      44.779  43.659   8.419  1.00  0.00     0.146 A 
ATOM     11  O   UNL     1      44.858  44.969   8.632  1.00  0.00    -0.456 OA
ENDROOT
BRANCH   1  12
ATOM     12  C   UNL     1      45.325  46.978   9.905  1.00  0.00     0.021 A 
ATOM     13  C   UNL     1      44.202  47.739   9.541  1.00  0.00     0.016 A 
ATOM     14  C   UNL     1      44.218  49.132   9.658  1.00  0.00     0.051 A 
ATOM     15  C   UNL     1      45.351  49.786  10.149  1.00  0.00     0.157 A 
ATOM     16  C   UNL     1      46.459  47.641  10.413  1.00  0.00     0.062 A 
ATOM     17  C   UNL     1      46.477  49.039  10.532  1.00  0.00     0.158 A 
BRANCH  15  18
ATOM     18  O   UNL     1      45.339  51.178  10.252  1.00  0.00    -0.504 OA
ATOM     19  H   UNL     1      46.147  51.741  10.016  1.00  0.00     0.293 HD
ENDBRANCH  15  18
BRANCH  17  20
ATOM     20  O   UNL     1      47.606  49.686  11.034  1.00  0.00    -0.504 OA
ATOM     21  H   UNL     1      48.505  49.221  11.085  1.00  0.00     0.293 HD
ENDBRANCH  17  20
ENDBRANCH   1  12
BRANCH   6  22
ATOM     22  O   UNL     1      45.408  40.417  10.146  1.00  0.00    -0.507 OA
ATOM     23  H   UNL     1      44.711  39.933  10.699  1.00  0.00     0.293 HD
ENDBRANCH   6  22
BRANCH   8  24
ATOM     24  O   UNL     1      43.772  41.383   5.693  1.00  0.00    -0.508 OA
ATOM     25  H   UNL     1      43.079  41.902   5.167  1.00  0.00     0.293 HD
ENDBRANCH   8  24
TORSDOF 5
ENDMDL
MODEL 2
REMARK VINA RESULT:    -6.428      3.732      8.727
REMARK INTER + INTRA:          -7.831
REMARK INTER:                  -7.552
REMARK INTRA:                  -0.279
REMARK UNBOUND:                -0.275
REMARK SMILES O=c1cc(-c2ccc(O)c(O)c2)oc2cc(O)cc(O)c12
REMARK SMILES IDX 4 1 3 2 2 3 1 4 21 5 19 6 18 7 16 8 15 9 14 10 13 11 5 12
REMARK SMILES IDX 6 13 7 14 8 15 12 16 10 17 9 18 11 20 20 22 17 24
REMARK H PARENT 9 19 11 21 20 23 17 25
REMARK Flexibility Score: inf
ROOT
ATOM      1  C   UNL     1      45.317  39.034  10.019  1.00  0.00     0.138 A 
ATOM      2  C   UNL     1      45.702  39.894  11.061  1.00  0.00     0.100 A 
ATOM      3  C   UNL     1      45.651  41.275  10.866  1.00  0.00     0.197 A 
ATOM      4  O   UNL     1      45.996  42.040  11.807  1.00  0.00    -0.289 OA
ATOM      5  C   UNL     1      45.212  41.787   9.628  1.00  0.00     0.107 A 
ATOM      6  C   UNL     1      45.131  43.171   9.346  1.00  0.00     0.134 A 
ATOM      7  C   UNL     1      44.679  43.599   8.089  1.00  0.00     0.093 A 
ATOM      8  C   UNL     1      44.306  42.670   7.112  1.00  0.00     0.123 A 
ATOM      9  C   UNL     1      44.383  41.302   7.385  1.00  0.00     0.094 A 
ATOM     10  C   UNL     1      44.832  40.856   8.632  1.00  0.00     0.146 A 
ATOM     11  O   UNL     1      44.899  39.549   8.866  1.00  0.00    -0.456 OA
ENDROOT
BRANCH   1  12
ATOM     12  C   UNL     1      45.349  37.557  10.172  1.00  0.00     0.021 A 
ATOM     13  C   UNL     1      44.273  36.790   9.695  1.00  0.00     0.016 A 
ATOM     14  C   UNL     1      44.282  35.398   9.819  1.00  0.00     0.051 A 
ATOM     15  C   UNL     1      45.368  34.749  10.411  1.00  0.00     0.157 A 
ATOM     16  C   UNL     1      46.448  36.896  10.756  1.00  0.00     0.062 A 
ATOM     17  C   UNL     1      46.458  35.499  10.880  1.00  0.00     0.158 A 
BRANCH  15  18
ATOM     18  O   UNL     1      45.347  33.358  10.523  1.00  0.00    -0.504 OA
ATOM     19  H   UNL     1      45.177  32.757   9.726  1.00  0.00     0.293 HD
ENDBRANCH  15  18
BRANCH  17  20
ATOM     20  O   UNL     1      47.550  34.855  11.462  1.00  0.00    -0.504 OA
ATOM     21  H   UNL     1      47.447  33.971  11.946  1.00  0.00     0.293 HD
ENDBRANCH  17  20
ENDBRANCH   1  12
BRANCH   6  22
ATOM     22  O   UNL     1      45.498  44.120  10.302  1.00  0.00    -0.507 OA
ATOM     23  H   UNL     1      45.796  43.851  11.232  1.00  0.00     0.293 HD
ENDBRANCH   6  22
BRANCH   8  24
ATOM     24  O   UNL     1      43.855  43.095   5.864  1.00  0.00    -0.508 OA
ATOM     25  H   UNL     1      44.298  43.863   5.374  1.00  0.00     0.293 HD
ENDBRANCH   8  24
TORSDOF 5
ENDMDL
MODEL 3
REMARK VINA RESULT:    -6.366      5.378      8.707
REMARK INTER + INTRA:          -7.758
REMARK INTER:                  -7.496
REMARK INTRA:                  -0.262
REMARK UNBOUND:                -0.275
REMARK SMILES O=c1cc(-c2ccc(O)c(O)c2)oc2cc(O)cc(O)c12
REMARK SMILES IDX 4 1 3 2 2 3 1 4 21 5 19 6 18 7 16 8 15 9 14 10 13 11 5 12
REMARK SMILES IDX 6 13 7 14 8 15 12 16 10 17 9 18 11 20 20 22 17 24
REMARK H PARENT 9 19 11 21 20 23 17 25
REMARK Flexibility Score: inf
ROOT
ATOM      1  C   UNL     1      50.985  47.483  11.793  1.00  0.00     0.138 A 
ATOM      2  C   UNL     1      51.273  48.803  12.177  1.00  0.00     0.100 A 
ATOM      3  C   UNL     1      50.229  49.716  12.330  1.00  0.00     0.197 A 
ATOM      4  O   UNL     1      50.495  50.899  12.676  1.00  0.00    -0.289 OA
ATOM      5  C   UNL     1      48.901  49.300  12.101  1.00  0.00     0.107 A 
ATOM      6  C   UNL     1      47.786  50.161  12.232  1.00  0.00     0.134 A 
ATOM      7  C   UNL     1      46.495  49.668  11.991  1.00  0.00     0.093 A 
ATOM      8  C   UNL     1      46.301  48.332  11.623  1.00  0.00     0.123 A 
ATOM      9  C   UNL     1      47.399  47.479  11.492  1.00  0.00     0.094 A 
ATOM     10  C   UNL     1      48.693  47.952  11.727  1.00  0.00     0.146 A 
ATOM     11  O   UNL     1      49.721  47.119  11.594  1.00  0.00    -0.456 OA
ENDROOT
BRANCH   1  12
ATOM     12  C   UNL     1      52.056  46.469  11.617  1.00  0.00     0.021 A 
ATOM     13  C   UNL     1      52.363  46.006  10.326  1.00  0.00     0.016 A 
ATOM     14  C   UNL     1      53.371  45.058  10.131  1.00  0.00     0.051 A 
ATOM     15  C   UNL     1      54.095  44.564  11.219  1.00  0.00     0.157 A 
ATOM     16  C   UNL     1      52.798  45.977  12.709  1.00  0.00     0.062 A 
ATOM     17  C   UNL     1      53.811  45.027  12.514  1.00  0.00     0.158 A 
BRANCH  15  18
ATOM     18  O   UNL     1      55.094  43.616  10.994  1.00  0.00    -0.504 OA
ATOM     19  H   UNL     1      55.081  43.003  10.187  1.00  0.00     0.293 HD
ENDBRANCH  15  18
BRANCH  17  20
ATOM     20  O   UNL     1      54.539  44.545  13.602  1.00  0.00    -0.504 OA
ATOM     21  H   UNL     1      54.108  44.407  14.509  1.00  0.00     0.293 HD
ENDBRANCH  17  20
ENDBRANCH   1  12
BRANCH   6  22
ATOM     22  O   UNL     1      47.951  51.498  12.598  1.00  0.00    -0.507 OA
ATOM     23  H   UNL     1      48.831  51.982  12.464  1.00  0.00     0.293 HD
ENDBRANCH   6  22
BRANCH   8  24
ATOM     24  O   UNL     1      45.019  47.842  11.384  1.00  0.00    -0.508 OA
ATOM     25  H   UNL     1      44.688  46.989  11.819  1.00  0.00     0.293 HD
ENDBRANCH   8  24
TORSDOF 5
ENDMDL
MODEL 4
REMARK VINA RESULT:    -6.364      1.783      7.301
REMARK INTER + INTRA:          -7.756
REMARK INTER:                  -7.439
REMARK INTRA:                  -0.317
REMARK UNBOUND:                -0.275
REMARK SMILES O=c1cc(-c2ccc(O)c(O)c2)oc2cc(O)cc(O)c12
REMARK SMILES IDX 4 1 3 2 2 3 1 4 21 5 19 6 18 7 16 8 15 9 14 10 13 11 5 12
REMARK SMILES IDX 6 13 7 14 8 15 12 16 10 17 9 18 11 20 20 22 17 24
REMARK H PARENT 9 19 11 21 20 23 17 25
REMARK Flexibility Score: inf
ROOT
ATOM      1  C   UNL     1      43.745  45.566   8.144  1.00  0.00     0.138 A 
ATOM      2  C   UNL     1      42.810  46.588   7.904  1.00  0.00     0.100 A 
ATOM      3  C   UNL     1      42.949  47.813   8.557  1.00  0.00     0.197 A 
ATOM      4  O   UNL     1      42.108  48.725   8.334  1.00  0.00    -0.289 OA
ATOM      5  C   UNL     1      44.026  48.009   9.446  1.00  0.00     0.107 A 
ATOM      6  C   UNL     1      44.239  49.219  10.149  1.00  0.00     0.134 A 
ATOM      7  C   UNL     1      45.338  49.335  11.013  1.00  0.00     0.093 A 
ATOM      8  C   UNL     1      46.226  48.268  11.184  1.00  0.00     0.123 A 
ATOM      9  C   UNL     1      46.020  47.072  10.492  1.00  0.00     0.094 A 
ATOM     10  C   UNL     1      44.929  46.936   9.628  1.00  0.00     0.146 A 
ATOM     11  O   UNL     1      44.754  45.787   8.982  1.00  0.00    -0.456 OA
ENDROOT
BRANCH   1  12
ATOM     12  C   UNL     1      43.647  44.244   7.476  1.00  0.00     0.021 A 
ATOM     13  C   UNL     1      42.721  44.063   6.435  1.00  0.00     0.016 A 
ATOM     14  C   UNL     1      42.614  42.831   5.784  1.00  0.00     0.051 A 
ATOM     15  C   UNL     1      43.436  41.763   6.154  1.00  0.00     0.157 A 
ATOM     16  C   UNL     1      44.483  43.168   7.836  1.00  0.00     0.062 A 
ATOM     17  C   UNL     1      44.378  41.932   7.182  1.00  0.00     0.158 A 
BRANCH  15  18
ATOM     18  O   UNL     1      43.304  40.544   5.488  1.00  0.00    -0.504 OA
ATOM     19  H   UNL     1      43.338  39.658   5.977  1.00  0.00     0.293 HD
ENDBRANCH  15  18
BRANCH  17  20
ATOM     20  O   UNL     1      45.208  40.872   7.548  1.00  0.00    -0.504 OA
ATOM     21  H   UNL     1      44.830  39.975   7.830  1.00  0.00     0.293 HD
ENDBRANCH  17  20
ENDBRANCH   1  12
BRANCH   6  22
ATOM     22  O   UNL     1      43.369  50.300   9.998  1.00  0.00    -0.507 OA
ATOM     23  H   UNL     1      42.363  50.183  10.033  1.00  0.00     0.293 HD
ENDBRANCH   6  22
BRANCH   8  24
ATOM     24  O   UNL     1      47.319  48.384  12.041  1.00  0.00    -0.508 OA
ATOM     25  H   UNL     1      48.154  47.825  11.914  1.00  0.00     0.293 HD
ENDBRANCH   8  24
TORSDOF 5
ENDMDL
MODEL 5
REMARK VINA RESULT:    -6.363      1.548      6.695
REMARK INTER + INTRA:          -7.754
REMARK INTER:                  -7.438
REMARK INTRA:                  -0.316
REMARK UNBOUND:                -0.275
REMARK SMILES O=c1cc(-c2ccc(O)c(O)c2)oc2cc(O)cc(O)c12
REMARK SMILES IDX 4 1 3 2 2 3 1 4 21 5 19 6 18 7 16 8 15 9 14 10 13 11 5 12
REMARK SMILES IDX 6 13 7 14 8 15 12 16 10 17 9 18 11 20 20 22 17 24
REMARK H PARENT 9 19 11 21 20 23 17 25
REMARK Flexibility Score: inf
ROOT
ATOM      1  C   UNL     1      45.200  44.258   9.651  1.00  0.00     0.138 A 
ATOM      2  C   UNL     1      45.621  43.765  10.898  1.00  0.00     0.100 A 
ATOM      3  C   UNL     1      46.069  44.656  11.873  1.00  0.00     0.197 A 
ATOM      4  O   UNL     1      46.443  44.206  12.990  1.00  0.00    -0.289 OA
ATOM      5  C   UNL     1      46.089  46.039  11.596  1.00  0.00     0.107 A 
ATOM      6  C   UNL     1      46.528  47.009  12.527  1.00  0.00     0.134 A 
ATOM      7  C   UNL     1      46.513  48.367  12.175  1.00  0.00     0.093 A 
ATOM      8  C   UNL     1      46.066  48.770  10.912  1.00  0.00     0.123 A 
ATOM      9  C   UNL     1      45.631  47.815   9.989  1.00  0.00     0.094 A 
ATOM     10  C   UNL     1      45.640  46.457  10.321  1.00  0.00     0.146 A 
ATOM     11  O   UNL     1      45.222  45.569   9.425  1.00  0.00    -0.456 OA
ENDROOT
BRANCH   1  12
ATOM     12  C   UNL     1      44.713  43.356   8.577  1.00  0.00     0.021 A 
ATOM     13  C   UNL     1      44.885  41.968   8.711  1.00  0.00     0.016 A 
ATOM     14  C   UNL     1      44.428  41.096   7.719  1.00  0.00     0.051 A 
ATOM     15  C   UNL     1      43.785  41.594   6.582  1.00  0.00     0.157 A 
ATOM     16  C   UNL     1      44.051  43.852   7.437  1.00  0.00     0.062 A 
ATOM     17  C   UNL     1      43.591  42.977   6.441  1.00  0.00     0.158 A 
BRANCH  15  18
ATOM     18  O   UNL     1      43.343  40.699   5.607  1.00  0.00    -0.504 OA
ATOM     19  H   UNL     1      43.443  40.889   4.617  1.00  0.00     0.293 HD
ENDBRANCH  15  18
BRANCH  17  20
ATOM     20  O   UNL     1      42.940  43.478   5.314  1.00  0.00    -0.504 OA
ATOM     21  H   UNL     1      43.350  44.210   4.745  1.00  0.00     0.293 HD
ENDBRANCH  17  20
ENDBRANCH   1  12
BRANCH   6  22
ATOM     22  O   UNL     1      46.980  46.636  13.794  1.00  0.00    -0.507 OA
ATOM     23  H   UNL     1      46.418  46.060  14.411  1.00  0.00     0.293 HD
ENDBRANCH   6  22
BRANCH   8  24
ATOM     24  O   UNL     1      46.049  50.119  10.562  1.00  0.00    -0.508 OA
ATOM     25  H   UNL     1      45.256  50.712  10.775  1.00  0.00     0.293 HD
ENDBRANCH   8  24
TORSDOF 5
ENDMDL
MODEL 6
REMARK VINA RESULT:    -6.316      4.471      7.235
REMARK INTER + INTRA:          -7.699
REMARK INTER:                  -7.381
REMARK INTRA:                  -0.318
REMARK UNBOUND:                -0.275
REMARK SMILES O=c1cc(-c2ccc(O)c(O)c2)oc2cc(O)cc(O)c12
REMARK SMILES IDX 4 1 3 2 2 3 1 4 21 5 19 6 18 7 16 8 15 9 14 10 13 11 5 12
REMARK SMILES IDX 6 13 7 14 8 15 12 16 10 17 9 18 11 20 20 22 17 24
REMARK H PARENT 9 19 11 21 20 23 17 25
REMARK Flexibility Score: inf
ROOT
ATOM      1  C   UNL     1      44.728  39.191   9.025  1.00  0.00     0.138 A 
ATOM      2  C   UNL     1      44.141  37.924   8.872  1.00  0.00     0.100 A 
ATOM      3  C   UNL     1      44.511  36.887   9.729  1.00  0.00     0.197 A 
ATOM      4  O   UNL     1      43.978  35.754   9.586  1.00  0.00    -0.289 OA
ATOM      5  C   UNL     1      45.465  37.127  10.739  1.00  0.00     0.107 A 
ATOM      6  C   UNL     1      45.897  36.133  11.649  1.00  0.00     0.134 A 
ATOM      7  C   UNL     1      46.848  36.454  12.629  1.00  0.00     0.093 A 
ATOM      8  C   UNL     1      47.372  37.749  12.716  1.00  0.00     0.123 A 
ATOM      9  C   UNL     1      46.949  38.733  11.820  1.00  0.00     0.094 A 
ATOM     10  C   UNL     1      46.003  38.433  10.835  1.00  0.00     0.146 A 
ATOM     11  O   UNL     1      45.618  39.387   9.994  1.00  0.00    -0.456 OA
ENDROOT
BRANCH   1  12
ATOM     12  C   UNL     1      44.371  40.330   8.142  1.00  0.00     0.021 A 
ATOM     13  C   UNL     1      43.518  40.114   7.046  1.00  0.00     0.016 A 
ATOM     14  C   UNL     1      43.160  41.170   6.205  1.00  0.00     0.051 A 
ATOM     15  C   UNL     1      43.638  42.460   6.448  1.00  0.00     0.157 A 
ATOM     16  C   UNL     1      44.838  41.636   8.391  1.00  0.00     0.062 A 
ATOM     17  C   UNL     1      44.479  42.697   7.548  1.00  0.00     0.158 A 
BRANCH  15  18
ATOM     18  O   UNL     1      43.265  43.495   5.588  1.00  0.00    -0.504 OA
ATOM     19  H   UNL     1      43.527  44.458   5.761  1.00  0.00     0.293 HD
ENDBRANCH  15  18
BRANCH  17  20
ATOM     20  O   UNL     1      44.949  43.985   7.801  1.00  0.00    -0.504 OA
ATOM     21  H   UNL     1      45.056  44.667   7.059  1.00  0.00     0.293 HD
ENDBRANCH  17  20
ENDBRANCH   1  12
BRANCH   6  22
ATOM     22  O   UNL     1      45.391  34.834  11.586  1.00  0.00    -0.507 OA
ATOM     23  H   UNL     1      45.804  34.075  12.116  1.00  0.00     0.293 HD
ENDBRANCH   6  22
BRANCH   8  24
ATOM     24  O   UNL     1      48.316  38.068  13.690  1.00  0.00    -0.508 OA
ATOM     25  H   UNL     1      49.262  37.707  13.650  1.00  0.00     0.293 HD
ENDBRANCH   8  24
TORSDOF 5
ENDMDL
MODEL 7
REMARK VINA RESULT:    -6.251      5.368      7.681
REMARK INTER + INTRA:          -7.623
REMARK INTER:                  -7.342
REMARK INTRA:                  -0.282
REMARK UNBOUND:                -0.275
REMARK SMILES O=c1cc(-c2ccc(O)c(O)c2)oc2cc(O)cc(O)c12
REMARK SMILES IDX 4 1 3 2 2 3 1 4 21 5 19 6 18 7 16 8 15 9 14 10 13 11 5 12
REMARK SMILES IDX 6 13 7 14 8 15 12 16 10 17 9 18 11 20 20 22 17 24
REMARK H PARENT 9 19 11 21 20 23 17 25
REMARK Flexibility Score: inf
ROOT
ATOM      1  C   UNL     1      44.924  39.189   9.478  1.00  0.00     0.138 A 
ATOM      2  C   UNL     1      44.177  38.109   8.980  1.00  0.00     0.100 A 
ATOM      3  C   UNL     1      43.378  38.289   7.851  1.00  0.00     0.197 A 
ATOM      4  O   UNL     1      42.712  37.314   7.409  1.00  0.00    -0.289 OA
ATOM      5  C   UNL     1      43.334  39.551   7.223  1.00  0.00     0.107 A 
ATOM      6  C   UNL     1      42.551  39.819   6.076  1.00  0.00     0.134 A 
ATOM      7  C   UNL     1      42.566  41.102   5.509  1.00  0.00     0.093 A 
ATOM      8  C   UNL     1      43.350  42.118   6.066  1.00  0.00     0.123 A 
ATOM      9  C   UNL     1      44.125  41.858   7.198  1.00  0.00     0.094 A 
ATOM     10  C   UNL     1      44.123  40.586   7.779  1.00  0.00     0.146 A 
ATOM     11  O   UNL     1      44.868  40.365   8.857  1.00  0.00    -0.456 OA
ENDROOT
BRANCH   1  12
ATOM     12  C   UNL     1      45.792  39.055  10.675  1.00  0.00     0.021 A 
ATOM     13  C   UNL     1      45.836  40.097  11.617  1.00  0.00     0.016 A 
ATOM     14  C   UNL     1      46.639  39.993  12.756  1.00  0.00     0.051 A 
ATOM     15  C   UNL     1      47.402  38.844  12.979  1.00  0.00     0.157 A 
ATOM     16  C   UNL     1      46.553  37.893  10.912  1.00  0.00     0.062 A 
ATOM     17  C   UNL     1      47.358  37.786  12.056  1.00  0.00     0.158 A 
BRANCH  15  18
ATOM     18  O   UNL     1      48.196  38.769  14.125  1.00  0.00    -0.504 OA
ATOM     19  H   UNL     1      47.911  38.244  14.943  1.00  0.00     0.293 HD
ENDBRANCH  15  18
BRANCH  17  20
ATOM     20  O   UNL     1      48.109  36.633  12.280  1.00  0.00    -0.504 OA
ATOM     21  H   UNL     1      48.112  35.865  11.619  1.00  0.00     0.293 HD
ENDBRANCH  17  20
ENDBRANCH   1  12
BRANCH   6  22
ATOM     22  O   UNL     1      41.759  38.825   5.499  1.00  0.00    -0.507 OA
ATOM     23  H   UNL     1      41.635  38.758   4.496  1.00  0.00     0.293 HD
ENDBRANCH   6  22
BRANCH   8  24
ATOM     24  O   UNL     1      43.366  43.392   5.502  1.00  0.00    -0.508 OA
ATOM     25  H   UNL     1      43.209  43.535   4.511  1.00  0.00     0.293 HD
ENDBRANCH   8  24
TORSDOF 5
ENDMDL
MODEL 8
REMARK VINA RESULT:    -6.241      2.011      7.274
REMARK INTER + INTRA:          -7.611
REMARK INTER:                  -7.293
REMARK INTRA:                  -0.318
REMARK UNBOUND:                -0.275
REMARK SMILES O=c1cc(-c2ccc(O)c(O)c2)oc2cc(O)cc(O)c12
REMARK SMILES IDX 4 1 3 2 2 3 1 4 21 5 19 6 18 7 16 8 15 9 14 10 13 11 5 12
REMARK SMILES IDX 6 13 7 14 8 15 12 16 10 17 9 18 11 20 20 22 17 24
REMARK H PARENT 9 19 11 21 20 23 17 25
REMARK Flexibility Score: inf
ROOT
ATOM      1  C   UNL     1      44.427  41.885   8.822  1.00  0.00     0.138 A 
ATOM      2  C   UNL     1      45.080  41.453   9.989  1.00  0.00     0.100 A 
ATOM      3  C   UNL     1      45.646  42.396  10.848  1.00  0.00     0.197 A 
ATOM      4  O   UNL     1      46.228  42.001  11.894  1.00  0.00    -0.289 OA
ATOM      5  C   UNL     1      45.551  43.768  10.535  1.00  0.00     0.107 A 
ATOM      6  C   UNL     1      46.098  44.788  11.349  1.00  0.00     0.134 A 
ATOM      7  C   UNL     1      45.957  46.131  10.968  1.00  0.00     0.093 A 
ATOM      8  C   UNL     1      45.280  46.470   9.792  1.00  0.00     0.123 A 
ATOM      9  C   UNL     1      44.739  45.467   8.985  1.00  0.00     0.094 A 
ATOM     10  C   UNL     1      44.870  44.123   9.346  1.00  0.00     0.146 A 
ATOM     11  O   UNL     1      44.347  43.187   8.560  1.00  0.00    -0.456 OA
ENDROOT
BRANCH   1  12
ATOM     12  C   UNL     1      43.806  40.926   7.874  1.00  0.00     0.021 A 
ATOM     13  C   UNL     1      43.887  39.547   8.133  1.00  0.00     0.016 A 
ATOM     14  C   UNL     1      43.305  38.624   7.261  1.00  0.00     0.051 A 
ATOM     15  C   UNL     1      42.623  39.061   6.122  1.00  0.00     0.157 A 
ATOM     16  C   UNL     1      43.105  41.362   6.731  1.00  0.00     0.062 A 
ATOM     17  C   UNL     1      42.519  40.436   5.856  1.00  0.00     0.158 A 
BRANCH  15  18
ATOM     18  O   UNL     1      42.054  38.115   5.268  1.00  0.00    -0.504 OA
ATOM     19  H   UNL     1      42.322  37.139   5.293  1.00  0.00     0.293 HD
ENDBRANCH  15  18
BRANCH  17  20
ATOM     20  O   UNL     1      41.831  40.878   4.727  1.00  0.00    -0.504 OA
ATOM     21  H   UNL     1      40.850  40.665   4.586  1.00  0.00     0.293 HD
ENDBRANCH  17  20
ENDBRANCH   1  12
BRANCH   6  22
ATOM     22  O   UNL     1      46.778  44.478  12.528  1.00  0.00    -0.507 OA
ATOM     23  H   UNL     1      46.677  45.041  13.364  1.00  0.00     0.293 HD
ENDBRANCH   6  22
BRANCH   8  24
ATOM     24  O   UNL     1      45.139  47.804   9.415  1.00  0.00    -0.508 OA
ATOM     25  H   UNL     1      45.835  48.500   9.657  1.00  0.00     0.293 HD
ENDBRANCH   8  24
TORSDOF 5
ENDMDL
MODEL 9
REMARK VINA RESULT:    -6.166      1.261      2.835
REMARK INTER + INTRA:          -7.522
REMARK INTER:                  -7.236
REMARK INTRA:                  -0.287
REMARK UNBOUND:                -0.275
REMARK SMILES O=c1cc(-c2ccc(O)c(O)c2)oc2cc(O)cc(O)c12
REMARK SMILES IDX 4 1 3 2 2 3 1 4 21 5 19 6 18 7 16 8 15 9 14 10 13 11 5 12
REMARK SMILES IDX 6 13 7 14 8 15 12 16 10 17 9 18 11 20 20 22 17 24
REMARK H PARENT 9 19 11 21 20 23 17 25
REMARK Flexibility Score: inf
ROOT
ATOM      1  C   UNL     1      45.245  45.316   9.685  1.00  0.00     0.138 A 
ATOM      2  C   UNL     1      44.848  44.709   8.482  1.00  0.00     0.100 A 
ATOM      3  C   UNL     1      44.829  43.317   8.389  1.00  0.00     0.197 A 
ATOM      4  O   UNL     1      44.470  42.780   7.306  1.00  0.00    -0.289 OA
ATOM      5  C   UNL     1      45.205  42.539   9.503  1.00  0.00     0.107 A 
ATOM      6  C   UNL     1      45.216  41.124   9.494  1.00  0.00     0.134 A 
ATOM      7  C   UNL     1      45.599  40.424  10.647  1.00  0.00     0.093 A 
ATOM      8  C   UNL     1      45.969  41.113  11.808  1.00  0.00     0.123 A 
ATOM      9  C   UNL     1      45.961  42.509  11.822  1.00  0.00     0.094 A 
ATOM     10  C   UNL     1      45.583  43.225  10.682  1.00  0.00     0.146 A 
ATOM     11  O   UNL     1      45.585  44.554  10.722  1.00  0.00    -0.456 OA
ENDROOT
BRANCH   1  12
ATOM     12  C   UNL     1      45.282  46.792   9.842  1.00  0.00     0.021 A 
ATOM     13  C   UNL     1      44.149  47.551   9.502  1.00  0.00     0.016 A 
ATOM     14  C   UNL     1      44.155  48.941   9.647  1.00  0.00     0.051 A 
ATOM     15  C   UNL     1      45.287  49.594  10.142  1.00  0.00     0.157 A 
ATOM     16  C   UNL     1      46.415  47.454  10.353  1.00  0.00     0.062 A 
ATOM     17  C   UNL     1      46.422  48.849  10.500  1.00  0.00     0.158 A 
BRANCH  15  18
ATOM     18  O   UNL     1      45.264  50.984  10.273  1.00  0.00    -0.504 OA
ATOM     19  H   UNL     1      44.740  51.575   9.638  1.00  0.00     0.293 HD
ENDBRANCH  15  18
BRANCH  17  20
ATOM     20  O   UNL     1      47.550  49.496  11.005  1.00  0.00    -0.504 OA
ATOM     21  H   UNL     1      47.596  49.807  11.968  1.00  0.00     0.293 HD
ENDBRANCH  17  20
ENDBRANCH   1  12
BRANCH   6  22
ATOM     22  O   UNL     1      44.851  40.412   8.350  1.00  0.00    -0.507 OA
ATOM     23  H   UNL     1      44.678  40.877   7.466  1.00  0.00     0.293 HD
ENDBRANCH   6  22
BRANCH   8  24
ATOM     24  O   UNL     1      46.349  40.417  12.954  1.00  0.00    -0.508 OA
ATOM     25  H   UNL     1      47.024  39.662  12.917  1.00  0.00     0.293 HD
ENDBRANCH   8  24
TORSDOF 5
ENDMDL
