MODEL 1
REMARK VINA RESULT:    -0.456      0.000      0.000
REMARK INTER + INTRA:          -2.245
REMARK INTER:                  -0.855
REMARK INTRA:                  -1.390
REMARK UNBOUND:                -1.390
REMARK SMILES O=C([O-])CCCCCCCCCCCCCCC(=O)[O-]
REMARK SMILES IDX 10 1 9 2 8 3 7 4 6 5 5 6 4 7 2 8 1 9 3 10 11 11 12 12 13 13
REMARK SMILES IDX 14 14 15 15 16 16 17 17 18 18 19 19 20 20
REMARK H PARENT
REMARK Flexibility Score: inf
ROOT
ATOM      1  C   UNL     1       4.292 -34.155  22.565  1.00  0.00     0.000 C 
ENDROOT
BRANCH   1   2
ATOM      2  C   UNL     1       5.647 -33.707  23.135  1.00  0.00     0.000 C 
BRANCH   2   3
ATOM      3  C   UNL     1       6.119 -34.590  24.300  1.00  0.00     0.000 C 
BRANCH   3   4
ATOM      4  C   UNL     1       5.609 -36.031  24.139  1.00  0.00     0.000 C 
BRANCH   4   5
ATOM      5  C   UNL     1       5.508 -36.778  25.478  1.00  0.00     0.000 C 
BRANCH   5   6
ATOM      6  C   UNL     1       4.287 -37.707  25.549  1.00  0.00     0.006 C 
BRANCH   6   7
ATOM      7  C   UNL     1       3.869 -37.952  27.002  1.00  0.00     0.053 C 
BRANCH   7   8
ATOM      8  C   UNL     1       2.439 -37.565  27.209  1.00  0.00     0.041 C 
ATOM      9  O   UNL     1       1.519 -38.389  26.961  1.00  0.00    -0.550 OA
ATOM     10  O   UNL     1       2.123 -36.314  27.722  1.00  0.00    -0.550 OA
ENDBRANCH   7   8
ENDBRANCH   6   7
ENDBRANCH   5   6
ENDBRANCH   4   5
ENDBRANCH   3   4
ENDBRANCH   2   3
ENDBRANCH   1   2
BRANCH   1  11
ATOM     11  C   UNL     1       4.243 -34.087  21.030  1.00  0.00     0.000 C 
BRANCH  11  12
ATOM     12  C   UNL     1       5.630 -34.352  20.426  1.00  0.00     0.000 C 
BRANCH  12  13
ATOM     13  C   UNL     1       5.558 -34.834  18.967  1.00  0.00     0.000 C 
BRANCH  13  14
ATOM     14  C   UNL     1       4.495 -35.923  18.758  1.00  0.00     0.000 C 
BRANCH  14  15
ATOM     15  C   UNL     1       5.003 -37.285  19.247  1.00  0.00     0.000 C 
BRANCH  15  16
ATOM     16  C   UNL     1       4.354 -37.664  20.587  1.00  0.00     0.006 C 
BRANCH  16  17
ATOM     17  C   UNL     1       5.380 -38.193  21.599  1.00  0.00     0.053 C 
BRANCH  17  18
ATOM     18  C   UNL     1       5.534 -39.679  21.506  1.00  0.00     0.041 C 
ATOM     19  O   UNL     1       6.125 -40.193  20.520  1.00  0.00    -0.550 OA
ATOM     20  O   UNL     1       5.001 -40.500  22.492  1.00  0.00    -0.550 OA
ENDBRANCH  17  18
ENDBRANCH  16  17
ENDBRANCH  15  16
ENDBRANCH  14  15
ENDBRANCH  13  14
ENDBRANCH  12  13
ENDBRANCH  11  12
ENDBRANCH   1  11
TORSDOF 15
ENDMDL
MODEL 2
REMARK VINA RESULT:    -0.347      2.890      5.020
REMARK INTER + INTRA:          -2.042
REMARK INTER:                  -1.029
REMARK INTRA:                  -1.012
REMARK UNBOUND:                -1.390
REMARK SMILES O=C([O-])CCCCCCCCCCCCCCC(=O)[O-]
REMARK SMILES IDX 10 1 9 2 8 3 7 4 6 5 5 6 4 7 2 8 1 9 3 10 11 11 12 12 13 13
REMARK SMILES IDX 14 14 15 15 16 16 17 17 18 18 19 19 20 20
REMARK H PARENT
REMARK Flexibility Score: inf
ROOT
ATOM      1  C   UNL     1       4.405 -33.915  22.486  1.00  0.00     0.000 C 
ENDROOT
BRANCH   1   2
ATOM      2  C   UNL     1       5.829 -33.722  23.028  1.00  0.00     0.000 C 
BRANCH   2   3
ATOM      3  C   UNL     1       6.109 -34.577  24.273  1.00  0.00     0.000 C 
BRANCH   3   4
ATOM      4  C   UNL     1       5.352 -35.912  24.203  1.00  0.00     0.000 C 
BRANCH   4   5
ATOM      5  C   UNL     1       5.904 -36.852  23.120  1.00  0.00     0.000 C 
BRANCH   5   6
ATOM      6  C   UNL     1       4.815 -37.370  22.170  1.00  0.00     0.006 C 
BRANCH   6   7
ATOM      7  C   UNL     1       5.432 -38.109  20.979  1.00  0.00     0.053 C 
BRANCH   7   8
ATOM      8  C   UNL     1       5.598 -39.563  21.293  1.00  0.00     0.041 C 
ATOM      9  O   UNL     1       6.125 -40.336  20.451  1.00  0.00    -0.550 OA
ATOM     10  O   UNL     1       5.218 -40.054  22.535  1.00  0.00    -0.550 OA
ENDBRANCH   7   8
ENDBRANCH   6   7
ENDBRANCH   5   6
ENDBRANCH   4   5
ENDBRANCH   3   4
ENDBRANCH   2   3
ENDBRANCH   1   2
BRANCH   1  11
ATOM     11  C   UNL     1       4.364 -34.030  20.954  1.00  0.00     0.000 C 
BRANCH  11  12
ATOM     12  C   UNL     1       5.676 -34.619  20.414  1.00  0.00     0.000 C 
BRANCH  12  13
ATOM     13  C   UNL     1       5.791 -34.505  18.885  1.00  0.00     0.000 C 
BRANCH  13  14
ATOM     14  C   UNL     1       4.422 -34.506  18.188  1.00  0.00     0.000 C 
BRANCH  14  15
ATOM     15  C   UNL     1       4.135 -35.869  17.547  1.00  0.00     0.000 C 
BRANCH  15  16
ATOM     16  C   UNL     1       3.223 -35.718  16.320  1.00  0.00     0.006 C 
BRANCH  16  17
ATOM     17  C   UNL     1       3.891 -36.228  15.035  1.00  0.00     0.053 C 
BRANCH  17  18
ATOM     18  C   UNL     1       3.137 -37.374  14.436  1.00  0.00     0.041 C 
ATOM     19  O   UNL     1       2.009 -37.184  13.909  1.00  0.00    -0.550 OA
ATOM     20  O   UNL     1       3.665 -38.658  14.484  1.00  0.00    -0.550 OA
ENDBRANCH  17  18
ENDBRANCH  16  17
ENDBRANCH  15  16
ENDBRANCH  14  15
ENDBRANCH  13  14
ENDBRANCH  12  13
ENDBRANCH  11  12
ENDBRANCH   1  11
TORSDOF 15
ENDMDL
MODEL 3
REMARK VINA RESULT:     0.279      3.016      6.972
REMARK INTER + INTRA:          -0.866
REMARK INTER:                   0.375
REMARK INTRA:                  -1.241
REMARK UNBOUND:                -1.390
REMARK SMILES O=C([O-])CCCCCCCCCCCCCCC(=O)[O-]
REMARK SMILES IDX 10 1 9 2 8 3 7 4 6 5 5 6 4 7 2 8 1 9 3 10 11 11 12 12 13 13
REMARK SMILES IDX 14 14 15 15 16 16 17 17 18 18 19 19 20 20
REMARK H PARENT
REMARK Flexibility Score: inf
ROOT
ATOM      1  C   UNL     1       4.362 -34.384  21.960  1.00  0.00     0.000 C 
ENDROOT
BRANCH   1   2
ATOM      2  C   UNL     1       4.439 -34.224  20.434  1.00  0.00     0.000 C 
BRANCH   2   3
ATOM      3  C   UNL     1       5.766 -34.734  19.852  1.00  0.00     0.000 C 
BRANCH   3   4
ATOM      4  C   UNL     1       5.639 -34.994  18.343  1.00  0.00     0.000 C 
BRANCH   4   5
ATOM      5  C   UNL     1       4.182 -34.962  17.856  1.00  0.00     0.000 C 
BRANCH   5   6
ATOM      6  C   UNL     1       3.843 -36.130  16.919  1.00  0.00     0.006 C 
BRANCH   6   7
ATOM      7  C   UNL     1       3.047 -35.644  15.704  1.00  0.00     0.053 C 
BRANCH   7   8
ATOM      8  C   UNL     1       2.904 -36.742  14.697  1.00  0.00     0.041 C 
ATOM      9  O   UNL     1       1.886 -36.794  13.957  1.00  0.00    -0.550 OA
ATOM     10  O   UNL     1       3.917 -37.679  14.541  1.00  0.00    -0.550 OA
ENDBRANCH   7   8
ENDBRANCH   6   7
ENDBRANCH   5   6
ENDBRANCH   4   5
ENDBRANCH   3   4
ENDBRANCH   2   3
ENDBRANCH   1   2
BRANCH   1  11
ATOM     11  C   UNL     1       5.247 -33.374  22.707  1.00  0.00     0.000 C 
BRANCH  11  12
ATOM     12  C   UNL     1       5.895 -34.020  23.941  1.00  0.00     0.000 C 
BRANCH  12  13
ATOM     13  C   UNL     1       6.125 -35.530  23.767  1.00  0.00     0.000 C 
BRANCH  13  14
ATOM     14  C   UNL     1       5.541 -36.354  24.924  1.00  0.00     0.000 C 
BRANCH  14  15
ATOM     15  C   UNL     1       5.105 -37.743  24.443  1.00  0.00     0.000 C 
BRANCH  15  16
ATOM     16  C   UNL     1       5.285 -37.878  22.923  1.00  0.00     0.006 C 
BRANCH  16  17
ATOM     17  C   UNL     1       5.439 -39.341  22.485  1.00  0.00     0.053 C 
BRANCH  17  18
ATOM     18  C   UNL     1       5.650 -39.458  21.007  1.00  0.00     0.041 C 
ATOM     19  O   UNL     1       6.124 -40.517  20.517  1.00  0.00    -0.550 OA
ATOM     20  O   UNL     1       5.349 -38.389  20.173  1.00  0.00    -0.550 OA
ENDBRANCH  17  18
ENDBRANCH  16  17
ENDBRANCH  15  16
ENDBRANCH  14  15
ENDBRANCH  13  14
ENDBRANCH  12  13
ENDBRANCH  11  12
ENDBRANCH   1  11
TORSDOF 15
ENDMDL
MODEL 4
REMARK VINA RESULT:     0.312      2.870      6.729
REMARK INTER + INTRA:          -0.805
REMARK INTER:                  -0.381
REMARK INTRA:                  -0.423
REMARK UNBOUND:                -1.390
REMARK SMILES O=C([O-])CCCCCCCCCCCCCCC(=O)[O-]
REMARK SMILES IDX 10 1 9 2 8 3 7 4 6 5 5 6 4 7 2 8 1 9 3 10 11 11 12 12 13 13
REMARK SMILES IDX 14 14 15 15 16 16 17 17 18 18 19 19 20 20
REMARK H PARENT
REMARK Flexibility Score: inf
ROOT
ATOM      1  C   UNL     1       4.043 -33.827  22.209  1.00  0.00     0.000 C 
ENDROOT
BRANCH   1   2
ATOM      2  C   UNL     1       3.857 -33.627  20.698  1.00  0.00     0.000 C 
BRANCH   2   3
ATOM      3  C   UNL     1       4.977 -34.278  19.872  1.00  0.00     0.000 C 
BRANCH   3   4
ATOM      4  C   UNL     1       4.627 -34.278  18.376  1.00  0.00     0.000 C 
BRANCH   4   5
ATOM      5  C   UNL     1       4.362 -35.689  17.829  1.00  0.00     0.000 C 
BRANCH   5   6
ATOM      6  C   UNL     1       3.313 -35.704  16.707  1.00  0.00     0.006 C 
BRANCH   6   7
ATOM      7  C   UNL     1       3.946 -36.107  15.372  1.00  0.00     0.053 C 
BRANCH   7   8
ATOM      8  C   UNL     1       3.123 -37.160  14.698  1.00  0.00     0.041 C 
ATOM      9  O   UNL     1       3.546 -38.343  14.625  1.00  0.00    -0.550 OA
ATOM     10  O   UNL     1       1.867 -36.846  14.196  1.00  0.00    -0.550 OA
ENDBRANCH   7   8
ENDBRANCH   6   7
ENDBRANCH   5   6
ENDBRANCH   4   5
ENDBRANCH   3   4
ENDBRANCH   2   3
ENDBRANCH   1   2
BRANCH   1  11
ATOM     11  C   UNL     1       5.491 -33.583  22.665  1.00  0.00     0.000 C 
BRANCH  11  12
ATOM     12  C   UNL     1       5.958 -34.690  23.620  1.00  0.00     0.000 C 
BRANCH  12  13
ATOM     13  C   UNL     1       5.233 -36.025  23.381  1.00  0.00     0.000 C 
BRANCH  13  14
ATOM     14  C   UNL     1       5.715 -36.739  22.109  1.00  0.00     0.000 C 
BRANCH  14  15
ATOM     15  C   UNL     1       4.555 -36.959  21.132  1.00  0.00     0.000 C 
BRANCH  15  16
ATOM     16  C   UNL     1       4.755 -38.251  20.324  1.00  0.00     0.006 C 
BRANCH  16  17
ATOM     17  C   UNL     1       5.976 -39.050  20.799  1.00  0.00     0.053 C 
BRANCH  17  18
ATOM     18  C   UNL     1       5.577 -40.235  21.621  1.00  0.00     0.041 C 
ATOM     19  O   UNL     1       6.124 -41.353  21.426  1.00  0.00    -0.550 OA
ATOM     20  O   UNL     1       4.583 -40.115  22.583  1.00  0.00    -0.550 OA
ENDBRANCH  17  18
ENDBRANCH  16  17
ENDBRANCH  15  16
ENDBRANCH  14  15
ENDBRANCH  13  14
ENDBRANCH  12  13
ENDBRANCH  11  12
ENDBRANCH   1  11
TORSDOF 15
ENDMDL
MODEL 5
REMARK VINA RESULT:     0.899      2.885      4.724
REMARK INTER + INTRA:           0.298
REMARK INTER:                   2.065
REMARK INTRA:                  -1.767
REMARK UNBOUND:                -1.390
REMARK SMILES O=C([O-])CCCCCCCCCCCCCCC(=O)[O-]
REMARK SMILES IDX 10 1 9 2 8 3 7 4 6 5 5 6 4 7 2 8 1 9 3 10 11 11 12 12 13 13
REMARK SMILES IDX 14 14 15 15 16 16 17 17 18 18 19 19 20 20
REMARK H PARENT
REMARK Flexibility Score: inf
ROOT
ATOM      1  C   UNL     1       6.005 -34.373  24.428  1.00  0.00     0.000 C 
ENDROOT
BRANCH   1   2
ATOM      2  C   UNL     1       6.071 -35.888  24.182  1.00  0.00     0.000 C 
BRANCH   2   3
ATOM      3  C   UNL     1       5.630 -36.706  25.406  1.00  0.00     0.000 C 
BRANCH   3   4
ATOM      4  C   UNL     1       4.610 -37.783  25.007  1.00  0.00     0.000 C 
BRANCH   4   5
ATOM      5  C   UNL     1       5.235 -39.184  24.909  1.00  0.00     0.000 C 
BRANCH   5   6
ATOM      6  C   UNL     1       4.896 -39.894  23.590  1.00  0.00     0.006 C 
BRANCH   6   7
ATOM      7  C   UNL     1       5.386 -39.081  22.388  1.00  0.00     0.053 C 
BRANCH   7   8
ATOM      8  C   UNL     1       5.914 -39.988  21.322  1.00  0.00     0.041 C 
ATOM      9  O   UNL     1       6.125 -41.204  21.572  1.00  0.00    -0.550 OA
ATOM     10  O   UNL     1       6.125 -39.504  20.038  1.00  0.00    -0.550 OA
ENDBRANCH   7   8
ENDBRANCH   6   7
ENDBRANCH   5   6
ENDBRANCH   4   5
ENDBRANCH   3   4
ENDBRANCH   2   3
ENDBRANCH   1   2
BRANCH   1  11
ATOM     11  C   UNL     1       6.125 -33.557  23.131  1.00  0.00     0.000 C 
BRANCH  11  12
ATOM     12  C   UNL     1       4.761 -32.986  22.716  1.00  0.00     0.000 C 
BRANCH  12  13
ATOM     13  C   UNL     1       4.178 -33.686  21.477  1.00  0.00     0.000 C 
BRANCH  13  14
ATOM     14  C   UNL     1       3.257 -34.860  21.841  1.00  0.00     0.000 C 
BRANCH  14  15
ATOM     15  C   UNL     1       3.872 -36.194  21.400  1.00  0.00     0.000 C 
BRANCH  15  16
ATOM     16  C   UNL     1       5.165 -35.966  20.603  1.00  0.00     0.006 C 
BRANCH  16  17
ATOM     17  C   UNL     1       5.020 -36.380  19.132  1.00  0.00     0.053 C 
BRANCH  17  18
ATOM     18  C   UNL     1       4.812 -35.195  18.240  1.00  0.00     0.041 C 
ATOM     19  O   UNL     1       5.525 -34.167  18.379  1.00  0.00    -0.550 OA
ATOM     20  O   UNL     1       3.813 -35.214  17.276  1.00  0.00    -0.550 OA
ENDBRANCH  17  18
ENDBRANCH  16  17
ENDBRANCH  15  16
ENDBRANCH  14  15
ENDBRANCH  13  14
ENDBRANCH  12  13
ENDBRANCH  11  12
ENDBRANCH   1  11
TORSDOF 15
ENDMDL
MODEL 6
REMARK VINA RESULT:     1.188      3.607      7.816
REMARK INTER + INTRA:           0.840
REMARK INTER:                   1.765
REMARK INTRA:                  -0.925
REMARK UNBOUND:                -1.390
REMARK SMILES O=C([O-])CCCCCCCCCCCCCCC(=O)[O-]
REMARK SMILES IDX 10 1 9 2 8 3 7 4 6 5 5 6 4 7 2 8 1 9 3 10 11 11 12 12 13 13
REMARK SMILES IDX 14 14 15 15 16 16 17 17 18 18 19 19 20 20
REMARK H PARENT
REMARK Flexibility Score: inf
ROOT
ATOM      1  C   UNL     1       5.000 -37.880  19.867  1.00  0.00     0.000 C 
ENDROOT
BRANCH   1   2
ATOM      2  C   UNL     1       5.314 -36.383  20.010  1.00  0.00     0.000 C 
BRANCH   2   3
ATOM      3  C   UNL     1       5.656 -35.719  18.668  1.00  0.00     0.000 C 
BRANCH   3   4
ATOM      4  C   UNL     1       4.798 -34.464  18.442  1.00  0.00     0.000 C 
BRANCH   4   5
ATOM      5  C   UNL     1       3.720 -34.668  17.367  1.00  0.00     0.000 C 
BRANCH   5   6
ATOM      6  C   UNL     1       3.772 -36.065  16.730  1.00  0.00     0.006 C 
BRANCH   6   7
ATOM      7  C   UNL     1       3.773 -35.970  15.201  1.00  0.00     0.053 C 
BRANCH   7   8
ATOM      8  C   UNL     1       3.019 -37.116  14.604  1.00  0.00     0.041 C 
ATOM      9  O   UNL     1       1.887 -36.928  14.086  1.00  0.00    -0.550 OA
ATOM     10  O   UNL     1       3.588 -38.383  14.575  1.00  0.00    -0.550 OA
ENDBRANCH   7   8
ENDBRANCH   6   7
ENDBRANCH   5   6
ENDBRANCH   4   5
ENDBRANCH   3   4
ENDBRANCH   2   3
ENDBRANCH   1   2
BRANCH   1  11
ATOM     11  C   UNL     1       5.253 -38.665  21.164  1.00  0.00     0.000 C 
BRANCH  11  12
ATOM     12  C   UNL     1       4.748 -37.883  22.385  1.00  0.00     0.000 C 
BRANCH  12  13
ATOM     13  C   UNL     1       5.892 -37.295  23.227  1.00  0.00     0.000 C 
BRANCH  13  14
ATOM     14  C   UNL     1       5.386 -36.401  24.369  1.00  0.00     0.000 C 
BRANCH  14  15
ATOM     15  C   UNL     1       6.002 -35.000  24.281  1.00  0.00     0.000 C 
BRANCH  15  16
ATOM     16  C   UNL     1       5.999 -34.488  22.833  1.00  0.00     0.006 C 
BRANCH  16  17
ATOM     17  C   UNL     1       5.024 -33.319  22.632  1.00  0.00     0.053 C 
BRANCH  17  18
ATOM     18  C   UNL     1       3.817 -33.732  21.849  1.00  0.00     0.041 C 
ATOM     19  O   UNL     1       3.435 -34.932  21.862  1.00  0.00    -0.550 OA
ATOM     20  O   UNL     1       3.130 -32.800  21.082  1.00  0.00    -0.550 OA
ENDBRANCH  17  18
ENDBRANCH  16  17
ENDBRANCH  15  16
ENDBRANCH  14  15
ENDBRANCH  13  14
ENDBRANCH  12  13
ENDBRANCH  11  12
ENDBRANCH   1  11
TORSDOF 15
ENDMDL
MODEL 7
REMARK VINA RESULT:     1.251      3.597      5.440
REMARK INTER + INTRA:           0.958
REMARK INTER:                   1.689
REMARK INTRA:                  -0.731
REMARK UNBOUND:                -1.390
REMARK SMILES O=C([O-])CCCCCCCCCCCCCCC(=O)[O-]
REMARK SMILES IDX 10 1 9 2 8 3 7 4 6 5 5 6 4 7 2 8 1 9 3 10 11 11 12 12 13 13
REMARK SMILES IDX 14 14 15 15 16 16 17 17 18 18 19 19 20 20
REMARK H PARENT
REMARK Flexibility Score: inf
ROOT
ATOM      1  C   UNL     1       4.999 -39.827  22.115  1.00  0.00     0.000 C 
ENDROOT
BRANCH   1   2
ATOM      2  C   UNL     1       5.013 -39.073  23.453  1.00  0.00     0.000 C 
BRANCH   2   3
ATOM      3  C   UNL     1       5.370 -37.588  23.292  1.00  0.00     0.000 C 
BRANCH   3   4
ATOM      4  C   UNL     1       5.600 -36.927  24.660  1.00  0.00     0.000 C 
BRANCH   4   5
ATOM      5  C   UNL     1       6.051 -35.462  24.543  1.00  0.00     0.000 C 
BRANCH   5   6
ATOM      6  C   UNL     1       6.041 -34.951  23.095  1.00  0.00     0.006 C 
BRANCH   6   7
ATOM      7  C   UNL     1       5.203 -33.675  22.971  1.00  0.00     0.053 C 
BRANCH   7   8
ATOM      8  C   UNL     1       4.054 -33.890  22.037  1.00  0.00     0.041 C 
ATOM      9  O   UNL     1       3.778 -33.026  21.164  1.00  0.00    -0.550 OA
ATOM     10  O   UNL     1       3.321 -35.068  22.097  1.00  0.00    -0.550 OA
ENDBRANCH   7   8
ENDBRANCH   6   7
ENDBRANCH   5   6
ENDBRANCH   4   5
ENDBRANCH   3   4
ENDBRANCH   2   3
ENDBRANCH   1   2
BRANCH   1  11
ATOM     11  C   UNL     1       5.672 -39.036  20.982  1.00  0.00     0.000 C 
BRANCH  11  12
ATOM     12  C   UNL     1       4.642 -38.189  20.218  1.00  0.00     0.000 C 
BRANCH  12  13
ATOM     13  C   UNL     1       5.270 -36.956  19.548  1.00  0.00     0.000 C 
BRANCH  13  14
ATOM     14  C   UNL     1       4.241 -35.852  19.263  1.00  0.00     0.000 C 
BRANCH  14  15
ATOM     15  C   UNL     1       4.579 -35.111  17.963  1.00  0.00     0.000 C 
BRANCH  15  16
ATOM     16  C   UNL     1       3.545 -35.420  16.870  1.00  0.00     0.006 C 
BRANCH  16  17
ATOM     17  C   UNL     1       3.827 -36.753  16.164  1.00  0.00     0.053 C 
BRANCH  17  18
ATOM     18  C   UNL     1       3.120 -36.844  14.848  1.00  0.00     0.041 C 
ATOM     19  O   UNL     1       2.101 -36.138  14.627  1.00  0.00    -0.550 OA
ATOM     20  O   UNL     1       3.567 -37.729  13.875  1.00  0.00    -0.550 OA
ENDBRANCH  17  18
ENDBRANCH  16  17
ENDBRANCH  15  16
ENDBRANCH  14  15
ENDBRANCH  13  14
ENDBRANCH  12  13
ENDBRANCH  11  12
ENDBRANCH   1  11
TORSDOF 15
ENDMDL
MODEL 8
REMARK VINA RESULT:     1.413      2.278      5.898
REMARK INTER + INTRA:           1.262
REMARK INTER:                   1.644
REMARK INTRA:                  -0.382
REMARK UNBOUND:                -1.390
REMARK SMILES O=C([O-])CCCCCCCCCCCCCCC(=O)[O-]
REMARK SMILES IDX 10 1 9 2 8 3 7 4 6 5 5 6 4 7 2 8 1 9 3 10 11 11 12 12 13 13
REMARK SMILES IDX 14 14 15 15 16 16 17 17 18 18 19 19 20 20
REMARK H PARENT
REMARK Flexibility Score: inf
ROOT
ATOM      1  C   UNL     1       5.201 -35.958  23.231  1.00  0.00     0.000 C 
ENDROOT
BRANCH   1   2
ATOM      2  C   UNL     1       5.975 -34.655  23.481  1.00  0.00     0.000 C 
BRANCH   2   3
ATOM      3  C   UNL     1       5.327 -33.442  22.796  1.00  0.00     0.000 C 
BRANCH   3   4
ATOM      4  C   UNL     1       3.975 -33.820  22.173  1.00  0.00     0.000 C 
BRANCH   4   5
ATOM      5  C   UNL     1       3.992 -33.766  20.637  1.00  0.00     0.000 C 
BRANCH   5   6
ATOM      6  C   UNL     1       5.335 -34.215  20.043  1.00  0.00     0.006 C 
BRANCH   6   7
ATOM      7  C   UNL     1       5.285 -34.211  18.512  1.00  0.00     0.053 C 
BRANCH   7   8
ATOM      8  C   UNL     1       4.428 -35.331  18.012  1.00  0.00     0.041 C 
ATOM      9  O   UNL     1       3.708 -35.170  16.992  1.00  0.00    -0.550 OA
ATOM     10  O   UNL     1       4.464 -36.568  18.642  1.00  0.00    -0.550 OA
ENDBRANCH   7   8
ENDBRANCH   6   7
ENDBRANCH   5   6
ENDBRANCH   4   5
ENDBRANCH   3   4
ENDBRANCH   2   3
ENDBRANCH   1   2
BRANCH   1  11
ATOM     11  C   UNL     1       5.771 -36.771  22.059  1.00  0.00     0.000 C 
BRANCH  11  12
ATOM     12  C   UNL     1       4.665 -37.575  21.359  1.00  0.00     0.000 C 
BRANCH  12  13
ATOM     13  C   UNL     1       5.192 -38.861  20.702  1.00  0.00     0.000 C 
BRANCH  13  14
ATOM     14  C   UNL     1       5.721 -39.874  21.728  1.00  0.00     0.000 C 
BRANCH  14  15
ATOM     15  C   UNL     1       4.710 -40.081  22.862  1.00  0.00     0.000 C 
BRANCH  15  16
ATOM     16  C   UNL     1       5.256 -39.535  24.190  1.00  0.00     0.006 C 
BRANCH  16  17
ATOM     17  C   UNL     1       4.134 -39.150  25.165  1.00  0.00     0.053 C 
BRANCH  17  18
ATOM     18  C   UNL     1       4.442 -37.876  25.889  1.00  0.00     0.041 C 
ATOM     19  O   UNL     1       5.610 -37.406  25.874  1.00  0.00    -0.550 OA
ATOM     20  O   UNL     1       3.447 -37.223  26.605  1.00  0.00    -0.550 OA
ENDBRANCH  17  18
ENDBRANCH  16  17
ENDBRANCH  15  16
ENDBRANCH  14  15
ENDBRANCH  13  14
ENDBRANCH  12  13
ENDBRANCH  11  12
ENDBRANCH   1  11
TORSDOF 15
ENDMDL
