MODEL 1
REMARK VINA RESULT:     3.956      0.000      0.000
REMARK INTER + INTRA:           3.956
REMARK INTER:                   3.956
REMARK INTRA:                   0.000
REMARK UNBOUND:                 0.000
REMARK SMILES CC1(C)[C@@H]2CC[C@@]1(C)C(=O)C2
REMARK SMILES IDX 1 1 2 2 4 3 5 4 6 5 7 6 9 7 10 8 11 9 8 10 3 11
REMARK H PARENT
REMARK Flexibility Score: inf
ROOT
ATOM      1  C   UNL     1      22.319  -9.180 -17.604  1.00  0.00     0.012 C 
ATOM      2  C   UNL     1      22.766 -10.487 -18.327  1.00  0.00    -0.020 C 
ATOM      3  C   UNL     1      24.208 -10.928 -17.975  1.00  0.00     0.003 C 
ATOM      4  C   UNL     1      24.323 -12.309 -18.679  1.00  0.00     0.005 C 
ATOM      5  C   UNL     1      22.902 -12.902 -18.517  1.00  0.00     0.015 C 
ATOM      6  C   UNL     1      22.153 -11.784 -17.753  1.00  0.00     0.032 C 
ATOM      7  C   UNL     1      22.756 -11.790 -16.371  1.00  0.00     0.139 C 
ATOM      8  O   UNL     1      22.244 -12.259 -15.367  1.00  0.00    -0.299 OA
ATOM      9  C   UNL     1      24.137 -11.217 -16.450  1.00  0.00     0.080 C 
ATOM     10  C   UNL     1      20.624 -11.892 -17.793  1.00  0.00     0.020 C 
ATOM     11  C   UNL     1      22.534 -10.251 -19.849  1.00  0.00     0.012 C 
ENDROOT
TORSDOF 0
ENDMDL
MODEL 2
REMARK VINA RESULT:     4.016      1.748      3.197
REMARK INTER + INTRA:           4.016
REMARK INTER:                   4.016
REMARK INTRA:                   0.000
REMARK UNBOUND:                 0.000
REMARK SMILES CC1(C)[C@@H]2CC[C@@]1(C)C(=O)C2
REMARK SMILES IDX 1 1 2 2 4 3 5 4 6 5 7 6 9 7 10 8 11 9 8 10 3 11
REMARK H PARENT
REMARK Flexibility Score: inf
ROOT
ATOM      1  C   UNL     1      20.583 -11.809 -17.264  1.00  0.00     0.012 C 
ATOM      2  C   UNL     1      22.138 -11.912 -17.331  1.00  0.00    -0.020 C 
ATOM      3  C   UNL     1      22.648 -12.877 -18.429  1.00  0.00     0.003 C 
ATOM      4  C   UNL     1      24.187 -12.658 -18.386  1.00  0.00     0.005 C 
ATOM      5  C   UNL     1      24.314 -11.145 -18.079  1.00  0.00     0.015 C 
ATOM      6  C   UNL     1      22.838 -10.694 -17.974  1.00  0.00     0.032 C 
ATOM      7  C   UNL     1      22.308 -10.780 -19.383  1.00  0.00     0.139 C 
ATOM      8  O   UNL     1      22.118  -9.838 -20.137  1.00  0.00    -0.299 OA
ATOM      9  C   UNL     1      22.149 -12.224 -19.747  1.00  0.00     0.080 C 
ATOM     10  C   UNL     1      22.626  -9.342 -17.284  1.00  0.00     0.020 C 
ATOM     11  C   UNL     1      22.617 -12.280 -15.895  1.00  0.00     0.012 C 
ENDROOT
TORSDOF 0
ENDMDL
MODEL 3
REMARK VINA RESULT:     4.966      1.552      2.793
REMARK INTER + INTRA:           4.966
REMARK INTER:                   4.966
REMARK INTRA:                   0.000
REMARK UNBOUND:                 0.000
REMARK SMILES CC1(C)[C@@H]2CC[C@@]1(C)C(=O)C2
REMARK SMILES IDX 1 1 2 2 4 3 5 4 6 5 7 6 9 7 10 8 11 9 8 10 3 11
REMARK H PARENT
REMARK Flexibility Score: inf
ROOT
ATOM      1  C   UNL     1      22.473 -12.296 -15.935  1.00  0.00     0.012 C 
ATOM      2  C   UNL     1      22.075 -11.582 -17.264  1.00  0.00    -0.020 C 
ATOM      3  C   UNL     1      22.409 -10.071 -17.279  1.00  0.00     0.003 C 
ATOM      4  C   UNL     1      22.077  -9.663 -18.742  1.00  0.00     0.005 C 
ATOM      5  C   UNL     1      22.502 -10.911 -19.556  1.00  0.00     0.015 C 
ATOM      6  C   UNL     1      23.011 -11.875 -18.457  1.00  0.00     0.032 C 
ATOM      7  C   UNL     1      24.294 -11.254 -17.965  1.00  0.00     0.139 C 
ATOM      8  O   UNL     1      25.424 -11.624 -18.245  1.00  0.00    -0.299 OA
ATOM      9  C   UNL     1      23.958 -10.039 -17.156  1.00  0.00     0.080 C 
ATOM     10  C   UNL     1      23.125 -13.341 -18.892  1.00  0.00     0.020 C 
ATOM     11  C   UNL     1      20.568 -11.897 -17.500  1.00  0.00     0.012 C 
ENDROOT
TORSDOF 0
ENDMDL
MODEL 4
REMARK VINA RESULT:     4.975      1.510      3.026
REMARK INTER + INTRA:           4.975
REMARK INTER:                   4.975
REMARK INTRA:                   0.000
REMARK UNBOUND:                 0.000
REMARK SMILES CC1(C)[C@@H]2CC[C@@]1(C)C(=O)C2
REMARK SMILES IDX 1 1 2 2 4 3 5 4 6 5 7 6 9 7 10 8 11 9 8 10 3 11
REMARK H PARENT
REMARK Flexibility Score: inf
ROOT
ATOM      1  C   UNL     1      22.478 -10.202 -19.750  1.00  0.00     0.012 C 
ATOM      2  C   UNL     1      22.436 -10.617 -18.248  1.00  0.00    -0.020 C 
ATOM      3  C   UNL     1      21.191 -11.457 -17.872  1.00  0.00     0.003 C 
ATOM      4  C   UNL     1      21.488 -11.866 -16.402  1.00  0.00     0.005 C 
ATOM      5  C   UNL     1      23.022 -12.080 -16.403  1.00  0.00     0.015 C 
ATOM      6  C   UNL     1      23.408 -11.755 -17.866  1.00  0.00     0.032 C 
ATOM      7  C   UNL     1      22.838 -12.893 -18.676  1.00  0.00     0.139 C 
ATOM      8  O   UNL     1      23.469 -13.827 -19.144  1.00  0.00    -0.299 OA
ATOM      9  C   UNL     1      21.349 -12.744 -18.726  1.00  0.00     0.080 C 
ATOM     10  C   UNL     1      24.900 -11.484 -18.091  1.00  0.00     0.020 C 
ATOM     11  C   UNL     1      22.584  -9.304 -17.423  1.00  0.00     0.012 C 
ENDROOT
TORSDOF 0
ENDMDL
MODEL 5
REMARK VINA RESULT:     5.748      1.519      2.752
REMARK INTER + INTRA:           5.748
REMARK INTER:                   5.748
REMARK INTRA:                   0.000
REMARK UNBOUND:                 0.000
REMARK SMILES CC1(C)[C@@H]2CC[C@@]1(C)C(=O)C2
REMARK SMILES IDX 1 1 2 2 4 3 5 4 6 5 7 6 9 7 10 8 11 9 8 10 3 11
REMARK H PARENT
REMARK Flexibility Score: inf
ROOT
ATOM      1  C   UNL     1      24.889 -11.616 -18.643  1.00  0.00     0.012 C 
ATOM      2  C   UNL     1      23.444 -12.028 -18.223  1.00  0.00    -0.020 C 
ATOM      3  C   UNL     1      23.214 -12.005 -16.692  1.00  0.00     0.003 C 
ATOM      4  C   UNL     1      21.689 -12.279 -16.573  1.00  0.00     0.005 C 
ATOM      5  C   UNL     1      21.105 -11.539 -17.803  1.00  0.00     0.015 C 
ATOM      6  C   UNL     1      22.368 -10.948 -18.473  1.00  0.00     0.032 C 
ATOM      7  C   UNL     1      22.834  -9.866 -17.531  1.00  0.00     0.139 C 
ATOM      8  O   UNL     1      22.683  -8.664 -17.688  1.00  0.00    -0.299 OA
ATOM      9  C   UNL     1      23.423 -10.512 -16.315  1.00  0.00     0.080 C 
ATOM     10  C   UNL     1      22.174 -10.501 -19.927  1.00  0.00     0.020 C 
ATOM     11  C   UNL     1      23.171 -13.413 -18.881  1.00  0.00     0.012 C 
ENDROOT
TORSDOF 0
ENDMDL
MODEL 6
REMARK VINA RESULT:     5.759      1.438      2.785
REMARK INTER + INTRA:           5.759
REMARK INTER:                   5.759
REMARK INTRA:                   0.000
REMARK UNBOUND:                 0.000
REMARK SMILES CC1(C)[C@@H]2CC[C@@]1(C)C(=O)C2
REMARK SMILES IDX 1 1 2 2 4 3 5 4 6 5 7 6 9 7 10 8 11 9 8 10 3 11
REMARK H PARENT
REMARK Flexibility Score: inf
ROOT
ATOM      1  C   UNL     1      20.859 -11.875 -17.692  1.00  0.00     0.012 C 
ATOM      2  C   UNL     1      22.338 -11.894 -18.187  1.00  0.00    -0.020 C 
ATOM      3  C   UNL     1      22.576 -11.049 -19.461  1.00  0.00     0.003 C 
ATOM      4  C   UNL     1      24.120 -11.106 -19.624  1.00  0.00     0.005 C 
ATOM      5  C   UNL     1      24.626 -11.087 -18.160  1.00  0.00     0.015 C 
ATOM      6  C   UNL     1      23.309 -11.034 -17.348  1.00  0.00     0.032 C 
ATOM      7  C   UNL     1      22.754  -9.656 -17.604  1.00  0.00     0.139 C 
ATOM      8  O   UNL     1      22.794  -8.711 -16.831  1.00  0.00    -0.299 OA
ATOM      9  C   UNL     1      22.235  -9.603 -19.008  1.00  0.00     0.080 C 
ATOM     10  C   UNL     1      23.452 -11.411 -15.869  1.00  0.00     0.020 C 
ATOM     11  C   UNL     1      22.732 -13.394 -18.341  1.00  0.00     0.012 C 
ENDROOT
TORSDOF 0
ENDMDL
MODEL 7
REMARK VINA RESULT:     6.108      1.341      2.972
REMARK INTER + INTRA:           6.108
REMARK INTER:                   6.108
REMARK INTRA:                   0.000
REMARK UNBOUND:                 0.000
REMARK SMILES CC1(C)[C@@H]2CC[C@@]1(C)C(=O)C2
REMARK SMILES IDX 1 1 2 2 4 3 5 4 6 5 7 6 9 7 10 8 11 9 8 10 3 11
REMARK H PARENT
REMARK Flexibility Score: inf
ROOT
ATOM      1  C   UNL     1      23.751 -13.363 -18.462  1.00  0.00     0.012 C 
ATOM      2  C   UNL     1      23.521 -11.841 -18.210  1.00  0.00    -0.020 C 
ATOM      3  C   UNL     1      22.865 -11.108 -19.405  1.00  0.00     0.003 C 
ATOM      4  C   UNL     1      22.601  -9.688 -18.830  1.00  0.00     0.005 C 
ATOM      5  C   UNL     1      22.231  -9.973 -17.353  1.00  0.00     0.015 C 
ATOM      6  C   UNL     1      22.341 -11.515 -17.268  1.00  0.00     0.032 C 
ATOM      7  C   UNL     1      21.182 -12.029 -18.085  1.00  0.00     0.139 C 
ATOM      8  O   UNL     1      20.139 -12.485 -17.643  1.00  0.00    -0.299 OA
ATOM      9  C   UNL     1      21.476 -11.793 -19.534  1.00  0.00     0.080 C 
ATOM     10  C   UNL     1      22.429 -12.075 -15.844  1.00  0.00     0.020 C 
ATOM     11  C   UNL     1      24.899 -11.250 -17.788  1.00  0.00     0.012 C 
ENDROOT
TORSDOF 0
ENDMDL
MODEL 8
REMARK VINA RESULT:     6.182      1.382      2.105
REMARK INTER + INTRA:           6.182
REMARK INTER:                   6.182
REMARK INTRA:                   0.000
REMARK UNBOUND:                 0.000
REMARK SMILES CC1(C)[C@@H]2CC[C@@]1(C)C(=O)C2
REMARK SMILES IDX 1 1 2 2 4 3 5 4 6 5 7 6 9 7 10 8 11 9 8 10 3 11
REMARK H PARENT
REMARK Flexibility Score: inf
ROOT
ATOM      1  C   UNL     1      22.556  -9.574 -17.493  1.00  0.00     0.012 C 
ATOM      2  C   UNL     1      23.108 -11.008 -17.757  1.00  0.00    -0.020 C 
ATOM      3  C   UNL     1      23.035 -11.937 -16.520  1.00  0.00     0.003 C 
ATOM      4  C   UNL     1      23.475 -13.311 -17.099  1.00  0.00     0.005 C 
ATOM      5  C   UNL     1      22.869 -13.297 -18.525  1.00  0.00     0.015 C 
ATOM      6  C   UNL     1      22.172 -11.917 -18.584  1.00  0.00     0.032 C 
ATOM      7  C   UNL     1      20.998 -12.038 -17.645  1.00  0.00     0.139 C 
ATOM      8  O   UNL     1      19.831 -12.188 -17.970  1.00  0.00    -0.299 OA
ATOM      9  C   UNL     1      21.511 -12.047 -16.237  1.00  0.00     0.080 C 
ATOM     10  C   UNL     1      21.824 -11.433 -19.996  1.00  0.00     0.020 C 
ATOM     11  C   UNL     1      24.547 -10.830 -18.327  1.00  0.00     0.012 C 
ENDROOT
TORSDOF 0
ENDMDL
