MODEL 1
REMARK VINA RESULT:    -3.794      0.000      0.000
REMARK INTER + INTRA:          -4.711
REMARK INTER:                  -4.682
REMARK INTRA:                  -0.030
REMARK UNBOUND:                -0.030
REMARK SMILES CCCCCC=O
REMARK SMILES IDX 4 1 3 2 2 3 1 4 5 5 6 6 7 7
REMARK H PARENT
REMARK Flexibility Score: inf
ROOT
ATOM      1  C   UNL     1      24.035  56.184  -9.027  1.00  0.00     0.008 C 
ENDROOT
BRANCH   1   2
ATOM      2  C   UNL     1      25.496  56.540  -9.347  1.00  0.00     0.000 C 
BRANCH   2   3
ATOM      3  C   UNL     1      25.686  58.032  -9.653  1.00  0.00    -0.003 C 
ATOM      4  C   UNL     1      26.950  58.268 -10.475  1.00  0.00     0.004 C 
ENDBRANCH   2   3
ENDBRANCH   1   2
BRANCH   1   5
ATOM      5  C   UNL     1      23.877  54.745  -8.515  1.00  0.00     0.072 C 
BRANCH   5   6
ATOM      6  C   UNL     1      22.535  54.550  -7.875  1.00  0.00     0.224 C 
ATOM      7  O   UNL     1      22.451  54.199  -6.709  1.00  0.00    -0.303 OA
ENDBRANCH   5   6
ENDBRANCH   1   5
TORSDOF 4
ENDMDL
MODEL 2
REMARK VINA RESULT:    -3.658      2.845      4.800
REMARK INTER + INTRA:          -4.543
REMARK INTER:                  -4.493
REMARK INTRA:                  -0.051
REMARK UNBOUND:                -0.030
REMARK SMILES CCCCCC=O
REMARK SMILES IDX 4 1 3 2 2 3 1 4 5 5 6 6 7 7
REMARK H PARENT
REMARK Flexibility Score: inf
ROOT
ATOM      1  C   UNL     1      25.524  56.227  -9.390  1.00  0.00     0.008 C 
ENDROOT
BRANCH   1   2
ATOM      2  C   UNL     1      24.768  55.458  -8.295  1.00  0.00     0.000 C 
BRANCH   2   3
ATOM      3  C   UNL     1      23.293  55.221  -8.652  1.00  0.00    -0.003 C 
ATOM      4  C   UNL     1      22.605  54.356  -7.600  1.00  0.00     0.004 C 
ENDBRANCH   2   3
ENDBRANCH   1   2
BRANCH   1   5
ATOM      5  C   UNL     1      25.191  57.726  -9.396  1.00  0.00     0.072 C 
BRANCH   5   6
ATOM      6  C   UNL     1      26.320  58.521  -9.982  1.00  0.00     0.224 C 
ATOM      7  O   UNL     1      26.969  58.078 -10.916  1.00  0.00    -0.303 OA
ENDBRANCH   5   6
ENDBRANCH   1   5
TORSDOF 4
ENDMDL
MODEL 3
REMARK VINA RESULT:    -3.493      2.623      4.869
REMARK INTER + INTRA:          -4.339
REMARK INTER:                  -4.310
REMARK INTRA:                  -0.029
REMARK UNBOUND:                -0.030
REMARK SMILES CCCCCC=O
REMARK SMILES IDX 4 1 3 2 2 3 1 4 5 5 6 6 7 7
REMARK H PARENT
REMARK Flexibility Score: inf
ROOT
ATOM      1  C   UNL     1      24.106  55.599  -9.145  1.00  0.00     0.008 C 
ENDROOT
BRANCH   1   2
ATOM      2  C   UNL     1      23.708  55.177  -7.721  1.00  0.00     0.000 C 
BRANCH   2   3
ATOM      3  C   UNL     1      22.454  54.291  -7.698  1.00  0.00    -0.003 C 
ATOM      4  C   UNL     1      22.065  53.928  -6.267  1.00  0.00     0.004 C 
ENDBRANCH   2   3
ENDBRANCH   1   2
BRANCH   1   5
ATOM      5  C   UNL     1      25.562  56.077  -9.233  1.00  0.00     0.072 C 
BRANCH   5   6
ATOM      6  C   UNL     1      25.625  57.559  -9.454  1.00  0.00     0.224 C 
ATOM      7  O   UNL     1      26.510  58.045 -10.139  1.00  0.00    -0.303 OA
ENDBRANCH   5   6
ENDBRANCH   1   5
TORSDOF 4
ENDMDL
MODEL 4
REMARK VINA RESULT:    -3.457      3.144      5.157
REMARK INTER + INTRA:          -4.295
REMARK INTER:                  -4.253
REMARK INTRA:                  -0.043
REMARK UNBOUND:                -0.030
REMARK SMILES CCCCCC=O
REMARK SMILES IDX 4 1 3 2 2 3 1 4 5 5 6 6 7 7
REMARK H PARENT
REMARK Flexibility Score: inf
ROOT
ATOM      1  C   UNL     1      25.616  58.011  -9.635  1.00  0.00     0.008 C 
ENDROOT
BRANCH   1   2
ATOM      2  C   UNL     1      25.491  56.569  -9.118  1.00  0.00     0.000 C 
BRANCH   2   3
ATOM      3  C   UNL     1      24.061  56.021  -9.237  1.00  0.00    -0.003 C 
ATOM      4  C   UNL     1      23.919  54.693  -8.500  1.00  0.00     0.004 C 
ENDBRANCH   2   3
ENDBRANCH   1   2
BRANCH   1   5
ATOM      5  C   UNL     1      26.858  58.217 -10.513  1.00  0.00     0.072 C 
BRANCH   5   6
ATOM      6  C   UNL     1      27.328  59.640 -10.447  1.00  0.00     0.224 C 
ATOM      7  O   UNL     1      27.123  60.313  -9.450  1.00  0.00    -0.303 OA
ENDBRANCH   5   6
ENDBRANCH   1   5
TORSDOF 4
ENDMDL
MODEL 5
REMARK VINA RESULT:    -3.276     15.873     17.052
REMARK INTER + INTRA:          -4.072
REMARK INTER:                  -3.921
REMARK INTRA:                  -0.151
REMARK UNBOUND:                -0.030
REMARK SMILES CCCCCC=O
REMARK SMILES IDX 4 1 3 2 2 3 1 4 5 5 6 6 7 7
REMARK H PARENT
REMARK Flexibility Score: inf
ROOT
ATOM      1  C   UNL     1      19.149  44.434  -0.107  1.00  0.00     0.008 C 
ENDROOT
BRANCH   1   2
ATOM      2  C   UNL     1      17.655  44.194  -0.381  1.00  0.00     0.000 C 
BRANCH   2   3
ATOM      3  C   UNL     1      16.907  43.663   0.850  1.00  0.00    -0.003 C 
ATOM      4  C   UNL     1      15.563  44.364   1.021  1.00  0.00     0.004 C 
ENDBRANCH   2   3
ENDBRANCH   1   2
BRANCH   1   5
ATOM      5  C   UNL     1      19.627  43.759   1.187  1.00  0.00     0.072 C 
BRANCH   5   6
ATOM      6  C   UNL     1      20.683  42.735   0.896  1.00  0.00     0.224 C 
ATOM      7  O   UNL     1      20.552  41.960  -0.038  1.00  0.00    -0.303 OA
ENDBRANCH   5   6
ENDBRANCH   1   5
TORSDOF 4
ENDMDL
MODEL 6
REMARK VINA RESULT:    -3.184     16.530     17.592
REMARK INTER + INTRA:          -3.957
REMARK INTER:                  -3.738
REMARK INTRA:                  -0.219
REMARK UNBOUND:                -0.030
REMARK SMILES CCCCCC=O
REMARK SMILES IDX 4 1 3 2 2 3 1 4 5 5 6 6 7 7
REMARK H PARENT
REMARK Flexibility Score: inf
ROOT
ATOM      1  C   UNL     1      18.332  43.485   1.334  1.00  0.00     0.008 C 
ENDROOT
BRANCH   1   2
ATOM      2  C   UNL     1      17.624  42.241   0.774  1.00  0.00     0.000 C 
BRANCH   2   3
ATOM      3  C   UNL     1      17.361  42.342  -0.736  1.00  0.00    -0.003 C 
ATOM      4  C   UNL     1      17.794  41.068  -1.455  1.00  0.00     0.004 C 
ENDBRANCH   2   3
ENDBRANCH   1   2
BRANCH   1   5
ATOM      5  C   UNL     1      19.680  43.755   0.650  1.00  0.00     0.072 C 
BRANCH   5   6
ATOM      6  C   UNL     1      20.632  42.620   0.880  1.00  0.00     0.224 C 
ATOM      7  O   UNL     1      21.075  41.983  -0.063  1.00  0.00    -0.303 OA
ENDBRANCH   5   6
ENDBRANCH   1   5
TORSDOF 4
ENDMDL
MODEL 7
REMARK VINA RESULT:    -3.154     15.750     16.654
REMARK INTER + INTRA:          -3.921
REMARK INTER:                  -3.691
REMARK INTRA:                  -0.231
REMARK UNBOUND:                -0.030
REMARK SMILES CCCCCC=O
REMARK SMILES IDX 4 1 3 2 2 3 1 4 5 5 6 6 7 7
REMARK H PARENT
REMARK Flexibility Score: inf
ROOT
ATOM      1  C   UNL     1      19.276  44.504  -0.211  1.00  0.00     0.008 C 
ENDROOT
BRANCH   1   2
ATOM      2  C   UNL     1      19.512  43.927   1.194  1.00  0.00     0.000 C 
BRANCH   2   3
ATOM      3  C   UNL     1      20.552  42.797   1.201  1.00  0.00    -0.003 C 
ATOM      4  C   UNL     1      20.687  42.166  -0.181  1.00  0.00     0.004 C 
ENDBRANCH   2   3
ENDBRANCH   1   2
BRANCH   1   5
ATOM      5  C   UNL     1      17.786  44.590  -0.571  1.00  0.00     0.072 C 
BRANCH   5   6
ATOM      6  C   UNL     1      17.089  43.297  -0.270  1.00  0.00     0.224 C 
ATOM      7  O   UNL     1      17.216  42.338  -1.014  1.00  0.00    -0.303 OA
ENDBRANCH   5   6
ENDBRANCH   1   5
TORSDOF 4
ENDMDL
MODEL 8
REMARK VINA RESULT:    -3.149     15.849     16.846
REMARK INTER + INTRA:          -3.915
REMARK INTER:                  -3.794
REMARK INTRA:                  -0.121
REMARK UNBOUND:                -0.030
REMARK SMILES CCCCCC=O
REMARK SMILES IDX 4 1 3 2 2 3 1 4 5 5 6 6 7 7
REMARK H PARENT
REMARK Flexibility Score: inf
ROOT
ATOM      1  C   UNL     1      17.736  44.093  -0.302  1.00  0.00     0.008 C 
ENDROOT
BRANCH   1   2
ATOM      2  C   UNL     1      19.204  44.429   0.004  1.00  0.00     0.000 C 
BRANCH   2   3
ATOM      3  C   UNL     1      19.787  43.558   1.127  1.00  0.00    -0.003 C 
ATOM      4  C   UNL     1      20.665  42.446   0.560  1.00  0.00     0.004 C 
ENDBRANCH   2   3
ENDBRANCH   1   2
BRANCH   1   5
ATOM      5  C   UNL     1      16.983  43.565   0.928  1.00  0.00     0.072 C 
BRANCH   5   6
ATOM      6  C   UNL     1      15.648  44.234   1.063  1.00  0.00     0.224 C 
ATOM      7  O   UNL     1      15.279  45.052   0.236  1.00  0.00    -0.303 OA
ENDBRANCH   5   6
ENDBRANCH   1   5
TORSDOF 4
ENDMDL
MODEL 9
REMARK VINA RESULT:    -3.101      7.587      8.825
REMARK INTER + INTRA:          -3.855
REMARK INTER:                  -3.677
REMARK INTRA:                  -0.178
REMARK UNBOUND:                -0.030
REMARK SMILES CCCCCC=O
REMARK SMILES IDX 4 1 3 2 2 3 1 4 5 5 6 6 7 7
REMARK H PARENT
REMARK Flexibility Score: inf
ROOT
ATOM      1  C   UNL     1      31.178  56.185 -13.877  1.00  0.00     0.008 C 
ENDROOT
BRANCH   1   2
ATOM      2  C   UNL     1      32.400  56.384 -12.967  1.00  0.00     0.000 C 
BRANCH   2   3
ATOM      3  C   UNL     1      33.699  56.591 -13.761  1.00  0.00    -0.003 C 
ATOM      4  C   UNL     1      33.665  57.903 -14.538  1.00  0.00     0.004 C 
ENDBRANCH   2   3
ENDBRANCH   1   2
BRANCH   1   5
ATOM      5  C   UNL     1      30.004  57.099 -13.497  1.00  0.00     0.072 C 
BRANCH   5   6
ATOM      6  C   UNL     1      30.455  58.189 -12.571  1.00  0.00     0.224 C 
ATOM      7  O   UNL     1      29.653  58.754 -11.845  1.00  0.00    -0.303 OA
ENDBRANCH   5   6
ENDBRANCH   1   5
TORSDOF 4
ENDMDL
