MODEL 1
REMARK VINA RESULT:    -4.035      0.000      0.000
REMARK INTER + INTRA:          -5.721
REMARK INTER:                  -5.450
REMARK INTRA:                  -0.271
REMARK UNBOUND:                -0.271
REMARK SMILES CCCCCCCC(=O)[O-]
REMARK SMILES IDX 5 1 6 2 7 3 8 4 9 5 10 6 4 7 3 8 2 9 1 10
REMARK H PARENT
REMARK Flexibility Score: inf
ROOT
ATOM      1  C   UNL     1      14.230 -30.513  21.283  1.00  0.00     0.000 C 
ENDROOT
BRANCH   1   2
ATOM      2  C   UNL     1      13.604 -31.903  21.493  1.00  0.00     0.006 C 
BRANCH   2   3
ATOM      3  C   UNL     1      14.610 -32.941  22.005  1.00  0.00     0.053 C 
BRANCH   3   4
ATOM      4  C   UNL     1      14.877 -33.972  20.955  1.00  0.00     0.041 C 
ATOM      5  O   UNL     1      14.299 -33.903  19.838  1.00  0.00    -0.550 OA
ATOM      6  O   UNL     1      15.728 -35.037  21.226  1.00  0.00    -0.550 OA
ENDBRANCH   3   4
ENDBRANCH   2   3
ENDBRANCH   1   2
BRANCH   1   7
ATOM      7  C   UNL     1      14.301 -29.634  22.544  1.00  0.00     0.000 C 
BRANCH   7   8
ATOM      8  C   UNL     1      13.187 -29.943  23.554  1.00  0.00    -0.000 C 
BRANCH   8   9
ATOM      9  C   UNL     1      12.598 -28.653  24.136  1.00  0.00    -0.003 C 
ATOM     10  C   UNL     1      11.331 -28.239  23.392  1.00  0.00     0.004 C 
ENDBRANCH   8   9
ENDBRANCH   7   8
ENDBRANCH   1   7
TORSDOF 6
ENDMDL
MODEL 2
REMARK VINA RESULT:    -3.993      1.216      1.541
REMARK INTER + INTRA:          -5.664
REMARK INTER:                  -5.292
REMARK INTRA:                  -0.372
REMARK UNBOUND:                -0.271
REMARK SMILES CCCCCCCC(=O)[O-]
REMARK SMILES IDX 5 1 6 2 7 3 8 4 9 5 10 6 4 7 3 8 2 9 1 10
REMARK H PARENT
REMARK Flexibility Score: inf
ROOT
ATOM      1  C   UNL     1      13.517 -31.334  21.161  1.00  0.00     0.000 C 
ENDROOT
BRANCH   1   2
ATOM      2  C   UNL     1      14.990 -31.166  21.572  1.00  0.00     0.006 C 
BRANCH   2   3
ATOM      3  C   UNL     1      15.841 -32.407  21.270  1.00  0.00     0.053 C 
BRANCH   3   4
ATOM      4  C   UNL     1      15.181 -33.637  21.808  1.00  0.00     0.041 C 
ATOM      5  O   UNL     1      14.905 -33.723  23.034  1.00  0.00    -0.550 OA
ATOM      6  O   UNL     1      14.915 -34.709  20.965  1.00  0.00    -0.550 OA
ENDBRANCH   3   4
ENDBRANCH   2   3
ENDBRANCH   1   2
BRANCH   1   7
ATOM      7  C   UNL     1      12.493 -30.788  22.171  1.00  0.00     0.000 C 
BRANCH   7   8
ATOM      8  C   UNL     1      13.122 -30.420  23.523  1.00  0.00    -0.000 C 
BRANCH   8   9
ATOM      9  C   UNL     1      12.584 -29.078  24.032  1.00  0.00    -0.003 C 
ATOM     10  C   UNL     1      11.342 -28.650  23.258  1.00  0.00     0.004 C 
ENDBRANCH   8   9
ENDBRANCH   7   8
ENDBRANCH   1   7
TORSDOF 6
ENDMDL
MODEL 3
REMARK VINA RESULT:    -3.970      0.904      1.314
REMARK INTER + INTRA:          -5.634
REMARK INTER:                  -5.419
REMARK INTRA:                  -0.215
REMARK UNBOUND:                -0.271
REMARK SMILES CCCCCCCC(=O)[O-]
REMARK SMILES IDX 5 1 6 2 7 3 8 4 9 5 10 6 4 7 3 8 2 9 1 10
REMARK H PARENT
REMARK Flexibility Score: inf
ROOT
ATOM      1  C   UNL     1      13.743 -31.746  23.838  1.00  0.00     0.000 C 
ENDROOT
BRANCH   1   2
ATOM      2  C   UNL     1      14.469 -32.913  23.148  1.00  0.00     0.006 C 
BRANCH   2   3
ATOM      3  C   UNL     1      14.415 -32.830  21.617  1.00  0.00     0.053 C 
BRANCH   3   4
ATOM      4  C   UNL     1      15.045 -34.041  21.005  1.00  0.00     0.041 C 
ATOM      5  O   UNL     1      14.736 -34.394  19.836  1.00  0.00    -0.550 OA
ATOM      6  O   UNL     1      15.939 -34.808  21.742  1.00  0.00    -0.550 OA
ENDBRANCH   3   4
ENDBRANCH   2   3
ENDBRANCH   1   2
BRANCH   1   7
ATOM      7  C   UNL     1      13.137 -30.701  22.885  1.00  0.00     0.000 C 
BRANCH   7   8
ATOM      8  C   UNL     1      13.617 -29.272  23.177  1.00  0.00    -0.000 C 
BRANCH   8   9
ATOM      9  C   UNL     1      12.614 -28.525  24.063  1.00  0.00    -0.003 C 
ATOM     10  C   UNL     1      11.277 -28.341  23.351  1.00  0.00     0.004 C 
ENDBRANCH   8   9
ENDBRANCH   7   8
ENDBRANCH   1   7
TORSDOF 6
ENDMDL
MODEL 4
REMARK VINA RESULT:    -3.928      1.166      1.707
REMARK INTER + INTRA:          -5.577
REMARK INTER:                  -5.296
REMARK INTRA:                  -0.281
REMARK UNBOUND:                -0.271
REMARK SMILES CCCCCCCC(=O)[O-]
REMARK SMILES IDX 5 1 6 2 7 3 8 4 9 5 10 6 4 7 3 8 2 9 1 10
REMARK H PARENT
REMARK Flexibility Score: inf
ROOT
ATOM      1  C   UNL     1      14.841 -30.714  23.130  1.00  0.00     0.000 C 
ENDROOT
BRANCH   1   2
ATOM      2  C   UNL     1      13.989 -31.961  23.426  1.00  0.00     0.006 C 
BRANCH   2   3
ATOM      3  C   UNL     1      14.808 -33.258  23.428  1.00  0.00     0.053 C 
BRANCH   3   4
ATOM      4  C   UNL     1      14.942 -33.794  22.037  1.00  0.00     0.041 C 
ATOM      5  O   UNL     1      15.792 -34.687  21.782  1.00  0.00    -0.550 OA
ATOM      6  O   UNL     1      14.162 -33.272  21.012  1.00  0.00    -0.550 OA
ENDBRANCH   3   4
ENDBRANCH   2   3
ENDBRANCH   1   2
BRANCH   1   7
ATOM      7  C   UNL     1      14.068 -29.527  22.527  1.00  0.00     0.000 C 
BRANCH   7   8
ATOM      8  C   UNL     1      12.584 -29.516  22.919  1.00  0.00    -0.000 C 
BRANCH   8   9
ATOM      9  C   UNL     1      12.350 -28.652  24.164  1.00  0.00    -0.003 C 
ATOM     10  C   UNL     1      13.194 -27.383  24.122  1.00  0.00     0.004 C 
ENDBRANCH   8   9
ENDBRANCH   7   8
ENDBRANCH   1   7
TORSDOF 6
ENDMDL
MODEL 5
REMARK VINA RESULT:    -3.886      1.333      1.596
REMARK INTER + INTRA:          -5.520
REMARK INTER:                  -5.094
REMARK INTRA:                  -0.426
REMARK UNBOUND:                -0.271
REMARK SMILES CCCCCCCC(=O)[O-]
REMARK SMILES IDX 5 1 6 2 7 3 8 4 9 5 10 6 4 7 3 8 2 9 1 10
REMARK H PARENT
REMARK Flexibility Score: inf
ROOT
ATOM      1  C   UNL     1      13.947 -30.763  21.243  1.00  0.00     0.000 C 
ENDROOT
BRANCH   1   2
ATOM      2  C   UNL     1      15.267 -31.052  21.979  1.00  0.00     0.006 C 
BRANCH   2   3
ATOM      3  C   UNL     1      15.935 -32.355  21.522  1.00  0.00     0.053 C 
BRANCH   3   4
ATOM      4  C   UNL     1      15.142 -33.538  21.982  1.00  0.00     0.041 C 
ATOM      5  O   UNL     1      14.880 -34.474  21.181  1.00  0.00    -0.550 OA
ATOM      6  O   UNL     1      14.651 -33.583  23.281  1.00  0.00    -0.550 OA
ENDBRANCH   3   4
ENDBRANCH   2   3
ENDBRANCH   1   2
BRANCH   1   7
ATOM      7  C   UNL     1      12.711 -30.635  22.151  1.00  0.00     0.000 C 
BRANCH   7   8
ATOM      8  C   UNL     1      13.055 -30.154  23.568  1.00  0.00    -0.000 C 
BRANCH   8   9
ATOM      9  C   UNL     1      12.262 -28.893  23.929  1.00  0.00    -0.003 C 
ATOM     10  C   UNL     1      13.166 -27.664  23.969  1.00  0.00     0.004 C 
ENDBRANCH   8   9
ENDBRANCH   7   8
ENDBRANCH   1   7
TORSDOF 6
ENDMDL
MODEL 6
REMARK VINA RESULT:    -3.875      1.183      1.379
REMARK INTER + INTRA:          -5.505
REMARK INTER:                  -5.118
REMARK INTRA:                  -0.387
REMARK UNBOUND:                -0.271
REMARK SMILES CCCCCCCC(=O)[O-]
REMARK SMILES IDX 5 1 6 2 7 3 8 4 9 5 10 6 4 7 3 8 2 9 1 10
REMARK H PARENT
REMARK Flexibility Score: inf
ROOT
ATOM      1  C   UNL     1      15.483 -30.120  22.624  1.00  0.00     0.000 C 
ENDROOT
BRANCH   1   2
ATOM      2  C   UNL     1      15.064 -31.527  23.087  1.00  0.00     0.006 C 
BRANCH   2   3
ATOM      3  C   UNL     1      15.787 -32.647  22.328  1.00  0.00     0.053 C 
BRANCH   3   4
ATOM      4  C   UNL     1      14.838 -33.357  21.416  1.00  0.00     0.041 C 
ATOM      5  O   UNL     1      13.840 -32.751  20.944  1.00  0.00    -0.550 OA
ATOM      6  O   UNL     1      15.027 -34.703  21.126  1.00  0.00    -0.550 OA
ENDBRANCH   3   4
ENDBRANCH   2   3
ENDBRANCH   1   2
BRANCH   1   7
ATOM      7  C   UNL     1      14.323 -29.128  22.426  1.00  0.00     0.000 C 
BRANCH   7   8
ATOM      8  C   UNL     1      12.959 -29.717  22.812  1.00  0.00    -0.000 C 
BRANCH   8   9
ATOM      9  C   UNL     1      12.256 -28.838  23.853  1.00  0.00    -0.003 C 
ATOM     10  C   UNL     1      13.055 -27.569  24.136  1.00  0.00     0.004 C 
ENDBRANCH   8   9
ENDBRANCH   7   8
ENDBRANCH   1   7
TORSDOF 6
ENDMDL
MODEL 7
REMARK VINA RESULT:    -3.858      2.096      2.585
REMARK INTER + INTRA:          -5.483
REMARK INTER:                  -5.149
REMARK INTRA:                  -0.334
REMARK UNBOUND:                -0.271
REMARK SMILES CCCCCCCC(=O)[O-]
REMARK SMILES IDX 5 1 6 2 7 3 8 4 9 5 10 6 4 7 3 8 2 9 1 10
REMARK H PARENT
REMARK Flexibility Score: inf
ROOT
ATOM      1  C   UNL     1      14.056 -30.633  21.544  1.00  0.00     0.000 C 
ENDROOT
BRANCH   1   2
ATOM      2  C   UNL     1      15.174 -29.603  21.782  1.00  0.00     0.006 C 
BRANCH   2   3
ATOM      3  C   UNL     1      16.374 -30.187  22.539  1.00  0.00     0.053 C 
BRANCH   3   4
ATOM      4  C   UNL     1      16.926 -31.371  21.810  1.00  0.00     0.041 C 
ATOM      5  O   UNL     1      16.806 -32.526  22.296  1.00  0.00    -0.550 OA
ATOM      6  O   UNL     1      17.617 -31.194  20.617  1.00  0.00    -0.550 OA
ENDBRANCH   3   4
ENDBRANCH   2   3
ENDBRANCH   1   2
BRANCH   1   7
ATOM      7  C   UNL     1      12.758 -30.377  22.331  1.00  0.00     0.000 C 
BRANCH   7   8
ATOM      8  C   UNL     1      13.012 -29.945  23.782  1.00  0.00    -0.000 C 
BRANCH   8   9
ATOM      9  C   UNL     1      12.319 -28.612  24.087  1.00  0.00    -0.003 C 
ATOM     10  C   UNL     1      11.141 -28.374  23.148  1.00  0.00     0.004 C 
ENDBRANCH   8   9
ENDBRANCH   7   8
ENDBRANCH   1   7
TORSDOF 6
ENDMDL
MODEL 8
REMARK VINA RESULT:    -3.848      1.547      2.345
REMARK INTER + INTRA:          -5.469
REMARK INTER:                  -5.149
REMARK INTRA:                  -0.320
REMARK UNBOUND:                -0.271
REMARK SMILES CCCCCCCC(=O)[O-]
REMARK SMILES IDX 5 1 6 2 7 3 8 4 9 5 10 6 4 7 3 8 2 9 1 10
REMARK H PARENT
REMARK Flexibility Score: inf
ROOT
ATOM      1  C   UNL     1      14.602 -33.124  23.629  1.00  0.00     0.000 C 
ENDROOT
BRANCH   1   2
ATOM      2  C   UNL     1      15.223 -33.101  22.221  1.00  0.00     0.006 C 
BRANCH   2   3
ATOM      3  C   UNL     1      15.738 -34.475  21.772  1.00  0.00     0.053 C 
BRANCH   3   4
ATOM      4  C   UNL     1      15.235 -34.799  20.401  1.00  0.00     0.041 C 
ATOM      5  O   UNL     1      15.651 -35.824  19.799  1.00  0.00    -0.550 OA
ATOM      6  O   UNL     1      14.344 -33.942  19.766  1.00  0.00    -0.550 OA
ENDBRANCH   3   4
ENDBRANCH   2   3
ENDBRANCH   1   2
BRANCH   1   7
ATOM      7  C   UNL     1      13.561 -32.023  23.899  1.00  0.00     0.000 C 
BRANCH   7   8
ATOM      8  C   UNL     1      14.036 -30.630  23.464  1.00  0.00    -0.000 C 
BRANCH   8   9
ATOM      9  C   UNL     1      12.921 -29.872  22.734  1.00  0.00    -0.003 C 
ATOM     10  C   UNL     1      12.084 -30.813  21.874  1.00  0.00     0.004 C 
ENDBRANCH   8   9
ENDBRANCH   7   8
ENDBRANCH   1   7
TORSDOF 6
ENDMDL
MODEL 9
REMARK VINA RESULT:    -3.758      2.972      5.623
REMARK INTER + INTRA:          -5.347
REMARK INTER:                  -5.050
REMARK INTRA:                  -0.297
REMARK UNBOUND:                -0.271
REMARK SMILES CCCCCCCC(=O)[O-]
REMARK SMILES IDX 5 1 6 2 7 3 8 4 9 5 10 6 4 7 3 8 2 9 1 10
REMARK H PARENT
REMARK Flexibility Score: inf
ROOT
ATOM      1  C   UNL     1      13.842 -32.484  20.901  1.00  0.00     0.000 C 
ENDROOT
BRANCH   1   2
ATOM      2  C   UNL     1      13.502 -30.993  21.073  1.00  0.00     0.006 C 
BRANCH   2   3
ATOM      3  C   UNL     1      12.562 -30.725  22.256  1.00  0.00     0.053 C 
BRANCH   3   4
ATOM      4  C   UNL     1      13.178 -29.744  23.201  1.00  0.00     0.041 C 
ATOM      5  O   UNL     1      14.405 -29.468  23.117  1.00  0.00    -0.550 OA
ATOM      6  O   UNL     1      12.410 -29.170  24.207  1.00  0.00    -0.550 OA
ENDBRANCH   3   4
ENDBRANCH   2   3
ENDBRANCH   1   2
BRANCH   1   7
ATOM      7  C   UNL     1      14.704 -33.088  22.024  1.00  0.00     0.000 C 
BRANCH   7   8
ATOM      8  C   UNL     1      15.373 -34.410  21.620  1.00  0.00    -0.000 C 
BRANCH   8   9
ATOM      9  C   UNL     1      15.120 -34.725  20.141  1.00  0.00    -0.003 C 
ATOM     10  C   UNL     1      16.338 -35.381  19.499  1.00  0.00     0.004 C 
ENDBRANCH   8   9
ENDBRANCH   7   8
ENDBRANCH   1   7
TORSDOF 6
ENDMDL
