MODEL 1
REMARK VINA RESULT:    -4.907      0.000      0.000
REMARK INTER + INTRA:          -6.996
REMARK INTER:                  -6.629
REMARK INTRA:                  -0.367
REMARK UNBOUND:                -0.367
REMARK SMILES [NH3+]CCCC[C@@H]([NH3+])C(=O)[O-]
REMARK SMILES IDX 4 1 3 2 2 3 1 4 5 8 6 9 7 10 8 14 9 15 10 16
REMARK H PARENT 1 5 1 6 1 7 7 11 7 12 7 13
REMARK Flexibility Score: inf
ROOT
ATOM      1  C   UNL     1     -16.410   3.461 -22.746  1.00  0.00     0.012 C 
ENDROOT
BRANCH   1   2
ATOM      2  C   UNL     1     -16.204   4.751 -23.565  1.00  0.00     0.061 C 
BRANCH   2   3
ATOM      3  C   UNL     1     -14.807   5.386 -23.429  1.00  0.00     0.258 C 
BRANCH   3   4
ATOM      4  N   UNL     1     -13.743   4.488 -23.880  1.00  0.00    -0.358 N 
ATOM      5  H   UNL     1     -12.819   4.891 -23.605  1.00  0.00     0.344 HD
ATOM      6  H   UNL     1     -13.847   3.547 -23.436  1.00  0.00     0.344 HD
ATOM      7  H   UNL     1     -13.764   4.395 -24.921  1.00  0.00     0.344 HD
ENDBRANCH   3   4
ENDBRANCH   2   3
ENDBRANCH   1   2
BRANCH   1   8
ATOM      8  C   UNL     1     -16.350   2.152 -23.560  1.00  0.00     0.072 C 
BRANCH   8   9
ATOM      9  C   UNL     1     -15.483   1.040 -22.924  1.00  0.00     0.227 C 
BRANCH   9  10
ATOM     10  N   UNL     1     -16.296  -0.153 -22.662  1.00  0.00    -0.350 N 
ATOM     11  H   UNL     1     -15.696  -1.009 -22.707  1.00  0.00     0.345 HD
ATOM     12  H   UNL     1     -16.711  -0.096 -21.703  1.00  0.00     0.345 HD
ATOM     13  H   UNL     1     -17.068  -0.239 -23.363  1.00  0.00     0.345 HD
ENDBRANCH   9  10
BRANCH   9  14
ATOM     14  C   UNL     1     -14.313   0.687 -23.804  1.00  0.00     0.099 C 
ATOM     15  O   UNL     1     -14.338  -0.353 -24.515  1.00  0.00    -0.544 OA
ATOM     16  O   UNL     1     -13.198   1.515 -23.840  1.00  0.00    -0.544 OA
ENDBRANCH   9  14
ENDBRANCH   8   9
ENDBRANCH   1   8
TORSDOF 7
ENDMDL
MODEL 2
REMARK VINA RESULT:    -4.703      1.438      1.487
REMARK INTER + INTRA:          -6.720
REMARK INTER:                  -6.644
REMARK INTRA:                  -0.075
REMARK UNBOUND:                -0.367
REMARK SMILES [NH3+]CCCC[C@@H]([NH3+])C(=O)[O-]
REMARK SMILES IDX 4 1 3 2 2 3 1 4 5 8 6 9 7 10 8 14 9 15 10 16
REMARK H PARENT 1 5 1 6 1 7 7 11 7 12 7 13
REMARK Flexibility Score: inf
ROOT
ATOM      1  C   UNL     1     -16.736   2.889 -22.709  1.00  0.00     0.012 C 
ENDROOT
BRANCH   1   2
ATOM      2  C   UNL     1     -17.362   4.156 -23.327  1.00  0.00     0.061 C 
BRANCH   2   3
ATOM      3  C   UNL     1     -16.363   5.289 -23.627  1.00  0.00     0.258 C 
BRANCH   3   4
ATOM      4  N   UNL     1     -17.029   6.580 -23.815  1.00  0.00    -0.358 N 
ATOM      5  H   UNL     1     -16.590   7.283 -23.178  1.00  0.00     0.344 HD
ATOM      6  H   UNL     1     -16.921   6.905 -24.802  1.00  0.00     0.344 HD
ATOM      7  H   UNL     1     -18.042   6.503 -23.572  1.00  0.00     0.344 HD
ENDBRANCH   3   4
ENDBRANCH   2   3
ENDBRANCH   1   2
BRANCH   1   8
ATOM      8  C   UNL     1     -15.469   2.370 -23.420  1.00  0.00     0.072 C 
BRANCH   8   9
ATOM      9  C   UNL     1     -15.100   0.905 -23.088  1.00  0.00     0.227 C 
BRANCH   9  10
ATOM     10  N   UNL     1     -16.291   0.051 -23.163  1.00  0.00    -0.350 N 
ATOM     11  H   UNL     1     -16.965   0.441 -23.862  1.00  0.00     0.345 HD
ATOM     12  H   UNL     1     -16.019  -0.910 -23.473  1.00  0.00     0.345 HD
ATOM     13  H   UNL     1     -16.763  -0.012 -22.231  1.00  0.00     0.345 HD
ENDBRANCH   9  10
BRANCH   9  14
ATOM     14  C   UNL     1     -14.031   0.386 -24.013  1.00  0.00     0.099 C 
ATOM     15  O   UNL     1     -14.298  -0.507 -24.861  1.00  0.00    -0.544 OA
ATOM     16  O   UNL     1     -12.742   0.898 -23.939  1.00  0.00    -0.544 OA
ENDBRANCH   9  14
ENDBRANCH   8   9
ENDBRANCH   1   8
TORSDOF 7
ENDMDL
MODEL 3
REMARK VINA RESULT:    -4.051      7.101      7.810
REMARK INTER + INTRA:          -5.839
REMARK INTER:                  -5.738
REMARK INTRA:                  -0.101
REMARK UNBOUND:                -0.367
REMARK SMILES [NH3+]CCCC[C@@H]([NH3+])C(=O)[O-]
REMARK SMILES IDX 4 1 3 2 2 3 1 4 5 8 6 9 7 10 8 14 9 15 10 16
REMARK H PARENT 1 5 1 6 1 7 7 11 7 12 7 13
REMARK Flexibility Score: inf
ROOT
ATOM      1  C   UNL     1     -11.931   3.712 -29.317  1.00  0.00     0.012 C 
ENDROOT
BRANCH   1   2
ATOM      2  C   UNL     1     -11.096   4.147 -28.097  1.00  0.00     0.061 C 
BRANCH   2   3
ATOM      3  C   UNL     1     -11.865   4.973 -27.049  1.00  0.00     0.258 C 
BRANCH   3   4
ATOM      4  N   UNL     1     -11.165   5.028 -25.763  1.00  0.00    -0.358 N 
ATOM      5  H   UNL     1     -11.167   6.014 -25.418  1.00  0.00     0.344 HD
ATOM      6  H   UNL     1     -11.648   4.422 -25.060  1.00  0.00     0.344 HD
ATOM      7  H   UNL     1     -10.173   4.721 -25.878  1.00  0.00     0.344 HD
ENDBRANCH   3   4
ENDBRANCH   2   3
ENDBRANCH   1   2
BRANCH   1   8
ATOM      8  C   UNL     1     -11.834   2.215 -29.678  1.00  0.00     0.072 C 
BRANCH   8   9
ATOM      9  C   UNL     1     -11.047   1.917 -30.976  1.00  0.00     0.227 C 
BRANCH   9  10
ATOM     10  N   UNL     1      -9.822   1.170 -30.670  1.00  0.00    -0.350 N 
ATOM     11  H   UNL     1      -9.784   0.299 -31.248  1.00  0.00     0.345 HD
ATOM     12  H   UNL     1      -8.984   1.752 -30.903  1.00  0.00     0.345 HD
ATOM     13  H   UNL     1      -9.787   0.912 -29.657  1.00  0.00     0.345 HD
ENDBRANCH   9  10
BRANCH   9  14
ATOM     14  C   UNL     1     -11.889   1.151 -31.963  1.00  0.00     0.099 C 
ATOM     15  O   UNL     1     -11.439   0.113 -32.517  1.00  0.00    -0.544 OA
ATOM     16  O   UNL     1     -13.174   1.585 -32.263  1.00  0.00    -0.544 OA
ENDBRANCH   9  14
ENDBRANCH   8   9
ENDBRANCH   1   8
TORSDOF 7
ENDMDL
MODEL 4
REMARK VINA RESULT:    -4.043      7.858      8.471
REMARK INTER + INTRA:          -5.828
REMARK INTER:                  -5.709
REMARK INTRA:                  -0.119
REMARK UNBOUND:                -0.367
REMARK SMILES [NH3+]CCCC[C@@H]([NH3+])C(=O)[O-]
REMARK SMILES IDX 4 1 3 2 2 3 1 4 5 8 6 9 7 10 8 14 9 15 10 16
REMARK H PARENT 1 5 1 6 1 7 7 11 7 12 7 13
REMARK Flexibility Score: inf
ROOT
ATOM      1  C   UNL     1     -11.151   2.730 -29.892  1.00  0.00     0.012 C 
ENDROOT
BRANCH   1   2
ATOM      2  C   UNL     1     -11.944   3.599 -28.895  1.00  0.00     0.061 C 
BRANCH   2   3
ATOM      3  C   UNL     1     -11.085   4.549 -28.041  1.00  0.00     0.258 C 
BRANCH   3   4
ATOM      4  N   UNL     1     -10.542   3.889 -26.852  1.00  0.00    -0.358 N 
ATOM      5  H   UNL     1      -9.916   4.557 -26.348  1.00  0.00     0.344 HD
ATOM      6  H   UNL     1     -11.315   3.602 -26.210  1.00  0.00     0.344 HD
ATOM      7  H   UNL     1      -9.978   3.053 -27.128  1.00  0.00     0.344 HD
ENDBRANCH   3   4
ENDBRANCH   2   3
ENDBRANCH   1   2
BRANCH   1   8
ATOM      8  C   UNL     1     -11.947   1.571 -30.528  1.00  0.00     0.072 C 
BRANCH   8   9
ATOM      9  C   UNL     1     -11.778   1.442 -32.060  1.00  0.00     0.227 C 
BRANCH   9  10
ATOM     10  N   UNL     1     -11.490   0.051 -32.425  1.00  0.00    -0.350 N 
ATOM     11  H   UNL     1     -10.606  -0.263 -31.961  1.00  0.00     0.345 HD
ATOM     12  H   UNL     1     -12.267  -0.570 -32.100  1.00  0.00     0.345 HD
ATOM     13  H   UNL     1     -11.386  -0.048 -33.462  1.00  0.00     0.345 HD
ENDBRANCH   9  10
BRANCH   9  14
ATOM     14  C   UNL     1     -13.004   1.926 -32.790  1.00  0.00     0.099 C 
ATOM     15  O   UNL     1     -13.043   1.919 -34.049  1.00  0.00    -0.544 OA
ATOM     16  O   UNL     1     -14.105   2.377 -32.073  1.00  0.00    -0.544 OA
ENDBRANCH   9  14
ENDBRANCH   8   9
ENDBRANCH   1   8
TORSDOF 7
ENDMDL
MODEL 5
REMARK VINA RESULT:    -4.014      6.607      7.807
REMARK INTER + INTRA:          -5.790
REMARK INTER:                  -5.683
REMARK INTRA:                  -0.106
REMARK UNBOUND:                -0.367
REMARK SMILES [NH3+]CCCC[C@@H]([NH3+])C(=O)[O-]
REMARK SMILES IDX 4 1 3 2 2 3 1 4 5 8 6 9 7 10 8 14 9 15 10 16
REMARK H PARENT 1 5 1 6 1 7 7 11 7 12 7 13
REMARK Flexibility Score: inf
ROOT
ATOM      1  C   UNL     1     -12.200   2.994 -30.012  1.00  0.00     0.012 C 
ENDROOT
BRANCH   1   2
ATOM      2  C   UNL     1     -11.954   1.509 -30.345  1.00  0.00     0.061 C 
BRANCH   2   3
ATOM      3  C   UNL     1     -10.843   1.255 -31.382  1.00  0.00     0.258 C 
BRANCH   3   4
ATOM      4  N   UNL     1      -9.560   0.934 -30.754  1.00  0.00    -0.358 N 
ATOM      5  H   UNL     1      -9.736   0.367 -29.893  1.00  0.00     0.344 HD
ATOM      6  H   UNL     1      -8.963   0.378 -31.408  1.00  0.00     0.344 HD
ATOM      7  H   UNL     1      -9.064   1.810 -30.475  1.00  0.00     0.344 HD
ENDBRANCH   3   4
ENDBRANCH   2   3
ENDBRANCH   1   2
BRANCH   1   8
ATOM      8  C   UNL     1     -11.145   3.643 -29.091  1.00  0.00     0.072 C 
BRANCH   8   9
ATOM      9  C   UNL     1     -11.652   3.974 -27.668  1.00  0.00     0.227 C 
BRANCH   9  10
ATOM     10  N   UNL     1     -11.412   2.843 -26.765  1.00  0.00    -0.350 N 
ATOM     11  H   UNL     1     -12.160   2.806 -26.035  1.00  0.00     0.345 HD
ATOM     12  H   UNL     1     -11.438   1.947 -27.305  1.00  0.00     0.345 HD
ATOM     13  H   UNL     1     -10.480   2.932 -26.297  1.00  0.00     0.345 HD
ENDBRANCH   9  10
BRANCH   9  14
ATOM     14  C   UNL     1     -10.995   5.218 -27.128  1.00  0.00     0.099 C 
ATOM     15  O   UNL     1     -11.425   5.763 -26.077  1.00  0.00    -0.544 OA
ATOM     16  O   UNL     1      -9.901   5.765 -27.787  1.00  0.00    -0.544 OA
ENDBRANCH   9  14
ENDBRANCH   8   9
ENDBRANCH   1   8
TORSDOF 7
ENDMDL
MODEL 6
REMARK VINA RESULT:    -3.947      6.673      7.986
REMARK INTER + INTRA:          -5.699
REMARK INTER:                  -5.609
REMARK INTRA:                  -0.090
REMARK UNBOUND:                -0.367
REMARK SMILES [NH3+]CCCC[C@@H]([NH3+])C(=O)[O-]
REMARK SMILES IDX 4 1 3 2 2 3 1 4 5 8 6 9 7 10 8 14 9 15 10 16
REMARK H PARENT 1 5 1 6 1 7 7 11 7 12 7 13
REMARK Flexibility Score: inf
ROOT
ATOM      1  C   UNL     1     -11.443   2.782 -29.960  1.00  0.00     0.012 C 
ENDROOT
BRANCH   1   2
ATOM      2  C   UNL     1     -11.837   1.646 -30.925  1.00  0.00     0.061 C 
BRANCH   2   3
ATOM      3  C   UNL     1     -10.656   0.976 -31.651  1.00  0.00     0.258 C 
BRANCH   3   4
ATOM      4  N   UNL     1      -9.437   0.970 -30.839  1.00  0.00    -0.358 N 
ATOM      5  H   UNL     1      -9.120   1.956 -30.695  1.00  0.00     0.344 HD
ATOM      6  H   UNL     1      -9.622   0.535 -29.907  1.00  0.00     0.344 HD
ATOM      7  H   UNL     1      -8.676   0.449 -31.332  1.00  0.00     0.344 HD
ENDBRANCH   3   4
ENDBRANCH   2   3
ENDBRANCH   1   2
BRANCH   1   8
ATOM      8  C   UNL     1     -12.600   3.707 -29.529  1.00  0.00     0.072 C 
BRANCH   8   9
ATOM      9  C   UNL     1     -12.167   4.924 -28.679  1.00  0.00     0.227 C 
BRANCH   9  10
ATOM     10  N   UNL     1     -13.333   5.535 -28.032  1.00  0.00    -0.350 N 
ATOM     11  H   UNL     1     -13.544   5.039 -27.136  1.00  0.00     0.345 HD
ATOM     12  H   UNL     1     -13.130   6.538 -27.810  1.00  0.00     0.345 HD
ATOM     13  H   UNL     1     -14.172   5.488 -28.656  1.00  0.00     0.345 HD
ENDBRANCH   9  10
BRANCH   9  14
ATOM     14  C   UNL     1     -11.145   4.533 -27.643  1.00  0.00     0.099 C 
ATOM     15  O   UNL     1      -9.995   5.047 -27.654  1.00  0.00    -0.544 OA
ATOM     16  O   UNL     1     -11.472   3.606 -26.662  1.00  0.00    -0.544 OA
ENDBRANCH   9  14
ENDBRANCH   8   9
ENDBRANCH   1   8
TORSDOF 7
ENDMDL
MODEL 7
REMARK VINA RESULT:    -3.909      7.039      7.848
REMARK INTER + INTRA:          -5.648
REMARK INTER:                  -5.434
REMARK INTRA:                  -0.213
REMARK UNBOUND:                -0.367
REMARK SMILES [NH3+]CCCC[C@@H]([NH3+])C(=O)[O-]
REMARK SMILES IDX 4 1 3 2 2 3 1 4 5 8 6 9 7 10 8 14 9 15 10 16
REMARK H PARENT 1 5 1 6 1 7 7 11 7 12 7 13
REMARK Flexibility Score: inf
ROOT
ATOM      1  C   UNL     1     -13.715   3.722 -30.481  1.00  0.00     0.012 C 
ENDROOT
BRANCH   1   2
ATOM      2  C   UNL     1     -13.485   3.742 -32.006  1.00  0.00     0.061 C 
BRANCH   2   3
ATOM      3  C   UNL     1     -13.430   2.353 -32.669  1.00  0.00     0.258 C 
BRANCH   3   4
ATOM      4  N   UNL     1     -13.333   1.272 -31.686  1.00  0.00    -0.358 N 
ATOM      5  H   UNL     1     -12.803   0.476 -32.108  1.00  0.00     0.344 HD
ATOM      6  H   UNL     1     -12.827   1.600 -30.832  1.00  0.00     0.344 HD
ATOM      7  H   UNL     1     -14.287   0.931 -31.427  1.00  0.00     0.344 HD
ENDBRANCH   3   4
ENDBRANCH   2   3
ENDBRANCH   1   2
BRANCH   1   8
ATOM      8  C   UNL     1     -12.591   4.362 -29.640  1.00  0.00     0.072 C 
BRANCH   8   9
ATOM      9  C   UNL     1     -11.798   3.364 -28.765  1.00  0.00     0.227 C 
BRANCH   9  10
ATOM     10  N   UNL     1     -10.815   2.641 -29.580  1.00  0.00    -0.350 N 
ATOM     11  H   UNL     1     -10.445   3.269 -30.331  1.00  0.00     0.345 HD
ATOM     12  H   UNL     1     -10.011   2.340 -28.982  1.00  0.00     0.345 HD
ATOM     13  H   UNL     1     -11.247   1.796 -30.021  1.00  0.00     0.345 HD
ENDBRANCH   9  10
BRANCH   9  14
ATOM     14  C   UNL     1     -11.108   4.065 -27.623  1.00  0.00     0.099 C 
ATOM     15  O   UNL     1     -10.175   4.882 -27.844  1.00  0.00    -0.544 OA
ATOM     16  O   UNL     1     -11.507   3.816 -26.315  1.00  0.00    -0.544 OA
ENDBRANCH   9  14
ENDBRANCH   8   9
ENDBRANCH   1   8
TORSDOF 7
ENDMDL
MODEL 8
REMARK VINA RESULT:    -3.806      7.229      7.772
REMARK INTER + INTRA:          -5.508
REMARK INTER:                  -5.434
REMARK INTRA:                  -0.074
REMARK UNBOUND:                -0.367
REMARK SMILES [NH3+]CCCC[C@@H]([NH3+])C(=O)[O-]
REMARK SMILES IDX 4 1 3 2 2 3 1 4 5 8 6 9 7 10 8 14 9 15 10 16
REMARK H PARENT 1 5 1 6 1 7 7 11 7 12 7 13
REMARK Flexibility Score: inf
ROOT
ATOM      1  C   UNL     1     -11.820   3.344 -29.138  1.00  0.00     0.012 C 
ENDROOT
BRANCH   1   2
ATOM      2  C   UNL     1     -11.809   4.820 -28.694  1.00  0.00     0.061 C 
BRANCH   2   3
ATOM      3  C   UNL     1     -10.675   5.194 -27.722  1.00  0.00     0.258 C 
BRANCH   3   4
ATOM      4  N   UNL     1     -10.606   4.289 -26.574  1.00  0.00    -0.358 N 
ATOM      5  H   UNL     1      -9.980   3.487 -26.810  1.00  0.00     0.344 HD
ATOM      6  H   UNL     1     -10.218   4.787 -25.740  1.00  0.00     0.344 HD
ATOM      7  H   UNL     1     -11.556   3.911 -26.354  1.00  0.00     0.344 HD
ENDBRANCH   3   4
ENDBRANCH   2   3
ENDBRANCH   1   2
BRANCH   1   8
ATOM      8  C   UNL     1     -12.151   3.109 -30.627  1.00  0.00     0.072 C 
BRANCH   8   9
ATOM      9  C   UNL     1     -12.510   1.648 -30.982  1.00  0.00     0.227 C 
BRANCH   9  10
ATOM     10  N   UNL     1     -13.664   1.612 -31.887  1.00  0.00    -0.350 N 
ATOM     11  H   UNL     1     -14.143   0.684 -31.817  1.00  0.00     0.345 HD
ATOM     12  H   UNL     1     -14.351   2.354 -31.616  1.00  0.00     0.345 HD
ATOM     13  H   UNL     1     -13.366   1.770 -32.878  1.00  0.00     0.345 HD
ENDBRANCH   9  10
BRANCH   9  14
ATOM     14  C   UNL     1     -11.341   0.932 -31.606  1.00  0.00     0.099 C 
ATOM     15  O   UNL     1     -11.511   0.170 -32.595  1.00  0.00    -0.544 OA
ATOM     16  O   UNL     1     -10.062   1.115 -31.093  1.00  0.00    -0.544 OA
ENDBRANCH   9  14
ENDBRANCH   8   9
ENDBRANCH   1   8
TORSDOF 7
ENDMDL
MODEL 9
REMARK VINA RESULT:    -3.728     12.621     13.290
REMARK INTER + INTRA:          -5.403
REMARK INTER:                  -5.256
REMARK INTRA:                  -0.146
REMARK UNBOUND:                -0.367
REMARK SMILES [NH3+]CCCC[C@@H]([NH3+])C(=O)[O-]
REMARK SMILES IDX 4 1 3 2 2 3 1 4 5 8 6 9 7 10 8 14 9 15 10 16
REMARK H PARENT 1 5 1 6 1 7 7 11 7 12 7 13
REMARK Flexibility Score: inf
ROOT
ATOM      1  C   UNL     1      -7.872   0.633 -35.001  1.00  0.00     0.012 C 
ENDROOT
BRANCH   1   2
ATOM      2  C   UNL     1      -9.024  -0.256 -35.514  1.00  0.00     0.061 C 
BRANCH   2   3
ATOM      3  C   UNL     1     -10.435   0.244 -35.153  1.00  0.00     0.258 C 
BRANCH   3   4
ATOM      4  N   UNL     1     -10.739   0.072 -33.732  1.00  0.00    -0.358 N 
ATOM      5  H   UNL     1      -9.849  -0.109 -33.214  1.00  0.00     0.344 HD
ATOM      6  H   UNL     1     -11.183   0.937 -33.347  1.00  0.00     0.344 HD
ATOM      7  H   UNL     1     -11.373  -0.748 -33.593  1.00  0.00     0.344 HD
ENDBRANCH   3   4
ENDBRANCH   2   3
ENDBRANCH   1   2
BRANCH   1   8
ATOM      8  C   UNL     1      -6.649  -0.131 -34.453  1.00  0.00     0.072 C 
BRANCH   8   9
ATOM      9  C   UNL     1      -6.173   0.335 -33.058  1.00  0.00     0.227 C 
BRANCH   9  10
ATOM     10  N   UNL     1      -7.298   0.886 -32.293  1.00  0.00    -0.350 N 
ATOM     11  H   UNL     1      -7.504   0.271 -31.471  1.00  0.00     0.345 HD
ATOM     12  H   UNL     1      -7.051   1.837 -31.935  1.00  0.00     0.345 HD
ATOM     13  H   UNL     1      -8.154   0.958 -32.891  1.00  0.00     0.345 HD
ENDBRANCH   9  10
BRANCH   9  14
ATOM     14  C   UNL     1      -5.529  -0.792 -32.293  1.00  0.00     0.099 C 
ATOM     15  O   UNL     1      -5.411  -1.933 -32.815  1.00  0.00    -0.544 OA
ATOM     16  O   UNL     1      -5.055  -0.575 -31.006  1.00  0.00    -0.544 OA
ENDBRANCH   9  14
ENDBRANCH   8   9
ENDBRANCH   1   8
TORSDOF 7
ENDMDL
