MODEL 1
REMARK VINA RESULT:    -5.571      0.000      0.000
REMARK INTER + INTRA:          -8.615
REMARK INTER:                  -7.687
REMARK INTRA:                  -0.927
REMARK UNBOUND:                -0.927
REMARK SMILES CCCCc1cccc(O)c1CCCC
REMARK SMILES IDX 5 1 11 2 9 3 8 4 7 5 6 6 4 7 3 8 2 9 1 10 12 11 13 12 14 13
REMARK SMILES IDX 15 14 10 15
REMARK H PARENT 10 16
REMARK Flexibility Score: inf
ROOT
ATOM      1  C   UNL     1       4.717  -0.649  36.764  1.00  0.00    -0.041 A 
ATOM      2  C   UNL     1       5.082  -2.004  36.516  1.00  0.00    -0.003 A 
ATOM      3  C   UNL     1       6.363  -2.283  35.983  1.00  0.00     0.119 A 
ATOM      4  C   UNL     1       7.254  -1.240  35.705  1.00  0.00     0.046 A 
ATOM      5  C   UNL     1       6.888   0.081  35.944  1.00  0.00     0.004 A 
ATOM      6  C   UNL     1       5.630   0.376  36.462  1.00  0.00     0.004 A 
ENDROOT
BRANCH   1   7
ATOM      7  C   UNL     1       3.346  -0.249  37.266  1.00  0.00     0.036 C 
BRANCH   7   8
ATOM      8  C   UNL     1       3.358  -0.082  38.793  1.00  0.00     0.004 C 
BRANCH   8   9
ATOM      9  C   UNL     1       2.384  -1.035  39.500  1.00  0.00    -0.003 C 
ATOM     10  C   UNL     1       2.587  -1.068  41.014  1.00  0.00     0.004 C 
ENDBRANCH   8   9
ENDBRANCH   7   8
ENDBRANCH   1   7
BRANCH   2  11
ATOM     11  C   UNL     1       4.147  -3.158  36.838  1.00  0.00     0.040 C 
BRANCH  11  12
ATOM     12  C   UNL     1       4.345  -3.690  38.267  1.00  0.00     0.005 C 
BRANCH  12  13
ATOM     13  C   UNL     1       3.180  -4.574  38.735  1.00  0.00    -0.003 C 
ATOM     14  C   UNL     1       3.385  -6.025  38.312  1.00  0.00     0.004 C 
ENDBRANCH  12  13
ENDBRANCH  11  12
ENDBRANCH   2  11
BRANCH   3  15
ATOM     15  O   UNL     1       6.750  -3.599  35.729  1.00  0.00    -0.508 OA
ATOM     16  H   UNL     1       6.199  -4.214  35.143  1.00  0.00     0.293 HD
ENDBRANCH   3  15
TORSDOF 7
ENDMDL
MODEL 2
REMARK VINA RESULT:    -5.391      2.087      4.041
REMARK INTER + INTRA:          -8.366
REMARK INTER:                  -7.162
REMARK INTRA:                  -1.204
REMARK UNBOUND:                -0.927
REMARK SMILES CCCCc1cccc(O)c1CCCC
REMARK SMILES IDX 5 1 11 2 9 3 8 4 7 5 6 6 4 7 3 8 2 9 1 10 12 11 13 12 14 13
REMARK SMILES IDX 15 14 10 15
REMARK H PARENT 10 16
REMARK Flexibility Score: inf
ROOT
ATOM      1  C   UNL     1       3.775  -2.743  37.898  1.00  0.00    -0.041 A 
ATOM      2  C   UNL     1       3.239  -1.462  38.217  1.00  0.00    -0.003 A 
ATOM      3  C   UNL     1       3.782  -0.316  37.589  1.00  0.00     0.119 A 
ATOM      4  C   UNL     1       4.829  -0.444  36.669  1.00  0.00     0.046 A 
ATOM      5  C   UNL     1       5.352  -1.697  36.367  1.00  0.00     0.004 A 
ATOM      6  C   UNL     1       4.836  -2.837  36.980  1.00  0.00     0.004 A 
ENDROOT
BRANCH   1   7
ATOM      7  C   UNL     1       3.308  -4.017  38.570  1.00  0.00     0.036 C 
BRANCH   7   8
ATOM      8  C   UNL     1       2.198  -4.685  37.746  1.00  0.00     0.004 C 
BRANCH   8   9
ATOM      9  C   UNL     1       0.908  -4.896  38.553  1.00  0.00    -0.003 C 
ATOM     10  C   UNL     1       1.155  -5.621  39.876  1.00  0.00     0.004 C 
ENDBRANCH   8   9
ENDBRANCH   7   8
ENDBRANCH   1   7
BRANCH   2  11
ATOM     11  C   UNL     1       2.082  -1.296  39.188  1.00  0.00     0.040 C 
BRANCH  11  12
ATOM     12  C   UNL     1       2.554  -1.196  40.648  1.00  0.00     0.005 C 
BRANCH  12  13
ATOM     13  C   UNL     1       1.870  -2.223  41.562  1.00  0.00    -0.003 C 
ATOM     14  C   UNL     1       0.374  -2.302  41.278  1.00  0.00     0.004 C 
ENDBRANCH  12  13
ENDBRANCH  11  12
ENDBRANCH   2  11
BRANCH   3  15
ATOM     15  O   UNL     1       3.279   0.953  37.880  1.00  0.00    -0.508 OA
ATOM     16  H   UNL     1       2.397   1.277  37.502  1.00  0.00     0.293 HD
ENDBRANCH   3  15
TORSDOF 7
ENDMDL
MODEL 3
REMARK VINA RESULT:    -5.359      1.946      5.039
REMARK INTER + INTRA:          -8.322
REMARK INTER:                  -7.443
REMARK INTRA:                  -0.879
REMARK UNBOUND:                -0.927
REMARK SMILES CCCCc1cccc(O)c1CCCC
REMARK SMILES IDX 5 1 11 2 9 3 8 4 7 5 6 6 4 7 3 8 2 9 1 10 12 11 13 12 14 13
REMARK SMILES IDX 15 14 10 15
REMARK H PARENT 10 16
REMARK Flexibility Score: inf
ROOT
ATOM      1  C   UNL     1       4.474  -3.691  37.237  1.00  0.00    -0.041 A 
ATOM      2  C   UNL     1       3.529  -3.729  38.304  1.00  0.00    -0.003 A 
ATOM      3  C   UNL     1       3.064  -4.983  38.764  1.00  0.00     0.119 A 
ATOM      4  C   UNL     1       3.527  -6.166  38.178  1.00  0.00     0.046 A 
ATOM      5  C   UNL     1       4.444  -6.123  37.132  1.00  0.00     0.004 A 
ATOM      6  C   UNL     1       4.909  -4.897  36.661  1.00  0.00     0.004 A 
ENDROOT
BRANCH   1   7
ATOM      7  C   UNL     1       4.975  -2.397  36.632  1.00  0.00     0.036 C 
BRANCH   7   8
ATOM      8  C   UNL     1       6.388  -2.583  36.059  1.00  0.00     0.004 C 
BRANCH   8   9
ATOM      9  C   UNL     1       7.094  -1.246  35.786  1.00  0.00    -0.003 C 
ATOM     10  C   UNL     1       6.223  -0.039  36.132  1.00  0.00     0.004 C 
ENDBRANCH   8   9
ENDBRANCH   7   8
ENDBRANCH   1   7
BRANCH   2  11
ATOM     11  C   UNL     1       3.034  -2.461  38.981  1.00  0.00     0.040 C 
BRANCH  11  12
ATOM     12  C   UNL     1       1.736  -1.931  38.349  1.00  0.00     0.005 C 
BRANCH  12  13
ATOM     13  C   UNL     1       1.830  -0.447  37.964  1.00  0.00    -0.003 C 
ATOM     14  C   UNL     1       3.195   0.129  38.325  1.00  0.00     0.004 C 
ENDBRANCH  12  13
ENDBRANCH  11  12
ENDBRANCH   2  11
BRANCH   3  15
ATOM     15  O   UNL     1       2.139  -5.053  39.807  1.00  0.00    -0.508 OA
ATOM     16  H   UNL     1       1.175  -5.321  39.648  1.00  0.00     0.293 HD
ENDBRANCH   3  15
TORSDOF 7
ENDMDL
MODEL 4
REMARK VINA RESULT:    -5.337      6.070      9.405
REMARK INTER + INTRA:          -8.292
REMARK INTER:                  -7.814
REMARK INTRA:                  -0.478
REMARK UNBOUND:                -0.927
REMARK SMILES CCCCc1cccc(O)c1CCCC
REMARK SMILES IDX 5 1 11 2 9 3 8 4 7 5 6 6 4 7 3 8 2 9 1 10 12 11 13 12 14 13
REMARK SMILES IDX 15 14 10 15
REMARK H PARENT 10 16
REMARK Flexibility Score: inf
ROOT
ATOM      1  C   UNL     1      10.774   1.944  34.512  1.00  0.00    -0.041 A 
ATOM      2  C   UNL     1      11.723   2.750  33.818  1.00  0.00    -0.003 A 
ATOM      3  C   UNL     1      13.076   2.723  34.231  1.00  0.00     0.119 A 
ATOM      4  C   UNL     1      13.471   1.917  35.304  1.00  0.00     0.046 A 
ATOM      5  C   UNL     1      12.538   1.138  35.981  1.00  0.00     0.004 A 
ATOM      6  C   UNL     1      11.200   1.155  35.594  1.00  0.00     0.004 A 
ENDROOT
BRANCH   1   7
ATOM      7  C   UNL     1       9.294   1.959  34.189  1.00  0.00     0.036 C 
BRANCH   7   8
ATOM      8  C   UNL     1       8.823   0.563  33.756  1.00  0.00     0.004 C 
BRANCH   8   9
ATOM      9  C   UNL     1       7.983  -0.137  34.835  1.00  0.00    -0.003 C 
ATOM     10  C   UNL     1       7.536   0.817  35.943  1.00  0.00     0.004 C 
ENDBRANCH   8   9
ENDBRANCH   7   8
ENDBRANCH   1   7
BRANCH   2  11
ATOM     11  C   UNL     1      11.328   3.610  32.630  1.00  0.00     0.040 C 
BRANCH  11  12
ATOM     12  C   UNL     1      11.557   5.109  32.891  1.00  0.00     0.005 C 
BRANCH  12  13
ATOM     13  C   UNL     1      10.700   6.004  31.986  1.00  0.00    -0.003 C 
ATOM     14  C   UNL     1       9.275   5.472  31.876  1.00  0.00     0.004 C 
ENDBRANCH  12  13
ENDBRANCH  11  12
ENDBRANCH   2  11
BRANCH   3  15
ATOM     15  O   UNL     1      14.030   3.501  33.573  1.00  0.00    -0.508 OA
ATOM     16  H   UNL     1      14.481   3.185  32.722  1.00  0.00     0.293 HD
ENDBRANCH   3  15
TORSDOF 7
ENDMDL
MODEL 5
REMARK VINA RESULT:    -5.331      6.266      9.731
REMARK INTER + INTRA:          -8.284
REMARK INTER:                  -6.854
REMARK INTRA:                  -1.431
REMARK UNBOUND:                -0.927
REMARK SMILES CCCCc1cccc(O)c1CCCC
REMARK SMILES IDX 5 1 11 2 9 3 8 4 7 5 6 6 4 7 3 8 2 9 1 10 12 11 13 12 14 13
REMARK SMILES IDX 15 14 10 15
REMARK H PARENT 10 16
REMARK Flexibility Score: inf
ROOT
ATOM      1  C   UNL     1      11.423   1.596  35.372  1.00  0.00    -0.041 A 
ATOM      2  C   UNL     1      10.575   1.986  34.295  1.00  0.00    -0.003 A 
ATOM      3  C   UNL     1       9.174   1.862  34.447  1.00  0.00     0.119 A 
ATOM      4  C   UNL     1       8.633   1.364  35.638  1.00  0.00     0.046 A 
ATOM      5  C   UNL     1       9.467   0.979  36.683  1.00  0.00     0.004 A 
ATOM      6  C   UNL     1      10.850   1.087  36.550  1.00  0.00     0.004 A 
ENDROOT
BRANCH   1   7
ATOM      7  C   UNL     1      12.934   1.626  35.277  1.00  0.00     0.036 C 
BRANCH   7   8
ATOM      8  C   UNL     1      13.518   2.611  36.301  1.00  0.00     0.004 C 
BRANCH   8   9
ATOM      9  C   UNL     1      13.494   4.064  35.802  1.00  0.00    -0.003 C 
ATOM     10  C   UNL     1      12.324   4.863  36.377  1.00  0.00     0.004 C 
ENDBRANCH   8   9
ENDBRANCH   7   8
ENDBRANCH   1   7
BRANCH   2  11
ATOM     11  C   UNL     1      11.132   2.560  33.003  1.00  0.00     0.040 C 
BRANCH  11  12
ATOM     12  C   UNL     1      11.026   4.093  32.950  1.00  0.00     0.005 C 
BRANCH  12  13
ATOM     13  C   UNL     1      12.301   4.755  32.409  1.00  0.00    -0.003 C 
ATOM     14  C   UNL     1      13.405   3.726  32.191  1.00  0.00     0.004 C 
ENDBRANCH  12  13
ENDBRANCH  11  12
ENDBRANCH   2  11
BRANCH   3  15
ATOM     15  O   UNL     1       8.316   2.235  33.411  1.00  0.00    -0.508 OA
ATOM     16  H   UNL     1       7.592   1.615  33.067  1.00  0.00     0.293 HD
ENDBRANCH   3  15
TORSDOF 7
ENDMDL
MODEL 6
REMARK VINA RESULT:    -5.303      2.158      4.609
REMARK INTER + INTRA:          -8.245
REMARK INTER:                  -7.545
REMARK INTRA:                  -0.701
REMARK UNBOUND:                -0.927
REMARK SMILES CCCCc1cccc(O)c1CCCC
REMARK SMILES IDX 5 1 11 2 9 3 8 4 7 5 6 6 4 7 3 8 2 9 1 10 12 11 13 12 14 13
REMARK SMILES IDX 15 14 10 15
REMARK H PARENT 10 16
REMARK Flexibility Score: inf
ROOT
ATOM      1  C   UNL     1       5.557  -1.186  36.386  1.00  0.00    -0.041 A 
ATOM      2  C   UNL     1       4.946  -2.413  36.778  1.00  0.00    -0.003 A 
ATOM      3  C   UNL     1       3.739  -2.373  37.515  1.00  0.00     0.119 A 
ATOM      4  C   UNL     1       3.158  -1.145  37.851  1.00  0.00     0.046 A 
ATOM      5  C   UNL     1       3.762   0.049  37.470  1.00  0.00     0.004 A 
ATOM      6  C   UNL     1       4.954   0.030  36.750  1.00  0.00     0.004 A 
ENDROOT
BRANCH   1   7
ATOM      7  C   UNL     1       6.883  -1.127  35.657  1.00  0.00     0.036 C 
BRANCH   7   8
ATOM      8  C   UNL     1       7.429   0.308  35.647  1.00  0.00     0.004 C 
BRANCH   8   9
ATOM      9  C   UNL     1       8.957   0.359  35.798  1.00  0.00    -0.003 C 
ATOM     10  C   UNL     1       9.416   1.450  36.765  1.00  0.00     0.004 C 
ENDBRANCH   8   9
ENDBRANCH   7   8
ENDBRANCH   1   7
BRANCH   2  11
ATOM     11  C   UNL     1       5.539  -3.760  36.400  1.00  0.00     0.040 C 
BRANCH  11  12
ATOM     12  C   UNL     1       4.980  -4.292  35.069  1.00  0.00     0.005 C 
BRANCH  12  13
ATOM     13  C   UNL     1       6.036  -4.325  33.956  1.00  0.00    -0.003 C 
ATOM     14  C   UNL     1       5.392  -4.547  32.592  1.00  0.00     0.004 C 
ENDBRANCH  12  13
ENDBRANCH  11  12
ENDBRANCH   2  11
BRANCH   3  15
ATOM     15  O   UNL     1       3.117  -3.556  37.915  1.00  0.00    -0.508 OA
ATOM     16  H   UNL     1       2.819  -3.706  38.871  1.00  0.00     0.293 HD
ENDBRANCH   3  15
TORSDOF 7
ENDMDL
MODEL 7
REMARK VINA RESULT:    -5.263      5.681      8.806
REMARK INTER + INTRA:          -8.190
REMARK INTER:                  -7.416
REMARK INTRA:                  -0.774
REMARK UNBOUND:                -0.927
REMARK SMILES CCCCc1cccc(O)c1CCCC
REMARK SMILES IDX 5 1 11 2 9 3 8 4 7 5 6 6 4 7 3 8 2 9 1 10 12 11 13 12 14 13
REMARK SMILES IDX 15 14 10 15
REMARK H PARENT 10 16
REMARK Flexibility Score: inf
ROOT
ATOM      1  C   UNL     1      11.460   2.944  33.887  1.00  0.00    -0.041 A 
ATOM      2  C   UNL     1      10.672   2.169  34.788  1.00  0.00    -0.003 A 
ATOM      3  C   UNL     1      11.303   1.553  35.894  1.00  0.00     0.119 A 
ATOM      4  C   UNL     1      12.679   1.705  36.097  1.00  0.00     0.046 A 
ATOM      5  C   UNL     1      13.443   2.457  35.210  1.00  0.00     0.004 A 
ATOM      6  C   UNL     1      12.842   3.066  34.112  1.00  0.00     0.004 A 
ENDROOT
BRANCH   1   7
ATOM      7  C   UNL     1      10.888   3.582  32.639  1.00  0.00     0.036 C 
BRANCH   7   8
ATOM      8  C   UNL     1      11.686   4.839  32.262  1.00  0.00     0.004 C 
BRANCH   8   9
ATOM      9  C   UNL     1      10.783   6.047  31.972  1.00  0.00    -0.003 C 
ATOM     10  C   UNL     1       9.305   5.667  31.875  1.00  0.00     0.004 C 
ENDBRANCH   8   9
ENDBRANCH   7   8
ENDBRANCH   1   7
BRANCH   2  11
ATOM     11  C   UNL     1       9.171   2.014  34.609  1.00  0.00     0.040 C 
BRANCH  11  12
ATOM     12  C   UNL     1       8.807   0.769  33.782  1.00  0.00     0.005 C 
BRANCH  12  13
ATOM     13  C   UNL     1       8.134  -0.323  34.625  1.00  0.00    -0.003 C 
ATOM     14  C   UNL     1       7.273   0.284  35.728  1.00  0.00     0.004 C 
ENDBRANCH  12  13
ENDBRANCH  11  12
ENDBRANCH   2  11
BRANCH   3  15
ATOM     15  O   UNL     1      10.560   0.788  36.794  1.00  0.00    -0.508 OA
ATOM     16  H   UNL     1      10.995   0.096  37.392  1.00  0.00     0.293 HD
ENDBRANCH   3  15
TORSDOF 7
ENDMDL
MODEL 8
REMARK VINA RESULT:    -5.237      2.166      4.057
REMARK INTER + INTRA:          -8.154
REMARK INTER:                  -7.140
REMARK INTRA:                  -1.015
REMARK UNBOUND:                -0.927
REMARK SMILES CCCCc1cccc(O)c1CCCC
REMARK SMILES IDX 5 1 11 2 9 3 8 4 7 5 6 6 4 7 3 8 2 9 1 10 12 11 13 12 14 13
REMARK SMILES IDX 15 14 10 15
REMARK H PARENT 10 16
REMARK Flexibility Score: inf
ROOT
ATOM      1  C   UNL     1       4.556  -2.577  37.175  1.00  0.00    -0.041 A 
ATOM      2  C   UNL     1       3.759  -1.466  37.575  1.00  0.00    -0.003 A 
ATOM      3  C   UNL     1       4.156  -0.163  37.191  1.00  0.00     0.119 A 
ATOM      4  C   UNL     1       5.315   0.027  36.430  1.00  0.00     0.046 A 
ATOM      5  C   UNL     1       6.093  -1.062  36.048  1.00  0.00     0.004 A 
ATOM      6  C   UNL     1       5.722  -2.351  36.422  1.00  0.00     0.004 A 
ENDROOT
BRANCH   1   7
ATOM      7  C   UNL     1       4.251  -3.999  37.595  1.00  0.00     0.036 C 
BRANCH   7   8
ATOM      8  C   UNL     1       4.416  -4.959  36.408  1.00  0.00     0.004 C 
BRANCH   8   9
ATOM      9  C   UNL     1       3.218  -4.921  35.448  1.00  0.00    -0.003 C 
ATOM     10  C   UNL     1       3.619  -4.540  34.022  1.00  0.00     0.004 C 
ENDBRANCH   8   9
ENDBRANCH   7   8
ENDBRANCH   1   7
BRANCH   2  11
ATOM     11  C   UNL     1       2.479  -1.645  38.374  1.00  0.00     0.040 C 
BRANCH  11  12
ATOM     12  C   UNL     1       2.676  -1.344  39.869  1.00  0.00     0.005 C 
BRANCH  12  13
ATOM     13  C   UNL     1       2.643  -2.612  40.736  1.00  0.00    -0.003 C 
ATOM     14  C   UNL     1       1.652  -3.631  40.182  1.00  0.00     0.004 C 
ENDBRANCH  12  13
ENDBRANCH  11  12
ENDBRANCH   2  11
BRANCH   3  15
ATOM     15  O   UNL     1       3.396   0.946  37.567  1.00  0.00    -0.508 OA
ATOM     16  H   UNL     1       3.003   1.581  36.883  1.00  0.00     0.293 HD
ENDBRANCH   3  15
TORSDOF 7
ENDMDL
MODEL 9
REMARK VINA RESULT:    -5.225      1.466      1.965
REMARK INTER + INTRA:          -8.138
REMARK INTER:                  -7.159
REMARK INTRA:                  -0.979
REMARK UNBOUND:                -0.927
REMARK SMILES CCCCc1cccc(O)c1CCCC
REMARK SMILES IDX 5 1 11 2 9 3 8 4 7 5 6 6 4 7 3 8 2 9 1 10 12 11 13 12 14 13
REMARK SMILES IDX 15 14 10 15
REMARK H PARENT 10 16
REMARK Flexibility Score: inf
ROOT
ATOM      1  C   UNL     1       4.050  -1.402  37.384  1.00  0.00    -0.041 A 
ATOM      2  C   UNL     1       4.852  -2.506  36.973  1.00  0.00    -0.003 A 
ATOM      3  C   UNL     1       6.036  -2.258  36.241  1.00  0.00     0.119 A 
ATOM      4  C   UNL     1       6.411  -0.947  35.927  1.00  0.00     0.046 A 
ATOM      5  C   UNL     1       5.620   0.126  36.325  1.00  0.00     0.004 A 
ATOM      6  C   UNL     1       4.447  -0.098  37.041  1.00  0.00     0.004 A 
ENDROOT
BRANCH   1   7
ATOM      7  C   UNL     1       2.731  -1.571  38.109  1.00  0.00     0.036 C 
BRANCH   7   8
ATOM      8  C   UNL     1       2.698  -0.704  39.376  1.00  0.00     0.004 C 
BRANCH   8   9
ATOM      9  C   UNL     1       2.516  -1.534  40.655  1.00  0.00    -0.003 C 
ATOM     10  C   UNL     1       2.470  -3.037  40.380  1.00  0.00     0.004 C 
ENDBRANCH   8   9
ENDBRANCH   7   8
ENDBRANCH   1   7
BRANCH   2  11
ATOM     11  C   UNL     1       4.486  -3.938  37.327  1.00  0.00     0.040 C 
BRANCH  11  12
ATOM     12  C   UNL     1       3.422  -4.520  36.381  1.00  0.00     0.005 C 
BRANCH  12  13
ATOM     13  C   UNL     1       4.034  -5.352  35.245  1.00  0.00    -0.003 C 
ATOM     14  C   UNL     1       3.997  -4.591  33.924  1.00  0.00     0.004 C 
ENDBRANCH  12  13
ENDBRANCH  11  12
ENDBRANCH   2  11
BRANCH   3  15
ATOM     15  O   UNL     1       6.843  -3.318  35.824  1.00  0.00    -0.508 OA
ATOM     16  H   UNL     1       7.850  -3.227  35.754  1.00  0.00     0.293 HD
ENDBRANCH   3  15
TORSDOF 7
ENDMDL
