MODEL 1
REMARK VINA RESULT:    -6.129      0.000      0.000
REMARK INTER + INTRA:         -11.923
REMARK INTER:                 -11.145
REMARK INTRA:                  -0.778
REMARK UNBOUND:                -0.778
REMARK SMILES CCCCCCCCCCCCCCCC(=O)[O-]
REMARK SMILES IDX 9 1 10 2 11 3 12 4 13 5 14 6 15 7 16 8 17 9 18 10 8 11 7 12
REMARK SMILES IDX 6 13 5 14 4 15 3 16 2 17 1 18
REMARK H PARENT
REMARK Flexibility Score: inf
ROOT
ATOM      1  C   UNL     1      -3.167   8.985 -38.983  1.00  0.00     0.000 C 
ENDROOT
BRANCH   1   2
ATOM      2  C   UNL     1      -3.927   9.644 -40.146  1.00  0.00     0.000 C 
BRANCH   2   3
ATOM      3  C   UNL     1      -5.444   9.689 -39.907  1.00  0.00     0.000 C 
BRANCH   3   4
ATOM      4  C   UNL     1      -5.922   8.590 -38.941  1.00  0.00     0.000 C 
BRANCH   4   5
ATOM      5  C   UNL     1      -7.324   8.058 -39.288  1.00  0.00     0.000 C 
BRANCH   5   6
ATOM      6  C   UNL     1      -7.362   7.038 -40.441  1.00  0.00     0.006 C 
BRANCH   6   7
ATOM      7  C   UNL     1      -8.016   5.708 -40.042  1.00  0.00     0.053 C 
BRANCH   7   8
ATOM      8  C   UNL     1      -8.218   4.845 -41.246  1.00  0.00     0.041 C 
ATOM      9  O   UNL     1      -7.763   5.201 -42.365  1.00  0.00    -0.550 OA
ATOM     10  O   UNL     1      -8.867   3.623 -41.124  1.00  0.00    -0.550 OA
ENDBRANCH   7   8
ENDBRANCH   6   7
ENDBRANCH   5   6
ENDBRANCH   4   5
ENDBRANCH   3   4
ENDBRANCH   2   3
ENDBRANCH   1   2
BRANCH   1  11
ATOM     11  C   UNL     1      -1.849   8.334 -39.433  1.00  0.00     0.000 C 
BRANCH  11  12
ATOM     12  C   UNL     1      -0.637   8.843 -38.632  1.00  0.00    -0.000 C 
BRANCH  12  13
ATOM     13  C   UNL     1      -0.772  10.319 -38.228  1.00  0.00    -0.000 C 
BRANCH  13  14
ATOM     14  C   UNL     1       0.575  11.064 -38.256  1.00  0.00    -0.000 C 
BRANCH  14  15
ATOM     15  C   UNL     1       0.539  12.377 -37.456  1.00  0.00    -0.000 C 
BRANCH  15  16
ATOM     16  C   UNL     1      -0.787  13.140 -37.626  1.00  0.00    -0.000 C 
BRANCH  16  17
ATOM     17  C   UNL     1      -1.462  13.451 -36.283  1.00  0.00    -0.003 C 
ATOM     18  C   UNL     1      -2.224  12.254 -35.714  1.00  0.00     0.004 C 
ENDBRANCH  16  17
ENDBRANCH  15  16
ENDBRANCH  14  15
ENDBRANCH  13  14
ENDBRANCH  12  13
ENDBRANCH  11  12
ENDBRANCH   1  11
TORSDOF 14
ENDMDL
MODEL 2
REMARK VINA RESULT:    -5.884      2.806      4.899
REMARK INTER + INTRA:         -11.478
REMARK INTER:                 -10.768
REMARK INTRA:                  -0.710
REMARK UNBOUND:                -0.778
REMARK SMILES CCCCCCCCCCCCCCCC(=O)[O-]
REMARK SMILES IDX 9 1 10 2 11 3 12 4 13 5 14 6 15 7 16 8 17 9 18 10 8 11 7 12
REMARK SMILES IDX 6 13 5 14 4 15 3 16 2 17 1 18
REMARK H PARENT
REMARK Flexibility Score: inf
ROOT
ATOM      1  C   UNL     1      -2.053   9.567 -38.606  1.00  0.00     0.000 C 
ENDROOT
BRANCH   1   2
ATOM      2  C   UNL     1      -3.222   9.223 -39.544  1.00  0.00     0.000 C 
BRANCH   2   3
ATOM      3  C   UNL     1      -4.499   8.841 -38.779  1.00  0.00     0.000 C 
BRANCH   3   4
ATOM      4  C   UNL     1      -5.777   9.119 -39.590  1.00  0.00     0.000 C 
BRANCH   4   5
ATOM      5  C   UNL     1      -6.908   8.121 -39.281  1.00  0.00     0.000 C 
BRANCH   5   6
ATOM      6  C   UNL     1      -7.324   7.228 -40.464  1.00  0.00     0.006 C 
BRANCH   6   7
ATOM      7  C   UNL     1      -7.901   5.877 -40.020  1.00  0.00     0.053 C 
BRANCH   7   8
ATOM      8  C   UNL     1      -8.148   5.000 -41.206  1.00  0.00     0.041 C 
ATOM      9  O   UNL     1      -7.701   5.325 -42.338  1.00  0.00    -0.550 OA
ATOM     10  O   UNL     1      -8.829   3.799 -41.053  1.00  0.00    -0.550 OA
ENDBRANCH   7   8
ENDBRANCH   6   7
ENDBRANCH   5   6
ENDBRANCH   4   5
ENDBRANCH   3   4
ENDBRANCH   2   3
ENDBRANCH   1   2
BRANCH   1  11
ATOM     11  C   UNL     1      -0.928   8.521 -38.657  1.00  0.00     0.000 C 
BRANCH  11  12
ATOM     12  C   UNL     1      -1.006   7.633 -39.913  1.00  0.00    -0.000 C 
BRANCH  12  13
ATOM     13  C   UNL     1      -0.213   8.211 -41.096  1.00  0.00    -0.000 C 
BRANCH  13  14
ATOM     14  C   UNL     1       0.429   7.116 -41.966  1.00  0.00    -0.000 C 
BRANCH  14  15
ATOM     15  C   UNL     1       0.203   5.704 -41.399  1.00  0.00    -0.000 C 
BRANCH  15  16
ATOM     16  C   UNL     1       1.518   4.939 -41.171  1.00  0.00    -0.000 C 
BRANCH  16  17
ATOM     17  C   UNL     1       2.735   5.675 -41.748  1.00  0.00    -0.003 C 
ATOM     18  C   UNL     1       4.056   4.979 -41.420  1.00  0.00     0.004 C 
ENDBRANCH  16  17
ENDBRANCH  15  16
ENDBRANCH  14  15
ENDBRANCH  13  14
ENDBRANCH  12  13
ENDBRANCH  11  12
ENDBRANCH   1  11
TORSDOF 14
ENDMDL
MODEL 3
REMARK VINA RESULT:    -5.653      4.087      8.970
REMARK INTER + INTRA:         -11.058
REMARK INTER:                 -10.324
REMARK INTRA:                  -0.734
REMARK UNBOUND:                -0.778
REMARK SMILES CCCCCCCCCCCCCCCC(=O)[O-]
REMARK SMILES IDX 9 1 10 2 11 3 12 4 13 5 14 6 15 7 16 8 17 9 18 10 8 11 7 12
REMARK SMILES IDX 6 13 5 14 4 15 3 16 2 17 1 18
REMARK H PARENT
REMARK Flexibility Score: inf
ROOT
ATOM      1  C   UNL     1      -3.230   9.252 -39.617  1.00  0.00     0.000 C 
ENDROOT
BRANCH   1   2
ATOM      2  C   UNL     1      -2.069   8.258 -39.441  1.00  0.00     0.000 C 
BRANCH   2   3
ATOM      3  C   UNL     1      -0.952   8.810 -38.543  1.00  0.00     0.000 C 
BRANCH   3   4
ATOM      4  C   UNL     1      -0.963  10.348 -38.467  1.00  0.00     0.000 C 
BRANCH   4   5
ATOM      5  C   UNL     1       0.448  10.949 -38.329  1.00  0.00     0.000 C 
BRANCH   5   6
ATOM      6  C   UNL     1       0.501  12.325 -37.642  1.00  0.00     0.006 C 
BRANCH   6   7
ATOM      7  C   UNL     1      -0.870  13.013 -37.575  1.00  0.00     0.053 C 
BRANCH   7   8
ATOM      8  C   UNL     1      -1.378  13.028 -36.169  1.00  0.00     0.041 C 
ATOM      9  O   UNL     1      -0.923  13.859 -35.339  1.00  0.00    -0.550 OA
ATOM     10  O   UNL     1      -2.390  12.156 -35.786  1.00  0.00    -0.550 OA
ENDBRANCH   7   8
ENDBRANCH   6   7
ENDBRANCH   5   6
ENDBRANCH   4   5
ENDBRANCH   3   4
ENDBRANCH   2   3
ENDBRANCH   1   2
BRANCH   1  11
ATOM     11  C   UNL     1      -4.545   8.737 -39.012  1.00  0.00     0.000 C 
BRANCH  11  12
ATOM     12  C   UNL     1      -5.785   9.366 -39.675  1.00  0.00    -0.000 C 
BRANCH  12  13
ATOM     13  C   UNL     1      -7.103   8.807 -39.118  1.00  0.00    -0.000 C 
BRANCH  13  14
ATOM     14  C   UNL     1      -7.335   7.338 -39.512  1.00  0.00    -0.000 C 
BRANCH  14  15
ATOM     15  C   UNL     1      -7.315   7.126 -41.035  1.00  0.00    -0.000 C 
BRANCH  15  16
ATOM     16  C   UNL     1      -7.797   5.723 -41.445  1.00  0.00    -0.000 C 
BRANCH  16  17
ATOM     17  C   UNL     1      -8.343   4.918 -40.257  1.00  0.00    -0.003 C 
ATOM     18  C   UNL     1      -9.219   3.744 -40.694  1.00  0.00     0.004 C 
ENDBRANCH  16  17
ENDBRANCH  15  16
ENDBRANCH  14  15
ENDBRANCH  13  14
ENDBRANCH  12  13
ENDBRANCH  11  12
ENDBRANCH   1  11
TORSDOF 14
ENDMDL
MODEL 4
REMARK VINA RESULT:    -4.673      1.593      2.704
REMARK INTER + INTRA:          -9.275
REMARK INTER:                  -8.400
REMARK INTRA:                  -0.875
REMARK UNBOUND:                -0.778
REMARK SMILES CCCCCCCCCCCCCCCC(=O)[O-]
REMARK SMILES IDX 9 1 10 2 11 3 12 4 13 5 14 6 15 7 16 8 17 9 18 10 8 11 7 12
REMARK SMILES IDX 6 13 5 14 4 15 3 16 2 17 1 18
REMARK H PARENT
REMARK Flexibility Score: inf
ROOT
ATOM      1  C   UNL     1      -2.791   9.381 -40.046  1.00  0.00     0.000 C 
ENDROOT
BRANCH   1   2
ATOM      2  C   UNL     1      -4.312   9.371 -39.815  1.00  0.00     0.000 C 
BRANCH   2   3
ATOM      3  C   UNL     1      -4.704   8.666 -38.508  1.00  0.00     0.000 C 
BRANCH   3   4
ATOM      4  C   UNL     1      -6.204   8.326 -38.449  1.00  0.00     0.000 C 
BRANCH   4   5
ATOM      5  C   UNL     1      -6.955   8.715 -39.736  1.00  0.00     0.000 C 
BRANCH   5   6
ATOM      6  C   UNL     1      -7.318   7.535 -40.655  1.00  0.00     0.006 C 
BRANCH   6   7
ATOM      7  C   UNL     1      -7.588   6.236 -39.884  1.00  0.00     0.053 C 
BRANCH   7   8
ATOM      8  C   UNL     1      -8.062   5.165 -40.814  1.00  0.00     0.041 C 
ATOM      9  O   UNL     1      -8.721   4.187 -40.371  1.00  0.00    -0.550 OA
ATOM     10  O   UNL     1      -7.821   5.272 -42.178  1.00  0.00    -0.550 OA
ENDBRANCH   7   8
ENDBRANCH   6   7
ENDBRANCH   5   6
ENDBRANCH   4   5
ENDBRANCH   3   4
ENDBRANCH   2   3
ENDBRANCH   1   2
BRANCH   1  11
ATOM     11  C   UNL     1      -2.015   8.721 -38.894  1.00  0.00     0.000 C 
BRANCH  11  12
ATOM     12  C   UNL     1      -0.711   9.467 -38.558  1.00  0.00    -0.000 C 
BRANCH  12  13
ATOM     13  C   UNL     1      -0.960  10.903 -38.068  1.00  0.00    -0.000 C 
BRANCH  13  14
ATOM     14  C   UNL     1       0.342  11.709 -37.920  1.00  0.00    -0.000 C 
BRANCH  14  15
ATOM     15  C   UNL     1       1.267  11.566 -39.141  1.00  0.00    -0.000 C 
BRANCH  15  16
ATOM     16  C   UNL     1       1.778  12.920 -39.660  1.00  0.00    -0.000 C 
BRANCH  16  17
ATOM     17  C   UNL     1       2.585  12.785 -40.960  1.00  0.00    -0.003 C 
ATOM     18  C   UNL     1       2.706  11.335 -41.430  1.00  0.00     0.004 C 
ENDBRANCH  16  17
ENDBRANCH  15  16
ENDBRANCH  14  15
ENDBRANCH  13  14
ENDBRANCH  12  13
ENDBRANCH  11  12
ENDBRANCH   1  11
TORSDOF 14
ENDMDL
MODEL 5
REMARK VINA RESULT:    -4.630      3.822      8.116
REMARK INTER + INTRA:          -9.197
REMARK INTER:                  -8.250
REMARK INTRA:                  -0.947
REMARK UNBOUND:                -0.778
REMARK SMILES CCCCCCCCCCCCCCCC(=O)[O-]
REMARK SMILES IDX 9 1 10 2 11 3 12 4 13 5 14 6 15 7 16 8 17 9 18 10 8 11 7 12
REMARK SMILES IDX 6 13 5 14 4 15 3 16 2 17 1 18
REMARK H PARENT
REMARK Flexibility Score: inf
ROOT
ATOM      1  C   UNL     1      -3.412   8.783 -39.387  1.00  0.00     0.000 C 
ENDROOT
BRANCH   1   2
ATOM      2  C   UNL     1      -2.245   9.476 -38.663  1.00  0.00     0.000 C 
BRANCH   2   3
ATOM      3  C   UNL     1      -0.958   8.638 -38.684  1.00  0.00     0.000 C 
BRANCH   3   4
ATOM      4  C   UNL     1      -0.940   7.613 -39.832  1.00  0.00     0.000 C 
BRANCH   4   5
ATOM      5  C   UNL     1      -0.432   8.210 -41.157  1.00  0.00     0.000 C 
BRANCH   5   6
ATOM      6  C   UNL     1       0.052   7.176 -42.189  1.00  0.00     0.006 C 
BRANCH   6   7
ATOM      7  C   UNL     1       1.560   6.907 -42.105  1.00  0.00     0.053 C 
BRANCH   7   8
ATOM      8  C   UNL     1       1.816   5.512 -41.630  1.00  0.00     0.041 C 
ATOM      9  O   UNL     1       2.979   5.030 -41.679  1.00  0.00    -0.550 OA
ATOM     10  O   UNL     1       0.781   4.761 -41.088  1.00  0.00    -0.550 OA
ENDBRANCH   7   8
ENDBRANCH   6   7
ENDBRANCH   5   6
ENDBRANCH   4   5
ENDBRANCH   3   4
ENDBRANCH   2   3
ENDBRANCH   1   2
BRANCH   1  11
ATOM     11  C   UNL     1      -4.294   9.772 -40.167  1.00  0.00     0.000 C 
BRANCH  11  12
ATOM     12  C   UNL     1      -5.788   9.623 -39.826  1.00  0.00    -0.000 C 
BRANCH  12  13
ATOM     13  C   UNL     1      -6.046   8.560 -38.746  1.00  0.00    -0.000 C 
BRANCH  13  14
ATOM     14  C   UNL     1      -7.012   7.460 -39.220  1.00  0.00    -0.000 C 
BRANCH  14  15
ATOM     15  C   UNL     1      -7.197   7.455 -40.747  1.00  0.00    -0.000 C 
BRANCH  15  16
ATOM     16  C   UNL     1      -7.760   6.124 -41.273  1.00  0.00    -0.000 C 
BRANCH  16  17
ATOM     17  C   UNL     1      -8.187   5.178 -40.140  1.00  0.00    -0.003 C 
ATOM     18  C   UNL     1      -9.019   3.997 -40.640  1.00  0.00     0.004 C 
ENDBRANCH  16  17
ENDBRANCH  15  16
ENDBRANCH  14  15
ENDBRANCH  13  14
ENDBRANCH  12  13
ENDBRANCH  11  12
ENDBRANCH   1  11
TORSDOF 14
ENDMDL
MODEL 6
REMARK VINA RESULT:    -4.284      2.582      4.649
REMARK INTER + INTRA:          -8.569
REMARK INTER:                  -7.973
REMARK INTRA:                  -0.596
REMARK UNBOUND:                -0.778
REMARK SMILES CCCCCCCCCCCCCCCC(=O)[O-]
REMARK SMILES IDX 9 1 10 2 11 3 12 4 13 5 14 6 15 7 16 8 17 9 18 10 8 11 7 12
REMARK SMILES IDX 6 13 5 14 4 15 3 16 2 17 1 18
REMARK H PARENT
REMARK Flexibility Score: inf
ROOT
ATOM      1  C   UNL     1      -4.337   9.903 -39.947  1.00  0.00     0.000 C 
ENDROOT
BRANCH   1   2
ATOM      2  C   UNL     1      -5.200   8.985 -39.066  1.00  0.00     0.000 C 
BRANCH   2   3
ATOM      3  C   UNL     1      -6.659   8.912 -39.544  1.00  0.00     0.000 C 
BRANCH   3   4
ATOM      4  C   UNL     1      -7.341   7.588 -39.155  1.00  0.00     0.000 C 
BRANCH   4   5
ATOM      5  C   UNL     1      -7.779   6.761 -40.378  1.00  0.00     0.000 C 
BRANCH   5   6
ATOM      6  C   UNL     1      -7.667   5.236 -40.201  1.00  0.00     0.006 C 
BRANCH   6   7
ATOM      7  C   UNL     1      -8.403   4.451 -41.295  1.00  0.00     0.053 C 
BRANCH   7   8
ATOM      8  C   UNL     1      -9.530   3.664 -40.705  1.00  0.00     0.041 C 
ATOM      9  O   UNL     1     -10.014   2.684 -41.331  1.00  0.00    -0.550 OA
ATOM     10  O   UNL     1     -10.013   3.983 -39.443  1.00  0.00    -0.550 OA
ENDBRANCH   7   8
ENDBRANCH   6   7
ENDBRANCH   5   6
ENDBRANCH   4   5
ENDBRANCH   3   4
ENDBRANCH   2   3
ENDBRANCH   1   2
BRANCH   1  11
ATOM     11  C   UNL     1      -2.930   9.334 -40.192  1.00  0.00     0.000 C 
BRANCH  11  12
ATOM     12  C   UNL     1      -2.132   9.156 -38.887  1.00  0.00    -0.000 C 
BRANCH  12  13
ATOM     13  C   UNL     1      -1.018   8.104 -39.012  1.00  0.00    -0.000 C 
BRANCH  13  14
ATOM     14  C   UNL     1      -0.515   7.947 -40.458  1.00  0.00    -0.000 C 
BRANCH  14  15
ATOM     15  C   UNL     1      -0.079   6.507 -40.777  1.00  0.00    -0.000 C 
BRANCH  15  16
ATOM     16  C   UNL     1       0.390   6.337 -42.232  1.00  0.00    -0.000 C 
BRANCH  16  17
ATOM     17  C   UNL     1       1.920   6.354 -42.362  1.00  0.00    -0.003 C 
ATOM     18  C   UNL     1       2.589   5.206 -41.607  1.00  0.00     0.004 C 
ENDBRANCH  16  17
ENDBRANCH  15  16
ENDBRANCH  14  15
ENDBRANCH  13  14
ENDBRANCH  12  13
ENDBRANCH  11  12
ENDBRANCH   1  11
TORSDOF 14
ENDMDL
MODEL 7
REMARK VINA RESULT:    -4.118      5.745      8.900
REMARK INTER + INTRA:          -8.267
REMARK INTER:                  -7.311
REMARK INTRA:                  -0.957
REMARK UNBOUND:                -0.778
REMARK SMILES CCCCCCCCCCCCCCCC(=O)[O-]
REMARK SMILES IDX 9 1 10 2 11 3 12 4 13 5 14 6 15 7 16 8 17 9 18 10 8 11 7 12
REMARK SMILES IDX 6 13 5 14 4 15 3 16 2 17 1 18
REMARK H PARENT
REMARK Flexibility Score: inf
ROOT
ATOM      1  C   UNL     1      -2.340   9.326 -38.489  1.00  0.00     0.000 C 
ENDROOT
BRANCH   1   2
ATOM      2  C   UNL     1      -1.147  10.270 -38.260  1.00  0.00     0.000 C 
BRANCH   2   3
ATOM      3  C   UNL     1      -1.579  11.650 -37.741  1.00  0.00     0.000 C 
BRANCH   3   4
ATOM      4  C   UNL     1      -0.405  12.452 -37.152  1.00  0.00     0.000 C 
BRANCH   4   5
ATOM      5  C   UNL     1       0.960  12.012 -37.713  1.00  0.00     0.000 C 
BRANCH   5   6
ATOM      6  C   UNL     1       1.282  12.541 -39.122  1.00  0.00     0.006 C 
BRANCH   6   7
ATOM      7  C   UNL     1       1.876  11.468 -40.044  1.00  0.00     0.053 C 
BRANCH   7   8
ATOM      8  C   UNL     1       2.938  12.058 -40.916  1.00  0.00     0.041 C 
ATOM      9  O   UNL     1       3.900  11.348 -41.312  1.00  0.00    -0.550 OA
ATOM     10  O   UNL     1       2.841  13.380 -41.332  1.00  0.00    -0.550 OA
ENDBRANCH   7   8
ENDBRANCH   6   7
ENDBRANCH   5   6
ENDBRANCH   4   5
ENDBRANCH   3   4
ENDBRANCH   2   3
ENDBRANCH   1   2
BRANCH   1  11
ATOM     11  C   UNL     1      -2.064   8.280 -39.580  1.00  0.00     0.000 C 
BRANCH  11  12
ATOM     12  C   UNL     1      -0.558   8.042 -39.801  1.00  0.00    -0.000 C 
BRANCH  12  13
ATOM     13  C   UNL     1      -0.278   6.929 -40.823  1.00  0.00    -0.000 C 
BRANCH  13  14
ATOM     14  C   UNL     1       0.520   7.432 -42.039  1.00  0.00    -0.000 C 
BRANCH  14  15
ATOM     15  C   UNL     1       1.492   6.373 -42.585  1.00  0.00    -0.000 C 
BRANCH  15  16
ATOM     16  C   UNL     1       1.714   5.209 -41.604  1.00  0.00    -0.000 C 
BRANCH  16  17
ATOM     17  C   UNL     1       3.074   5.289 -40.895  1.00  0.00    -0.003 C 
ATOM     18  C   UNL     1       4.249   5.316 -41.873  1.00  0.00     0.004 C 
ENDBRANCH  16  17
ENDBRANCH  15  16
ENDBRANCH  14  15
ENDBRANCH  13  14
ENDBRANCH  12  13
ENDBRANCH  11  12
ENDBRANCH   1  11
TORSDOF 14
ENDMDL
MODEL 8
REMARK VINA RESULT:    -3.904     14.466     15.963
REMARK INTER + INTRA:          -7.878
REMARK INTER:                  -6.366
REMARK INTRA:                  -1.513
REMARK UNBOUND:                -0.778
REMARK SMILES CCCCCCCCCCCCCCCC(=O)[O-]
REMARK SMILES IDX 9 1 10 2 11 3 12 4 13 5 14 6 15 7 16 8 17 9 18 10 8 11 7 12
REMARK SMILES IDX 6 13 5 14 4 15 3 16 2 17 1 18
REMARK H PARENT
REMARK Flexibility Score: inf
ROOT
ATOM      1  C   UNL     1      -9.987   6.119 -26.940  1.00  0.00     0.000 C 
ENDROOT
BRANCH   1   2
ATOM      2  C   UNL     1     -11.100   5.592 -27.861  1.00  0.00     0.000 C 
BRANCH   2   3
ATOM      3  C   UNL     1     -12.061   6.700 -28.318  1.00  0.00     0.000 C 
BRANCH   3   4
ATOM      4  C   UNL     1     -12.669   7.476 -27.136  1.00  0.00     0.000 C 
BRANCH   4   5
ATOM      5  C   UNL     1     -13.474   6.576 -26.181  1.00  0.00     0.000 C 
BRANCH   5   6
ATOM      6  C   UNL     1     -13.309   6.907 -24.687  1.00  0.00     0.006 C 
BRANCH   6   7
ATOM      7  C   UNL     1     -12.238   6.050 -23.998  1.00  0.00     0.053 C 
BRANCH   7   8
ATOM      8  C   UNL     1     -11.124   6.912 -23.495  1.00  0.00     0.041 C 
ATOM      9  O   UNL     1     -10.104   6.389 -22.974  1.00  0.00    -0.550 OA
ATOM     10  O   UNL     1     -11.190   8.292 -23.647  1.00  0.00    -0.550 OA
ENDBRANCH   7   8
ENDBRANCH   6   7
ENDBRANCH   5   6
ENDBRANCH   4   5
ENDBRANCH   3   4
ENDBRANCH   2   3
ENDBRANCH   1   2
BRANCH   1  11
ATOM     11  C   UNL     1      -9.228   4.989 -26.225  1.00  0.00     0.000 C 
BRANCH  11  12
ATOM     12  C   UNL     1     -10.042   3.684 -26.158  1.00  0.00    -0.000 C 
BRANCH  12  13
ATOM     13  C   UNL     1      -9.234   2.511 -25.580  1.00  0.00    -0.000 C 
BRANCH  13  14
ATOM     14  C   UNL     1      -7.998   2.170 -26.430  1.00  0.00    -0.000 C 
BRANCH  14  15
ATOM     15  C   UNL     1      -6.681   2.565 -25.741  1.00  0.00    -0.000 C 
BRANCH  15  16
ATOM     16  C   UNL     1      -5.505   2.676 -26.726  1.00  0.00    -0.000 C 
BRANCH  16  17
ATOM     17  C   UNL     1      -5.862   2.161 -28.128  1.00  0.00    -0.003 C 
ATOM     18  C   UNL     1      -5.357   3.080 -29.241  1.00  0.00     0.004 C 
ENDBRANCH  16  17
ENDBRANCH  15  16
ENDBRANCH  14  15
ENDBRANCH  13  14
ENDBRANCH  12  13
ENDBRANCH  11  12
ENDBRANCH   1  11
TORSDOF 14
ENDMDL
MODEL 9
REMARK VINA RESULT:    -3.854     14.311     15.708
REMARK INTER + INTRA:          -7.787
REMARK INTER:                  -6.299
REMARK INTRA:                  -1.488
REMARK UNBOUND:                -0.778
REMARK SMILES CCCCCCCCCCCCCCCC(=O)[O-]
REMARK SMILES IDX 9 1 10 2 11 3 12 4 13 5 14 6 15 7 16 8 17 9 18 10 8 11 7 12
REMARK SMILES IDX 6 13 5 14 4 15 3 16 2 17 1 18
REMARK H PARENT
REMARK Flexibility Score: inf
ROOT
ATOM      1  C   UNL     1      -9.271   4.545 -25.965  1.00  0.00     0.000 C 
ENDROOT
BRANCH   1   2
ATOM      2  C   UNL     1     -10.355   3.609 -26.526  1.00  0.00     0.000 C 
BRANCH   2   3
ATOM      3  C   UNL     1     -11.749   4.254 -26.523  1.00  0.00     0.000 C 
BRANCH   3   4
ATOM      4  C   UNL     1     -12.158   4.782 -27.910  1.00  0.00     0.000 C 
BRANCH   4   5
ATOM      5  C   UNL     1     -11.442   6.094 -28.284  1.00  0.00     0.000 C 
BRANCH   5   6
ATOM      6  C   UNL     1     -11.885   7.326 -27.474  1.00  0.00     0.006 C 
BRANCH   6   7
ATOM      7  C   UNL     1     -10.782   7.866 -26.554  1.00  0.00     0.053 C 
BRANCH   7   8
ATOM      8  C   UNL     1     -11.274   7.953 -25.144  1.00  0.00     0.041 C 
ATOM      9  O   UNL     1     -10.663   8.665 -24.303  1.00  0.00    -0.550 OA
ATOM     10  O   UNL     1     -12.435   7.289 -24.771  1.00  0.00    -0.550 OA
ENDBRANCH   7   8
ENDBRANCH   6   7
ENDBRANCH   5   6
ENDBRANCH   4   5
ENDBRANCH   3   4
ENDBRANCH   2   3
ENDBRANCH   1   2
BRANCH   1  11
ATOM     11  C   UNL     1      -9.420   4.781 -24.453  1.00  0.00     0.000 C 
BRANCH  11  12
ATOM     12  C   UNL     1      -8.159   4.377 -23.667  1.00  0.00    -0.000 C 
BRANCH  12  13
ATOM     13  C   UNL     1      -7.622   2.996 -24.076  1.00  0.00    -0.000 C 
BRANCH  13  14
ATOM     14  C   UNL     1      -6.086   2.959 -24.152  1.00  0.00    -0.000 C 
BRANCH  14  15
ATOM     15  C   UNL     1      -5.575   2.256 -25.420  1.00  0.00    -0.000 C 
BRANCH  15  16
ATOM     16  C   UNL     1      -6.024   2.963 -26.711  1.00  0.00    -0.000 C 
BRANCH  16  17
ATOM     17  C   UNL     1      -5.519   2.252 -27.976  1.00  0.00    -0.003 C 
ATOM     18  C   UNL     1      -5.327   3.209 -29.153  1.00  0.00     0.004 C 
ENDBRANCH  16  17
ENDBRANCH  15  16
ENDBRANCH  14  15
ENDBRANCH  13  14
ENDBRANCH  12  13
ENDBRANCH  11  12
ENDBRANCH   1  11
TORSDOF 14
ENDMDL
