MODEL 1
REMARK VINA RESULT:     4.748      0.000      0.000
REMARK INTER + INTRA:           7.345
REMARK INTER:                   7.246
REMARK INTRA:                   0.098
REMARK UNBOUND:                 0.098
REMARK SMILES CC1=CCC[C@H](C)C(=O)C[C@H](C(C)C)C(=O)C1
REMARK SMILES IDX 8 1 9 2 6 3 7 4 5 5 4 6 3 7 2 8 1 9 10 11 11 12 15 13 16 14
REMARK SMILES IDX 17 15 12 17 13 18 14 19
REMARK H PARENT
REMARK Flexibility Score: 70.00
ROOT
ATOM      1  C   UNL     1      13.828  37.814 -14.873  1.00  0.00     0.136 C 
ATOM      2  O   UNL     1      14.650  38.627 -14.476  1.00  0.00    -0.299 OA
ENDROOT
BRANCH   1   3
ATOM      3  C   UNL     1      14.255  36.359 -14.977  1.00  0.00     0.053 C 
ATOM      4  C   UNL     1      13.672  35.579 -13.791  1.00  0.00     0.016 C 
BRANCH   3   5
ATOM      5  C   UNL     1      13.789  35.720 -16.310  1.00  0.00     0.015 C 
BRANCH   5   6
ATOM      6  C   UNL     1      14.287  36.441 -17.577  1.00  0.00     0.028 C 
BRANCH   6   7
ATOM      7  C   UNL     1      13.407  36.158 -18.770  1.00  0.00    -0.028 C 
ATOM      8  C   UNL     1      12.109  36.523 -18.899  1.00  0.00    -0.070 CG0
ATOM      9  C   UNL     1      11.386  36.106 -20.156  1.00  0.00     0.039 C 
ATOM     10  G   UNL     1      11.379  37.393 -17.891  1.00  0.00     0.000 G0
ENDBRANCH   6   7
ENDBRANCH   5   6
ENDBRANCH   3   5
ENDBRANCH   1   3
BRANCH   1  11
ATOM     11  C   UNL     1      12.463  38.351 -15.271  1.00  0.00     0.087 C 
BRANCH  11  12
ATOM     12  C   UNL     1      12.385  39.398 -16.416  1.00  0.00     0.066 C 
BRANCH  12  13
ATOM     13  C   UNL     1      11.876  38.816 -17.730  1.00  0.00     0.140 C 
ATOM     14  O   UNL     1      11.759  39.574 -18.683  1.00  0.00    -0.299 OA
BRANCH  13  15
ATOM     15  C   UNL     1      11.356  37.402 -17.883  1.00  0.00     0.106 CG0
ATOM     16  G   UNL     1      12.109  36.554 -18.894  1.00  0.00     0.000 G0
ENDBRANCH  13  15
ENDBRANCH  12  13
BRANCH  12  17
ATOM     17  C   UNL     1      11.529  40.643 -16.007  1.00  0.00    -0.006 C 
ATOM     18  C   UNL     1      12.343  41.632 -15.148  1.00  0.00     0.008 C 
ATOM     19  C   UNL     1      10.255  40.251 -15.236  1.00  0.00     0.008 C 
ENDBRANCH  12  17
ENDBRANCH  11  12
ENDBRANCH   1  11
TORSDOF 1
ENDMDL
MODEL 2
REMARK VINA RESULT:     5.586      1.678      4.672
REMARK INTER + INTRA:           8.623
REMARK INTER:                   7.759
REMARK INTRA:                   0.865
REMARK UNBOUND:                 0.098
REMARK SMILES CC1=CCC[C@H](C)C(=O)C[C@H](C(C)C)C(=O)C1
REMARK SMILES IDX 8 1 9 2 6 3 7 4 5 5 4 6 3 7 2 8 1 9 10 11 11 12 15 13 16 14
REMARK SMILES IDX 17 15 12 17 13 18 14 19
REMARK H PARENT
REMARK Flexibility Score: 70.00
ROOT
ATOM      1  C   UNL     1      12.064  39.608 -17.379  1.00  0.00     0.136 C 
ATOM      2  O   UNL     1      12.545  40.255 -18.297  1.00  0.00    -0.299 OA
ENDROOT
BRANCH   1   3
ATOM      3  C   UNL     1      12.120  40.202 -15.980  1.00  0.00     0.053 C 
ATOM      4  C   UNL     1      10.752  40.809 -15.640  1.00  0.00     0.016 C 
BRANCH   3   5
ATOM      5  C   UNL     1      12.505  39.138 -14.921  1.00  0.00     0.015 C 
BRANCH   5   6
ATOM      6  C   UNL     1      13.879  38.478 -15.143  1.00  0.00     0.028 C 
BRANCH   6   7
ATOM      7  C   UNL     1      14.006  37.174 -14.396  1.00  0.00    -0.028 C 
ATOM      8  C   UNL     1      13.398  36.010 -14.728  1.00  0.00    -0.070 CG0
ATOM      9  C   UNL     1      13.618  34.822 -13.824  1.00  0.00     0.039 C 
ATOM     10  G   UNL     1      12.584  35.822 -15.997  1.00  0.00     0.000 G0
ENDBRANCH   6   7
ENDBRANCH   5   6
ENDBRANCH   3   5
ENDBRANCH   1   3
BRANCH   1  11
ATOM     11  C   UNL     1      11.497  38.240 -17.721  1.00  0.00     0.087 C 
BRANCH  11  12
ATOM     12  C   UNL     1      12.453  37.169 -18.313  1.00  0.00     0.066 C 
BRANCH  12  13
ATOM     13  C   UNL     1      13.224  36.396 -17.249  1.00  0.00     0.140 C 
ATOM     14  O   UNL     1      14.392  36.116 -17.480  1.00  0.00    -0.299 OA
BRANCH  13  15
ATOM     15  C   UNL     1      12.591  35.815 -16.001  1.00  0.00     0.106 CG0
ATOM     16  G   UNL     1      13.400  36.009 -14.730  1.00  0.00     0.000 G0
ENDBRANCH  13  15
ENDBRANCH  12  13
BRANCH  12  17
ATOM     17  C   UNL     1      11.700  36.179 -19.263  1.00  0.00    -0.006 C 
ATOM     18  C   UNL     1      12.682  35.388 -20.150  1.00  0.00     0.008 C 
ATOM     19  C   UNL     1      10.683  36.897 -20.171  1.00  0.00     0.008 C 
ENDBRANCH  12  17
ENDBRANCH  11  12
ENDBRANCH   1  11
TORSDOF 1
ENDMDL
MODEL 3
REMARK VINA RESULT:     6.272      1.764      4.160
REMARK INTER + INTRA:           9.671
REMARK INTER:                   8.800
REMARK INTRA:                   0.871
REMARK UNBOUND:                 0.098
REMARK SMILES CC1=CCC[C@H](C)C(=O)C[C@H](C(C)C)C(=O)C1
REMARK SMILES IDX 8 1 9 2 6 3 7 4 5 5 4 6 3 7 2 8 1 9 10 11 11 12 15 13 16 14
REMARK SMILES IDX 17 15 12 17 13 18 14 19
REMARK H PARENT
REMARK Flexibility Score: 70.00
ROOT
ATOM      1  C   UNL     1      12.275  35.737 -15.973  1.00  0.00     0.136 C 
ATOM      2  O   UNL     1      11.207  35.143 -16.012  1.00  0.00    -0.299 OA
ENDROOT
BRANCH   1   3
ATOM      3  C   UNL     1      12.869  36.052 -14.610  1.00  0.00     0.053 C 
ATOM      4  C   UNL     1      13.004  34.751 -13.809  1.00  0.00     0.016 C 
BRANCH   3   5
ATOM      5  C   UNL     1      14.252  36.742 -14.734  1.00  0.00     0.015 C 
BRANCH   5   6
ATOM      6  C   UNL     1      14.223  38.120 -15.422  1.00  0.00     0.028 C 
BRANCH   6   7
ATOM      7  C   UNL     1      12.888  38.804 -15.262  1.00  0.00    -0.028 C 
ATOM      8  C   UNL     1      12.124  39.294 -16.267  1.00  0.00    -0.070 CG0
ATOM      9  C   UNL     1      10.836  39.986 -15.896  1.00  0.00     0.039 C 
ATOM     10  G   UNL     1      12.455  39.107 -17.739  1.00  0.00     0.000 G0
ENDBRANCH   6   7
ENDBRANCH   5   6
ENDBRANCH   3   5
ENDBRANCH   1   3
BRANCH   1  11
ATOM     11  C   UNL     1      12.885  36.146 -17.304  1.00  0.00     0.087 C 
BRANCH  11  12
ATOM     12  C   UNL     1      11.932  36.570 -18.455  1.00  0.00     0.066 C 
BRANCH  12  13
ATOM     13  C   UNL     1      11.627  38.064 -18.464  1.00  0.00     0.140 C 
ATOM     14  O   UNL     1      10.733  38.461 -19.199  1.00  0.00    -0.299 OA
BRANCH  13  15
ATOM     15  C   UNL     1      12.463  39.103 -17.745  1.00  0.00     0.106 CG0
ATOM     16  G   UNL     1      12.118  39.292 -16.278  1.00  0.00     0.000 G0
ENDBRANCH  13  15
ENDBRANCH  12  13
BRANCH  12  17
ATOM     17  C   UNL     1      12.473  36.120 -19.853  1.00  0.00    -0.006 C 
ATOM     18  C   UNL     1      11.618  34.986 -20.453  1.00  0.00     0.008 C 
ATOM     19  C   UNL     1      13.940  35.653 -19.791  1.00  0.00     0.008 C 
ENDBRANCH  12  17
ENDBRANCH  11  12
ENDBRANCH   1  11
TORSDOF 1
ENDMDL
MODEL 4
REMARK VINA RESULT:     6.345      1.530      3.703
REMARK INTER + INTRA:           9.781
REMARK INTER:                   9.021
REMARK INTRA:                   0.760
REMARK UNBOUND:                 0.098
REMARK SMILES CC1=CCC[C@H](C)C(=O)C[C@H](C(C)C)C(=O)C1
REMARK SMILES IDX 8 1 9 2 6 3 7 4 5 5 4 6 3 7 2 8 1 9 10 11 11 12 15 13 16 14
REMARK SMILES IDX 17 15 12 17 13 18 14 19
REMARK H PARENT
REMARK Flexibility Score: 70.00
ROOT
ATOM      1  C   UNL     1      12.723  39.818 -15.387  1.00  0.00     0.136 C 
ATOM      2  O   UNL     1      13.163  40.950 -15.253  1.00  0.00    -0.299 OA
ENDROOT
BRANCH   1   3
ATOM      3  C   UNL     1      11.230  39.654 -15.625  1.00  0.00     0.053 C 
ATOM      4  C   UNL     1      10.494  40.869 -15.046  1.00  0.00     0.016 C 
BRANCH   3   5
ATOM      5  C   UNL     1      10.904  39.508 -17.134  1.00  0.00     0.015 C 
BRANCH   5   6
ATOM      6  C   UNL     1      12.107  39.129 -18.018  1.00  0.00     0.028 C 
BRANCH   6   7
ATOM      7  C   UNL     1      11.768  38.028 -18.992  1.00  0.00    -0.028 C 
ATOM      8  C   UNL     1      11.700  36.707 -18.699  1.00  0.00    -0.070 CG0
ATOM      9  C   UNL     1      11.387  35.754 -19.827  1.00  0.00     0.039 C 
ATOM     10  G   UNL     1      11.838  36.152 -17.291  1.00  0.00     0.000 G0
ENDBRANCH   6   7
ENDBRANCH   5   6
ENDBRANCH   3   5
ENDBRANCH   1   3
BRANCH   1  11
ATOM     11  C   UNL     1      13.714  38.673 -15.254  1.00  0.00     0.087 C 
BRANCH  11  12
ATOM     12  C   UNL     1      13.165  37.220 -15.217  1.00  0.00     0.066 C 
BRANCH  12  13
ATOM     13  C   UNL     1      13.127  36.555 -16.588  1.00  0.00     0.140 C 
ATOM     14  O   UNL     1      14.177  36.469 -17.210  1.00  0.00    -0.299 OA
BRANCH  13  15
ATOM     15  C   UNL     1      11.852  36.145 -17.294  1.00  0.00     0.106 CG0
ATOM     16  G   UNL     1      11.706  36.684 -18.707  1.00  0.00     0.000 G0
ENDBRANCH  13  15
ENDBRANCH  12  13
BRANCH  12  17
ATOM     17  C   UNL     1      13.956  36.327 -14.203  1.00  0.00    -0.006 C 
ATOM     18  C   UNL     1      13.337  34.920 -14.087  1.00  0.00     0.008 C 
ATOM     19  C   UNL     1      14.023  36.954 -12.798  1.00  0.00     0.008 C 
ENDBRANCH  12  17
ENDBRANCH  11  12
ENDBRANCH   1  11
TORSDOF 1
ENDMDL
MODEL 5
REMARK VINA RESULT:     6.846      1.673      4.103
REMARK INTER + INTRA:          10.546
REMARK INTER:                   8.904
REMARK INTRA:                   1.642
REMARK UNBOUND:                 0.098
REMARK SMILES CC1=CCC[C@H](C)C(=O)C[C@H](C(C)C)C(=O)C1
REMARK SMILES IDX 8 1 9 2 6 3 7 4 5 5 4 6 3 7 2 8 1 9 10 11 11 12 15 13 16 14
REMARK SMILES IDX 17 15 12 17 13 18 14 19
REMARK H PARENT
REMARK Flexibility Score: 70.00
ROOT
ATOM      1  C   UNL     1      11.584  38.155 -18.501  1.00  0.00     0.136 C 
ATOM      2  O   UNL     1      10.966  38.867 -19.280  1.00  0.00    -0.299 OA
ENDROOT
BRANCH   1   3
ATOM      3  C   UNL     1      11.346  36.654 -18.563  1.00  0.00     0.053 C 
ATOM      4  C   UNL     1      11.820  36.128 -19.924  1.00  0.00     0.016 C 
BRANCH   3   5
ATOM      5  C   UNL     1      12.086  35.910 -17.422  1.00  0.00     0.015 C 
BRANCH   5   6
ATOM      6  C   UNL     1      11.163  35.228 -16.395  1.00  0.00     0.028 C 
BRANCH   6   7
ATOM      7  C   UNL     1      11.868  34.965 -15.088  1.00  0.00    -0.028 C 
ATOM      8  C   UNL     1      13.062  35.485 -14.715  1.00  0.00    -0.070 CG0
ATOM      9  C   UNL     1      13.624  35.063 -13.380  1.00  0.00     0.039 C 
ATOM     10  G   UNL     1      13.812  36.527 -15.527  1.00  0.00     0.000 G0
ENDBRANCH   6   7
ENDBRANCH   5   6
ENDBRANCH   3   5
ENDBRANCH   1   3
BRANCH   1  11
ATOM     11  C   UNL     1      12.500  38.851 -17.508  1.00  0.00     0.087 C 
BRANCH  11  12
ATOM     12  C   UNL     1      12.225  38.664 -15.991  1.00  0.00     0.066 C 
BRANCH  12  13
ATOM     13  C   UNL     1      13.363  37.966 -15.255  1.00  0.00     0.140 C 
ATOM     14  O   UNL     1      14.049  38.637 -14.496  1.00  0.00    -0.299 OA
BRANCH  13  15
ATOM     15  C   UNL     1      13.797  36.540 -15.525  1.00  0.00     0.106 CG0
ATOM     16  G   UNL     1      13.065  35.488 -14.709  1.00  0.00     0.000 G0
ENDBRANCH  13  15
ENDBRANCH  12  13
BRANCH  12  17
ATOM     17  C   UNL     1      11.878  40.021 -15.292  1.00  0.00    -0.006 C 
ATOM     18  C   UNL     1      10.357  40.265 -15.253  1.00  0.00     0.008 C 
ATOM     19  C   UNL     1      12.554  41.223 -15.978  1.00  0.00     0.008 C 
ENDBRANCH  12  17
ENDBRANCH  11  12
ENDBRANCH   1  11
TORSDOF 1
ENDMDL
MODEL 6
REMARK VINA RESULT:     7.291      1.570      3.598
REMARK INTER + INTRA:          11.225
REMARK INTER:                  10.076
REMARK INTRA:                   1.149
REMARK UNBOUND:                 0.098
REMARK SMILES CC1=CCC[C@H](C)C(=O)C[C@H](C(C)C)C(=O)C1
REMARK SMILES IDX 8 1 9 2 6 3 7 4 5 5 4 6 3 7 2 8 1 9 10 11 11 12 15 13 16 14
REMARK SMILES IDX 17 15 12 17 13 18 14 19
REMARK H PARENT
REMARK Flexibility Score: 70.00
ROOT
ATOM      1  C   UNL     1      11.672  37.818 -17.882  1.00  0.00     0.136 C 
ATOM      2  O   UNL     1      11.795  38.798 -18.602  1.00  0.00    -0.299 OA
ENDROOT
BRANCH   1   3
ATOM      3  C   UNL     1      12.135  36.474 -18.421  1.00  0.00     0.053 C 
ATOM      4  C   UNL     1      11.334  36.138 -19.686  1.00  0.00     0.016 C 
BRANCH   3   5
ATOM      5  C   UNL     1      13.652  36.477 -18.741  1.00  0.00     0.015 C 
BRANCH   5   6
ATOM      6  C   UNL     1      14.561  36.796 -17.539  1.00  0.00     0.028 C 
BRANCH   6   7
ATOM      7  C   UNL     1      14.129  36.065 -16.292  1.00  0.00    -0.028 C 
ATOM      8  C   UNL     1      13.993  36.613 -15.061  1.00  0.00    -0.070 CG0
ATOM      9  C   UNL     1      13.591  35.700 -13.929  1.00  0.00     0.039 C 
ATOM     10  G   UNL     1      14.141  38.099 -14.784  1.00  0.00     0.000 G0
ENDBRANCH   6   7
ENDBRANCH   5   6
ENDBRANCH   3   5
ENDBRANCH   1   3
BRANCH   1  11
ATOM     11  C   UNL     1      11.020  38.035 -16.526  1.00  0.00     0.087 C 
BRANCH  11  12
ATOM     12  C   UNL     1      11.706  39.000 -15.522  1.00  0.00     0.066 C 
BRANCH  12  13
ATOM     13  C   UNL     1      13.228  38.990 -15.620  1.00  0.00     0.140 C 
ATOM     14  O   UNL     1      13.747  39.638 -16.518  1.00  0.00    -0.299 OA
BRANCH  13  15
ATOM     15  C   UNL     1      14.123  38.102 -14.781  1.00  0.00     0.106 CG0
ATOM     16  G   UNL     1      13.997  36.616 -15.072  1.00  0.00     0.000 G0
ENDBRANCH  13  15
ENDBRANCH  12  13
BRANCH  12  17
ATOM     17  C   UNL     1      11.165  40.463 -15.659  1.00  0.00    -0.006 C 
ATOM     18  C   UNL     1      12.095  41.478 -14.966  1.00  0.00     0.008 C 
ATOM     19  C   UNL     1       9.745  40.618 -15.081  1.00  0.00     0.008 C 
ENDBRANCH  12  17
ENDBRANCH  11  12
ENDBRANCH   1  11
TORSDOF 1
ENDMDL
MODEL 7
REMARK VINA RESULT:     7.595      1.844      4.774
REMARK INTER + INTRA:          11.689
REMARK INTER:                  10.273
REMARK INTRA:                   1.416
REMARK UNBOUND:                 0.098
REMARK SMILES CC1=CCC[C@H](C)C(=O)C[C@H](C(C)C)C(=O)C1
REMARK SMILES IDX 8 1 9 2 6 3 7 4 5 5 4 6 3 7 2 8 1 9 10 11 11 12 15 13 16 14
REMARK SMILES IDX 17 15 12 17 13 18 14 19
REMARK H PARENT
REMARK Flexibility Score: 70.00
ROOT
ATOM      1  C   UNL     1      11.438  35.704 -17.388  1.00  0.00     0.136 C 
ATOM      2  O   UNL     1      10.724  34.755 -17.675  1.00  0.00    -0.299 OA
ENDROOT
BRANCH   1   3
ATOM      3  C   UNL     1      11.906  36.614 -18.513  1.00  0.00     0.053 C 
ATOM      4  C   UNL     1      11.418  36.045 -19.852  1.00  0.00     0.016 C 
BRANCH   3   5
ATOM      5  C   UNL     1      11.384  38.062 -18.332  1.00  0.00     0.015 C 
BRANCH   5   6
ATOM      6  C   UNL     1      12.483  39.141 -18.294  1.00  0.00     0.028 C 
BRANCH   6   7
ATOM      7  C   UNL     1      12.147  40.256 -17.335  1.00  0.00    -0.028 C 
ATOM      8  C   UNL     1      11.825  40.105 -16.028  1.00  0.00    -0.070 CG0
ATOM      9  C   UNL     1      11.476  41.346 -15.243  1.00  0.00     0.039 C 
ATOM     10  G   UNL     1      11.882  38.772 -15.299  1.00  0.00     0.000 G0
ENDBRANCH   6   7
ENDBRANCH   5   6
ENDBRANCH   3   5
ENDBRANCH   1   3
BRANCH   1  11
ATOM     11  C   UNL     1      11.832  35.855 -15.927  1.00  0.00     0.087 C 
BRANCH  11  12
ATOM     12  C   UNL     1      13.216  36.476 -15.594  1.00  0.00     0.066 C 
BRANCH  12  13
ATOM     13  C   UNL     1      13.169  37.990 -15.417  1.00  0.00     0.140 C 
ATOM     14  O   UNL     1      14.229  38.578 -15.250  1.00  0.00    -0.299 OA
BRANCH  13  15
ATOM     15  C   UNL     1      11.889  38.785 -15.274  1.00  0.00     0.106 CG0
ATOM     16  G   UNL     1      11.867  40.097 -16.040  1.00  0.00     0.000 G0
ENDBRANCH  13  15
ENDBRANCH  12  13
BRANCH  12  17
ATOM     17  C   UNL     1      13.867  35.804 -14.340  1.00  0.00    -0.006 C 
ATOM     18  C   UNL     1      13.046  34.592 -13.856  1.00  0.00     0.008 C 
ATOM     19  C   UNL     1      14.033  36.788 -13.167  1.00  0.00     0.008 C 
ENDBRANCH  12  17
ENDBRANCH  11  12
ENDBRANCH   1  11
TORSDOF 1
ENDMDL
