MODEL 1
REMARK VINA RESULT:    -5.875      0.000      0.000
REMARK INTER + INTRA:          -6.391
REMARK INTER:                  -6.391
REMARK INTRA:                   0.000
REMARK UNBOUND:                 0.000
REMARK SMILES Cc1cc(O)c2c(c1)C(=O)c1cc(O)cc(O)c1C2=O
REMARK SMILES IDX 1 1 2 2 8 3 7 4 6 5 4 6 3 7 19 8 20 9 18 10 11 11 9 12 10 13
REMARK SMILES IDX 12 14 13 15 15 16 16 17 5 18 17 20 14 22
REMARK H PARENT 5 19 17 21 14 23
REMARK Flexibility Score: inf
ROOT
ATOM      1  C   UNL     1      61.456  -8.500  -3.951  1.00  0.00     0.044 C 
ATOM      2  C   UNL     1      61.322  -7.583  -2.770  1.00  0.00    -0.047 A 
ATOM      3  C   UNL     1      61.693  -8.020  -1.494  1.00  0.00     0.016 A 
ATOM      4  C   UNL     1      61.612  -7.155  -0.389  1.00  0.00     0.038 A 
ATOM      5  C   UNL     1      61.177  -5.823  -0.569  1.00  0.00     0.076 A 
ATOM      6  C   UNL     1      60.758  -5.399  -1.856  1.00  0.00     0.127 A 
ATOM      7  C   UNL     1      60.866  -6.272  -2.944  1.00  0.00     0.050 A 
ATOM      8  C   UNL     1      61.246  -4.900   0.594  1.00  0.00     0.201 C 
ATOM      9  O   UNL     1      61.436  -3.668   0.406  1.00  0.00    -0.288 OA
ATOM     10  C   UNL     1      61.281  -5.451   1.973  1.00  0.00     0.076 A 
ATOM     11  C   UNL     1      61.718  -6.784   2.148  1.00  0.00     0.041 A 
ATOM     12  C   UNL     1      61.980  -7.637   0.965  1.00  0.00     0.194 C 
ATOM     13  O   UNL     1      62.489  -8.781   1.111  1.00  0.00    -0.289 OA
ATOM     14  C   UNL     1      61.897  -7.297   3.444  1.00  0.00     0.059 A 
ATOM     15  C   UNL     1      61.632  -6.506   4.562  1.00  0.00     0.120 A 
ATOM     16  C   UNL     1      61.162  -5.201   4.394  1.00  0.00     0.093 A 
ATOM     17  C   UNL     1      60.957  -4.674   3.116  1.00  0.00     0.131 A 
ENDROOT
BRANCH   6  18
ATOM     18  O   UNL     1      60.201  -4.141  -2.093  1.00  0.00    -0.507 OA
ATOM     19  H   UNL     1      59.762  -3.581  -1.377  1.00  0.00     0.293 HD
ENDBRANCH   6  18
BRANCH  17  20
ATOM     20  O   UNL     1      60.399  -3.396   3.026  1.00  0.00    -0.507 OA
ATOM     21  H   UNL     1      59.517  -3.201   2.572  1.00  0.00     0.293 HD
ENDBRANCH  17  20
BRANCH  15  22
ATOM     22  O   UNL     1      61.829  -7.031   5.837  1.00  0.00    -0.508 OA
ATOM     23  H   UNL     1      62.550  -6.673   6.452  1.00  0.00     0.293 HD
ENDBRANCH  15  22
TORSDOF 3
ENDMDL
MODEL 2
REMARK VINA RESULT:    -4.738      1.806      6.452
REMARK INTER + INTRA:          -5.154
REMARK INTER:                  -5.154
REMARK INTRA:                   0.000
REMARK UNBOUND:                 0.000
REMARK SMILES Cc1cc(O)c2c(c1)C(=O)c1cc(O)cc(O)c1C2=O
REMARK SMILES IDX 1 1 2 2 8 3 7 4 6 5 4 6 3 7 19 8 20 9 18 10 11 11 9 12 10 13
REMARK SMILES IDX 12 14 13 15 15 16 16 17 5 18 17 20 14 22
REMARK H PARENT 5 19 17 21 14 23
REMARK Flexibility Score: inf
ROOT
ATOM      1  C   UNL     1      60.492  -3.750   3.330  1.00  0.00     0.044 C 
ATOM      2  C   UNL     1      60.998  -4.844   2.436  1.00  0.00    -0.047 A 
ATOM      3  C   UNL     1      61.135  -4.623   1.061  1.00  0.00     0.016 A 
ATOM      4  C   UNL     1      61.649  -5.627   0.222  1.00  0.00     0.038 A 
ATOM      5  C   UNL     1      62.057  -6.863   0.771  1.00  0.00     0.076 A 
ATOM      6  C   UNL     1      61.873  -7.098   2.158  1.00  0.00     0.127 A 
ATOM      7  C   UNL     1      61.378  -6.077   2.976  1.00  0.00     0.050 A 
ATOM      8  C   UNL     1      62.730  -7.840  -0.124  1.00  0.00     0.201 C 
ATOM      9  O   UNL     1      63.586  -8.635   0.348  1.00  0.00    -0.288 OA
ATOM     10  C   UNL     1      62.535  -7.751  -1.593  1.00  0.00     0.076 A 
ATOM     11  C   UNL     1      62.127  -6.512  -2.139  1.00  0.00     0.041 A 
ATOM     12  C   UNL     1      61.762  -5.393  -1.239  1.00  0.00     0.194 C 
ATOM     13  O   UNL     1      61.521  -4.251  -1.716  1.00  0.00    -0.289 OA
ATOM     14  C   UNL     1      62.065  -6.348  -3.533  1.00  0.00     0.059 A 
ATOM     15  C   UNL     1      62.388  -7.404  -4.386  1.00  0.00     0.120 A 
ATOM     16  C   UNL     1      62.753  -8.642  -3.852  1.00  0.00     0.093 A 
ATOM     17  C   UNL     1      62.802  -8.837  -2.468  1.00  0.00     0.131 A 
ENDROOT
BRANCH   6  18
ATOM     18  O   UNL     1      62.135  -8.332   2.756  1.00  0.00    -0.507 OA
ATOM     19  H   UNL     1      62.596  -9.096   2.283  1.00  0.00     0.293 HD
ENDBRANCH   6  18
BRANCH  17  20
ATOM     20  O   UNL     1      63.086 -10.125  -2.007  1.00  0.00    -0.507 OA
ATOM     21  H   UNL     1      63.280 -10.907  -2.617  1.00  0.00     0.293 HD
ENDBRANCH  17  20
BRANCH  15  22
ATOM     22  O   UNL     1      62.332  -7.214  -5.765  1.00  0.00    -0.508 OA
ATOM     23  H   UNL     1      62.953  -7.710  -6.394  1.00  0.00     0.293 HD
ENDBRANCH  15  22
TORSDOF 3
ENDMDL
MODEL 3
REMARK VINA RESULT:    -4.620     14.211     16.096
REMARK INTER + INTRA:          -5.025
REMARK INTER:                  -5.025
REMARK INTRA:                   0.000
REMARK UNBOUND:                 0.000
REMARK SMILES Cc1cc(O)c2c(c1)C(=O)c1cc(O)cc(O)c1C2=O
REMARK SMILES IDX 1 1 2 2 8 3 7 4 6 5 4 6 3 7 19 8 20 9 18 10 11 11 9 12 10 13
REMARK SMILES IDX 12 14 13 15 15 16 16 17 5 18 17 20 14 22
REMARK H PARENT 5 19 17 21 14 23
REMARK Flexibility Score: inf
ROOT
ATOM      1  C   UNL     1      59.632   8.886   7.627  1.00  0.00     0.044 C 
ATOM      2  C   UNL     1      60.369   8.631   6.345  1.00  0.00    -0.047 A 
ATOM      3  C   UNL     1      59.864   9.117   5.134  1.00  0.00     0.016 A 
ATOM      4  C   UNL     1      60.570   8.921   3.934  1.00  0.00     0.038 A 
ATOM      5  C   UNL     1      61.814   8.251   3.951  1.00  0.00     0.076 A 
ATOM      6  C   UNL     1      62.298   7.721   5.174  1.00  0.00     0.127 A 
ATOM      7  C   UNL     1      61.588   7.945   6.357  1.00  0.00     0.050 A 
ATOM      8  C   UNL     1      62.597   8.195   2.688  1.00  0.00     0.201 C 
ATOM      9  O   UNL     1      63.855   8.157   2.733  1.00  0.00    -0.288 OA
ATOM     10  C   UNL     1      61.908   8.373   1.384  1.00  0.00     0.076 A 
ATOM     11  C   UNL     1      60.664   9.045   1.373  1.00  0.00     0.041 A 
ATOM     12  C   UNL     1      60.012   9.413   2.651  1.00  0.00     0.194 C 
ATOM     13  O   UNL     1      58.969  10.123   2.647  1.00  0.00    -0.289 OA
ATOM     14  C   UNL     1      60.049   9.355   0.148  1.00  0.00     0.059 A 
ATOM     15  C   UNL     1      60.648   8.992  -1.058  1.00  0.00     0.120 A 
ATOM     16  C   UNL     1      61.857   8.293  -1.051  1.00  0.00     0.093 A 
ATOM     17  C   UNL     1      62.480   7.955   0.154  1.00  0.00     0.131 A 
ENDROOT
BRANCH   6  18
ATOM     18  O   UNL     1      63.454   6.942   5.254  1.00  0.00    -0.507 OA
ATOM     19  H   UNL     1      63.478   6.019   5.665  1.00  0.00     0.293 HD
ENDBRANCH   6  18
BRANCH  17  20
ATOM     20  O   UNL     1      63.638   7.177   0.086  1.00  0.00    -0.507 OA
ATOM     21  H   UNL     1      64.097   6.785   0.897  1.00  0.00     0.293 HD
ENDBRANCH  17  20
BRANCH  15  22
ATOM     22  O   UNL     1      60.025   9.322  -2.260  1.00  0.00    -0.508 OA
ATOM     23  H   UNL     1      59.277  10.004  -2.300  1.00  0.00     0.293 HD
ENDBRANCH  15  22
TORSDOF 3
ENDMDL
MODEL 4
REMARK VINA RESULT:    -4.587     14.655     15.072
REMARK INTER + INTRA:          -4.989
REMARK INTER:                  -4.989
REMARK INTRA:                   0.000
REMARK UNBOUND:                 0.000
REMARK SMILES Cc1cc(O)c2c(c1)C(=O)c1cc(O)cc(O)c1C2=O
REMARK SMILES IDX 1 1 2 2 8 3 7 4 6 5 4 6 3 7 19 8 20 9 18 10 11 11 9 12 10 13
REMARK SMILES IDX 12 14 13 15 15 16 16 17 5 18 17 20 14 22
REMARK H PARENT 5 19 17 21 14 23
REMARK Flexibility Score: inf
ROOT
ATOM      1  C   UNL     1      61.550   8.618  -2.367  1.00  0.00     0.044 C 
ATOM      2  C   UNL     1      61.170   8.711  -0.918  1.00  0.00    -0.047 A 
ATOM      3  C   UNL     1      62.122   8.463   0.077  1.00  0.00     0.016 A 
ATOM      4  C   UNL     1      61.787   8.590   1.436  1.00  0.00     0.038 A 
ATOM      5  C   UNL     1      60.486   8.999   1.805  1.00  0.00     0.076 A 
ATOM      6  C   UNL     1      59.513   9.205   0.794  1.00  0.00     0.127 A 
ATOM      7  C   UNL     1      59.875   9.091  -0.552  1.00  0.00     0.050 A 
ATOM      8  C   UNL     1      60.216   9.264   3.242  1.00  0.00     0.201 C 
ATOM      9  O   UNL     1      59.355  10.125   3.569  1.00  0.00    -0.288 OA
ATOM     10  C   UNL     1      61.086   8.658   4.281  1.00  0.00     0.076 A 
ATOM     11  C   UNL     1      62.387   8.251   3.908  1.00  0.00     0.041 A 
ATOM     12  C   UNL     1      62.795   8.295   2.484  1.00  0.00     0.194 C 
ATOM     13  O   UNL     1      63.990   8.056   2.161  1.00  0.00    -0.289 OA
ATOM     14  C   UNL     1      63.288   7.801   4.889  1.00  0.00     0.059 A 
ATOM     15  C   UNL     1      62.904   7.738   6.228  1.00  0.00     0.120 A 
ATOM     16  C   UNL     1      61.607   8.101   6.596  1.00  0.00     0.093 A 
ATOM     17  C   UNL     1      60.685   8.532   5.637  1.00  0.00     0.131 A 
ENDROOT
BRANCH   6  18
ATOM     18  O   UNL     1      58.176   9.489   1.079  1.00  0.00    -0.507 OA
ATOM     19  H   UNL     1      57.421   9.337   0.425  1.00  0.00     0.293 HD
ENDBRANCH   6  18
BRANCH  17  20
ATOM     20  O   UNL     1      59.380   8.790   6.066  1.00  0.00    -0.507 OA
ATOM     21  H   UNL     1      58.669   9.200   5.476  1.00  0.00     0.293 HD
ENDBRANCH  17  20
BRANCH  15  22
ATOM     22  O   UNL     1      63.818   7.301   7.184  1.00  0.00    -0.508 OA
ATOM     23  H   UNL     1      64.757   7.678   7.230  1.00  0.00     0.293 HD
ENDBRANCH  15  22
TORSDOF 3
ENDMDL
MODEL 5
REMARK VINA RESULT:    -4.277      1.699      5.495
REMARK INTER + INTRA:          -4.652
REMARK INTER:                  -4.652
REMARK INTRA:                   0.000
REMARK UNBOUND:                 0.000
REMARK SMILES Cc1cc(O)c2c(c1)C(=O)c1cc(O)cc(O)c1C2=O
REMARK SMILES IDX 1 1 2 2 8 3 7 4 6 5 4 6 3 7 19 8 20 9 18 10 11 11 9 12 10 13
REMARK SMILES IDX 12 14 13 15 15 16 16 17 5 18 17 20 14 22
REMARK H PARENT 5 19 17 21 14 23
REMARK Flexibility Score: inf
ROOT
ATOM      1  C   UNL     1      61.219  -7.061   5.746  1.00  0.00     0.044 C 
ATOM      2  C   UNL     1      61.359  -6.671   4.303  1.00  0.00    -0.047 A 
ATOM      3  C   UNL     1      61.783  -7.612   3.358  1.00  0.00     0.016 A 
ATOM      4  C   UNL     1      61.875  -7.268   1.998  1.00  0.00     0.038 A 
ATOM      5  C   UNL     1      61.514  -5.970   1.574  1.00  0.00     0.076 A 
ATOM      6  C   UNL     1      61.129  -5.008   2.542  1.00  0.00     0.127 A 
ATOM      7  C   UNL     1      61.026  -5.378   3.887  1.00  0.00     0.050 A 
ATOM      8  C   UNL     1      61.484  -5.692   0.114  1.00  0.00     0.201 C 
ATOM      9  O   UNL     1      60.676  -4.841  -0.346  1.00  0.00    -0.288 OA
ATOM     10  C   UNL     1      62.267  -6.546  -0.816  1.00  0.00     0.076 A 
ATOM     11  C   UNL     1      62.626  -7.844  -0.387  1.00  0.00     0.041 A 
ATOM     12  C   UNL     1      62.354  -8.263   1.008  1.00  0.00     0.194 C 
ATOM     13  O   UNL     1      62.555  -9.458   1.359  1.00  0.00    -0.289 OA
ATOM     14  C   UNL     1      63.244  -8.731  -1.286  1.00  0.00     0.059 A 
ATOM     15  C   UNL     1      63.521  -8.336  -2.594  1.00  0.00     0.120 A 
ATOM     16  C   UNL     1      63.205  -7.041  -3.010  1.00  0.00     0.093 A 
ATOM     17  C   UNL     1      62.608  -6.133  -2.130  1.00  0.00     0.131 A 
ENDROOT
BRANCH   6  18
ATOM     18  O   UNL     1      60.876  -3.672   2.221  1.00  0.00    -0.507 OA
ATOM     19  H   UNL     1      61.526  -2.921   2.403  1.00  0.00     0.293 HD
ENDBRANCH   6  18
BRANCH  17  20
ATOM     20  O   UNL     1      62.403  -4.828  -2.589  1.00  0.00    -0.507 OA
ATOM     21  H   UNL     1      62.967  -4.040  -2.301  1.00  0.00     0.293 HD
ENDBRANCH  17  20
BRANCH  15  22
ATOM     22  O   UNL     1      64.123  -9.236  -3.470  1.00  0.00    -0.508 OA
ATOM     23  H   UNL     1      64.561  -8.927  -4.330  1.00  0.00     0.293 HD
ENDBRANCH  15  22
TORSDOF 3
ENDMDL
MODEL 6
REMARK VINA RESULT:    -4.145      1.687      6.317
REMARK INTER + INTRA:          -4.509
REMARK INTER:                  -4.509
REMARK INTRA:                   0.000
REMARK UNBOUND:                 0.000
REMARK SMILES Cc1cc(O)c2c(c1)C(=O)c1cc(O)cc(O)c1C2=O
REMARK SMILES IDX 1 1 2 2 8 3 7 4 6 5 4 6 3 7 19 8 20 9 18 10 11 11 9 12 10 13
REMARK SMILES IDX 12 14 13 15 15 16 16 17 5 18 17 20 14 22
REMARK H PARENT 5 19 17 21 14 23
REMARK Flexibility Score: inf
ROOT
ATOM      1  C   UNL     1      59.832  -7.130   7.329  1.00  0.00     0.044 C 
ATOM      2  C   UNL     1      60.385  -7.331   5.948  1.00  0.00    -0.047 A 
ATOM      3  C   UNL     1      60.399  -6.272   5.035  1.00  0.00     0.016 A 
ATOM      4  C   UNL     1      60.953  -6.438   3.753  1.00  0.00     0.038 A 
ATOM      5  C   UNL     1      61.527  -7.677   3.391  1.00  0.00     0.076 A 
ATOM      6  C   UNL     1      61.469  -8.761   4.304  1.00  0.00     0.127 A 
ATOM      7  C   UNL     1      60.929  -8.565   5.579  1.00  0.00     0.050 A 
ATOM      8  C   UNL     1      62.233  -7.768   2.086  1.00  0.00     0.201 C 
ATOM      9  O   UNL     1      63.198  -8.565   1.950  1.00  0.00    -0.288 OA
ATOM     10  C   UNL     1      61.924  -6.791   1.010  1.00  0.00     0.076 A 
ATOM     11  C   UNL     1      61.351  -5.552   1.378  1.00  0.00     0.041 A 
ATOM     12  C   UNL     1      60.936  -5.318   2.781  1.00  0.00     0.194 C 
ATOM     13  O   UNL     1      60.543  -4.175   3.142  1.00  0.00    -0.289 OA
ATOM     14  C   UNL     1      61.173  -4.549   0.410  1.00  0.00     0.059 A 
ATOM     15  C   UNL     1      61.543  -4.770  -0.916  1.00  0.00     0.120 A 
ATOM     16  C   UNL     1      62.072  -6.007  -1.293  1.00  0.00     0.093 A 
ATOM     17  C   UNL     1      62.241  -7.028  -0.353  1.00  0.00     0.131 A 
ENDROOT
BRANCH   6  18
ATOM     18  O   UNL     1      61.900 -10.048   3.978  1.00  0.00    -0.507 OA
ATOM     19  H   UNL     1      62.362 -10.279   3.110  1.00  0.00     0.293 HD
ENDBRANCH   6  18
BRANCH  17  20
ATOM     20  O   UNL     1      62.690  -8.267  -0.819  1.00  0.00    -0.507 OA
ATOM     21  H   UNL     1      63.524  -8.385  -1.377  1.00  0.00     0.293 HD
ENDBRANCH  17  20
BRANCH  15  22
ATOM     22  O   UNL     1      61.368  -3.757  -1.856  1.00  0.00    -0.508 OA
ATOM     23  H   UNL     1      60.485  -3.269  -1.951  1.00  0.00     0.293 HD
ENDBRANCH  15  22
TORSDOF 3
ENDMDL
MODEL 7
REMARK VINA RESULT:    -4.064     15.485     17.273
REMARK INTER + INTRA:          -4.421
REMARK INTER:                  -4.421
REMARK INTRA:                   0.000
REMARK UNBOUND:                 0.000
REMARK SMILES Cc1cc(O)c2c(c1)C(=O)c1cc(O)cc(O)c1C2=O
REMARK SMILES IDX 1 1 2 2 8 3 7 4 6 5 4 6 3 7 19 8 20 9 18 10 11 11 9 12 10 13
REMARK SMILES IDX 12 14 13 15 15 16 16 17 5 18 17 20 14 22
REMARK H PARENT 5 19 17 21 14 23
REMARK Flexibility Score: inf
ROOT
ATOM      1  C   UNL     1      44.120  -2.926  -9.264  1.00  0.00     0.044 C 
ATOM      2  C   UNL     1      44.888  -4.111  -8.755  1.00  0.00    -0.047 A 
ATOM      3  C   UNL     1      44.584  -4.662  -7.506  1.00  0.00     0.016 A 
ATOM      4  C   UNL     1      45.268  -5.798  -7.039  1.00  0.00     0.038 A 
ATOM      5  C   UNL     1      46.254  -6.407  -7.847  1.00  0.00     0.076 A 
ATOM      6  C   UNL     1      46.590  -5.817  -9.092  1.00  0.00     0.127 A 
ATOM      7  C   UNL     1      45.882  -4.698  -9.544  1.00  0.00     0.050 A 
ATOM      8  C   UNL     1      46.847  -7.688  -7.383  1.00  0.00     0.201 C 
ATOM      9  O   UNL     1      47.248  -8.535  -8.226  1.00  0.00    -0.288 OA
ATOM     10  C   UNL     1      46.795  -8.047  -5.943  1.00  0.00     0.076 A 
ATOM     11  C   UNL     1      45.806  -7.436  -5.138  1.00  0.00     0.041 A 
ATOM     12  C   UNL     1      44.960  -6.358  -5.700  1.00  0.00     0.194 C 
ATOM     13  O   UNL     1      43.995  -5.898  -5.031  1.00  0.00    -0.289 OA
ATOM     14  C   UNL     1      45.634  -7.850  -3.806  1.00  0.00     0.059 A 
ATOM     15  C   UNL     1      46.442  -8.850  -3.265  1.00  0.00     0.120 A 
ATOM     16  C   UNL     1      47.446  -9.429  -4.043  1.00  0.00     0.093 A 
ATOM     17  C   UNL     1      47.652  -9.021  -5.365  1.00  0.00     0.131 A 
ENDROOT
BRANCH   6  18
ATOM     18  O   UNL     1      47.634  -6.284  -9.892  1.00  0.00    -0.507 OA
ATOM     19  H   UNL     1      48.230  -5.680 -10.441  1.00  0.00     0.293 HD
ENDBRANCH   6  18
BRANCH  17  20
ATOM     20  O   UNL     1      48.732  -9.579  -6.053  1.00  0.00    -0.507 OA
ATOM     21  H   UNL     1      48.921 -10.571  -6.087  1.00  0.00     0.293 HD
ENDBRANCH  17  20
BRANCH  15  22
ATOM     22  O   UNL     1      46.245  -9.253  -1.946  1.00  0.00    -0.508 OA
ATOM     23  H   UNL     1      46.118  -8.579  -1.200  1.00  0.00     0.293 HD
ENDBRANCH  15  22
TORSDOF 3
ENDMDL
MODEL 8
REMARK VINA RESULT:    -3.938     15.048     17.282
REMARK INTER + INTRA:          -4.283
REMARK INTER:                  -4.283
REMARK INTRA:                   0.000
REMARK UNBOUND:                 0.000
REMARK SMILES Cc1cc(O)c2c(c1)C(=O)c1cc(O)cc(O)c1C2=O
REMARK SMILES IDX 1 1 2 2 8 3 7 4 6 5 4 6 3 7 19 8 20 9 18 10 11 11 9 12 10 13
REMARK SMILES IDX 12 14 13 15 15 16 16 17 5 18 17 20 14 22
REMARK H PARENT 5 19 17 21 14 23
REMARK Flexibility Score: inf
ROOT
ATOM      1  C   UNL     1      43.875  -7.735  -0.498  1.00  0.00     0.044 C 
ATOM      2  C   UNL     1      44.802  -8.008  -1.647  1.00  0.00    -0.047 A 
ATOM      3  C   UNL     1      44.607  -7.368  -2.875  1.00  0.00     0.016 A 
ATOM      4  C   UNL     1      45.496  -7.583  -3.943  1.00  0.00     0.038 A 
ATOM      5  C   UNL     1      46.611  -8.432  -3.770  1.00  0.00     0.076 A 
ATOM      6  C   UNL     1      46.778  -9.114  -2.538  1.00  0.00     0.127 A 
ATOM      7  C   UNL     1      45.892  -8.869  -1.484  1.00  0.00     0.050 A 
ATOM      8  C   UNL     1      47.605  -8.517  -4.873  1.00  0.00     0.201 C 
ATOM      9  O   UNL     1      48.815  -8.748  -4.609  1.00  0.00    -0.288 OA
ATOM     10  C   UNL     1      47.208  -8.146  -6.255  1.00  0.00     0.076 A 
ATOM     11  C   UNL     1      46.091  -7.296  -6.423  1.00  0.00     0.041 A 
ATOM     12  C   UNL     1      45.264  -6.923  -5.251  1.00  0.00     0.194 C 
ATOM     13  O   UNL     1      44.346  -6.067  -5.373  1.00  0.00    -0.289 OA
ATOM     14  C   UNL     1      45.767  -6.811  -7.702  1.00  0.00     0.059 A 
ATOM     15  C   UNL     1      46.530  -7.174  -8.811  1.00  0.00     0.120 A 
ATOM     16  C   UNL     1      47.610  -8.046  -8.657  1.00  0.00     0.093 A 
ATOM     17  C   UNL     1      47.941  -8.559  -7.398  1.00  0.00     0.131 A 
ENDROOT
BRANCH   6  18
ATOM     18  O   UNL     1      47.781 -10.062  -2.328  1.00  0.00    -0.507 OA
ATOM     19  H   UNL     1      47.622 -10.955  -1.883  1.00  0.00     0.293 HD
ENDBRANCH   6  18
BRANCH  17  20
ATOM     20  O   UNL     1      48.976  -9.496  -7.334  1.00  0.00    -0.507 OA
ATOM     21  H   UNL     1      49.514  -9.678  -6.498  1.00  0.00     0.293 HD
ENDBRANCH  17  20
BRANCH  15  22
ATOM     22  O   UNL     1      46.198  -6.671 -10.067  1.00  0.00    -0.508 OA
ATOM     23  H   UNL     1      46.366  -5.702 -10.311  1.00  0.00     0.293 HD
ENDBRANCH  15  22
TORSDOF 3
ENDMDL
