MODEL 1
REMARK VINA RESULT:    -2.559      0.000      0.000
REMARK INTER + INTRA:          -2.914
REMARK INTER:                  -2.858
REMARK INTRA:                  -0.056
REMARK UNBOUND:                -0.056
REMARK SMILES CCCC(=O)[O-]
REMARK SMILES IDX 3 1 4 2 5 3 6 4 2 5 1 6
REMARK H PARENT
REMARK Flexibility Score: inf
ROOT
ATOM      1  C   UNL     1      90.278  99.753  92.684  1.00  0.00     0.052 C 
ENDROOT
BRANCH   1   2
ATOM      2  C   UNL     1      89.791  98.514  91.998  1.00  0.00     0.041 C 
ATOM      3  O   UNL     1      88.875  97.821  92.513  1.00  0.00    -0.550 OA
ATOM      4  O   UNL     1      90.374  98.106  90.805  1.00  0.00    -0.550 OA
ENDBRANCH   1   2
BRANCH   1   5
ATOM      5  C   UNL     1      91.798  99.908  92.567  1.00  0.00     0.003 C 
ATOM      6  C   UNL     1      92.552  98.995  93.534  1.00  0.00     0.004 C 
ENDBRANCH   1   5
TORSDOF 2
ENDMDL
MODEL 2
REMARK VINA RESULT:    -2.559     15.756     17.011
REMARK INTER + INTRA:          -2.914
REMARK INTER:                  -2.863
REMARK INTRA:                  -0.051
REMARK UNBOUND:                -0.056
REMARK SMILES CCCC(=O)[O-]
REMARK SMILES IDX 3 1 4 2 5 3 6 4 2 5 1 6
REMARK H PARENT
REMARK Flexibility Score: inf
ROOT
ATOM      1  C   UNL     1     107.684  98.265  92.692  1.00  0.00     0.052 C 
ENDROOT
BRANCH   1   2
ATOM      2  C   UNL     1     108.203  99.473  91.975  1.00  0.00     0.041 C 
ATOM      3  O   UNL     1     109.124 100.166  92.483  1.00  0.00    -0.550 OA
ATOM      4  O   UNL     1     107.645  99.854  90.761  1.00  0.00    -0.550 OA
ENDBRANCH   1   2
BRANCH   1   5
ATOM      5  C   UNL     1     106.168  98.110  92.520  1.00  0.00     0.003 C 
ATOM      6  C   UNL     1     105.379  98.948  93.525  1.00  0.00     0.004 C 
ENDBRANCH   1   5
TORSDOF 2
ENDMDL
MODEL 3
REMARK VINA RESULT:    -2.525     17.451     18.034
REMARK INTER + INTRA:          -2.877
REMARK INTER:                  -2.846
REMARK INTRA:                  -0.031
REMARK UNBOUND:                -0.056
REMARK SMILES CCCC(=O)[O-]
REMARK SMILES IDX 3 1 4 2 5 3 6 4 2 5 1 6
REMARK H PARENT
REMARK Flexibility Score: inf
ROOT
ATOM      1  C   UNL     1     108.161  98.923  90.763  1.00  0.00     0.052 C 
ENDROOT
BRANCH   1   2
ATOM      2  C   UNL     1     108.478  99.171  92.206  1.00  0.00     0.041 C 
ATOM      3  O   UNL     1     109.103 100.208  92.550  1.00  0.00    -0.550 OA
ATOM      4  O   UNL     1     108.112  98.237  93.168  1.00  0.00    -0.550 OA
ENDBRANCH   1   2
BRANCH   1   5
ATOM      5  C   UNL     1     107.672 100.196  90.063  1.00  0.00     0.003 C 
ATOM      6  C   UNL     1     108.714 100.771  89.105  1.00  0.00     0.004 C 
ENDBRANCH   1   5
TORSDOF 2
ENDMDL
MODEL 4
REMARK VINA RESULT:    -2.509     15.355     16.026
REMARK INTER + INTRA:          -2.859
REMARK INTER:                  -2.848
REMARK INTRA:                  -0.011
REMARK UNBOUND:                -0.056
REMARK SMILES CCCC(=O)[O-]
REMARK SMILES IDX 3 1 4 2 5 3 6 4 2 5 1 6
REMARK H PARENT
REMARK Flexibility Score: inf
ROOT
ATOM      1  C   UNL     1     105.610  95.664  91.544  1.00  0.00     0.052 C 
ENDROOT
BRANCH   1   2
ATOM      2  C   UNL     1     106.574  96.810  91.536  1.00  0.00     0.041 C 
ATOM      3  O   UNL     1     106.595  97.616  90.569  1.00  0.00    -0.550 OA
ATOM      4  O   UNL     1     107.474  96.969  92.583  1.00  0.00    -0.550 OA
ENDBRANCH   1   2
BRANCH   1   5
ATOM      5  C   UNL     1     105.446  95.051  90.148  1.00  0.00     0.003 C 
ATOM      6  C   UNL     1     104.246  94.109  90.064  1.00  0.00     0.004 C 
ENDBRANCH   1   5
TORSDOF 2
ENDMDL
MODEL 5
REMARK VINA RESULT:    -2.507      3.411      3.993
REMARK INTER + INTRA:          -2.856
REMARK INTER:                  -2.848
REMARK INTRA:                  -0.008
REMARK UNBOUND:                -0.056
REMARK SMILES CCCC(=O)[O-]
REMARK SMILES IDX 3 1 4 2 5 3 6 4 2 5 1 6
REMARK H PARENT
REMARK Flexibility Score: inf
ROOT
ATOM      1  C   UNL     1      92.435 102.317  91.565  1.00  0.00     0.052 C 
ENDROOT
BRANCH   1   2
ATOM      2  C   UNL     1      91.414 101.222  91.569  1.00  0.00     0.041 C 
ATOM      3  O   UNL     1      90.603 101.113  92.526  1.00  0.00    -0.550 OA
ATOM      4  O   UNL     1      91.379 100.300  90.530  1.00  0.00    -0.550 OA
ENDBRANCH   1   2
BRANCH   1   5
ATOM      5  C   UNL     1      92.500 103.028  90.208  1.00  0.00     0.003 C 
ATOM      6  C   UNL     1      93.748 103.899  90.067  1.00  0.00     0.004 C 
ENDBRANCH   1   5
TORSDOF 2
ENDMDL
MODEL 6
REMARK VINA RESULT:    -2.500      2.381      3.070
REMARK INTER + INTRA:          -2.849
REMARK INTER:                  -2.781
REMARK INTRA:                  -0.067
REMARK UNBOUND:                -0.056
REMARK SMILES CCCC(=O)[O-]
REMARK SMILES IDX 3 1 4 2 5 3 6 4 2 5 1 6
REMARK H PARENT
REMARK Flexibility Score: inf
ROOT
ATOM      1  C   UNL     1      89.074  98.373  92.330  1.00  0.00     0.052 C 
ENDROOT
BRANCH   1   2
ATOM      2  C   UNL     1      89.585  99.752  92.612  1.00  0.00     0.041 C 
ATOM      3  O   UNL     1      90.612  99.916  93.322  1.00  0.00    -0.550 OA
ATOM      4  O   UNL     1      88.905 100.859  92.120  1.00  0.00    -0.550 OA
ENDBRANCH   1   2
BRANCH   1   5
ATOM      5  C   UNL     1      88.971  98.103  90.824  1.00  0.00     0.003 C 
ATOM      6  C   UNL     1      90.341  97.999  90.155  1.00  0.00     0.004 C 
ENDBRANCH   1   5
TORSDOF 2
ENDMDL
MODEL 7
REMARK VINA RESULT:    -2.482     17.127     17.909
REMARK INTER + INTRA:          -2.829
REMARK INTER:                  -2.762
REMARK INTRA:                  -0.067
REMARK UNBOUND:                -0.056
REMARK SMILES CCCC(=O)[O-]
REMARK SMILES IDX 3 1 4 2 5 3 6 4 2 5 1 6
REMARK H PARENT
REMARK Flexibility Score: inf
ROOT
ATOM      1  C   UNL     1     108.836  99.731  92.223  1.00  0.00     0.052 C 
ENDROOT
BRANCH   1   2
ATOM      2  C   UNL     1     108.410  98.329  92.532  1.00  0.00     0.041 C 
ATOM      3  O   UNL     1     107.427  98.116  93.290  1.00  0.00    -0.550 OA
ATOM      4  O   UNL     1     109.121  97.256  92.011  1.00  0.00    -0.550 OA
ENDBRANCH   1   2
BRANCH   1   5
ATOM      5  C   UNL     1     108.919  99.979  90.712  1.00  0.00     0.003 C 
ATOM      6  C   UNL     1     107.541 100.013  90.051  1.00  0.00     0.004 C 
ENDBRANCH   1   5
TORSDOF 2
ENDMDL
MODEL 8
REMARK VINA RESULT:    -2.404      5.203      5.881
REMARK INTER + INTRA:          -2.741
REMARK INTER:                  -2.703
REMARK INTRA:                  -0.038
REMARK UNBOUND:                -0.056
REMARK SMILES CCCC(=O)[O-]
REMARK SMILES IDX 3 1 4 2 5 3 6 4 2 5 1 6
REMARK H PARENT
REMARK Flexibility Score: inf
ROOT
ATOM      1  C   UNL     1      93.193 103.186  89.975  1.00  0.00     0.052 C 
ENDROOT
BRANCH   1   2
ATOM      2  C   UNL     1      92.946 102.785  91.397  1.00  0.00     0.041 C 
ATOM      3  O   UNL     1      91.975 102.037  91.686  1.00  0.00    -0.550 OA
ATOM      4  O   UNL     1      93.768 103.266  92.408  1.00  0.00    -0.550 OA
ENDBRANCH   1   2
BRANCH   1   5
ATOM      5  C   UNL     1      94.221 104.319  89.876  1.00  0.00     0.003 C 
ATOM      6  C   UNL     1      95.574 103.833  89.356  1.00  0.00     0.004 C 
ENDBRANCH   1   5
TORSDOF 2
ENDMDL
MODEL 9
REMARK VINA RESULT:    -2.329      1.913      2.481
REMARK INTER + INTRA:          -2.657
REMARK INTER:                  -2.620
REMARK INTRA:                  -0.038
REMARK UNBOUND:                -0.056
REMARK SMILES CCCC(=O)[O-]
REMARK SMILES IDX 3 1 4 2 5 3 6 4 2 5 1 6
REMARK H PARENT
REMARK Flexibility Score: inf
ROOT
ATOM      1  C   UNL     1      89.397  98.219  91.555  1.00  0.00     0.052 C 
ENDROOT
BRANCH   1   2
ATOM      2  C   UNL     1      89.786  98.178  90.110  1.00  0.00     0.041 C 
ATOM      3  O   UNL     1      90.399  99.146  89.589  1.00  0.00    -0.550 OA
ATOM      4  O   UNL     1      89.440  97.082  89.328  1.00  0.00    -0.550 OA
ENDBRANCH   1   2
BRANCH   1   5
ATOM      5  C   UNL     1      89.316  99.656  92.081  1.00  0.00     0.003 C 
ATOM      6  C   UNL     1      90.446  99.985  93.055  1.00  0.00     0.004 C 
ENDBRANCH   1   5
TORSDOF 2
ENDMDL
