MODEL 1
REMARK VINA RESULT:    -3.067      0.000      0.000
REMARK INTER + INTRA:          -5.811
REMARK INTER:                  -4.861
REMARK INTRA:                  -0.950
REMARK UNBOUND:                -0.950
REMARK SMILES CCCCCCCCCCCC(=O)[O-]
REMARK SMILES IDX 7 1 8 2 9 3 10 4 11 5 12 6 13 7 14 8 6 9 5 10 4 11 3 12 2 13
REMARK SMILES IDX 1 14
REMARK H PARENT
REMARK Flexibility Score: inf
ROOT
ATOM      1  C   UNL     1       5.437  -9.566   9.804  1.00  0.00     0.000 C 
ENDROOT
BRANCH   1   2
ATOM      2  C   UNL     1       4.093  -8.981   9.334  1.00  0.00     0.000 C 
BRANCH   2   3
ATOM      3  C   UNL     1       3.417  -9.829   8.244  1.00  0.00     0.000 C 
BRANCH   3   4
ATOM      4  C   UNL     1       3.737  -9.330   6.825  1.00  0.00     0.006 C 
BRANCH   4   5
ATOM      5  C   UNL     1       4.988  -9.995   6.234  1.00  0.00     0.053 C 
BRANCH   5   6
ATOM      6  C   UNL     1       5.738  -9.024   5.378  1.00  0.00     0.041 C 
ATOM      7  O   UNL     1       5.505  -7.790   5.466  1.00  0.00    -0.550 OA
ATOM      8  O   UNL     1       6.661  -9.486   4.448  1.00  0.00    -0.550 OA
ENDBRANCH   5   6
ENDBRANCH   4   5
ENDBRANCH   3   4
ENDBRANCH   2   3
ENDBRANCH   1   2
BRANCH   1   9
ATOM      9  C   UNL     1       6.546  -8.532  10.071  1.00  0.00     0.000 C 
BRANCH   9  10
ATOM     10  C   UNL     1       7.005  -7.803   8.796  1.00  0.00    -0.000 C 
BRANCH  10  11
ATOM     11  C   UNL     1       8.532  -7.841   8.613  1.00  0.00    -0.000 C 
BRANCH  11  12
ATOM     12  C   UNL     1       9.151  -9.160   9.106  1.00  0.00    -0.000 C 
BRANCH  12  13
ATOM     13  C   UNL     1       9.884  -9.919   7.988  1.00  0.00    -0.003 C 
ATOM     14  C   UNL     1       9.475  -9.458   6.589  1.00  0.00     0.004 C 
ENDBRANCH  12  13
ENDBRANCH  11  12
ENDBRANCH  10  11
ENDBRANCH   9  10
ENDBRANCH   1   9
TORSDOF 10
ENDMDL
MODEL 2
REMARK VINA RESULT:    -3.018      2.376      3.860
REMARK INTER + INTRA:          -5.733
REMARK INTER:                  -4.604
REMARK INTRA:                  -1.129
REMARK UNBOUND:                -0.950
REMARK SMILES CCCCCCCCCCCC(=O)[O-]
REMARK SMILES IDX 7 1 8 2 9 3 10 4 11 5 12 6 13 7 14 8 6 9 5 10 4 11 3 12 2 13
REMARK SMILES IDX 1 14
REMARK H PARENT
REMARK Flexibility Score: inf
ROOT
ATOM      1  C   UNL     1       6.620  -9.341   5.368  1.00  0.00     0.000 C 
ENDROOT
BRANCH   1   2
ATOM      2  C   UNL     1       5.930  -7.996   5.658  1.00  0.00     0.000 C 
BRANCH   2   3
ATOM      3  C   UNL     1       4.869  -8.093   6.768  1.00  0.00     0.000 C 
BRANCH   3   4
ATOM      4  C   UNL     1       4.753  -9.512   7.349  1.00  0.00     0.006 C 
BRANCH   4   5
ATOM      5  C   UNL     1       3.301  -9.909   7.650  1.00  0.00     0.053 C 
BRANCH   5   6
ATOM      6  C   UNL     1       2.936  -9.523   9.049  1.00  0.00     0.041 C 
ATOM      7  O   UNL     1       1.747  -9.632   9.447  1.00  0.00    -0.550 OA
ATOM      8  O   UNL     1       3.901  -8.996   9.899  1.00  0.00    -0.550 OA
ENDBRANCH   5   6
ENDBRANCH   4   5
ENDBRANCH   3   4
ENDBRANCH   2   3
ENDBRANCH   1   2
BRANCH   1   9
ATOM      9  C   UNL     1       8.129  -9.385   5.675  1.00  0.00     0.000 C 
BRANCH   9  10
ATOM     10  C   UNL     1       8.447 -10.056   7.022  1.00  0.00    -0.000 C 
BRANCH  10  11
ATOM     11  C   UNL     1       9.715  -9.486   7.679  1.00  0.00    -0.000 C 
BRANCH  11  12
ATOM     12  C   UNL     1       9.401  -8.399   8.722  1.00  0.00    -0.000 C 
BRANCH  12  13
ATOM     13  C   UNL     1       8.177  -8.747   9.583  1.00  0.00    -0.003 C 
ATOM     14  C   UNL     1       7.152  -7.614   9.644  1.00  0.00     0.004 C 
ENDBRANCH  12  13
ENDBRANCH  11  12
ENDBRANCH  10  11
ENDBRANCH   9  10
ENDBRANCH   1   9
TORSDOF 10
ENDMDL
MODEL 3
REMARK VINA RESULT:    -2.925      1.875      5.375
REMARK INTER + INTRA:          -5.584
REMARK INTER:                  -4.921
REMARK INTRA:                  -0.664
REMARK UNBOUND:                -0.950
REMARK SMILES CCCCCCCCCCCC(=O)[O-]
REMARK SMILES IDX 7 1 8 2 9 3 10 4 11 5 12 6 13 7 14 8 6 9 5 10 4 11 3 12 2 13
REMARK SMILES IDX 1 14
REMARK H PARENT
REMARK Flexibility Score: inf
ROOT
ATOM      1  C   UNL     1       7.210  -9.714   6.374  1.00  0.00     0.000 C 
ENDROOT
BRANCH   1   2
ATOM      2  C   UNL     1       8.653  -9.994   5.917  1.00  0.00     0.000 C 
BRANCH   2   3
ATOM      3  C   UNL     1       9.709  -9.459   6.899  1.00  0.00     0.000 C 
BRANCH   3   4
ATOM      4  C   UNL     1       9.214  -9.464   8.355  1.00  0.00     0.006 C 
BRANCH   4   5
ATOM      5  C   UNL     1       9.186  -8.059   8.974  1.00  0.00     0.053 C 
BRANCH   5   6
ATOM      6  C   UNL     1       7.775  -7.588   9.130  1.00  0.00     0.041 C 
ATOM      7  O   UNL     1       7.067  -8.009  10.081  1.00  0.00    -0.550 OA
ATOM      8  O   UNL     1       7.225  -6.718   8.195  1.00  0.00    -0.550 OA
ENDBRANCH   5   6
ENDBRANCH   4   5
ENDBRANCH   3   4
ENDBRANCH   2   3
ENDBRANCH   1   2
BRANCH   1   9
ATOM      9  C   UNL     1       6.283  -9.120   5.298  1.00  0.00     0.000 C 
BRANCH   9  10
ATOM     10  C   UNL     1       5.179  -8.224   5.886  1.00  0.00    -0.000 C 
BRANCH  10  11
ATOM     11  C   UNL     1       4.098  -9.031   6.625  1.00  0.00    -0.000 C 
BRANCH  11  12
ATOM     12  C   UNL     1       4.241  -8.945   8.154  1.00  0.00    -0.000 C 
BRANCH  12  13
ATOM     13  C   UNL     1       3.567 -10.124   8.875  1.00  0.00    -0.003 C 
ATOM     14  C   UNL     1       2.207  -9.758   9.469  1.00  0.00     0.004 C 
ENDBRANCH  12  13
ENDBRANCH  11  12
ENDBRANCH  10  11
ENDBRANCH   9  10
ENDBRANCH   1   9
TORSDOF 10
ENDMDL
MODEL 4
REMARK VINA RESULT:    -2.796      1.582      3.911
REMARK INTER + INTRA:          -5.380
REMARK INTER:                  -4.197
REMARK INTRA:                  -1.184
REMARK UNBOUND:                -0.950
REMARK SMILES CCCCCCCCCCCC(=O)[O-]
REMARK SMILES IDX 7 1 8 2 9 3 10 4 11 5 12 6 13 7 14 8 6 9 5 10 4 11 3 12 2 13
REMARK SMILES IDX 1 14
REMARK H PARENT
REMARK Flexibility Score: inf
ROOT
ATOM      1  C   UNL     1       9.696  -9.574   8.244  1.00  0.00     0.000 C 
ENDROOT
BRANCH   1   2
ATOM      2  C   UNL     1       9.509  -9.713   6.722  1.00  0.00     0.000 C 
BRANCH   2   3
ATOM      3  C   UNL     1       8.081 -10.125   6.328  1.00  0.00     0.000 C 
BRANCH   3   4
ATOM      4  C   UNL     1       7.328  -9.007   5.588  1.00  0.00     0.006 C 
BRANCH   4   5
ATOM      5  C   UNL     1       6.546  -8.091   6.540  1.00  0.00     0.053 C 
BRANCH   5   6
ATOM      6  C   UNL     1       5.279  -7.629   5.892  1.00  0.00     0.041 C 
ATOM      7  O   UNL     1       4.219  -8.295   6.023  1.00  0.00    -0.550 OA
ATOM      8  O   UNL     1       5.280  -6.485   5.102  1.00  0.00    -0.550 OA
ENDBRANCH   5   6
ENDBRANCH   4   5
ENDBRANCH   3   4
ENDBRANCH   2   3
ENDBRANCH   1   2
BRANCH   1   9
ATOM      9  C   UNL     1       9.319  -8.201   8.830  1.00  0.00     0.000 C 
BRANCH   9  10
ATOM     10  C   UNL     1       8.394  -8.306  10.054  1.00  0.00    -0.000 C 
BRANCH  10  11
ATOM     11  C   UNL     1       7.490  -9.550  10.005  1.00  0.00    -0.000 C 
BRANCH  11  12
ATOM     12  C   UNL     1       5.997  -9.197  10.109  1.00  0.00    -0.000 C 
BRANCH  12  13
ATOM     13  C   UNL     1       5.148  -9.911   9.046  1.00  0.00    -0.003 C 
ATOM     14  C   UNL     1       3.646  -9.715   9.254  1.00  0.00     0.004 C 
ENDBRANCH  12  13
ENDBRANCH  11  12
ENDBRANCH  10  11
ENDBRANCH   9  10
ENDBRANCH   1   9
TORSDOF 10
ENDMDL
MODEL 5
REMARK VINA RESULT:    -2.590      1.888      3.782
REMARK INTER + INTRA:          -5.054
REMARK INTER:                  -4.044
REMARK INTRA:                  -1.010
REMARK UNBOUND:                -0.950
REMARK SMILES CCCCCCCCCCCC(=O)[O-]
REMARK SMILES IDX 7 1 8 2 9 3 10 4 11 5 12 6 13 7 14 8 6 9 5 10 4 11 3 12 2 13
REMARK SMILES IDX 1 14
REMARK H PARENT
REMARK Flexibility Score: inf
ROOT
ATOM      1  C   UNL     1       3.120  -9.579   8.522  1.00  0.00     0.000 C 
ENDROOT
BRANCH   1   2
ATOM      2  C   UNL     1       4.013  -9.103   9.683  1.00  0.00     0.000 C 
BRANCH   2   3
ATOM      3  C   UNL     1       5.100 -10.123  10.061  1.00  0.00     0.000 C 
BRANCH   3   4
ATOM      4  C   UNL     1       6.517  -9.530   9.984  1.00  0.00     0.006 C 
BRANCH   4   5
ATOM      5  C   UNL     1       6.515  -7.996   9.985  1.00  0.00     0.053 C 
BRANCH   5   6
ATOM      6  C   UNL     1       7.615  -7.474   9.115  1.00  0.00     0.041 C 
ATOM      7  O   UNL     1       8.796  -7.879   9.275  1.00  0.00    -0.550 OA
ATOM      8  O   UNL     1       7.343  -6.504   8.158  1.00  0.00    -0.550 OA
ENDBRANCH   5   6
ENDBRANCH   4   5
ENDBRANCH   3   4
ENDBRANCH   2   3
ENDBRANCH   1   2
BRANCH   1   9
ATOM      9  C   UNL     1       3.873 -10.034   7.259  1.00  0.00     0.000 C 
BRANCH   9  10
ATOM     10  C   UNL     1       4.069  -8.901   6.237  1.00  0.00    -0.000 C 
BRANCH  10  11
ATOM     11  C   UNL     1       5.361  -9.062   5.419  1.00  0.00    -0.000 C 
BRANCH  11  12
ATOM     12  C   UNL     1       6.610  -9.182   6.309  1.00  0.00    -0.000 C 
BRANCH  12  13
ATOM     13  C   UNL     1       7.669 -10.122   5.712  1.00  0.00    -0.003 C 
ATOM     14  C   UNL     1       9.048  -9.945   6.349  1.00  0.00     0.004 C 
ENDBRANCH  12  13
ENDBRANCH  11  12
ENDBRANCH  10  11
ENDBRANCH   9  10
ENDBRANCH   1   9
TORSDOF 10
ENDMDL
MODEL 6
REMARK VINA RESULT:    -2.273      2.250      4.305
REMARK INTER + INTRA:          -4.552
REMARK INTER:                  -3.550
REMARK INTRA:                  -1.003
REMARK UNBOUND:                -0.950
REMARK SMILES CCCCCCCCCCCC(=O)[O-]
REMARK SMILES IDX 7 1 8 2 9 3 10 4 11 5 12 6 13 7 14 8 6 9 5 10 4 11 3 12 2 13
REMARK SMILES IDX 1 14
REMARK H PARENT
REMARK Flexibility Score: inf
ROOT
ATOM      1  C   UNL     1       3.371  -9.890   8.126  1.00  0.00     0.000 C 
ENDROOT
BRANCH   1   2
ATOM      2  C   UNL     1       4.251  -9.032   9.053  1.00  0.00     0.000 C 
BRANCH   2   3
ATOM      3  C   UNL     1       5.343  -9.847   9.768  1.00  0.00     0.000 C 
BRANCH   3   4
ATOM      4  C   UNL     1       6.573  -8.997  10.125  1.00  0.00     0.006 C 
BRANCH   4   5
ATOM      5  C   UNL     1       7.068  -8.149   8.945  1.00  0.00     0.053 C 
BRANCH   5   6
ATOM      6  C   UNL     1       8.484  -8.501   8.609  1.00  0.00     0.041 C 
ATOM      7  O   UNL     1       9.436  -7.916   9.188  1.00  0.00    -0.550 OA
ATOM      8  O   UNL     1       8.750  -9.442   7.622  1.00  0.00    -0.550 OA
ENDBRANCH   5   6
ENDBRANCH   4   5
ENDBRANCH   3   4
ENDBRANCH   2   3
ENDBRANCH   1   2
BRANCH   1   9
ATOM      9  C   UNL     1       3.740  -9.834   6.632  1.00  0.00     0.000 C 
BRANCH   9  10
ATOM     10  C   UNL     1       5.245 -10.031   6.379  1.00  0.00    -0.000 C 
BRANCH  10  11
ATOM     11  C   UNL     1       5.863  -8.876   5.574  1.00  0.00    -0.000 C 
BRANCH  11  12
ATOM     12  C   UNL     1       5.031  -7.585   5.662  1.00  0.00    -0.000 C 
BRANCH  12  13
ATOM     13  C   UNL     1       5.798  -6.437   6.338  1.00  0.00    -0.003 C 
ATOM     14  C   UNL     1       5.667  -5.112   5.587  1.00  0.00     0.004 C 
ENDBRANCH  12  13
ENDBRANCH  11  12
ENDBRANCH  10  11
ENDBRANCH   9  10
ENDBRANCH   1   9
TORSDOF 10
ENDMDL
