MODEL 1
REMARK VINA RESULT:     1.388      0.000      0.000
REMARK INTER + INTRA:           1.504
REMARK INTER:                   1.631
REMARK INTRA:                  -0.127
REMARK UNBOUND:                -0.127
REMARK SMILES O=C([O-])C=Cc1ccc(O)c(O)c1
REMARK SMILES IDX 6 1 13 2 7 3 11 4 8 5 9 6 5 7 4 8 2 9 1 10 3 11 12 12 10 14
REMARK H PARENT 12 13 10 15
REMARK Flexibility Score: inf
ROOT
ATOM      1  C   UNL     1      -3.765  -0.874   2.365  1.00  0.00    -0.022 A 
ATOM      2  C   UNL     1      -3.884  -0.740   0.966  1.00  0.00     0.058 A 
ATOM      3  C   UNL     1      -4.597  -1.790   3.030  1.00  0.00     0.012 A 
ATOM      4  C   UNL     1      -4.834  -1.489   0.257  1.00  0.00     0.157 A 
ATOM      5  C   UNL     1      -5.545  -2.535   2.324  1.00  0.00     0.051 A 
ATOM      6  C   UNL     1      -5.668  -2.385   0.937  1.00  0.00     0.157 A 
ENDROOT
BRANCH   1   7
ATOM      7  C   UNL     1      -2.769  -0.113   3.158  1.00  0.00     0.010 C 
ATOM      8  C   UNL     1      -1.449  -0.149   2.927  1.00  0.00     0.025 C 
BRANCH   8   9
ATOM      9  C   UNL     1      -0.490   0.630   3.728  1.00  0.00     0.064 C 
ATOM     10  O   UNL     1      -0.877   1.375   4.668  1.00  0.00    -0.545 OA
ATOM     11  O   UNL     1       0.867   0.542   3.444  1.00  0.00    -0.545 OA
ENDBRANCH   8   9
ENDBRANCH   1   7
BRANCH   4  12
ATOM     12  O   UNL     1      -4.952  -1.351  -1.125  1.00  0.00    -0.504 OA
ATOM     13  H   UNL     1      -4.309  -1.808  -1.761  1.00  0.00     0.293 HD
ENDBRANCH   4  12
BRANCH   6  14
ATOM     14  O   UNL     1      -6.613  -3.124   0.228  1.00  0.00    -0.504 OA
ATOM     15  H   UNL     1      -6.767  -2.977  -0.762  1.00  0.00     0.293 HD
ENDBRANCH   6  14
TORSDOF 4
ENDMDL
MODEL 2
REMARK VINA RESULT:     4.246      0.932      2.063
REMARK INTER + INTRA:           4.863
REMARK INTER:                   5.004
REMARK INTRA:                  -0.141
REMARK UNBOUND:                -0.127
REMARK SMILES O=C([O-])C=Cc1ccc(O)c(O)c1
REMARK SMILES IDX 6 1 13 2 7 3 11 4 8 5 9 6 5 7 4 8 2 9 1 10 3 11 12 12 10 14
REMARK H PARENT 12 13 10 15
REMARK Flexibility Score: inf
ROOT
ATOM      1  C   UNL     1      -3.856  -0.895   1.764  1.00  0.00    -0.022 A 
ATOM      2  C   UNL     1      -4.977  -1.662   2.143  1.00  0.00     0.058 A 
ATOM      3  C   UNL     1      -3.512  -0.826   0.404  1.00  0.00     0.012 A 
ATOM      4  C   UNL     1      -5.718  -2.364   1.181  1.00  0.00     0.157 A 
ATOM      5  C   UNL     1      -4.248  -1.527  -0.553  1.00  0.00     0.051 A 
ATOM      6  C   UNL     1      -5.351  -2.300  -0.168  1.00  0.00     0.157 A 
ENDROOT
BRANCH   1   7
ATOM      7  C   UNL     1      -3.048  -0.126   2.742  1.00  0.00     0.010 C 
ATOM      8  C   UNL     1      -1.709  -0.158   2.792  1.00  0.00     0.025 C 
BRANCH   8   9
ATOM      9  C   UNL     1      -0.940   0.631   3.770  1.00  0.00     0.064 C 
ATOM     10  O   UNL     1       0.319   0.644   3.752  1.00  0.00    -0.545 OA
ATOM     11  O   UNL     1      -1.615   1.375   4.728  1.00  0.00    -0.545 OA
ENDBRANCH   8   9
ENDBRANCH   1   7
BRANCH   4  12
ATOM     12  O   UNL     1      -6.823  -3.125   1.559  1.00  0.00    -0.504 OA
ATOM     13  H   UNL     1      -7.753  -2.919   1.212  1.00  0.00     0.293 HD
ENDBRANCH   4  12
BRANCH   6  14
ATOM     14  O   UNL     1      -6.088  -3.002  -1.120  1.00  0.00    -0.504 OA
ATOM     15  H   UNL     1      -5.890  -3.972  -1.334  1.00  0.00     0.293 HD
ENDBRANCH   6  14
TORSDOF 4
ENDMDL
