MODEL 1
REMARK VINA RESULT:    -4.269      0.000      0.000
REMARK INTER + INTRA:          -5.677
REMARK INTER:                  -5.267
REMARK INTRA:                  -0.409
REMARK UNBOUND:                -0.409
REMARK SMILES COC(=O)c1ccccc1C(=O)OC
REMARK SMILES IDX 5 1 6 2 7 3 8 4 9 5 10 6 3 7 4 8 2 9 1 10 11 11 12 12 13 13
REMARK SMILES IDX 14 14
REMARK H PARENT
REMARK Flexibility Score: inf
ROOT
ATOM      1  C   UNL     1       8.959 -29.660  16.007  1.00  0.00     0.074 A 
ATOM      2  C   UNL     1       9.941 -28.687  16.271  1.00  0.00     0.016 A 
ATOM      3  C   UNL     1      10.102 -28.169  17.557  1.00  0.00     0.001 A 
ATOM      4  C   UNL     1       9.289 -28.612  18.597  1.00  0.00     0.001 A 
ATOM      5  C   UNL     1       8.294 -29.560  18.351  1.00  0.00     0.016 A 
ATOM      6  C   UNL     1       8.100 -30.081  17.058  1.00  0.00     0.074 A 
ENDROOT
BRANCH   1   7
ATOM      7  C   UNL     1       8.911 -30.259  14.652  1.00  0.00     0.338 C 
ATOM      8  O   UNL     1       9.420 -31.397  14.451  1.00  0.00    -0.246 OA
BRANCH   7   9
ATOM      9  O   UNL     1       8.262 -29.586  13.612  1.00  0.00    -0.465 OA
ATOM     10  C   UNL     1       6.990 -29.984  13.116  1.00  0.00     0.282 C 
ENDBRANCH   7   9
ENDBRANCH   1   7
BRANCH   6  11
ATOM     11  C   UNL     1       6.957 -30.994  16.835  1.00  0.00     0.338 C 
ATOM     12  O   UNL     1       5.882 -30.547  16.349  1.00  0.00    -0.246 OA
BRANCH  11  13
ATOM     13  O   UNL     1       7.085 -32.359  17.115  1.00  0.00    -0.465 OA
ATOM     14  C   UNL     1       6.968 -33.363  16.115  1.00  0.00     0.282 C 
ENDBRANCH  11  13
ENDBRANCH   6  11
TORSDOF 4
ENDMDL
MODEL 2
REMARK VINA RESULT:    -4.213      0.139      3.389
REMARK INTER + INTRA:          -5.608
REMARK INTER:                  -5.235
REMARK INTRA:                  -0.374
REMARK UNBOUND:                -0.409
REMARK SMILES COC(=O)c1ccccc1C(=O)OC
REMARK SMILES IDX 5 1 6 2 7 3 8 4 9 5 10 6 3 7 4 8 2 9 1 10 11 11 12 12 13 13
REMARK SMILES IDX 14 14
REMARK H PARENT
REMARK Flexibility Score: inf
ROOT
ATOM      1  C   UNL     1       8.043 -30.171  17.035  1.00  0.00     0.074 A 
ATOM      2  C   UNL     1       8.196 -29.705  18.354  1.00  0.00     0.016 A 
ATOM      3  C   UNL     1       9.168 -28.753  18.666  1.00  0.00     0.001 A 
ATOM      4  C   UNL     1      10.000 -28.251  17.667  1.00  0.00     0.001 A 
ATOM      5  C   UNL     1       9.879 -28.716  16.357  1.00  0.00     0.016 A 
ATOM      6  C   UNL     1       8.921 -29.691  16.025  1.00  0.00     0.074 A 
ENDROOT
BRANCH   1   7
ATOM      7  C   UNL     1       6.921 -31.092  16.742  1.00  0.00     0.338 C 
ATOM      8  O   UNL     1       5.875 -30.650  16.189  1.00  0.00    -0.246 OA
BRANCH   7   9
ATOM      9  O   UNL     1       7.039 -32.454  17.033  1.00  0.00    -0.465 OA
ATOM     10  C   UNL     1       6.854 -33.468  16.053  1.00  0.00     0.282 C 
ENDBRANCH   7   9
ENDBRANCH   1   7
BRANCH   6  11
ATOM     11  C   UNL     1       8.917 -30.229  14.646  1.00  0.00     0.338 C 
ATOM     12  O   UNL     1       9.412 -31.367  14.416  1.00  0.00    -0.246 OA
BRANCH  11  13
ATOM     13  O   UNL     1       8.322 -29.500  13.610  1.00  0.00    -0.465 OA
ATOM     14  C   UNL     1       7.087 -29.878  13.015  1.00  0.00     0.282 C 
ENDBRANCH  11  13
ENDBRANCH   6  11
TORSDOF 4
ENDMDL
MODEL 3
REMARK VINA RESULT:    -3.907      1.826      3.509
REMARK INTER + INTRA:          -5.231
REMARK INTER:                  -4.921
REMARK INTRA:                  -0.309
REMARK UNBOUND:                -0.409
REMARK SMILES COC(=O)c1ccccc1C(=O)OC
REMARK SMILES IDX 5 1 6 2 7 3 8 4 9 5 10 6 3 7 4 8 2 9 1 10 11 11 12 12 13 13
REMARK SMILES IDX 14 14
REMARK H PARENT
REMARK Flexibility Score: inf
ROOT
ATOM      1  C   UNL     1       7.141 -30.436  15.430  1.00  0.00     0.074 A 
ATOM      2  C   UNL     1       6.224 -30.354  16.495  1.00  0.00     0.016 A 
ATOM      3  C   UNL     1       6.619 -29.862  17.739  1.00  0.00     0.001 A 
ATOM      4  C   UNL     1       7.933 -29.445  17.941  1.00  0.00     0.001 A 
ATOM      5  C   UNL     1       8.863 -29.539  16.904  1.00  0.00     0.016 A 
ATOM      6  C   UNL     1       8.492 -30.052  15.648  1.00  0.00     0.074 A 
ENDROOT
BRANCH   1   7
ATOM      7  C   UNL     1       6.637 -30.856  14.101  1.00  0.00     0.338 C 
ATOM      8  O   UNL     1       6.463 -32.081  13.855  1.00  0.00    -0.246 OA
BRANCH   7   9
ATOM      9  O   UNL     1       6.309 -29.893  13.141  1.00  0.00    -0.465 OA
ATOM     10  C   UNL     1       7.150 -29.594  12.035  1.00  0.00     0.282 C 
ENDBRANCH   7   9
ENDBRANCH   1   7
BRANCH   6  11
ATOM     11  C   UNL     1       9.547 -30.236  14.626  1.00  0.00     0.338 C 
ATOM     12  O   UNL     1       9.909 -31.400  14.301  1.00  0.00    -0.246 OA
BRANCH  11  13
ATOM     13  O   UNL     1      10.104 -29.124  13.986  1.00  0.00    -0.465 OA
ATOM     14  C   UNL     1      11.465 -28.744  14.151  1.00  0.00     0.282 C 
ENDBRANCH  11  13
ENDBRANCH   6  11
TORSDOF 4
ENDMDL
MODEL 4
REMARK VINA RESULT:    -3.888      2.047      3.853
REMARK INTER + INTRA:          -5.207
REMARK INTER:                  -4.956
REMARK INTRA:                  -0.250
REMARK UNBOUND:                -0.409
REMARK SMILES COC(=O)c1ccccc1C(=O)OC
REMARK SMILES IDX 5 1 6 2 7 3 8 4 9 5 10 6 3 7 4 8 2 9 1 10 11 11 12 12 13 13
REMARK SMILES IDX 14 14
REMARK H PARENT
REMARK Flexibility Score: inf
ROOT
ATOM      1  C   UNL     1       8.103 -31.770  15.958  1.00  0.00     0.074 A 
ATOM      2  C   UNL     1       8.825 -32.208  14.832  1.00  0.00     0.016 A 
ATOM      3  C   UNL     1       9.565 -31.307  14.065  1.00  0.00     0.001 A 
ATOM      4  C   UNL     1       9.596 -29.958  14.409  1.00  0.00     0.001 A 
ATOM      5  C   UNL     1       8.870 -29.499  15.509  1.00  0.00     0.016 A 
ATOM      6  C   UNL     1       8.100 -30.386  16.284  1.00  0.00     0.074 A 
ENDROOT
BRANCH   1   7
ATOM      7  C   UNL     1       7.432 -32.787  16.801  1.00  0.00     0.338 C 
ATOM      8  O   UNL     1       7.957 -33.141  17.893  1.00  0.00    -0.246 OA
BRANCH   7   9
ATOM      9  O   UNL     1       6.198 -33.316  16.411  1.00  0.00    -0.465 OA
ATOM     10  C   UNL     1       5.906 -34.707  16.467  1.00  0.00     0.282 C 
ENDBRANCH   7   9
ENDBRANCH   1   7
BRANCH   6  11
ATOM     11  C   UNL     1       7.260 -29.824  17.365  1.00  0.00     0.338 C 
ATOM     12  O   UNL     1       6.067 -29.491  17.124  1.00  0.00    -0.246 OA
BRANCH  11  13
ATOM     13  O   UNL     1       7.771 -29.711  18.663  1.00  0.00    -0.465 OA
ATOM     14  C   UNL     1       8.904 -28.910  18.974  1.00  0.00     0.282 C 
ENDBRANCH  11  13
ENDBRANCH   6  11
TORSDOF 4
ENDMDL
MODEL 5
REMARK VINA RESULT:    -3.885      2.040      3.668
REMARK INTER + INTRA:          -5.203
REMARK INTER:                  -4.950
REMARK INTRA:                  -0.254
REMARK UNBOUND:                -0.409
REMARK SMILES COC(=O)c1ccccc1C(=O)OC
REMARK SMILES IDX 5 1 6 2 7 3 8 4 9 5 10 6 3 7 4 8 2 9 1 10 11 11 12 12 13 13
REMARK SMILES IDX 14 14
REMARK H PARENT
REMARK Flexibility Score: inf
ROOT
ATOM      1  C   UNL     1       8.128 -30.389  16.267  1.00  0.00     0.074 A 
ATOM      2  C   UNL     1       8.915 -29.510  15.498  1.00  0.00     0.016 A 
ATOM      3  C   UNL     1       9.605 -29.969  14.376  1.00  0.00     0.001 A 
ATOM      4  C   UNL     1       9.521 -31.308  14.002  1.00  0.00     0.001 A 
ATOM      5  C   UNL     1       8.765 -32.200  14.764  1.00  0.00     0.016 A 
ATOM      6  C   UNL     1       8.078 -31.765  15.912  1.00  0.00     0.074 A 
ENDROOT
BRANCH   1   7
ATOM      7  C   UNL     1       7.326 -29.824  17.377  1.00  0.00     0.338 C 
ATOM      8  O   UNL     1       6.135 -29.462  17.169  1.00  0.00    -0.246 OA
BRANCH   7   9
ATOM      9  O   UNL     1       7.871 -29.738  18.662  1.00  0.00    -0.465 OA
ATOM     10  C   UNL     1       8.981 -28.904  18.971  1.00  0.00     0.282 C 
ENDBRANCH   7   9
ENDBRANCH   1   7
BRANCH   6  11
ATOM     11  C   UNL     1       7.389 -32.777  16.743  1.00  0.00     0.338 C 
ATOM     12  O   UNL     1       7.901 -33.145  17.836  1.00  0.00    -0.246 OA
BRANCH  11  13
ATOM     13  O   UNL     1       6.149 -33.287  16.342  1.00  0.00    -0.465 OA
ATOM     14  C   UNL     1       5.982 -34.618  15.871  1.00  0.00     0.282 C 
ENDBRANCH  11  13
ENDBRANCH   6  11
TORSDOF 4
ENDMDL
MODEL 6
REMARK VINA RESULT:    -3.809      1.629      3.724
REMARK INTER + INTRA:          -5.110
REMARK INTER:                  -4.851
REMARK INTRA:                  -0.259
REMARK UNBOUND:                -0.409
REMARK SMILES COC(=O)c1ccccc1C(=O)OC
REMARK SMILES IDX 5 1 6 2 7 3 8 4 9 5 10 6 3 7 4 8 2 9 1 10 11 11 12 12 13 13
REMARK SMILES IDX 14 14
REMARK H PARENT
REMARK Flexibility Score: inf
ROOT
ATOM      1  C   UNL     1       7.937 -31.307  15.192  1.00  0.00     0.074 A 
ATOM      2  C   UNL     1       7.901 -32.528  14.492  1.00  0.00     0.016 A 
ATOM      3  C   UNL     1       7.417 -33.685  15.102  1.00  0.00     0.001 A 
ATOM      4  C   UNL     1       6.961 -33.644  16.418  1.00  0.00     0.001 A 
ATOM      5  C   UNL     1       7.010 -32.449  17.137  1.00  0.00     0.016 A 
ATOM      6  C   UNL     1       7.514 -31.274  16.549  1.00  0.00     0.074 A 
ENDROOT
BRANCH   1   7
ATOM      7  C   UNL     1       8.351 -30.089  14.458  1.00  0.00     0.338 C 
ATOM      8  O   UNL     1       7.539 -29.522  13.675  1.00  0.00    -0.246 OA
BRANCH   7   9
ATOM      9  O   UNL     1       9.621 -29.541  14.669  1.00  0.00    -0.465 OA
ATOM     10  C   UNL     1      10.611 -29.484  13.650  1.00  0.00     0.282 C 
ENDBRANCH   7   9
ENDBRANCH   1   7
BRANCH   6  11
ATOM     11  C   UNL     1       7.648 -30.068  17.396  1.00  0.00     0.338 C 
ATOM     12  O   UNL     1       6.625 -29.389  17.687  1.00  0.00    -0.246 OA
BRANCH  11  13
ATOM     13  O   UNL     1       8.899 -29.710  17.912  1.00  0.00    -0.465 OA
ATOM     14  C   UNL     1       9.069 -28.653  18.848  1.00  0.00     0.282 C 
ENDBRANCH  11  13
ENDBRANCH   6  11
TORSDOF 4
ENDMDL
MODEL 7
REMARK VINA RESULT:    -3.785      1.654      4.642
REMARK INTER + INTRA:          -5.080
REMARK INTER:                  -4.844
REMARK INTRA:                  -0.236
REMARK UNBOUND:                -0.409
REMARK SMILES COC(=O)c1ccccc1C(=O)OC
REMARK SMILES IDX 5 1 6 2 7 3 8 4 9 5 10 6 3 7 4 8 2 9 1 10 11 11 12 12 13 13
REMARK SMILES IDX 14 14
REMARK H PARENT
REMARK Flexibility Score: inf
ROOT
ATOM      1  C   UNL     1       7.540 -31.213  16.520  1.00  0.00     0.074 A 
ATOM      2  C   UNL     1       7.050 -32.373  17.150  1.00  0.00     0.016 A 
ATOM      3  C   UNL     1       7.016 -33.592  16.472  1.00  0.00     0.001 A 
ATOM      4  C   UNL     1       7.470 -33.673  15.158  1.00  0.00     0.001 A 
ATOM      5  C   UNL     1       7.939 -32.531  14.507  1.00  0.00     0.016 A 
ATOM      6  C   UNL     1       7.962 -31.287  15.164  1.00  0.00     0.074 A 
ENDROOT
BRANCH   1   7
ATOM      7  C   UNL     1       7.661 -29.975  17.325  1.00  0.00     0.338 C 
ATOM      8  O   UNL     1       6.621 -29.346  17.667  1.00  0.00    -0.246 OA
BRANCH   7   9
ATOM      9  O   UNL     1       8.919 -29.534  17.745  1.00  0.00    -0.465 OA
ATOM     10  C   UNL     1       9.112 -28.791  18.942  1.00  0.00     0.282 C 
ENDBRANCH   7   9
ENDBRANCH   1   7
BRANCH   6  11
ATOM     11  C   UNL     1       8.359 -30.091  14.388  1.00  0.00     0.338 C 
ATOM     12  O   UNL     1       7.530 -29.544  13.610  1.00  0.00    -0.246 OA
BRANCH  11  13
ATOM     13  O   UNL     1       9.634 -29.539  14.555  1.00  0.00    -0.465 OA
ATOM     14  C   UNL     1      10.588 -29.476  13.502  1.00  0.00     0.282 C 
ENDBRANCH  11  13
ENDBRANCH   6  11
TORSDOF 4
ENDMDL
MODEL 8
REMARK VINA RESULT:    -3.782      1.883      3.088
REMARK INTER + INTRA:          -5.076
REMARK INTER:                  -4.712
REMARK INTRA:                  -0.364
REMARK UNBOUND:                -0.409
REMARK SMILES COC(=O)c1ccccc1C(=O)OC
REMARK SMILES IDX 5 1 6 2 7 3 8 4 9 5 10 6 3 7 4 8 2 9 1 10 11 11 12 12 13 13
REMARK SMILES IDX 14 14
REMARK H PARENT
REMARK Flexibility Score: inf
ROOT
ATOM      1  C   UNL     1       8.543 -30.031  15.586  1.00  0.00     0.074 A 
ATOM      2  C   UNL     1       8.874 -29.545  16.866  1.00  0.00     0.016 A 
ATOM      3  C   UNL     1       7.916 -29.496  17.879  1.00  0.00     0.001 A 
ATOM      4  C   UNL     1       6.615 -29.931  17.633  1.00  0.00     0.001 A 
ATOM      5  C   UNL     1       6.261 -30.396  16.366  1.00  0.00     0.016 A 
ATOM      6  C   UNL     1       7.205 -30.434  15.323  1.00  0.00     0.074 A 
ENDROOT
BRANCH   1   7
ATOM      7  C   UNL     1       9.627 -30.170  14.587  1.00  0.00     0.338 C 
ATOM      8  O   UNL     1      10.248 -29.145  14.189  1.00  0.00    -0.246 OA
BRANCH   7   9
ATOM      9  O   UNL     1       9.995 -31.437  14.123  1.00  0.00    -0.465 OA
ATOM     10  C   UNL     1      10.389 -31.677  12.778  1.00  0.00     0.282 C 
ENDBRANCH   7   9
ENDBRANCH   1   7
BRANCH   6  11
ATOM     11  C   UNL     1       6.744 -30.827  13.973  1.00  0.00     0.338 C 
ATOM     12  O   UNL     1       6.609 -32.048  13.686  1.00  0.00    -0.246 OA
BRANCH  11  13
ATOM     13  O   UNL     1       6.409 -29.844  13.034  1.00  0.00    -0.465 OA
ATOM     14  C   UNL     1       7.282 -29.459  11.980  1.00  0.00     0.282 C 
ENDBRANCH  11  13
ENDBRANCH   6  11
TORSDOF 4
ENDMDL
MODEL 9
REMARK VINA RESULT:    -3.659      1.831      3.271
REMARK INTER + INTRA:          -4.924
REMARK INTER:                  -4.645
REMARK INTRA:                  -0.278
REMARK UNBOUND:                -0.409
REMARK SMILES COC(=O)c1ccccc1C(=O)OC
REMARK SMILES IDX 5 1 6 2 7 3 8 4 9 5 10 6 3 7 4 8 2 9 1 10 11 11 12 12 13 13
REMARK SMILES IDX 14 14
REMARK H PARENT
REMARK Flexibility Score: inf
ROOT
ATOM      1  C   UNL     1       8.733 -31.119  14.322  1.00  0.00     0.074 A 
ATOM      2  C   UNL     1       9.569 -31.172  13.191  1.00  0.00     0.016 A 
ATOM      3  C   UNL     1      10.572 -30.220  13.002  1.00  0.00     0.001 A 
ATOM      4  C   UNL     1      10.758 -29.204  13.936  1.00  0.00     0.001 A 
ATOM      5  C   UNL     1       9.925 -29.121  15.053  1.00  0.00     0.016 A 
ATOM      6  C   UNL     1       8.893 -30.056  15.253  1.00  0.00     0.074 A 
ENDROOT
BRANCH   1   7
ATOM      7  C   UNL     1       7.764 -32.220  14.530  1.00  0.00     0.338 C 
ATOM      8  O   UNL     1       8.119 -33.258  15.154  1.00  0.00    -0.246 OA
BRANCH   7   9
ATOM      9  O   UNL     1       6.446 -32.088  14.080  1.00  0.00    -0.465 OA
ATOM     10  C   UNL     1       6.052 -31.098  13.138  1.00  0.00     0.282 C 
ENDBRANCH   7   9
ENDBRANCH   1   7
BRANCH   6  11
ATOM     11  C   UNL     1       7.970 -29.850  16.392  1.00  0.00     0.338 C 
ATOM     12  O   UNL     1       6.788 -29.465  16.179  1.00  0.00    -0.246 OA
BRANCH  11  13
ATOM     13  O   UNL     1       8.393 -30.129  17.696  1.00  0.00    -0.465 OA
ATOM     14  C   UNL     1       8.849 -29.120  18.589  1.00  0.00     0.282 C 
ENDBRANCH  11  13
ENDBRANCH   6  11
TORSDOF 4
ENDMDL
