MODEL 1
REMARK VINA RESULT:    -5.398      0.000      0.000
REMARK INTER + INTRA:          -5.936
REMARK INTER:                  -5.871
REMARK INTRA:                  -0.065
REMARK UNBOUND:                -0.065
REMARK SMILES COc1cc2ccc(=O)oc2cc1O
REMARK SMILES IDX 3 1 13 2 12 3 11 4 5 5 4 6 6 7 7 8 8 9 9 10 10 11 2 12 1 13
REMARK SMILES IDX 14 14
REMARK H PARENT 14 15
REMARK Flexibility Score: inf
ROOT
ATOM      1  C   UNL     1       7.211  52.508  20.988  1.00  0.00     0.161 A 
ATOM      2  C   UNL     1       8.427  52.864  20.384  1.00  0.00     0.161 A 
ATOM      3  C   UNL     1       9.617  52.842  21.124  1.00  0.00     0.098 A 
ATOM      4  C   UNL     1       9.605  52.466  22.470  1.00  0.00     0.142 A 
ATOM      5  C   UNL     1       8.387  52.107  23.084  1.00  0.00     0.022 A 
ATOM      6  C   UNL     1       7.195  52.128  22.346  1.00  0.00     0.062 A 
ATOM      7  C   UNL     1       8.405  51.735  24.433  1.00  0.00     0.019 A 
ATOM      8  C   UNL     1       9.617  51.729  25.125  1.00  0.00     0.094 A 
ATOM      9  C   UNL     1      10.784  52.098  24.449  1.00  0.00     0.336 A 
ATOM     10  O   UNL     1      11.887  52.100  25.056  1.00  0.00    -0.246 OA
ATOM     11  O   UNL     1      10.738  52.448  23.166  1.00  0.00    -0.423 OA
ENDROOT
BRANCH   1  12
ATOM     12  O   UNL     1       6.043  52.544  20.210  1.00  0.00    -0.493 OA
ATOM     13  C   UNL     1       5.035  53.544  20.313  1.00  0.00     0.278 C 
ENDBRANCH   1  12
BRANCH   2  14
ATOM     14  O   UNL     1       8.443  53.239  19.042  1.00  0.00    -0.504 OA
ATOM     15  H   UNL     1       8.205  52.585  18.305  1.00  0.00     0.293 HD
ENDBRANCH   2  14
TORSDOF 2
ENDMDL
MODEL 2
REMARK VINA RESULT:    -5.223      2.301      3.695
REMARK INTER + INTRA:          -5.746
REMARK INTER:                  -5.686
REMARK INTRA:                  -0.059
REMARK UNBOUND:                -0.065
REMARK SMILES COc1cc2ccc(=O)oc2cc1O
REMARK SMILES IDX 3 1 13 2 12 3 11 4 5 5 4 6 6 7 7 8 8 9 9 10 10 11 2 12 1 13
REMARK SMILES IDX 14 14
REMARK H PARENT 14 15
REMARK Flexibility Score: inf
ROOT
ATOM      1  C   UNL     1      10.734  52.519  21.060  1.00  0.00     0.161 A 
ATOM      2  C   UNL     1       9.597  53.272  20.726  1.00  0.00     0.161 A 
ATOM      3  C   UNL     1       8.439  53.192  21.512  1.00  0.00     0.098 A 
ATOM      4  C   UNL     1       8.406  52.362  22.636  1.00  0.00     0.142 A 
ATOM      5  C   UNL     1       9.544  51.602  22.978  1.00  0.00     0.022 A 
ATOM      6  C   UNL     1      10.703  51.681  22.193  1.00  0.00     0.062 A 
ATOM      7  C   UNL     1       9.481  50.781  24.109  1.00  0.00     0.019 A 
ATOM      8  C   UNL     1       8.305  50.736  24.858  1.00  0.00     0.094 A 
ATOM      9  C   UNL     1       7.217  51.518  24.457  1.00  0.00     0.336 A 
ATOM     10  O   UNL     1       6.146  51.492  25.119  1.00  0.00    -0.246 OA
ATOM     11  O   UNL     1       7.304  52.290  23.377  1.00  0.00    -0.423 OA
ENDROOT
BRANCH   1  12
ATOM     12  O   UNL     1      11.872  52.629  20.245  1.00  0.00    -0.493 OA
ATOM     13  C   UNL     1      12.485  51.540  19.563  1.00  0.00     0.278 C 
ENDBRANCH   1  12
BRANCH   2  14
ATOM     14  O   UNL     1       9.628  54.101  19.605  1.00  0.00    -0.504 OA
ATOM     15  H   UNL     1       8.779  54.484  19.206  1.00  0.00     0.293 HD
ENDBRANCH   2  14
TORSDOF 2
ENDMDL
MODEL 3
REMARK VINA RESULT:    -5.032      2.455      5.606
REMARK INTER + INTRA:          -5.538
REMARK INTER:                  -5.473
REMARK INTRA:                  -0.065
REMARK UNBOUND:                -0.065
REMARK SMILES COc1cc2ccc(=O)oc2cc1O
REMARK SMILES IDX 3 1 13 2 12 3 11 4 5 5 4 6 6 7 7 8 8 9 9 10 10 11 2 12 1 13
REMARK SMILES IDX 14 14
REMARK H PARENT 14 15
REMARK Flexibility Score: inf
ROOT
ATOM      1  C   UNL     1      13.359  51.414  24.015  1.00  0.00     0.161 A 
ATOM      2  C   UNL     1      13.185  51.487  22.624  1.00  0.00     0.161 A 
ATOM      3  C   UNL     1      11.903  51.639  22.079  1.00  0.00     0.098 A 
ATOM      4  C   UNL     1      10.786  51.719  22.914  1.00  0.00     0.142 A 
ATOM      5  C   UNL     1      10.952  51.647  24.313  1.00  0.00     0.022 A 
ATOM      6  C   UNL     1      12.234  51.494  24.861  1.00  0.00     0.062 A 
ATOM      7  C   UNL     1       9.816  51.731  25.124  1.00  0.00     0.019 A 
ATOM      8  C   UNL     1       8.561  51.882  24.532  1.00  0.00     0.094 A 
ATOM      9  C   UNL     1       8.474  51.946  23.138  1.00  0.00     0.336 A 
ATOM     10  O   UNL     1       7.352  52.081  22.584  1.00  0.00    -0.246 OA
ATOM     11  O   UNL     1       9.572  51.863  22.390  1.00  0.00    -0.423 OA
ENDROOT
BRANCH   1  12
ATOM     12  O   UNL     1      14.661  51.261  24.519  1.00  0.00    -0.493 OA
ATOM     13  C   UNL     1      15.445  52.318  25.062  1.00  0.00     0.278 C 
ENDBRANCH   1  12
BRANCH   2  14
ATOM     14  O   UNL     1      14.298  51.407  21.788  1.00  0.00    -0.504 OA
ATOM     15  H   UNL     1      14.605  50.523  21.398  1.00  0.00     0.293 HD
ENDBRANCH   2  14
TORSDOF 2
ENDMDL
MODEL 4
REMARK VINA RESULT:    -4.902      2.422      6.423
REMARK INTER + INTRA:          -5.397
REMARK INTER:                  -5.332
REMARK INTRA:                  -0.065
REMARK UNBOUND:                -0.065
REMARK SMILES COc1cc2ccc(=O)oc2cc1O
REMARK SMILES IDX 3 1 13 2 12 3 11 4 5 5 4 6 6 7 7 8 8 9 9 10 10 11 2 12 1 13
REMARK SMILES IDX 14 14
REMARK H PARENT 14 15
REMARK Flexibility Score: inf
ROOT
ATOM      1  C   UNL     1       7.087  52.936  20.914  1.00  0.00     0.161 A 
ATOM      2  C   UNL     1       7.505  52.408  19.682  1.00  0.00     0.161 A 
ATOM      3  C   UNL     1       6.732  52.603  18.529  1.00  0.00     0.098 A 
ATOM      4  C   UNL     1       5.537  53.324  18.595  1.00  0.00     0.142 A 
ATOM      5  C   UNL     1       5.109  53.858  19.829  1.00  0.00     0.022 A 
ATOM      6  C   UNL     1       5.881  53.664  20.983  1.00  0.00     0.062 A 
ATOM      7  C   UNL     1       3.909  54.575  19.864  1.00  0.00     0.019 A 
ATOM      8  C   UNL     1       3.176  54.741  18.689  1.00  0.00     0.094 A 
ATOM      9  C   UNL     1       3.663  54.183  17.502  1.00  0.00     0.336 A 
ATOM     10  O   UNL     1       3.016  54.321  16.431  1.00  0.00    -0.246 OA
ATOM     11  O   UNL     1       4.808  53.505  17.498  1.00  0.00    -0.423 OA
ENDROOT
BRANCH   1  12
ATOM     12  O   UNL     1       7.892  52.717  22.043  1.00  0.00    -0.493 OA
ATOM     13  C   UNL     1       7.644  51.721  23.030  1.00  0.00     0.278 C 
ENDBRANCH   1  12
BRANCH   2  14
ATOM     14  O   UNL     1       8.697  51.689  19.614  1.00  0.00    -0.504 OA
ATOM     15  H   UNL     1       9.101  51.252  20.434  1.00  0.00     0.293 HD
ENDBRANCH   2  14
TORSDOF 2
ENDMDL
MODEL 5
REMARK VINA RESULT:    -4.813      2.005      3.642
REMARK INTER + INTRA:          -5.300
REMARK INTER:                  -5.255
REMARK INTRA:                  -0.045
REMARK UNBOUND:                -0.065
REMARK SMILES COc1cc2ccc(=O)oc2cc1O
REMARK SMILES IDX 3 1 13 2 12 3 11 4 5 5 4 6 6 7 7 8 8 9 9 10 10 11 2 12 1 13
REMARK SMILES IDX 14 14
REMARK H PARENT 14 15
REMARK Flexibility Score: inf
ROOT
ATOM      1  C   UNL     1       5.707  52.702  18.616  1.00  0.00     0.161 A 
ATOM      2  C   UNL     1       5.080  52.892  19.857  1.00  0.00     0.161 A 
ATOM      3  C   UNL     1       5.839  52.943  21.034  1.00  0.00     0.098 A 
ATOM      4  C   UNL     1       7.229  52.806  20.982  1.00  0.00     0.142 A 
ATOM      5  C   UNL     1       7.868  52.614  19.740  1.00  0.00     0.022 A 
ATOM      6  C   UNL     1       7.109  52.563  18.561  1.00  0.00     0.062 A 
ATOM      7  C   UNL     1       9.260  52.480  19.720  1.00  0.00     0.019 A 
ATOM      8  C   UNL     1       9.971  52.539  20.919  1.00  0.00     0.094 A 
ATOM      9  C   UNL     1       9.269  52.731  22.113  1.00  0.00     0.336 A 
ATOM     10  O   UNL     1       9.891  52.786  23.206  1.00  0.00    -0.246 OA
ATOM     11  O   UNL     1       7.944  52.856  22.103  1.00  0.00    -0.423 OA
ENDROOT
BRANCH   1  12
ATOM     12  O   UNL     1       4.908  52.656  17.462  1.00  0.00    -0.493 OA
ATOM     13  C   UNL     1       5.413  52.609  16.132  1.00  0.00     0.278 C 
ENDBRANCH   1  12
BRANCH   2  14
ATOM     14  O   UNL     1       3.693  53.029  19.910  1.00  0.00    -0.504 OA
ATOM     15  H   UNL     1       3.257  53.889  20.224  1.00  0.00     0.293 HD
ENDBRANCH   2  14
TORSDOF 2
ENDMDL
MODEL 6
REMARK VINA RESULT:    -4.807      1.908      3.313
REMARK INTER + INTRA:          -5.293
REMARK INTER:                  -5.247
REMARK INTRA:                  -0.046
REMARK UNBOUND:                -0.065
REMARK SMILES COc1cc2ccc(=O)oc2cc1O
REMARK SMILES IDX 3 1 13 2 12 3 11 4 5 5 4 6 6 7 7 8 8 9 9 10 10 11 2 12 1 13
REMARK SMILES IDX 14 14
REMARK H PARENT 14 15
REMARK Flexibility Score: inf
ROOT
ATOM      1  C   UNL     1       8.213  52.180  23.009  1.00  0.00     0.161 A 
ATOM      2  C   UNL     1       8.184  51.920  24.388  1.00  0.00     0.161 A 
ATOM      3  C   UNL     1       9.366  51.606  25.074  1.00  0.00     0.098 A 
ATOM      4  C   UNL     1      10.583  51.549  24.392  1.00  0.00     0.142 A 
ATOM      5  C   UNL     1      10.622  51.808  23.006  1.00  0.00     0.022 A 
ATOM      6  C   UNL     1       9.441  52.123  22.318  1.00  0.00     0.062 A 
ATOM      7  C   UNL     1      11.855  51.744  22.350  1.00  0.00     0.019 A 
ATOM      8  C   UNL     1      13.002  51.427  23.078  1.00  0.00     0.094 A 
ATOM      9  C   UNL     1      12.887  51.181  24.450  1.00  0.00     0.336 A 
ATOM     10  O   UNL     1      13.910  50.893  25.125  1.00  0.00    -0.246 OA
ATOM     11  O   UNL     1      11.701  51.250  25.049  1.00  0.00    -0.423 OA
ENDROOT
BRANCH   1  12
ATOM     12  O   UNL     1       7.007  52.490  22.362  1.00  0.00    -0.493 OA
ATOM     13  C   UNL     1       6.913  53.116  21.086  1.00  0.00     0.278 C 
ENDBRANCH   1  12
BRANCH   2  14
ATOM     14  O   UNL     1       6.970  51.976  25.072  1.00  0.00    -0.504 OA
ATOM     15  H   UNL     1       6.460  52.846  25.175  1.00  0.00     0.293 HD
ENDBRANCH   2  14
TORSDOF 2
ENDMDL
MODEL 7
REMARK VINA RESULT:    -4.802      2.833      5.249
REMARK INTER + INTRA:          -5.288
REMARK INTER:                  -5.223
REMARK INTRA:                  -0.065
REMARK UNBOUND:                -0.065
REMARK SMILES COc1cc2ccc(=O)oc2cc1O
REMARK SMILES IDX 3 1 13 2 12 3 11 4 5 5 4 6 6 7 7 8 8 9 9 10 10 11 2 12 1 13
REMARK SMILES IDX 14 14
REMARK H PARENT 14 15
REMARK Flexibility Score: inf
ROOT
ATOM      1  C   UNL     1      12.138  51.135  22.928  1.00  0.00     0.161 A 
ATOM      2  C   UNL     1      12.045  50.633  24.236  1.00  0.00     0.161 A 
ATOM      3  C   UNL     1      10.826  50.677  24.926  1.00  0.00     0.098 A 
ATOM      4  C   UNL     1       9.691  51.221  24.319  1.00  0.00     0.142 A 
ATOM      5  C   UNL     1       9.775  51.728  23.006  1.00  0.00     0.022 A 
ATOM      6  C   UNL     1      10.995  51.685  22.314  1.00  0.00     0.062 A 
ATOM      7  C   UNL     1       8.623  52.266  22.423  1.00  0.00     0.019 A 
ATOM      8  C   UNL     1       7.434  52.287  23.152  1.00  0.00     0.094 A 
ATOM      9  C   UNL     1       7.426  51.766  24.450  1.00  0.00     0.336 A 
ATOM     10  O   UNL     1       6.363  51.776  25.125  1.00  0.00    -0.246 OA
ATOM     11  O   UNL     1       8.537  51.260  24.979  1.00  0.00    -0.423 OA
ENDROOT
BRANCH   1  12
ATOM     12  O   UNL     1      13.378  51.071  22.274  1.00  0.00    -0.493 OA
ATOM     13  C   UNL     1      14.236  52.187  22.058  1.00  0.00     0.278 C 
ENDBRANCH   1  12
BRANCH   2  14
ATOM     14  O   UNL     1      13.176  50.090  24.844  1.00  0.00    -0.504 OA
ATOM     15  H   UNL     1      14.111  50.360  24.562  1.00  0.00     0.293 HD
ENDBRANCH   2  14
TORSDOF 2
ENDMDL
MODEL 8
REMARK VINA RESULT:    -4.740      1.820      2.421
REMARK INTER + INTRA:          -5.221
REMARK INTER:                  -5.155
REMARK INTRA:                  -0.065
REMARK UNBOUND:                -0.065
REMARK SMILES COc1cc2ccc(=O)oc2cc1O
REMARK SMILES IDX 3 1 13 2 12 3 11 4 5 5 4 6 6 7 7 8 8 9 9 10 10 11 2 12 1 13
REMARK SMILES IDX 14 14
REMARK H PARENT 14 15
REMARK Flexibility Score: inf
ROOT
ATOM      1  C   UNL     1       9.626  52.503  20.819  1.00  0.00     0.161 A 
ATOM      2  C   UNL     1      10.764  51.960  20.202  1.00  0.00     0.161 A 
ATOM      3  C   UNL     1      11.786  51.394  20.977  1.00  0.00     0.098 A 
ATOM      4  C   UNL     1      11.682  51.366  22.370  1.00  0.00     0.142 A 
ATOM      5  C   UNL     1      10.543  51.910  22.998  1.00  0.00     0.022 A 
ATOM      6  C   UNL     1       9.519  52.476  22.225  1.00  0.00     0.062 A 
ATOM      7  C   UNL     1      10.466  51.867  24.394  1.00  0.00     0.019 A 
ATOM      8  C   UNL     1      11.511  51.293  25.119  1.00  0.00     0.094 A 
ATOM      9  C   UNL     1      12.610  50.774  24.428  1.00  0.00     0.336 A 
ATOM     10  O   UNL     1      13.563  50.252  25.063  1.00  0.00    -0.246 OA
ATOM     11  O   UNL     1      12.656  50.828  23.099  1.00  0.00    -0.423 OA
ENDROOT
BRANCH   1  12
ATOM     12  O   UNL     1       8.626  53.060  20.006  1.00  0.00    -0.493 OA
ATOM     13  C   UNL     1       7.383  52.431  19.709  1.00  0.00     0.278 C 
ENDBRANCH   1  12
BRANCH   2  14
ATOM     14  O   UNL     1      10.870  51.986  18.813  1.00  0.00    -0.504 OA
ATOM     15  H   UNL     1      11.700  52.338  18.351  1.00  0.00     0.293 HD
ENDBRANCH   2  14
TORSDOF 2
ENDMDL
