MODEL 1
REMARK VINA RESULT:    -5.594      0.000      0.000
REMARK INTER + INTRA:          -6.492
REMARK INTER:                  -6.412
REMARK INTRA:                  -0.081
REMARK UNBOUND:                -0.081
REMARK SMILES COc1cc(C(=O)[O-])ccc1O
REMARK SMILES IDX 5 1 9 2 4 3 10 4 3 5 11 6 6 7 7 8 8 9 2 10 1 11 12 12
REMARK H PARENT 12 13
REMARK Flexibility Score: inf
ROOT
ATOM      1  C   UNL     1       5.534 -62.782 188.519  1.00  0.00     0.001 A 
ATOM      2  C   UNL     1       6.668 -63.509 188.125  1.00  0.00     0.014 A 
ATOM      3  C   UNL     1       5.639 -61.881 189.595  1.00  0.00     0.060 A 
ATOM      4  C   UNL     1       7.883 -63.340 188.791  1.00  0.00     0.051 A 
ATOM      5  C   UNL     1       6.864 -61.707 190.270  1.00  0.00     0.161 A 
ATOM      6  C   UNL     1       7.985 -62.442 189.861  1.00  0.00     0.157 A 
ENDROOT
BRANCH   1   7
ATOM      7  C   UNL     1       4.248 -62.965 187.810  1.00  0.00     0.072 C 
ATOM      8  O   UNL     1       3.373 -62.058 187.823  1.00  0.00    -0.545 OA
ATOM      9  O   UNL     1       3.986 -64.143 187.119  1.00  0.00    -0.545 OA
ENDBRANCH   1   7
BRANCH   5  10
ATOM     10  O   UNL     1       7.006 -60.817 191.347  1.00  0.00    -0.493 OA
ATOM     11  C   UNL     1       5.969 -59.975 191.840  1.00  0.00     0.278 C 
ENDBRANCH   5  10
BRANCH   6  12
ATOM     12  O   UNL     1       9.199 -62.274 190.524  1.00  0.00    -0.504 OA
ATOM     13  H   UNL     1       9.357 -61.497 191.154  1.00  0.00     0.293 HD
ENDBRANCH   6  12
TORSDOF 3
ENDMDL
MODEL 2
REMARK VINA RESULT:    -5.276      1.627      3.275
REMARK INTER + INTRA:          -6.128
REMARK INTER:                  -6.047
REMARK INTRA:                  -0.081
REMARK UNBOUND:                -0.081
REMARK SMILES COc1cc(C(=O)[O-])ccc1O
REMARK SMILES IDX 5 1 9 2 4 3 10 4 3 5 11 6 6 7 7 8 8 9 2 10 1 11 12 12
REMARK H PARENT 12 13
REMARK Flexibility Score: inf
ROOT
ATOM      1  C   UNL     1       5.304 -61.643 189.502  1.00  0.00     0.001 A 
ATOM      2  C   UNL     1       6.030 -61.234 190.632  1.00  0.00     0.014 A 
ATOM      3  C   UNL     1       5.898 -62.540 188.595  1.00  0.00     0.060 A 
ATOM      4  C   UNL     1       7.324 -61.711 190.851  1.00  0.00     0.051 A 
ATOM      5  C   UNL     1       7.204 -63.025 188.814  1.00  0.00     0.161 A 
ATOM      6  C   UNL     1       7.912 -62.605 189.948  1.00  0.00     0.157 A 
ENDROOT
BRANCH   1   7
ATOM      7  C   UNL     1       3.933 -61.134 189.273  1.00  0.00     0.072 C 
ATOM      8  O   UNL     1       3.008 -61.916 188.929  1.00  0.00    -0.545 OA
ATOM      9  O   UNL     1       3.648 -59.783 189.436  1.00  0.00    -0.545 OA
ENDBRANCH   1   7
BRANCH   5  10
ATOM     10  O   UNL     1       7.827 -63.921 187.931  1.00  0.00    -0.493 OA
ATOM     11  C   UNL     1       7.138 -64.869 187.123  1.00  0.00     0.278 C 
ENDBRANCH   5  10
BRANCH   6  12
ATOM     12  O   UNL     1       9.203 -63.080 190.169  1.00  0.00    -0.504 OA
ATOM     13  H   UNL     1       9.592 -63.146 191.103  1.00  0.00     0.293 HD
ENDBRANCH   6  12
TORSDOF 3
ENDMDL
MODEL 3
REMARK VINA RESULT:    -5.269      1.628      3.978
REMARK INTER + INTRA:          -6.120
REMARK INTER:                  -6.042
REMARK INTRA:                  -0.077
REMARK UNBOUND:                -0.081
REMARK SMILES COc1cc(C(=O)[O-])ccc1O
REMARK SMILES IDX 5 1 9 2 4 3 10 4 3 5 11 6 6 7 7 8 8 9 2 10 1 11 12 12
REMARK H PARENT 12 13
REMARK Flexibility Score: inf
ROOT
ATOM      1  C   UNL     1       6.105 -61.599 189.617  1.00  0.00     0.001 A 
ATOM      2  C   UNL     1       7.465 -61.946 189.610  1.00  0.00     0.014 A 
ATOM      3  C   UNL     1       5.199 -62.371 188.867  1.00  0.00     0.060 A 
ATOM      4  C   UNL     1       7.912 -63.042 188.869  1.00  0.00     0.051 A 
ATOM      5  C   UNL     1       5.646 -63.479 188.118  1.00  0.00     0.161 A 
ATOM      6  C   UNL     1       7.008 -63.808 188.124  1.00  0.00     0.157 A 
ENDROOT
BRANCH   1   7
ATOM      7  C   UNL     1       5.637 -60.437 190.405  1.00  0.00     0.072 C 
ATOM      8  O   UNL     1       4.900 -59.561 189.878  1.00  0.00    -0.545 OA
ATOM      9  O   UNL     1       6.003 -60.296 191.739  1.00  0.00    -0.545 OA
ENDBRANCH   1   7
BRANCH   5  10
ATOM     10  O   UNL     1       4.770 -64.271 187.358  1.00  0.00    -0.493 OA
ATOM     11  C   UNL     1       3.406 -63.953 187.107  1.00  0.00     0.278 C 
ENDBRANCH   5  10
BRANCH   6  12
ATOM     12  O   UNL     1       7.456 -64.901 187.385  1.00  0.00    -0.504 OA
ATOM     13  H   UNL     1       8.388 -64.928 186.988  1.00  0.00     0.293 HD
ENDBRANCH   6  12
TORSDOF 3
ENDMDL
MODEL 4
REMARK VINA RESULT:    -4.799      1.522      4.941
REMARK INTER + INTRA:          -5.581
REMARK INTER:                  -5.499
REMARK INTRA:                  -0.082
REMARK UNBOUND:                -0.081
REMARK SMILES COc1cc(C(=O)[O-])ccc1O
REMARK SMILES IDX 5 1 9 2 4 3 10 4 3 5 11 6 6 7 7 8 8 9 2 10 1 11 12 12
REMARK H PARENT 12 13
REMARK Flexibility Score: inf
ROOT
ATOM      1  C   UNL     1       6.109 -62.567 188.873  1.00  0.00     0.001 A 
ATOM      2  C   UNL     1       5.644 -61.453 189.590  1.00  0.00     0.014 A 
ATOM      3  C   UNL     1       5.208 -63.284 188.063  1.00  0.00     0.060 A 
ATOM      4  C   UNL     1       4.306 -61.063 189.501  1.00  0.00     0.051 A 
ATOM      5  C   UNL     1       3.856 -62.892 187.971  1.00  0.00     0.161 A 
ATOM      6  C   UNL     1       3.412 -61.777 188.694  1.00  0.00     0.157 A 
ENDROOT
BRANCH   1   7
ATOM      7  C   UNL     1       7.527 -62.977 188.970  1.00  0.00     0.072 C 
ATOM      8  O   UNL     1       8.006 -63.825 188.170  1.00  0.00    -0.545 OA
ATOM      9  O   UNL     1       8.353 -62.432 189.947  1.00  0.00    -0.545 OA
ENDBRANCH   1   7
BRANCH   5  10
ATOM     10  O   UNL     1       2.929 -63.583 187.173  1.00  0.00    -0.493 OA
ATOM     11  C   UNL     1       3.258 -64.663 186.306  1.00  0.00     0.278 C 
ENDBRANCH   5  10
BRANCH   6  12
ATOM     12  O   UNL     1       2.078 -61.385 188.608  1.00  0.00    -0.504 OA
ATOM     13  H   UNL     1       1.409 -61.898 188.045  1.00  0.00     0.293 HD
ENDBRANCH   6  12
TORSDOF 3
ENDMDL
MODEL 5
REMARK VINA RESULT:    -4.744      1.477      2.841
REMARK INTER + INTRA:          -5.518
REMARK INTER:                  -5.424
REMARK INTRA:                  -0.094
REMARK UNBOUND:                -0.081
REMARK SMILES COc1cc(C(=O)[O-])ccc1O
REMARK SMILES IDX 5 1 9 2 4 3 10 4 3 5 11 6 6 7 7 8 8 9 2 10 1 11 12 12
REMARK H PARENT 12 13
REMARK Flexibility Score: inf
ROOT
ATOM      1  C   UNL     1       4.506 -62.942 188.220  1.00  0.00     0.001 A 
ATOM      2  C   UNL     1       3.607 -62.006 188.755  1.00  0.00     0.014 A 
ATOM      3  C   UNL     1       5.881 -62.798 188.485  1.00  0.00     0.060 A 
ATOM      4  C   UNL     1       4.071 -60.947 189.539  1.00  0.00     0.051 A 
ATOM      5  C   UNL     1       6.353 -61.731 189.276  1.00  0.00     0.161 A 
ATOM      6  C   UNL     1       5.440 -60.808 189.801  1.00  0.00     0.157 A 
ENDROOT
BRANCH   1   7
ATOM      7  C   UNL     1       4.010 -64.062 187.390  1.00  0.00     0.072 C 
ATOM      8  O   UNL     1       4.242 -65.256 187.718  1.00  0.00    -0.545 OA
ATOM      9  O   UNL     1       3.279 -63.811 186.234  1.00  0.00    -0.545 OA
ENDBRANCH   1   7
BRANCH   5  10
ATOM     10  O   UNL     1       7.717 -61.557 189.561  1.00  0.00    -0.493 OA
ATOM     11  C   UNL     1       8.506 -62.468 190.319  1.00  0.00     0.278 C 
ENDBRANCH   5  10
BRANCH   6  12
ATOM     12  O   UNL     1       5.900 -59.751 190.584  1.00  0.00    -0.504 OA
ATOM     13  H   UNL     1       6.121 -59.873 191.564  1.00  0.00     0.293 HD
ENDBRANCH   6  12
TORSDOF 3
ENDMDL
MODEL 6
REMARK VINA RESULT:    -4.737      1.958      4.026
REMARK INTER + INTRA:          -5.510
REMARK INTER:                  -5.408
REMARK INTRA:                  -0.103
REMARK UNBOUND:                -0.081
REMARK SMILES COc1cc(C(=O)[O-])ccc1O
REMARK SMILES IDX 5 1 9 2 4 3 10 4 3 5 11 6 6 7 7 8 8 9 2 10 1 11 12 12
REMARK H PARENT 12 13
REMARK Flexibility Score: inf
ROOT
ATOM      1  C   UNL     1       5.937 -63.003 188.492  1.00  0.00     0.001 A 
ATOM      2  C   UNL     1       4.962 -63.762 187.827  1.00  0.00     0.014 A 
ATOM      3  C   UNL     1       5.543 -61.853 189.202  1.00  0.00     0.060 A 
ATOM      4  C   UNL     1       3.619 -63.381 187.869  1.00  0.00     0.051 A 
ATOM      5  C   UNL     1       4.188 -61.466 189.247  1.00  0.00     0.161 A 
ATOM      6  C   UNL     1       3.229 -62.237 188.576  1.00  0.00     0.157 A 
ENDROOT
BRANCH   1   7
ATOM      7  C   UNL     1       7.359 -63.410 188.445  1.00  0.00     0.072 C 
ATOM      8  O   UNL     1       7.790 -64.127 187.502  1.00  0.00    -0.545 OA
ATOM      9  O   UNL     1       8.241 -63.007 189.441  1.00  0.00    -0.545 OA
ENDBRANCH   1   7
BRANCH   5  10
ATOM     10  O   UNL     1       3.758 -60.325 189.945  1.00  0.00    -0.493 OA
ATOM     11  C   UNL     1       3.953 -58.987 189.501  1.00  0.00     0.278 C 
ENDBRANCH   5  10
BRANCH   6  12
ATOM     12  O   UNL     1       1.889 -61.859 188.617  1.00  0.00    -0.504 OA
ATOM     13  H   UNL     1       1.160 -62.514 188.872  1.00  0.00     0.293 HD
ENDBRANCH   6  12
TORSDOF 3
ENDMDL
MODEL 7
REMARK VINA RESULT:    -4.697      1.950      2.879
REMARK INTER + INTRA:          -5.464
REMARK INTER:                  -5.372
REMARK INTRA:                  -0.091
REMARK UNBOUND:                -0.081
REMARK SMILES COc1cc(C(=O)[O-])ccc1O
REMARK SMILES IDX 5 1 9 2 4 3 10 4 3 5 11 6 6 7 7 8 8 9 2 10 1 11 12 12
REMARK H PARENT 12 13
REMARK Flexibility Score: inf
ROOT
ATOM      1  C   UNL     1       6.586 -62.736 189.097  1.00  0.00     0.001 A 
ATOM      2  C   UNL     1       7.582 -62.538 190.066  1.00  0.00     0.014 A 
ATOM      3  C   UNL     1       5.432 -61.932 189.128  1.00  0.00     0.060 A 
ATOM      4  C   UNL     1       7.429 -61.556 191.047  1.00  0.00     0.051 A 
ATOM      5  C   UNL     1       5.274 -60.939 190.116  1.00  0.00     0.161 A 
ATOM      6  C   UNL     1       6.280 -60.756 191.075  1.00  0.00     0.157 A 
ENDROOT
BRANCH   1   7
ATOM      7  C   UNL     1       6.753 -63.778 188.060  1.00  0.00     0.072 C 
ATOM      8  O   UNL     1       7.876 -63.976 187.524  1.00  0.00    -0.545 OA
ATOM      9  O   UNL     1       5.671 -64.555 187.662  1.00  0.00    -0.545 OA
ENDBRANCH   1   7
BRANCH   5  10
ATOM     10  O   UNL     1       4.136 -60.118 190.178  1.00  0.00    -0.493 OA
ATOM     11  C   UNL     1       3.969 -58.914 189.436  1.00  0.00     0.278 C 
ENDBRANCH   5  10
BRANCH   6  12
ATOM     12  O   UNL     1       6.129 -59.777 192.055  1.00  0.00    -0.504 OA
ATOM     13  H   UNL     1       5.561 -59.933 192.878  1.00  0.00     0.293 HD
ENDBRANCH   6  12
TORSDOF 3
ENDMDL
MODEL 8
REMARK VINA RESULT:    -4.442      1.787      2.329
REMARK INTER + INTRA:          -5.171
REMARK INTER:                  -5.127
REMARK INTRA:                  -0.045
REMARK UNBOUND:                -0.081
REMARK SMILES COc1cc(C(=O)[O-])ccc1O
REMARK SMILES IDX 5 1 9 2 4 3 10 4 3 5 11 6 6 7 7 8 8 9 2 10 1 11 12 12
REMARK H PARENT 12 13
REMARK Flexibility Score: inf
ROOT
ATOM      1  C   UNL     1       4.339 -62.627 188.502  1.00  0.00     0.001 A 
ATOM      2  C   UNL     1       4.541 -63.778 187.725  1.00  0.00     0.014 A 
ATOM      3  C   UNL     1       5.449 -62.002 189.101  1.00  0.00     0.060 A 
ATOM      4  C   UNL     1       5.826 -64.295 187.548  1.00  0.00     0.051 A 
ATOM      5  C   UNL     1       6.748 -62.521 188.924  1.00  0.00     0.161 A 
ATOM      6  C   UNL     1       6.929 -63.670 188.144  1.00  0.00     0.157 A 
ENDROOT
BRANCH   1   7
ATOM      7  C   UNL     1       2.975 -62.083 188.687  1.00  0.00     0.072 C 
ATOM      8  O   UNL     1       2.792 -60.844 188.824  1.00  0.00    -0.545 OA
ATOM      9  O   UNL     1       1.875 -62.933 188.712  1.00  0.00    -0.545 OA
ENDBRANCH   1   7
BRANCH   5  10
ATOM     10  O   UNL     1       7.878 -61.923 189.506  1.00  0.00    -0.493 OA
ATOM     11  C   UNL     1       8.452 -62.320 190.746  1.00  0.00     0.278 C 
ENDBRANCH   5  10
BRANCH   6  12
ATOM     12  O   UNL     1       8.210 -64.188 187.966  1.00  0.00    -0.504 OA
ATOM     13  H   UNL     1       8.359 -65.137 187.645  1.00  0.00     0.293 HD
ENDBRANCH   6  12
TORSDOF 3
ENDMDL
