MODEL 1
REMARK VINA RESULT:    -5.542      0.000      0.000
REMARK INTER + INTRA:          -9.300
REMARK INTER:                  -7.810
REMARK INTRA:                  -1.490
REMARK UNBOUND:                -1.490
REMARK SMILES COc1c(O[C@@H]2O[C@@H](C(=O)[O-])[C@H](O)[C@@H](O)[C@H]2O)cc(O)c2c(=O)cc(-c3ccccc3)oc12
REMARK SMILES IDX 5 1 6 2 8 3 12 4 7 5 14 6 16 7 9 8 10 9 11 10 13 11 15 13
REMARK SMILES IDX 17 15 4 17 3 18 18 19 33 20 19 21 21 22 32 23 22 24 25 25
REMARK SMILES IDX 24 26 23 27 2 28 1 29 20 30 26 32 27 33 31 34 28 35 30 36
REMARK SMILES IDX 29 37
REMARK H PARENT 13 12 15 14 17 16 20 31
REMARK Flexibility Score: inf
ROOT
ATOM      1  O   UNL     1     193.508 200.016 198.543  1.00  0.00    -0.458 OA
ENDROOT
BRANCH   1   2
ATOM      2  C   UNL     1     194.851 200.476 198.695  1.00  0.00     0.339 C 
ATOM      3  C   UNL     1     196.040 198.511 197.982  1.00  0.00     0.199 C 
ATOM      4  C   UNL     1     195.404 197.839 199.238  1.00  0.00     0.180 C 
ATOM      5  O   UNL     1     195.684 199.870 197.723  1.00  0.00    -0.328 OA
ATOM      6  C   UNL     1     195.455 198.750 200.484  1.00  0.00     0.181 C 
ATOM      7  C   UNL     1     195.384 200.258 200.129  1.00  0.00     0.214 C 
BRANCH   3   8
ATOM      8  C   UNL     1     197.538 198.394 198.022  1.00  0.00     0.073 C 
ATOM      9  O   UNL     1     198.223 199.285 198.588  1.00  0.00    -0.547 OA
ATOM     10  O   UNL     1     198.180 197.316 197.426  1.00  0.00    -0.547 OA
ENDBRANCH   3   8
BRANCH   4  11
ATOM     11  O   UNL     1     194.074 197.471 198.976  1.00  0.00    -0.387 OA
ATOM     12  H   UNL     1     193.644 198.239 198.516  1.00  0.00     0.211 HD
ENDBRANCH   4  11
BRANCH   6  13
ATOM     13  O   UNL     1     196.620 198.466 201.218  1.00  0.00    -0.387 OA
ATOM     14  H   UNL     1     197.027 199.339 201.466  1.00  0.00     0.211 HD
ENDBRANCH   6  13
BRANCH   7  15
ATOM     15  O   UNL     1     196.655 200.841 200.248  1.00  0.00    -0.384 OA
ATOM     16  H   UNL     1     197.325 200.122 200.102  1.00  0.00     0.211 HD
ENDBRANCH   7  15
ENDBRANCH   1   2
BRANCH   1  17
ATOM     17  C   UNL     1     192.677 200.449 197.507  1.00  0.00     0.172 A 
ATOM     18  C   UNL     1     192.008 201.688 197.575  1.00  0.00     0.205 A 
ATOM     19  C   UNL     1     192.521 199.631 196.385  1.00  0.00     0.097 A 
ATOM     20  C   UNL     1     191.167 202.078 196.524  1.00  0.00     0.188 A 
ATOM     21  C   UNL     1     191.678 200.009 195.334  1.00  0.00     0.134 A 
ATOM     22  C   UNL     1     190.988 201.241 195.397  1.00  0.00     0.111 A 
ATOM     23  O   UNL     1     190.561 203.260 196.586  1.00  0.00    -0.452 OA
ATOM     24  C   UNL     1     190.125 201.691 194.376  1.00  0.00     0.197 A 
ATOM     25  C   UNL     1     189.767 203.727 195.626  1.00  0.00     0.138 A 
ATOM     26  C   UNL     1     189.510 202.937 194.495  1.00  0.00     0.100 A 
ATOM     27  O   UNL     1     189.891 200.991 193.354  1.00  0.00    -0.289 OA
BRANCH  18  28
ATOM     28  O   UNL     1     192.152 202.555 198.666  1.00  0.00    -0.490 OA
ATOM     29  C   UNL     1     191.418 202.421 199.878  1.00  0.00     0.278 C 
ENDBRANCH  18  28
BRANCH  21  30
ATOM     30  O   UNL     1     191.532 199.165 194.235  1.00  0.00    -0.507 OA
ATOM     31  H   UNL     1     190.691 199.149 193.672  1.00  0.00     0.293 HD
ENDBRANCH  21  30
BRANCH  25  32
ATOM     32  C   UNL     1     189.173 205.080 195.784  1.00  0.00     0.017 A 
ATOM     33  C   UNL     1     189.759 205.994 196.677  1.00  0.00     0.012 A 
ATOM     34  C   UNL     1     188.065 205.494 195.016  1.00  0.00     0.012 A 
ATOM     35  C   UNL     1     189.233 207.282 196.822  1.00  0.00     0.001 A 
ATOM     36  C   UNL     1     187.553 206.787 195.152  1.00  0.00     0.001 A 
ATOM     37  C   UNL     1     188.135 207.679 196.057  1.00  0.00     0.000 A 
ENDBRANCH  25  32
ENDBRANCH   1  17
TORSDOF 9
ENDMDL
MODEL 2
REMARK VINA RESULT:    -5.517      2.728      8.323
REMARK INTER + INTRA:          -9.265
REMARK INTER:                  -7.713
REMARK INTRA:                  -1.551
REMARK UNBOUND:                -1.490
REMARK SMILES COc1c(O[C@@H]2O[C@@H](C(=O)[O-])[C@H](O)[C@@H](O)[C@H]2O)cc(O)c2c(=O)cc(-c3ccccc3)oc12
REMARK SMILES IDX 5 1 6 2 8 3 12 4 7 5 14 6 16 7 9 8 10 9 11 10 13 11 15 13
REMARK SMILES IDX 17 15 4 17 3 18 18 19 33 20 19 21 21 22 32 23 22 24 25 25
REMARK SMILES IDX 24 26 23 27 2 28 1 29 20 30 26 32 27 33 31 34 28 35 30 36
REMARK SMILES IDX 29 37
REMARK H PARENT 13 12 15 14 17 16 20 31
REMARK Flexibility Score: inf
ROOT
ATOM      1  O   UNL     1     189.677 202.347 195.246  1.00  0.00    -0.458 OA
ENDROOT
BRANCH   1   2
ATOM      2  C   UNL     1     189.620 203.752 194.995  1.00  0.00     0.339 C 
ATOM      3  C   UNL     1     190.241 204.580 197.166  1.00  0.00     0.199 C 
ATOM      4  C   UNL     1     188.911 203.920 197.645  1.00  0.00     0.180 C 
ATOM      5  O   UNL     1     190.582 204.425 195.788  1.00  0.00    -0.328 OA
ATOM      6  C   UNL     1     187.739 204.180 196.675  1.00  0.00     0.181 C 
ATOM      7  C   UNL     1     188.200 204.324 195.201  1.00  0.00     0.214 C 
BRANCH   3   8
ATOM      8  C   UNL     1     190.260 206.041 197.516  1.00  0.00     0.073 C 
ATOM      9  O   UNL     1     190.876 206.435 198.542  1.00  0.00    -0.547 OA
ATOM     10  O   UNL     1     189.591 206.968 196.725  1.00  0.00    -0.547 OA
ENDBRANCH   3   8
BRANCH   4  11
ATOM     11  O   UNL     1     189.086 202.536 197.815  1.00  0.00    -0.387 OA
ATOM     12  H   UNL     1     188.181 202.126 197.826  1.00  0.00     0.211 HD
ENDBRANCH   4  11
BRANCH   6  13
ATOM     13  O   UNL     1     187.040 205.327 197.092  1.00  0.00    -0.387 OA
ATOM     14  H   UNL     1     186.074 205.150 196.938  1.00  0.00     0.211 HD
ENDBRANCH   6  13
BRANCH   7  15
ATOM     15  O   UNL     1     188.181 205.675 194.821  1.00  0.00    -0.384 OA
ATOM     16  H   UNL     1     188.499 206.206 195.598  1.00  0.00     0.211 HD
ENDBRANCH   7  15
ENDBRANCH   1   2
BRANCH   1  17
ATOM     17  C   UNL     1     190.694 201.534 194.742  1.00  0.00     0.172 A 
ATOM     18  C   UNL     1     191.718 201.040 195.575  1.00  0.00     0.205 A 
ATOM     19  C   UNL     1     190.679 201.203 193.384  1.00  0.00     0.097 A 
ATOM     20  C   UNL     1     192.732 200.242 195.027  1.00  0.00     0.188 A 
ATOM     21  C   UNL     1     191.690 200.413 192.827  1.00  0.00     0.134 A 
ATOM     22  C   UNL     1     192.732 199.926 193.648  1.00  0.00     0.111 A 
ATOM     23  O   UNL     1     193.679 199.761 195.827  1.00  0.00    -0.452 OA
ATOM     24  C   UNL     1     193.783 199.122 193.160  1.00  0.00     0.197 A 
ATOM     25  C   UNL     1     194.665 198.975 195.404  1.00  0.00     0.138 A 
ATOM     26  C   UNL     1     194.754 198.649 194.042  1.00  0.00     0.100 A 
ATOM     27  O   UNL     1     193.870 198.821 191.938  1.00  0.00    -0.289 OA
BRANCH  18  28
ATOM     28  O   UNL     1     191.764 201.321 196.947  1.00  0.00    -0.490 OA
ATOM     29  C   UNL     1     191.461 200.363 197.956  1.00  0.00     0.278 C 
ENDBRANCH  18  28
BRANCH  21  30
ATOM     30  O   UNL     1     191.654 200.114 191.466  1.00  0.00    -0.507 OA
ATOM     31  H   UNL     1     190.784 200.017 190.957  1.00  0.00     0.293 HD
ENDBRANCH  21  30
BRANCH  25  32
ATOM     32  C   UNL     1     195.648 198.463 196.394  1.00  0.00     0.017 A 
ATOM     33  C   UNL     1     196.139 197.151 196.268  1.00  0.00     0.012 A 
ATOM     34  C   UNL     1     196.148 199.280 197.429  1.00  0.00     0.012 A 
ATOM     35  C   UNL     1     197.085 196.657 197.172  1.00  0.00     0.001 A 
ATOM     36  C   UNL     1     197.104 198.786 198.321  1.00  0.00     0.001 A 
ATOM     37  C   UNL     1     197.570 197.475 198.194  1.00  0.00     0.000 A 
ENDBRANCH  25  32
ENDBRANCH   1  17
TORSDOF 9
ENDMDL
MODEL 3
REMARK VINA RESULT:    -5.447      4.657      6.385
REMARK INTER + INTRA:          -9.167
REMARK INTER:                  -7.705
REMARK INTRA:                  -1.462
REMARK UNBOUND:                -1.490
REMARK SMILES COc1c(O[C@@H]2O[C@@H](C(=O)[O-])[C@H](O)[C@@H](O)[C@H]2O)cc(O)c2c(=O)cc(-c3ccccc3)oc12
REMARK SMILES IDX 5 1 6 2 8 3 12 4 7 5 14 6 16 7 9 8 10 9 11 10 13 11 15 13
REMARK SMILES IDX 17 15 4 17 3 18 18 19 33 20 19 21 21 22 32 23 22 24 25 25
REMARK SMILES IDX 24 26 23 27 2 28 1 29 20 30 26 32 27 33 31 34 28 35 30 36
REMARK SMILES IDX 29 37
REMARK H PARENT 13 12 15 14 17 16 20 31
REMARK Flexibility Score: inf
ROOT
ATOM      1  O   UNL     1     192.613 203.590 204.022  1.00  0.00    -0.458 OA
ENDROOT
BRANCH   1   2
ATOM      2  C   UNL     1     193.632 204.507 204.423  1.00  0.00     0.339 C 
ATOM      3  C   UNL     1     195.202 202.968 205.398  1.00  0.00     0.199 C 
ATOM      4  C   UNL     1     194.078 202.700 206.446  1.00  0.00     0.180 C 
ATOM      5  O   UNL     1     194.901 203.883 204.344  1.00  0.00    -0.328 OA
ATOM      6  C   UNL     1     193.390 203.999 206.918  1.00  0.00     0.181 C 
ATOM      7  C   UNL     1     193.366 205.098 205.825  1.00  0.00     0.214 C 
BRANCH   3   8
ATOM      8  C   UNL     1     196.468 203.404 206.082  1.00  0.00     0.073 C 
ATOM      9  O   UNL     1     197.292 202.544 206.489  1.00  0.00    -0.547 OA
ATOM     10  O   UNL     1     196.733 204.753 206.285  1.00  0.00    -0.547 OA
ENDBRANCH   3   8
BRANCH   4  11
ATOM     11  O   UNL     1     193.118 201.821 205.919  1.00  0.00    -0.387 OA
ATOM     12  H   UNL     1     193.416 201.576 205.004  1.00  0.00     0.211 HD
ENDBRANCH   4  11
BRANCH   6  13
ATOM     13  O   UNL     1     194.030 204.466 208.080  1.00  0.00    -0.387 OA
ATOM     14  H   UNL     1     194.357 203.667 208.573  1.00  0.00     0.211 HD
ENDBRANCH   6  13
BRANCH   7  15
ATOM     15  O   UNL     1     194.330 206.079 206.108  1.00  0.00    -0.384 OA
ATOM     16  H   UNL     1     194.199 206.359 207.052  1.00  0.00     0.211 HD
ENDBRANCH   7  15
ENDBRANCH   1   2
BRANCH   1  17
ATOM     17  C   UNL     1     192.343 203.304 202.682  1.00  0.00     0.172 A 
ATOM     18  C   UNL     1     191.711 204.246 201.845  1.00  0.00     0.205 A 
ATOM     19  C   UNL     1     192.719 202.059 202.172  1.00  0.00     0.097 A 
ATOM     20  C   UNL     1     191.440 203.914 200.510  1.00  0.00     0.188 A 
ATOM     21  C   UNL     1     192.446 201.715 200.844  1.00  0.00     0.134 A 
ATOM     22  C   UNL     1     191.798 202.643 199.999  1.00  0.00     0.111 A 
ATOM     23  O   UNL     1     190.867 204.819 199.723  1.00  0.00    -0.452 OA
ATOM     24  C   UNL     1     191.493 202.371 198.649  1.00  0.00     0.197 A 
ATOM     25  C   UNL     1     190.595 204.605 198.438  1.00  0.00     0.138 A 
ATOM     26  C   UNL     1     190.886 203.355 197.868  1.00  0.00     0.100 A 
ATOM     27  O   UNL     1     191.754 201.254 198.127  1.00  0.00    -0.289 OA
BRANCH  18  28
ATOM     28  O   UNL     1     191.339 205.518 202.300  1.00  0.00    -0.490 OA
ATOM     29  C   UNL     1     190.118 205.781 202.985  1.00  0.00     0.278 C 
ENDBRANCH  18  28
BRANCH  21  30
ATOM     30  O   UNL     1     192.821 200.459 200.370  1.00  0.00    -0.507 OA
ATOM     31  H   UNL     1     192.388 199.605 200.701  1.00  0.00     0.293 HD
ENDBRANCH  21  30
BRANCH  25  32
ATOM     32  C   UNL     1     189.989 205.702 197.642  1.00  0.00     0.017 A 
ATOM     33  C   UNL     1     188.821 205.455 196.898  1.00  0.00     0.012 A 
ATOM     34  C   UNL     1     190.522 207.008 197.657  1.00  0.00     0.012 A 
ATOM     35  C   UNL     1     188.217 206.480 196.162  1.00  0.00     0.001 A 
ATOM     36  C   UNL     1     189.906 208.032 196.933  1.00  0.00     0.001 A 
ATOM     37  C   UNL     1     188.756 207.768 196.184  1.00  0.00     0.000 A 
ENDBRANCH  25  32
ENDBRANCH   1  17
TORSDOF 9
ENDMDL
MODEL 4
REMARK VINA RESULT:    -5.385      3.265      8.407
REMARK INTER + INTRA:          -9.079
REMARK INTER:                  -7.561
REMARK INTRA:                  -1.518
REMARK UNBOUND:                -1.490
REMARK SMILES COc1c(O[C@@H]2O[C@@H](C(=O)[O-])[C@H](O)[C@@H](O)[C@H]2O)cc(O)c2c(=O)cc(-c3ccccc3)oc12
REMARK SMILES IDX 5 1 6 2 8 3 12 4 7 5 14 6 16 7 9 8 10 9 11 10 13 11 15 13
REMARK SMILES IDX 17 15 4 17 3 18 18 19 33 20 19 21 21 22 32 23 22 24 25 25
REMARK SMILES IDX 24 26 23 27 2 28 1 29 20 30 26 32 27 33 31 34 28 35 30 36
REMARK SMILES IDX 29 37
REMARK H PARENT 13 12 15 14 17 16 20 31
REMARK Flexibility Score: inf
ROOT
ATOM      1  O   UNL     1     189.635 202.359 195.230  1.00  0.00    -0.458 OA
ENDROOT
BRANCH   1   2
ATOM      2  C   UNL     1     189.679 203.776 195.061  1.00  0.00     0.339 C 
ATOM      3  C   UNL     1     190.265 204.436 197.298  1.00  0.00     0.199 C 
ATOM      4  C   UNL     1     188.877 203.841 197.689  1.00  0.00     0.180 C 
ATOM      5  O   UNL     1     190.649 204.337 195.926  1.00  0.00    -0.328 OA
ATOM      6  C   UNL     1     187.764 204.234 196.694  1.00  0.00     0.181 C 
ATOM      7  C   UNL     1     188.291 204.429 195.249  1.00  0.00     0.214 C 
BRANCH   3   8
ATOM      8  C   UNL     1     190.365 205.871 197.734  1.00  0.00     0.073 C 
ATOM      9  O   UNL     1     190.872 206.156 198.850  1.00  0.00    -0.547 OA
ATOM     10  O   UNL     1     189.888 206.893 196.922  1.00  0.00    -0.547 OA
ENDBRANCH   3   8
BRANCH   4  11
ATOM     11  O   UNL     1     188.954 202.441 197.783  1.00  0.00    -0.387 OA
ATOM     12  H   UNL     1     188.278 202.155 198.451  1.00  0.00     0.211 HD
ENDBRANCH   4  11
BRANCH   6  13
ATOM     13  O   UNL     1     187.124 205.399 197.152  1.00  0.00    -0.387 OA
ATOM     14  H   UNL     1     186.224 205.128 197.477  1.00  0.00     0.211 HD
ENDBRANCH   6  13
BRANCH   7  15
ATOM     15  O   UNL     1     188.375 205.798 194.948  1.00  0.00    -0.384 OA
ATOM     16  H   UNL     1     189.097 206.181 195.514  1.00  0.00     0.211 HD
ENDBRANCH   7  15
ENDBRANCH   1   2
BRANCH   1  17
ATOM     17  C   UNL     1     190.385 201.483 194.443  1.00  0.00     0.172 A 
ATOM     18  C   UNL     1     191.495 200.792 194.970  1.00  0.00     0.205 A 
ATOM     19  C   UNL     1     190.011 201.290 193.111  1.00  0.00     0.097 A 
ATOM     20  C   UNL     1     192.235 199.937 194.142  1.00  0.00     0.188 A 
ATOM     21  C   UNL     1     190.747 200.443 192.274  1.00  0.00     0.134 A 
ATOM     22  C   UNL     1     191.873 199.759 192.785  1.00  0.00     0.111 A 
ATOM     23  O   UNL     1     193.265 199.271 194.656  1.00  0.00    -0.452 OA
ATOM     24  C   UNL     1     192.661 198.887 192.006  1.00  0.00     0.197 A 
ATOM     25  C   UNL     1     194.008 198.418 193.956  1.00  0.00     0.138 A 
ATOM     26  C   UNL     1     193.734 198.218 192.594  1.00  0.00     0.100 A 
ATOM     27  O   UNL     1     192.421 198.697 190.783  1.00  0.00    -0.289 OA
BRANCH  18  28
ATOM     28  O   UNL     1     191.894 200.931 196.306  1.00  0.00    -0.490 OA
ATOM     29  C   UNL     1     191.440 200.081 197.354  1.00  0.00     0.278 C 
ENDBRANCH  18  28
BRANCH  21  30
ATOM     30  O   UNL     1     190.357 200.284 190.946  1.00  0.00    -0.507 OA
ATOM     31  H   UNL     1     189.419 200.003 190.688  1.00  0.00     0.293 HD
ENDBRANCH  21  30
BRANCH  25  32
ATOM     32  C   UNL     1     195.111 197.699 194.643  1.00  0.00     0.017 A 
ATOM     33  C   UNL     1     195.321 197.904 196.018  1.00  0.00     0.012 A 
ATOM     34  C   UNL     1     195.923 196.767 193.963  1.00  0.00     0.012 A 
ATOM     35  C   UNL     1     196.337 197.218 196.692  1.00  0.00     0.001 A 
ATOM     36  C   UNL     1     196.926 196.073 194.644  1.00  0.00     0.001 A 
ATOM     37  C   UNL     1     197.134 196.300 196.006  1.00  0.00     0.000 A 
ENDBRANCH  25  32
ENDBRANCH   1  17
TORSDOF 9
ENDMDL
MODEL 5
REMARK VINA RESULT:    -5.370      4.110      9.245
REMARK INTER + INTRA:          -9.058
REMARK INTER:                  -7.816
REMARK INTRA:                  -1.242
REMARK UNBOUND:                -1.490
REMARK SMILES COc1c(O[C@@H]2O[C@@H](C(=O)[O-])[C@H](O)[C@@H](O)[C@H]2O)cc(O)c2c(=O)cc(-c3ccccc3)oc12
REMARK SMILES IDX 5 1 6 2 8 3 12 4 7 5 14 6 16 7 9 8 10 9 11 10 13 11 15 13
REMARK SMILES IDX 17 15 4 17 3 18 18 19 33 20 19 21 21 22 32 23 22 24 25 25
REMARK SMILES IDX 24 26 23 27 2 28 1 29 20 30 26 32 27 33 31 34 28 35 30 36
REMARK SMILES IDX 29 37
REMARK H PARENT 13 12 15 14 17 16 20 31
REMARK Flexibility Score: inf
ROOT
ATOM      1  O   UNL     1     189.269 203.304 198.624  1.00  0.00    -0.458 OA
ENDROOT
BRANCH   1   2
ATOM      2  C   UNL     1     189.707 204.267 197.664  1.00  0.00     0.339 C 
ATOM      3  C   UNL     1     187.767 204.338 196.244  1.00  0.00     0.199 C 
ATOM      4  C   UNL     1     188.117 202.852 195.925  1.00  0.00     0.180 C 
ATOM      5  O   UNL     1     188.602 205.013 197.187  1.00  0.00    -0.328 OA
ATOM      6  C   UNL     1     189.628 202.637 195.694  1.00  0.00     0.181 C 
ATOM      7  C   UNL     1     190.507 203.619 196.512  1.00  0.00     0.214 C 
BRANCH   3   8
ATOM      8  C   UNL     1     187.702 205.148 194.979  1.00  0.00     0.073 C 
ATOM      9  O   UNL     1     187.890 206.392 195.018  1.00  0.00    -0.547 OA
ATOM     10  O   UNL     1     187.419 204.539 193.763  1.00  0.00    -0.547 OA
ENDBRANCH   3   8
BRANCH   4  11
ATOM     11  O   UNL     1     187.673 202.012 196.960  1.00  0.00    -0.387 OA
ATOM     12  H   UNL     1     186.690 202.136 197.035  1.00  0.00     0.211 HD
ENDBRANCH   4  11
BRANCH   6  13
ATOM     13  O   UNL     1     189.907 202.747 194.320  1.00  0.00    -0.387 OA
ATOM     14  H   UNL     1     189.396 203.530 193.982  1.00  0.00     0.211 HD
ENDBRANCH   6  13
BRANCH   7  15
ATOM     15  O   UNL     1     191.013 204.624 195.673  1.00  0.00    -0.384 OA
ATOM     16  H   UNL     1     191.930 204.352 195.406  1.00  0.00     0.211 HD
ENDBRANCH   7  15
ENDBRANCH   1   2
BRANCH   1  17
ATOM     17  C   UNL     1     189.427 203.487 200.000  1.00  0.00     0.172 A 
ATOM     18  C   UNL     1     190.707 203.549 200.587  1.00  0.00     0.205 A 
ATOM     19  C   UNL     1     188.287 203.618 200.796  1.00  0.00     0.097 A 
ATOM     20  C   UNL     1     190.824 203.714 201.974  1.00  0.00     0.188 A 
ATOM     21  C   UNL     1     188.393 203.776 202.182  1.00  0.00     0.134 A 
ATOM     22  C   UNL     1     189.670 203.822 202.786  1.00  0.00     0.111 A 
ATOM     23  O   UNL     1     192.037 203.797 202.515  1.00  0.00    -0.452 OA
ATOM     24  C   UNL     1     189.858 203.982 204.174  1.00  0.00     0.197 A 
ATOM     25  C   UNL     1     192.247 203.980 203.816  1.00  0.00     0.138 A 
ATOM     26  C   UNL     1     191.152 204.058 204.689  1.00  0.00     0.100 A 
ATOM     27  O   UNL     1     188.880 204.057 204.967  1.00  0.00    -0.289 OA
BRANCH  18  28
ATOM     28  O   UNL     1     191.882 203.450 199.829  1.00  0.00    -0.490 OA
ATOM     29  C   UNL     1     192.433 202.212 199.393  1.00  0.00     0.278 C 
ENDBRANCH  18  28
BRANCH  21  30
ATOM     30  O   UNL     1     187.236 203.888 202.950  1.00  0.00    -0.507 OA
ATOM     31  H   UNL     1     186.927 204.771 203.337  1.00  0.00     0.293 HD
ENDBRANCH  21  30
BRANCH  25  32
ATOM     32  C   UNL     1     193.645 204.097 204.305  1.00  0.00     0.017 A 
ATOM     33  C   UNL     1     194.016 205.209 205.082  1.00  0.00     0.012 A 
ATOM     34  C   UNL     1     194.601 203.090 204.058  1.00  0.00     0.012 A 
ATOM     35  C   UNL     1     195.319 205.326 205.577  1.00  0.00     0.001 A 
ATOM     36  C   UNL     1     195.897 203.205 204.568  1.00  0.00     0.001 A 
ATOM     37  C   UNL     1     196.256 204.323 205.324  1.00  0.00     0.000 A 
ENDBRANCH  25  32
ENDBRANCH   1  17
TORSDOF 9
ENDMDL
MODEL 6
REMARK VINA RESULT:    -5.349      2.931      6.401
REMARK INTER + INTRA:          -9.028
REMARK INTER:                  -7.740
REMARK INTRA:                  -1.288
REMARK UNBOUND:                -1.490
REMARK SMILES COc1c(O[C@@H]2O[C@@H](C(=O)[O-])[C@H](O)[C@@H](O)[C@H]2O)cc(O)c2c(=O)cc(-c3ccccc3)oc12
REMARK SMILES IDX 5 1 6 2 8 3 12 4 7 5 14 6 16 7 9 8 10 9 11 10 13 11 15 13
REMARK SMILES IDX 17 15 4 17 3 18 18 19 33 20 19 21 21 22 32 23 22 24 25 25
REMARK SMILES IDX 24 26 23 27 2 28 1 29 20 30 26 32 27 33 31 34 28 35 30 36
REMARK SMILES IDX 29 37
REMARK H PARENT 13 12 15 14 17 16 20 31
REMARK Flexibility Score: inf
ROOT
ATOM      1  O   UNL     1     191.641 200.536 195.853  1.00  0.00    -0.458 OA
ENDROOT
BRANCH   1   2
ATOM      2  C   UNL     1     191.322 200.361 194.472  1.00  0.00     0.339 C 
ATOM      3  C   UNL     1     192.139 198.123 194.144  1.00  0.00     0.199 C 
ATOM      4  C   UNL     1     193.541 198.739 194.445  1.00  0.00     0.180 C 
ATOM      5  O   UNL     1     191.016 199.003 194.214  1.00  0.00    -0.328 OA
ATOM      6  C   UNL     1     193.756 200.092 193.734  1.00  0.00     0.181 C 
ATOM      7  C   UNL     1     192.439 200.888 193.543  1.00  0.00     0.214 C 
BRANCH   3   8
ATOM      8  C   UNL     1     192.142 197.435 192.808  1.00  0.00     0.073 C 
ATOM      9  O   UNL     1     192.456 196.218 192.727  1.00  0.00    -0.547 OA
ATOM     10  O   UNL     1     191.814 198.132 191.651  1.00  0.00    -0.547 OA
ENDBRANCH   3   8
BRANCH   4  11
ATOM     11  O   UNL     1     193.717 198.900 195.830  1.00  0.00    -0.387 OA
ATOM     12  H   UNL     1     193.735 199.876 196.011  1.00  0.00     0.211 HD
ENDBRANCH   4  11
BRANCH   6  13
ATOM     13  O   UNL     1     194.386 199.870 192.497  1.00  0.00    -0.387 OA
ATOM     14  H   UNL     1     195.166 199.278 192.670  1.00  0.00     0.211 HD
ENDBRANCH   6  13
BRANCH   7  15
ATOM     15  O   UNL     1     192.014 200.803 192.208  1.00  0.00    -0.384 OA
ATOM     16  H   UNL     1     192.102 199.854 191.930  1.00  0.00     0.211 HD
ENDBRANCH   7  15
ENDBRANCH   1   2
BRANCH   1  17
ATOM     17  C   UNL     1     191.411 201.734 196.533  1.00  0.00     0.172 A 
ATOM     18  C   UNL     1     191.744 201.877 197.896  1.00  0.00     0.205 A 
ATOM     19  C   UNL     1     190.848 202.805 195.835  1.00  0.00     0.097 A 
ATOM     20  C   UNL     1     191.479 203.089 198.548  1.00  0.00     0.188 A 
ATOM     21  C   UNL     1     190.575 204.017 196.479  1.00  0.00     0.134 A 
ATOM     22  C   UNL     1     190.886 204.168 197.849  1.00  0.00     0.111 A 
ATOM     23  O   UNL     1     191.820 203.223 199.827  1.00  0.00    -0.452 OA
ATOM     24  C   UNL     1     190.643 205.358 198.566  1.00  0.00     0.197 A 
ATOM     25  C   UNL     1     191.633 204.342 200.521  1.00  0.00     0.138 A 
ATOM     26  C   UNL     1     191.015 205.442 199.907  1.00  0.00     0.100 A 
ATOM     27  O   UNL     1     190.092 206.354 198.022  1.00  0.00    -0.289 OA
BRANCH  18  28
ATOM     28  O   UNL     1     192.334 200.842 198.633  1.00  0.00    -0.490 OA
ATOM     29  C   UNL     1     193.742 200.686 198.780  1.00  0.00     0.278 C 
ENDBRANCH  18  28
BRANCH  21  30
ATOM     30  O   UNL     1     189.999 205.061 195.758  1.00  0.00    -0.507 OA
ATOM     31  H   UNL     1     190.542 205.840 195.407  1.00  0.00     0.293 HD
ENDBRANCH  21  30
BRANCH  25  32
ATOM     32  C   UNL     1     192.088 204.392 201.934  1.00  0.00     0.017 A 
ATOM     33  C   UNL     1     192.075 205.617 202.624  1.00  0.00     0.012 A 
ATOM     34  C   UNL     1     192.481 203.227 202.626  1.00  0.00     0.012 A 
ATOM     35  C   UNL     1     192.473 205.683 203.963  1.00  0.00     0.001 A 
ATOM     36  C   UNL     1     192.863 203.295 203.968  1.00  0.00     0.001 A 
ATOM     37  C   UNL     1     192.862 204.523 204.635  1.00  0.00     0.000 A 
ENDBRANCH  25  32
ENDBRANCH   1  17
TORSDOF 9
ENDMDL
MODEL 7
REMARK VINA RESULT:    -5.208      4.690      8.482
REMARK INTER + INTRA:          -8.830
REMARK INTER:                  -7.149
REMARK INTRA:                  -1.682
REMARK UNBOUND:                -1.490
REMARK SMILES COc1c(O[C@@H]2O[C@@H](C(=O)[O-])[C@H](O)[C@@H](O)[C@H]2O)cc(O)c2c(=O)cc(-c3ccccc3)oc12
REMARK SMILES IDX 5 1 6 2 8 3 12 4 7 5 14 6 16 7 9 8 10 9 11 10 13 11 15 13
REMARK SMILES IDX 17 15 4 17 3 18 18 19 33 20 19 21 21 22 32 23 22 24 25 25
REMARK SMILES IDX 24 26 23 27 2 28 1 29 20 30 26 32 27 33 31 34 28 35 30 36
REMARK SMILES IDX 29 37
REMARK H PARENT 13 12 15 14 17 16 20 31
REMARK Flexibility Score: inf
ROOT
ATOM      1  O   UNL     1     188.852 203.770 197.779  1.00  0.00    -0.458 OA
ENDROOT
BRANCH   1   2
ATOM      2  C   UNL     1     188.209 202.862 196.882  1.00  0.00     0.339 C 
ATOM      3  C   UNL     1     190.142 201.886 195.835  1.00  0.00     0.199 C 
ATOM      4  C   UNL     1     190.397 203.323 195.283  1.00  0.00     0.180 C 
ATOM      5  O   UNL     1     189.016 201.713 196.696  1.00  0.00    -0.328 OA
ATOM      6  C   UNL     1     189.105 203.996 194.771  1.00  0.00     0.181 C 
ATOM      7  C   UNL     1     187.841 203.531 195.539  1.00  0.00     0.214 C 
BRANCH   3   8
ATOM      8  C   UNL     1     190.057 200.895 194.709  1.00  0.00     0.073 C 
ATOM      9  O   UNL     1     191.081 200.626 194.028  1.00  0.00    -0.547 OA
ATOM     10  O   UNL     1     188.851 200.279 194.398  1.00  0.00    -0.547 OA
ENDBRANCH   3   8
BRANCH   4  11
ATOM     11  O   UNL     1     190.991 204.128 196.269  1.00  0.00    -0.387 OA
ATOM     12  H   UNL     1     191.162 205.015 195.857  1.00  0.00     0.211 HD
ENDBRANCH   4  11
BRANCH   6  13
ATOM     13  O   UNL     1     188.969 203.749 193.394  1.00  0.00    -0.387 OA
ATOM     14  H   UNL     1     188.306 203.015 193.294  1.00  0.00     0.211 HD
ENDBRANCH   6  13
BRANCH   7  15
ATOM     15  O   UNL     1     187.105 202.629 194.755  1.00  0.00    -0.384 OA
ATOM     16  H   UNL     1     187.389 202.758 193.812  1.00  0.00     0.211 HD
ENDBRANCH   7  15
ENDBRANCH   1   2
BRANCH   1  17
ATOM     17  C   UNL     1     188.974 203.517 199.147  1.00  0.00     0.172 A 
ATOM     18  C   UNL     1     190.143 203.863 199.854  1.00  0.00     0.205 A 
ATOM     19  C   UNL     1     187.904 202.916 199.816  1.00  0.00     0.097 A 
ATOM     20  C   UNL     1     190.234 203.574 201.223  1.00  0.00     0.188 A 
ATOM     21  C   UNL     1     187.989 202.618 201.181  1.00  0.00     0.134 A 
ATOM     22  C   UNL     1     189.162 202.944 201.898  1.00  0.00     0.111 A 
ATOM     23  O   UNL     1     191.332 203.928 201.886  1.00  0.00    -0.452 OA
ATOM     24  C   UNL     1     189.320 202.678 203.274  1.00  0.00     0.197 A 
ATOM     25  C   UNL     1     191.498 203.720 203.189  1.00  0.00     0.138 A 
ATOM     26  C   UNL     1     190.494 203.066 203.919  1.00  0.00     0.100 A 
ATOM     27  O   UNL     1     188.422 202.094 203.940  1.00  0.00    -0.289 OA
BRANCH  18  28
ATOM     28  O   UNL     1     191.232 204.490 199.234  1.00  0.00    -0.490 OA
ATOM     29  C   UNL     1     191.384 205.904 199.156  1.00  0.00     0.278 C 
ENDBRANCH  18  28
BRANCH  21  30
ATOM     30  O   UNL     1     186.911 202.006 201.816  1.00  0.00    -0.507 OA
ATOM     31  H   UNL     1     185.956 202.313 201.678  1.00  0.00     0.293 HD
ENDBRANCH  21  30
BRANCH  25  32
ATOM     32  C   UNL     1     192.750 204.192 203.835  1.00  0.00     0.017 A 
ATOM     33  C   UNL     1     192.800 205.484 204.388  1.00  0.00     0.012 A 
ATOM     34  C   UNL     1     193.878 203.355 203.960  1.00  0.00     0.012 A 
ATOM     35  C   UNL     1     193.959 205.940 205.025  1.00  0.00     0.001 A 
ATOM     36  C   UNL     1     195.028 203.809 204.610  1.00  0.00     0.001 A 
ATOM     37  C   UNL     1     195.069 205.102 205.140  1.00  0.00     0.000 A 
ENDBRANCH  25  32
ENDBRANCH   1  17
TORSDOF 9
ENDMDL
MODEL 8
REMARK VINA RESULT:    -5.208      2.695      8.913
REMARK INTER + INTRA:          -8.829
REMARK INTER:                  -7.579
REMARK INTRA:                  -1.250
REMARK UNBOUND:                -1.490
REMARK SMILES COc1c(O[C@@H]2O[C@@H](C(=O)[O-])[C@H](O)[C@@H](O)[C@H]2O)cc(O)c2c(=O)cc(-c3ccccc3)oc12
REMARK SMILES IDX 5 1 6 2 8 3 12 4 7 5 14 6 16 7 9 8 10 9 11 10 13 11 15 13
REMARK SMILES IDX 17 15 4 17 3 18 18 19 33 20 19 21 21 22 32 23 22 24 25 25
REMARK SMILES IDX 24 26 23 27 2 28 1 29 20 30 26 32 27 33 31 34 28 35 30 36
REMARK SMILES IDX 29 37
REMARK H PARENT 13 12 15 14 17 16 20 31
REMARK Flexibility Score: inf
ROOT
ATOM      1  O   UNL     1     190.143 202.086 196.374  1.00  0.00    -0.458 OA
ENDROOT
BRANCH   1   2
ATOM      2  C   UNL     1     190.114 203.243 195.538  1.00  0.00     0.339 C 
ATOM      3  C   UNL     1     189.862 204.950 197.214  1.00  0.00     0.199 C 
ATOM      4  C   UNL     1     188.483 204.277 197.493  1.00  0.00     0.180 C 
ATOM      5  O   UNL     1     190.688 204.345 196.218  1.00  0.00    -0.328 OA
ATOM      6  C   UNL     1     187.733 203.907 196.196  1.00  0.00     0.181 C 
ATOM      7  C   UNL     1     188.691 203.558 195.027  1.00  0.00     0.214 C 
BRANCH   3   8
ATOM      8  C   UNL     1     189.683 206.406 196.887  1.00  0.00     0.073 C 
ATOM      9  O   UNL     1     190.289 207.281 197.559  1.00  0.00    -0.547 OA
ATOM     10  O   UNL     1     188.840 206.801 195.856  1.00  0.00    -0.547 OA
ENDBRANCH   3   8
BRANCH   4  11
ATOM     11  O   UNL     1     188.649 203.130 198.287  1.00  0.00    -0.387 OA
ATOM     12  H   UNL     1     188.295 202.362 197.768  1.00  0.00     0.211 HD
ENDBRANCH   4  11
BRANCH   6  13
ATOM     13  O   UNL     1     186.876 204.963 195.839  1.00  0.00    -0.387 OA
ATOM     14  H   UNL     1     186.251 205.100 196.600  1.00  0.00     0.211 HD
ENDBRANCH   6  13
BRANCH   7  15
ATOM     15  O   UNL     1     188.747 204.625 194.117  1.00  0.00    -0.384 OA
ATOM     16  H   UNL     1     188.937 204.240 193.221  1.00  0.00     0.211 HD
ENDBRANCH   7  15
ENDBRANCH   1   2
BRANCH   1  17
ATOM     17  C   UNL     1     191.334 201.467 196.761  1.00  0.00     0.172 A 
ATOM     18  C   UNL     1     191.957 200.501 195.945  1.00  0.00     0.205 A 
ATOM     19  C   UNL     1     191.913 201.828 197.981  1.00  0.00     0.097 A 
ATOM     20  C   UNL     1     193.141 199.889 196.378  1.00  0.00     0.188 A 
ATOM     21  C   UNL     1     193.091 201.218 198.425  1.00  0.00     0.134 A 
ATOM     22  C   UNL     1     193.716 200.235 197.624  1.00  0.00     0.111 A 
ATOM     23  O   UNL     1     193.733 198.997 195.589  1.00  0.00    -0.452 OA
ATOM     24  C   UNL     1     194.905 199.578 198.002  1.00  0.00     0.197 A 
ATOM     25  C   UNL     1     194.872 198.384 195.902  1.00  0.00     0.138 A 
ATOM     26  C   UNL     1     195.482 198.648 197.138  1.00  0.00     0.100 A 
ATOM     27  O   UNL     1     195.463 199.811 199.109  1.00  0.00    -0.289 OA
BRANCH  18  28
ATOM     28  O   UNL     1     191.431 200.124 194.702  1.00  0.00    -0.490 OA
ATOM     29  C   UNL     1     191.771 200.764 193.477  1.00  0.00     0.278 C 
ENDBRANCH  18  28
BRANCH  21  30
ATOM     30  O   UNL     1     193.634 201.590 199.653  1.00  0.00    -0.507 OA
ATOM     31  H   UNL     1     193.932 202.538 199.847  1.00  0.00     0.293 HD
ENDBRANCH  21  30
BRANCH  25  32
ATOM     32  C   UNL     1     195.465 197.435 194.927  1.00  0.00     0.017 A 
ATOM     33  C   UNL     1     195.127 197.537 193.565  1.00  0.00     0.012 A 
ATOM     34  C   UNL     1     196.409 196.463 195.321  1.00  0.00     0.012 A 
ATOM     35  C   UNL     1     195.694 196.671 192.625  1.00  0.00     0.001 A 
ATOM     36  C   UNL     1     196.985 195.611 194.375  1.00  0.00     0.001 A 
ATOM     37  C   UNL     1     196.625 195.713 193.029  1.00  0.00     0.000 A 
ENDBRANCH  25  32
ENDBRANCH   1  17
TORSDOF 9
ENDMDL
MODEL 9
REMARK VINA RESULT:    -5.175      3.454      7.059
REMARK INTER + INTRA:          -8.783
REMARK INTER:                  -7.208
REMARK INTRA:                  -1.574
REMARK UNBOUND:                -1.490
REMARK SMILES COc1c(O[C@@H]2O[C@@H](C(=O)[O-])[C@H](O)[C@@H](O)[C@H]2O)cc(O)c2c(=O)cc(-c3ccccc3)oc12
REMARK SMILES IDX 5 1 6 2 8 3 12 4 7 5 14 6 16 7 9 8 10 9 11 10 13 11 15 13
REMARK SMILES IDX 17 15 4 17 3 18 18 19 33 20 19 21 21 22 32 23 22 24 25 25
REMARK SMILES IDX 24 26 23 27 2 28 1 29 20 30 26 32 27 33 31 34 28 35 30 36
REMARK SMILES IDX 29 37
REMARK H PARENT 13 12 15 14 17 16 20 31
REMARK Flexibility Score: inf
ROOT
ATOM      1  O   UNL     1     190.161 203.905 200.791  1.00  0.00    -0.458 OA
ENDROOT
BRANCH   1   2
ATOM      2  C   UNL     1     190.803 205.055 201.342  1.00  0.00     0.339 C 
ATOM      3  C   UNL     1     192.283 203.985 202.907  1.00  0.00     0.199 C 
ATOM      4  C   UNL     1     190.973 203.529 203.622  1.00  0.00     0.180 C 
ATOM      5  O   UNL     1     192.135 204.739 201.703  1.00  0.00    -0.328 OA
ATOM      6  C   UNL     1     189.926 204.659 203.712  1.00  0.00     0.181 C 
ATOM      7  C   UNL     1     190.011 205.654 202.526  1.00  0.00     0.214 C 
BRANCH   3   8
ATOM      8  C   UNL     1     193.166 204.744 203.858  1.00  0.00     0.073 C 
ATOM      9  O   UNL     1     194.051 204.137 204.515  1.00  0.00    -0.547 OA
ATOM     10  O   UNL     1     193.006 206.113 204.032  1.00  0.00    -0.547 OA
ENDBRANCH   3   8
BRANCH   4  11
ATOM     11  O   UNL     1     190.417 202.421 202.962  1.00  0.00    -0.387 OA
ATOM     12  H   UNL     1     190.573 201.628 203.540  1.00  0.00     0.211 HD
ENDBRANCH   4  11
BRANCH   6  13
ATOM     13  O   UNL     1     190.076 205.333 204.938  1.00  0.00    -0.387 OA
ATOM     14  H   UNL     1     189.767 206.267 204.795  1.00  0.00     0.211 HD
ENDBRANCH   6  13
BRANCH   7  15
ATOM     15  O   UNL     1     190.624 206.847 202.941  1.00  0.00    -0.384 OA
ATOM     16  H   UNL     1     190.975 206.695 203.858  1.00  0.00     0.211 HD
ENDBRANCH   7  15
ENDBRANCH   1   2
BRANCH   1  17
ATOM     17  C   UNL     1     190.152 203.631 199.421  1.00  0.00     0.172 A 
ATOM     18  C   UNL     1     191.069 202.725 198.850  1.00  0.00     0.205 A 
ATOM     19  C   UNL     1     189.206 204.268 198.615  1.00  0.00     0.097 A 
ATOM     20  C   UNL     1     191.041 202.492 197.468  1.00  0.00     0.188 A 
ATOM     21  C   UNL     1     189.174 204.047 197.234  1.00  0.00     0.134 A 
ATOM     22  C   UNL     1     190.099 203.155 196.646  1.00  0.00     0.111 A 
ATOM     23  O   UNL     1     191.894 201.617 196.943  1.00  0.00    -0.452 OA
ATOM     24  C   UNL     1     190.128 202.879 195.263  1.00  0.00     0.197 A 
ATOM     25  C   UNL     1     191.925 201.311 195.649  1.00  0.00     0.138 A 
ATOM     26  C   UNL     1     191.047 201.956 194.764  1.00  0.00     0.100 A 
ATOM     27  O   UNL     1     189.340 203.450 194.461  1.00  0.00    -0.289 OA
BRANCH  18  28
ATOM     28  O   UNL     1     192.020 202.041 199.619  1.00  0.00    -0.490 OA
ATOM     29  C   UNL     1     191.771 200.785 200.242  1.00  0.00     0.278 C 
ENDBRANCH  18  28
BRANCH  21  30
ATOM     30  O   UNL     1     188.227 204.710 196.455  1.00  0.00    -0.507 OA
ATOM     31  H   UNL     1     187.285 204.360 196.336  1.00  0.00     0.293 HD
ENDBRANCH  21  30
BRANCH  25  32
ATOM     32  C   UNL     1     192.894 200.289 195.178  1.00  0.00     0.017 A 
ATOM     33  C   UNL     1     193.225 200.225 193.813  1.00  0.00     0.012 A 
ATOM     34  C   UNL     1     193.539 199.413 196.076  1.00  0.00     0.012 A 
ATOM     35  C   UNL     1     194.156 199.288 193.351  1.00  0.00     0.001 A 
ATOM     36  C   UNL     1     194.479 198.489 195.612  1.00  0.00     0.001 A 
ATOM     37  C   UNL     1     194.785 198.426 194.250  1.00  0.00     0.000 A 
ENDBRANCH  25  32
ENDBRANCH   1  17
TORSDOF 9
ENDMDL
