MODEL 1
REMARK VINA RESULT:    -5.899      0.000      0.000
REMARK INTER + INTRA:         -19.227
REMARK INTER:                 -14.865
REMARK INTRA:                  -4.362
REMARK UNBOUND:                -4.362
REMARK SMILES CCCCCCCCCCCCCCCCCCCCCCCCCCCC(=O)[O-]
REMARK SMILES IDX 15 1 16 2 17 3 18 4 19 5 20 6 21 7 22 8 23 9 24 10 25 11
REMARK SMILES IDX 26 12 27 13 28 14 29 15 30 16 14 17 13 18 12 19 11 20 10 21
REMARK SMILES IDX 9 22 8 23 7 24 6 25 5 26 4 27 3 28 2 29 1 30
REMARK H PARENT
REMARK Flexibility Score: inf
ROOT
ATOM      1  C   UNL     1      18.987  -0.600  16.233  1.00  0.00     0.000 C 
ENDROOT
BRANCH   1   2
ATOM      2  C   UNL     1      19.685  -1.904  15.792  1.00  0.00     0.000 C 
BRANCH   2   3
ATOM      3  C   UNL     1      18.889  -2.658  14.712  1.00  0.00     0.000 C 
BRANCH   3   4
ATOM      4  C   UNL     1      18.213  -1.715  13.701  1.00  0.00     0.000 C 
BRANCH   4   5
ATOM      5  C   UNL     1      16.672  -1.773  13.687  1.00  0.00     0.000 C 
BRANCH   5   6
ATOM      6  C   UNL     1      15.967  -0.407  13.802  1.00  0.00     0.000 C 
BRANCH   6   7
ATOM      7  C   UNL     1      14.879  -0.151  12.740  1.00  0.00     0.000 C 
BRANCH   7   8
ATOM      8  C   UNL     1      15.370   0.570  11.467  1.00  0.00     0.000 C 
BRANCH   8   9
ATOM      9  C   UNL     1      16.815   1.097  11.532  1.00  0.00     0.000 C 
BRANCH   9  10
ATOM     10  C   UNL     1      17.708   0.533  10.416  1.00  0.00     0.000 C 
BRANCH  10  11
ATOM     11  C   UNL     1      17.328  -0.917  10.086  1.00  0.00     0.000 C 
BRANCH  11  12
ATOM     12  C   UNL     1      17.923  -1.401   8.754  1.00  0.00     0.006 C 
BRANCH  12  13
ATOM     13  C   UNL     1      18.116  -0.268   7.738  1.00  0.00     0.053 C 
BRANCH  13  14
ATOM     14  C   UNL     1      19.485  -0.327   7.135  1.00  0.00     0.041 C 
ATOM     15  O   UNL     1      20.098   0.737   6.850  1.00  0.00    -0.550 OA
ATOM     16  O   UNL     1      20.097  -1.555   6.918  1.00  0.00    -0.550 OA
ENDBRANCH  13  14
ENDBRANCH  12  13
ENDBRANCH  11  12
ENDBRANCH  10  11
ENDBRANCH   9  10
ENDBRANCH   8   9
ENDBRANCH   7   8
ENDBRANCH   6   7
ENDBRANCH   5   6
ENDBRANCH   4   5
ENDBRANCH   3   4
ENDBRANCH   2   3
ENDBRANCH   1   2
BRANCH   1  17
ATOM     17  C   UNL     1      18.289  -0.699  17.601  1.00  0.00     0.000 C 
BRANCH  17  18
ATOM     18  C   UNL     1      17.205   0.373  17.800  1.00  0.00     0.000 C 
BRANCH  18  19
ATOM     19  C   UNL     1      16.253   0.480  16.600  1.00  0.00     0.000 C 
BRANCH  19  20
ATOM     20  C   UNL     1      15.348   1.720  16.667  1.00  0.00     0.000 C 
BRANCH  20  21
ATOM     21  C   UNL     1      13.884   1.337  16.404  1.00  0.00     0.000 C 
BRANCH  21  22
ATOM     22  C   UNL     1      13.010   1.419  17.665  1.00  0.00    -0.000 C 
BRANCH  22  23
ATOM     23  C   UNL     1      13.725   2.127  18.831  1.00  0.00    -0.000 C 
BRANCH  23  24
ATOM     24  C   UNL     1      14.119   1.162  19.962  1.00  0.00    -0.000 C 
BRANCH  24  25
ATOM     25  C   UNL     1      14.023  -0.336  19.607  1.00  0.00    -0.000 C 
BRANCH  25  26
ATOM     26  C   UNL     1      15.079  -1.214  20.312  1.00  0.00    -0.000 C 
BRANCH  26  27
ATOM     27  C   UNL     1      15.495  -2.424  19.460  1.00  0.00    -0.000 C 
BRANCH  27  28
ATOM     28  C   UNL     1      14.600  -2.561  18.224  1.00  0.00    -0.000 C 
BRANCH  28  29
ATOM     29  C   UNL     1      15.431  -2.900  16.978  1.00  0.00    -0.003 C 
ATOM     30  C   UNL     1      16.666  -3.720  17.346  1.00  0.00     0.004 C 
ENDBRANCH  28  29
ENDBRANCH  27  28
ENDBRANCH  26  27
ENDBRANCH  25  26
ENDBRANCH  24  25
ENDBRANCH  23  24
ENDBRANCH  22  23
ENDBRANCH  21  22
ENDBRANCH  20  21
ENDBRANCH  19  20
ENDBRANCH  18  19
ENDBRANCH  17  18
ENDBRANCH   1  17
TORSDOF 26
ENDMDL
MODEL 2
REMARK VINA RESULT:    -5.628      4.651      7.044
REMARK INTER + INTRA:         -18.545
REMARK INTER:                 -16.066
REMARK INTRA:                  -2.479
REMARK UNBOUND:                -4.362
REMARK SMILES CCCCCCCCCCCCCCCCCCCCCCCCCCCC(=O)[O-]
REMARK SMILES IDX 15 1 16 2 17 3 18 4 19 5 20 6 21 7 22 8 23 9 24 10 25 11
REMARK SMILES IDX 26 12 27 13 28 14 29 15 30 16 14 17 13 18 12 19 11 20 10 21
REMARK SMILES IDX 9 22 8 23 7 24 6 25 5 26 4 27 3 28 2 29 1 30
REMARK H PARENT
REMARK Flexibility Score: inf
ROOT
ATOM      1  C   UNL     1      17.388  -0.979  11.208  1.00  0.00     0.000 C 
ENDROOT
BRANCH   1   2
ATOM      2  C   UNL     1      17.366  -1.442   9.736  1.00  0.00     0.000 C 
BRANCH   2   3
ATOM      3  C   UNL     1      18.041  -0.429   8.793  1.00  0.00     0.000 C 
BRANCH   3   4
ATOM      4  C   UNL     1      18.788  -1.104   7.630  1.00  0.00     0.000 C 
BRANCH   4   5
ATOM      5  C   UNL     1      20.168  -0.497   7.304  1.00  0.00     0.000 C 
BRANCH   5   6
ATOM      6  C   UNL     1      20.916  -1.166   6.134  1.00  0.00     0.000 C 
BRANCH   6   7
ATOM      7  C   UNL     1      21.531  -2.541   6.461  1.00  0.00     0.000 C 
BRANCH   7   8
ATOM      8  C   UNL     1      22.623  -3.016   5.480  1.00  0.00     0.000 C 
BRANCH   8   9
ATOM      9  C   UNL     1      23.937  -2.213   5.531  1.00  0.00     0.000 C 
BRANCH   9  10
ATOM     10  C   UNL     1      25.093  -3.000   6.170  1.00  0.00     0.000 C 
BRANCH  10  11
ATOM     11  C   UNL     1      26.354  -2.132   6.283  1.00  0.00     0.000 C 
BRANCH  11  12
ATOM     12  C   UNL     1      27.298  -2.595   7.404  1.00  0.00     0.006 C 
BRANCH  12  13
ATOM     13  C   UNL     1      28.780  -2.424   7.047  1.00  0.00     0.053 C 
BRANCH  13  14
ATOM     14  C   UNL     1      29.451  -3.756   6.928  1.00  0.00     0.041 C 
ATOM     15  O   UNL     1      28.994  -4.627   6.139  1.00  0.00    -0.550 OA
ATOM     16  O   UNL     1      30.599  -4.026   7.662  1.00  0.00    -0.550 OA
ENDBRANCH  13  14
ENDBRANCH  12  13
ENDBRANCH  11  12
ENDBRANCH  10  11
ENDBRANCH   9  10
ENDBRANCH   8   9
ENDBRANCH   7   8
ENDBRANCH   6   7
ENDBRANCH   5   6
ENDBRANCH   4   5
ENDBRANCH   3   4
ENDBRANCH   2   3
ENDBRANCH   1   2
BRANCH   1  17
ATOM     17  C   UNL     1      17.021   0.503  11.401  1.00  0.00     0.000 C 
BRANCH  17  18
ATOM     18  C   UNL     1      15.503   0.741  11.463  1.00  0.00     0.000 C 
BRANCH  18  19
ATOM     19  C   UNL     1      14.915   0.446  12.850  1.00  0.00     0.000 C 
BRANCH  19  20
ATOM     20  C   UNL     1      15.089   1.615  13.831  1.00  0.00     0.000 C 
BRANCH  20  21
ATOM     21  C   UNL     1      14.376   1.319  15.158  1.00  0.00     0.000 C 
BRANCH  21  22
ATOM     22  C   UNL     1      15.336   1.301  16.359  1.00  0.00    -0.000 C 
BRANCH  22  23
ATOM     23  C   UNL     1      14.712   0.638  17.601  1.00  0.00    -0.000 C 
BRANCH  23  24
ATOM     24  C   UNL     1      15.761   0.000  18.527  1.00  0.00    -0.000 C 
BRANCH  24  25
ATOM     25  C   UNL     1      15.592  -1.515  18.761  1.00  0.00    -0.000 C 
BRANCH  25  26
ATOM     26  C   UNL     1      15.032  -2.278  17.542  1.00  0.00    -0.000 C 
BRANCH  26  27
ATOM     27  C   UNL     1      16.143  -2.788  16.611  1.00  0.00    -0.000 C 
BRANCH  27  28
ATOM     28  C   UNL     1      16.172  -1.993  15.301  1.00  0.00    -0.000 C 
BRANCH  28  29
ATOM     29  C   UNL     1      17.606  -1.585  14.938  1.00  0.00    -0.003 C 
ATOM     30  C   UNL     1      18.329  -0.980  16.139  1.00  0.00     0.004 C 
ENDBRANCH  28  29
ENDBRANCH  27  28
ENDBRANCH  26  27
ENDBRANCH  25  26
ENDBRANCH  24  25
ENDBRANCH  23  24
ENDBRANCH  22  23
ENDBRANCH  21  22
ENDBRANCH  20  21
ENDBRANCH  19  20
ENDBRANCH  18  19
ENDBRANCH  17  18
ENDBRANCH   1  17
TORSDOF 26
ENDMDL
MODEL 3
REMARK VINA RESULT:    -5.543      3.993      6.739
REMARK INTER + INTRA:         -18.332
REMARK INTER:                 -14.623
REMARK INTRA:                  -3.709
REMARK UNBOUND:                -4.362
REMARK SMILES CCCCCCCCCCCCCCCCCCCCCCCCCCCC(=O)[O-]
REMARK SMILES IDX 15 1 16 2 17 3 18 4 19 5 20 6 21 7 22 8 23 9 24 10 25 11
REMARK SMILES IDX 26 12 27 13 28 14 29 15 30 16 14 17 13 18 12 19 11 20 10 21
REMARK SMILES IDX 9 22 8 23 7 24 6 25 5 26 4 27 3 28 2 29 1 30
REMARK H PARENT
REMARK Flexibility Score: inf
ROOT
ATOM      1  C   UNL     1      17.417  -1.095  18.443  1.00  0.00     0.000 C 
ENDROOT
BRANCH   1   2
ATOM      2  C   UNL     1      17.648  -0.223  17.191  1.00  0.00     0.000 C 
BRANCH   2   3
ATOM      3  C   UNL     1      17.233  -0.940  15.893  1.00  0.00     0.000 C 
BRANCH   3   4
ATOM      4  C   UNL     1      18.439  -1.401  15.056  1.00  0.00     0.000 C 
BRANCH   4   5
ATOM      5  C   UNL     1      19.786  -1.412  15.806  1.00  0.00     0.000 C 
BRANCH   5   6
ATOM      6  C   UNL     1      20.506  -2.775  15.835  1.00  0.00     0.000 C 
BRANCH   6   7
ATOM      7  C   UNL     1      22.002  -2.708  16.197  1.00  0.00     0.000 C 
BRANCH   7   8
ATOM      8  C   UNL     1      22.737  -4.065  16.187  1.00  0.00     0.000 C 
BRANCH   8   9
ATOM      9  C   UNL     1      24.272  -3.976  16.280  1.00  0.00     0.000 C 
BRANCH   9  10
ATOM     10  C   UNL     1      24.924  -3.520  14.965  1.00  0.00     0.000 C 
BRANCH  10  11
ATOM     11  C   UNL     1      26.338  -2.975  15.211  1.00  0.00     0.000 C 
BRANCH  11  12
ATOM     12  C   UNL     1      26.454  -1.469  14.928  1.00  0.00     0.006 C 
BRANCH  12  13
ATOM     13  C   UNL     1      25.099  -0.809  14.638  1.00  0.00     0.053 C 
BRANCH  13  14
ATOM     14  C   UNL     1      24.668   0.041  15.791  1.00  0.00     0.041 C 
ATOM     15  O   UNL     1      24.179   1.185  15.587  1.00  0.00    -0.550 OA
ATOM     16  O   UNL     1      24.775  -0.441  17.090  1.00  0.00    -0.550 OA
ENDBRANCH  13  14
ENDBRANCH  12  13
ENDBRANCH  11  12
ENDBRANCH  10  11
ENDBRANCH   9  10
ENDBRANCH   8   9
ENDBRANCH   7   8
ENDBRANCH   6   7
ENDBRANCH   5   6
ENDBRANCH   4   5
ENDBRANCH   3   4
ENDBRANCH   2   3
ENDBRANCH   1   2
BRANCH   1  17
ATOM     17  C   UNL     1      16.893  -2.508  18.131  1.00  0.00     0.000 C 
BRANCH  17  18
ATOM     18  C   UNL     1      15.503  -2.778  18.731  1.00  0.00     0.000 C 
BRANCH  18  19
ATOM     19  C   UNL     1      14.365  -2.245  17.849  1.00  0.00     0.000 C 
BRANCH  19  20
ATOM     20  C   UNL     1      13.297  -1.485  18.651  1.00  0.00     0.000 C 
BRANCH  20  21
ATOM     21  C   UNL     1      13.940  -0.719  19.817  1.00  0.00     0.000 C 
BRANCH  21  22
ATOM     22  C   UNL     1      14.372   0.704  19.428  1.00  0.00    -0.000 C 
BRANCH  22  23
ATOM     23  C   UNL     1      13.440   1.336  18.378  1.00  0.00    -0.000 C 
BRANCH  23  24
ATOM     24  C   UNL     1      14.144   2.401  17.520  1.00  0.00    -0.000 C 
BRANCH  24  25
ATOM     25  C   UNL     1      14.734   1.885  16.191  1.00  0.00    -0.000 C 
BRANCH  25  26
ATOM     26  C   UNL     1      13.966   0.691  15.587  1.00  0.00    -0.000 C 
BRANCH  26  27
ATOM     27  C   UNL     1      14.279   0.488  14.097  1.00  0.00    -0.000 C 
BRANCH  27  28
ATOM     28  C   UNL     1      15.066   1.676  13.533  1.00  0.00    -0.000 C 
BRANCH  28  29
ATOM     29  C   UNL     1      15.433   1.444  12.060  1.00  0.00    -0.003 C 
ATOM     30  C   UNL     1      16.144   0.106  11.874  1.00  0.00     0.004 C 
ENDBRANCH  28  29
ENDBRANCH  27  28
ENDBRANCH  26  27
ENDBRANCH  25  26
ENDBRANCH  24  25
ENDBRANCH  23  24
ENDBRANCH  22  23
ENDBRANCH  21  22
ENDBRANCH  20  21
ENDBRANCH  19  20
ENDBRANCH  18  19
ENDBRANCH  17  18
ENDBRANCH   1  17
TORSDOF 26
ENDMDL
MODEL 4
REMARK VINA RESULT:    -5.522      5.762      8.318
REMARK INTER + INTRA:         -18.276
REMARK INTER:                 -17.087
REMARK INTRA:                  -1.190
REMARK UNBOUND:                -4.362
REMARK SMILES CCCCCCCCCCCCCCCCCCCCCCCCCCCC(=O)[O-]
REMARK SMILES IDX 15 1 16 2 17 3 18 4 19 5 20 6 21 7 22 8 23 9 24 10 25 11
REMARK SMILES IDX 26 12 27 13 28 14 29 15 30 16 14 17 13 18 12 19 11 20 10 21
REMARK SMILES IDX 9 22 8 23 7 24 6 25 5 26 4 27 3 28 2 29 1 30
REMARK H PARENT
REMARK Flexibility Score: inf
ROOT
ATOM      1  C   UNL     1      18.098  -0.249   8.977  1.00  0.00     0.000 C 
ENDROOT
BRANCH   1   2
ATOM      2  C   UNL     1      18.644  -1.142   7.842  1.00  0.00     0.000 C 
BRANCH   2   3
ATOM      3  C   UNL     1      19.994  -0.641   7.300  1.00  0.00     0.000 C 
BRANCH   3   4
ATOM      4  C   UNL     1      20.521  -1.494   6.132  1.00  0.00     0.000 C 
BRANCH   4   5
ATOM      5  C   UNL     1      21.537  -2.583   6.529  1.00  0.00     0.000 C 
BRANCH   5   6
ATOM      6  C   UNL     1      22.574  -2.936   5.443  1.00  0.00     0.000 C 
BRANCH   6   7
ATOM      7  C   UNL     1      23.910  -2.175   5.554  1.00  0.00     0.000 C 
BRANCH   7   8
ATOM      8  C   UNL     1      25.112  -3.032   6.001  1.00  0.00     0.000 C 
BRANCH   8   9
ATOM      9  C   UNL     1      26.334  -2.234   6.492  1.00  0.00     0.000 C 
BRANCH   9  10
ATOM     10  C   UNL     1      27.476  -3.135   6.988  1.00  0.00     0.000 C 
BRANCH  10  11
ATOM     11  C   UNL     1      28.165  -3.848   5.816  1.00  0.00     0.000 C 
BRANCH  11  12
ATOM     12  C   UNL     1      29.698  -3.794   5.904  1.00  0.00     0.006 C 
BRANCH  12  13
ATOM     13  C   UNL     1      30.248  -4.448   7.179  1.00  0.00     0.053 C 
BRANCH  13  14
ATOM     14  C   UNL     1      31.050  -3.465   7.972  1.00  0.00     0.041 C 
ATOM     15  O   UNL     1      30.947  -2.230   7.741  1.00  0.00    -0.550 OA
ATOM     16  O   UNL     1      31.887  -3.909   8.988  1.00  0.00    -0.550 OA
ENDBRANCH  13  14
ENDBRANCH  12  13
ENDBRANCH  11  12
ENDBRANCH  10  11
ENDBRANCH   9  10
ENDBRANCH   8   9
ENDBRANCH   7   8
ENDBRANCH   6   7
ENDBRANCH   5   6
ENDBRANCH   4   5
ENDBRANCH   3   4
ENDBRANCH   2   3
ENDBRANCH   1   2
BRANCH   1  17
ATOM     17  C   UNL     1      17.372  -1.028  10.088  1.00  0.00     0.000 C 
BRANCH  17  18
ATOM     18  C   UNL     1      17.696  -0.504  11.497  1.00  0.00     0.000 C 
BRANCH  18  19
ATOM     19  C   UNL     1      16.437  -0.273  12.345  1.00  0.00     0.000 C 
BRANCH  19  20
ATOM     20  C   UNL     1      15.616   0.937  11.874  1.00  0.00     0.000 C 
BRANCH  20  21
ATOM     21  C   UNL     1      15.104   1.744  13.076  1.00  0.00     0.000 C 
BRANCH  21  22
ATOM     22  C   UNL     1      14.313   0.886  14.077  1.00  0.00    -0.000 C 
BRANCH  22  23
ATOM     23  C   UNL     1      14.587   1.284  15.538  1.00  0.00    -0.000 C 
BRANCH  23  24
ATOM     24  C   UNL     1      13.328   1.787  16.265  1.00  0.00    -0.000 C 
BRANCH  24  25
ATOM     25  C   UNL     1      13.197   1.337  17.734  1.00  0.00    -0.000 C 
BRANCH  25  26
ATOM     26  C   UNL     1      13.799  -0.056  18.018  1.00  0.00    -0.000 C 
BRANCH  26  27
ATOM     27  C   UNL     1      13.971  -0.324  19.521  1.00  0.00    -0.000 C 
BRANCH  27  28
ATOM     28  C   UNL     1      15.443  -0.574  19.871  1.00  0.00    -0.000 C 
BRANCH  28  29
ATOM     29  C   UNL     1      16.165  -1.298  18.726  1.00  0.00    -0.003 C 
ATOM     30  C   UNL     1      15.996  -2.811  18.837  1.00  0.00     0.004 C 
ENDBRANCH  28  29
ENDBRANCH  27  28
ENDBRANCH  26  27
ENDBRANCH  25  26
ENDBRANCH  24  25
ENDBRANCH  23  24
ENDBRANCH  22  23
ENDBRANCH  21  22
ENDBRANCH  20  21
ENDBRANCH  19  20
ENDBRANCH  18  19
ENDBRANCH  17  18
ENDBRANCH   1  17
TORSDOF 26
ENDMDL
MODEL 5
REMARK VINA RESULT:    -5.418      3.538      7.406
REMARK INTER + INTRA:         -18.016
REMARK INTER:                 -15.030
REMARK INTRA:                  -2.987
REMARK UNBOUND:                -4.362
REMARK SMILES CCCCCCCCCCCCCCCCCCCCCCCCCCCC(=O)[O-]
REMARK SMILES IDX 15 1 16 2 17 3 18 4 19 5 20 6 21 7 22 8 23 9 24 10 25 11
REMARK SMILES IDX 26 12 27 13 28 14 29 15 30 16 14 17 13 18 12 19 11 20 10 21
REMARK SMILES IDX 9 22 8 23 7 24 6 25 5 26 4 27 3 28 2 29 1 30
REMARK H PARENT
REMARK Flexibility Score: inf
ROOT
ATOM      1  C   UNL     1      16.923  -2.370  18.104  1.00  0.00     0.000 C 
ENDROOT
BRANCH   1   2
ATOM      2  C   UNL     1      15.659  -2.701  18.926  1.00  0.00     0.000 C 
BRANCH   2   3
ATOM      3  C   UNL     1      14.363  -2.457  18.133  1.00  0.00     0.000 C 
BRANCH   3   4
ATOM      4  C   UNL     1      13.282  -1.740  18.962  1.00  0.00     0.000 C 
BRANCH   4   5
ATOM      5  C   UNL     1      13.803  -1.007  20.214  1.00  0.00     0.000 C 
BRANCH   5   6
ATOM      6  C   UNL     1      14.389   0.395  19.953  1.00  0.00     0.000 C 
BRANCH   6   7
ATOM      7  C   UNL     1      13.830   1.108  18.707  1.00  0.00     0.000 C 
BRANCH   7   8
ATOM      8  C   UNL     1      14.813   1.217  17.522  1.00  0.00     0.000 C 
BRANCH   8   9
ATOM      9  C   UNL     1      14.153   1.287  16.132  1.00  0.00     0.000 C 
BRANCH   9  10
ATOM     10  C   UNL     1      15.166   1.530  15.002  1.00  0.00     0.000 C 
BRANCH  10  11
ATOM     11  C   UNL     1      14.570   1.154  13.638  1.00  0.00     0.000 C 
BRANCH  11  12
ATOM     12  C   UNL     1      15.498   1.507  12.465  1.00  0.00     0.006 C 
BRANCH  12  13
ATOM     13  C   UNL     1      15.516   0.432  11.371  1.00  0.00     0.053 C 
BRANCH  13  14
ATOM     14  C   UNL     1      16.885  -0.155  11.230  1.00  0.00     0.041 C 
ATOM     15  O   UNL     1      17.542  -0.484  12.254  1.00  0.00    -0.550 OA
ATOM     16  O   UNL     1      17.424  -0.369   9.967  1.00  0.00    -0.550 OA
ENDBRANCH  13  14
ENDBRANCH  12  13
ENDBRANCH  11  12
ENDBRANCH  10  11
ENDBRANCH   9  10
ENDBRANCH   8   9
ENDBRANCH   7   8
ENDBRANCH   6   7
ENDBRANCH   5   6
ENDBRANCH   4   5
ENDBRANCH   3   4
ENDBRANCH   2   3
ENDBRANCH   1   2
BRANCH   1  17
ATOM     17  C   UNL     1      17.549  -1.006  18.446  1.00  0.00     0.000 C 
BRANCH  17  18
ATOM     18  C   UNL     1      18.149  -0.297  17.221  1.00  0.00     0.000 C 
BRANCH  18  19
ATOM     19  C   UNL     1      17.856  -1.038  15.908  1.00  0.00     0.000 C 
BRANCH  19  20
ATOM     20  C   UNL     1      19.113  -1.669  15.289  1.00  0.00     0.000 C 
BRANCH  20  21
ATOM     21  C   UNL     1      20.361  -1.302  16.104  1.00  0.00     0.000 C 
BRANCH  21  22
ATOM     22  C   UNL     1      21.388  -2.444  16.168  1.00  0.00    -0.000 C 
BRANCH  22  23
ATOM     23  C   UNL     1      22.839  -1.930  16.171  1.00  0.00    -0.000 C 
BRANCH  23  24
ATOM     24  C   UNL     1      22.928  -0.395  16.167  1.00  0.00    -0.000 C 
BRANCH  24  25
ATOM     25  C   UNL     1      24.279   0.181  15.694  1.00  0.00    -0.000 C 
BRANCH  25  26
ATOM     26  C   UNL     1      25.470  -0.192  16.602  1.00  0.00    -0.000 C 
BRANCH  26  27
ATOM     27  C   UNL     1      26.428  -1.187  15.930  1.00  0.00    -0.000 C 
BRANCH  27  28
ATOM     28  C   UNL     1      26.611  -2.443  16.789  1.00  0.00    -0.000 C 
BRANCH  28  29
ATOM     29  C   UNL     1      26.939  -3.663  15.917  1.00  0.00    -0.003 C 
ATOM     30  C   UNL     1      27.050  -3.275  14.445  1.00  0.00     0.004 C 
ENDBRANCH  28  29
ENDBRANCH  27  28
ENDBRANCH  26  27
ENDBRANCH  25  26
ENDBRANCH  24  25
ENDBRANCH  23  24
ENDBRANCH  22  23
ENDBRANCH  21  22
ENDBRANCH  20  21
ENDBRANCH  19  20
ENDBRANCH  18  19
ENDBRANCH  17  18
ENDBRANCH   1  17
TORSDOF 26
ENDMDL
MODEL 6
REMARK VINA RESULT:    -5.416      9.960     15.027
REMARK INTER + INTRA:         -18.011
REMARK INTER:                 -14.232
REMARK INTRA:                  -3.779
REMARK UNBOUND:                -4.362
REMARK SMILES CCCCCCCCCCCCCCCCCCCCCCCCCCCC(=O)[O-]
REMARK SMILES IDX 15 1 16 2 17 3 18 4 19 5 20 6 21 7 22 8 23 9 24 10 25 11
REMARK SMILES IDX 26 12 27 13 28 14 29 15 30 16 14 17 13 18 12 19 11 20 10 21
REMARK SMILES IDX 9 22 8 23 7 24 6 25 5 26 4 27 3 28 2 29 1 30
REMARK H PARENT
REMARK Flexibility Score: inf
ROOT
ATOM      1  C   UNL     1      28.820  -0.459   9.395  1.00  0.00     0.000 C 
ENDROOT
BRANCH   1   2
ATOM      2  C   UNL     1      28.682  -1.622  10.400  1.00  0.00     0.000 C 
BRANCH   2   3
ATOM      3  C   UNL     1      28.895  -1.169  11.855  1.00  0.00     0.000 C 
BRANCH   3   4
ATOM      4  C   UNL     1      28.248  -2.120  12.877  1.00  0.00     0.000 C 
BRANCH   4   5
ATOM      5  C   UNL     1      27.419  -1.426  13.977  1.00  0.00     0.000 C 
BRANCH   5   6
ATOM      6  C   UNL     1      27.280   0.102  13.824  1.00  0.00     0.000 C 
BRANCH   6   7
ATOM      7  C   UNL     1      26.825   0.840  15.099  1.00  0.00     0.000 C 
BRANCH   7   8
ATOM      8  C   UNL     1      25.512   1.638  14.956  1.00  0.00     0.000 C 
BRANCH   8   9
ATOM      9  C   UNL     1      24.373   1.190  15.890  1.00  0.00     0.000 C 
BRANCH   9  10
ATOM     10  C   UNL     1      24.835   0.182  16.955  1.00  0.00     0.000 C 
BRANCH  10  11
ATOM     11  C   UNL     1      24.334  -1.232  16.628  1.00  0.00     0.000 C 
BRANCH  11  12
ATOM     12  C   UNL     1      25.351  -2.324  16.995  1.00  0.00     0.006 C 
BRANCH  12  13
ATOM     13  C   UNL     1      24.734  -3.728  17.036  1.00  0.00     0.053 C 
BRANCH  13  14
ATOM     14  C   UNL     1      23.905  -3.976  15.815  1.00  0.00     0.041 C 
ATOM     15  O   UNL     1      24.443  -3.980  14.675  1.00  0.00    -0.550 OA
ATOM     16  O   UNL     1      22.546  -4.234  15.937  1.00  0.00    -0.550 OA
ENDBRANCH  13  14
ENDBRANCH  12  13
ENDBRANCH  11  12
ENDBRANCH  10  11
ENDBRANCH   9  10
ENDBRANCH   8   9
ENDBRANCH   7   8
ENDBRANCH   6   7
ENDBRANCH   5   6
ENDBRANCH   4   5
ENDBRANCH   3   4
ENDBRANCH   2   3
ENDBRANCH   1   2
BRANCH   1  17
ATOM     17  C   UNL     1      29.807  -0.741   8.248  1.00  0.00     0.000 C 
BRANCH  17  18
ATOM     18  C   UNL     1      31.206  -0.154   8.502  1.00  0.00     0.000 C 
BRANCH  18  19
ATOM     19  C   UNL     1      31.199   0.946   9.574  1.00  0.00     0.000 C 
BRANCH  19  20
ATOM     20  C   UNL     1      32.158   0.650  10.736  1.00  0.00     0.000 C 
BRANCH  20  21
ATOM     21  C   UNL     1      32.933  -0.651  10.481  1.00  0.00     0.000 C 
BRANCH  21  22
ATOM     22  C   UNL     1      32.535  -1.780  11.445  1.00  0.00    -0.000 C 
BRANCH  22  23
ATOM     23  C   UNL     1      31.993  -3.019  10.709  1.00  0.00    -0.000 C 
BRANCH  23  24
ATOM     24  C   UNL     1      32.706  -3.277   9.371  1.00  0.00    -0.000 C 
BRANCH  24  25
ATOM     25  C   UNL     1      32.055  -4.355   8.480  1.00  0.00    -0.000 C 
BRANCH  25  26
ATOM     26  C   UNL     1      31.372  -3.792   7.215  1.00  0.00    -0.000 C 
BRANCH  26  27
ATOM     27  C   UNL     1      30.058  -4.518   6.889  1.00  0.00    -0.000 C 
BRANCH  27  28
ATOM     28  C   UNL     1      29.184  -3.679   5.950  1.00  0.00    -0.000 C 
BRANCH  28  29
ATOM     29  C   UNL     1      27.694  -3.895   6.246  1.00  0.00    -0.003 C 
ATOM     30  C   UNL     1      27.036  -2.606   6.733  1.00  0.00     0.004 C 
ENDBRANCH  28  29
ENDBRANCH  27  28
ENDBRANCH  26  27
ENDBRANCH  25  26
ENDBRANCH  24  25
ENDBRANCH  23  24
ENDBRANCH  22  23
ENDBRANCH  21  22
ENDBRANCH  20  21
ENDBRANCH  19  20
ENDBRANCH  18  19
ENDBRANCH  17  18
ENDBRANCH   1  17
TORSDOF 26
ENDMDL
MODEL 7
REMARK VINA RESULT:    -5.413      6.660     10.091
REMARK INTER + INTRA:         -18.002
REMARK INTER:                 -16.453
REMARK INTRA:                  -1.549
REMARK UNBOUND:                -4.362
REMARK SMILES CCCCCCCCCCCCCCCCCCCCCCCCCCCC(=O)[O-]
REMARK SMILES IDX 15 1 16 2 17 3 18 4 19 5 20 6 21 7 22 8 23 9 24 10 25 11
REMARK SMILES IDX 26 12 27 13 28 14 29 15 30 16 14 17 13 18 12 19 11 20 10 21
REMARK SMILES IDX 9 22 8 23 7 24 6 25 5 26 4 27 3 28 2 29 1 30
REMARK H PARENT
REMARK Flexibility Score: inf
ROOT
ATOM      1  C   UNL     1      20.693  -0.680   6.436  1.00  0.00     0.000 C 
ENDROOT
BRANCH   1   2
ATOM      2  C   UNL     1      20.937  -2.183   6.689  1.00  0.00     0.000 C 
BRANCH   2   3
ATOM      3  C   UNL     1      21.890  -2.804   5.652  1.00  0.00     0.000 C 
BRANCH   3   4
ATOM      4  C   UNL     1      23.263  -2.109   5.612  1.00  0.00     0.000 C 
BRANCH   4   5
ATOM      5  C   UNL     1      24.449  -2.984   6.063  1.00  0.00     0.000 C 
BRANCH   5   6
ATOM      6  C   UNL     1      25.843  -2.392   5.777  1.00  0.00     0.000 C 
BRANCH   6   7
ATOM      7  C   UNL     1      26.988  -3.002   6.610  1.00  0.00     0.000 C 
BRANCH   7   8
ATOM      8  C   UNL     1      28.284  -3.289   5.824  1.00  0.00     0.000 C 
BRANCH   8   9
ATOM      9  C   UNL     1      29.004  -4.595   6.208  1.00  0.00     0.000 C 
BRANCH   9  10
ATOM     10  C   UNL     1      30.375  -4.351   6.861  1.00  0.00     0.000 C 
BRANCH  10  11
ATOM     11  C   UNL     1      30.676  -2.850   6.967  1.00  0.00     0.000 C 
BRANCH  11  12
ATOM     12  C   UNL     1      31.353  -2.471   8.293  1.00  0.00     0.006 C 
BRANCH  12  13
ATOM     13  C   UNL     1      30.395  -1.795   9.283  1.00  0.00     0.053 C 
BRANCH  13  14
ATOM     14  C   UNL     1      30.827  -0.389   9.559  1.00  0.00     0.041 C 
ATOM     15  O   UNL     1      31.418   0.279   8.667  1.00  0.00    -0.550 OA
ATOM     16  O   UNL     1      30.550   0.197  10.788  1.00  0.00    -0.550 OA
ENDBRANCH  13  14
ENDBRANCH  12  13
ENDBRANCH  11  12
ENDBRANCH  10  11
ENDBRANCH   9  10
ENDBRANCH   8   9
ENDBRANCH   7   8
ENDBRANCH   6   7
ENDBRANCH   5   6
ENDBRANCH   4   5
ENDBRANCH   3   4
ENDBRANCH   2   3
ENDBRANCH   1   2
BRANCH   1  17
ATOM     17  C   UNL     1      19.358  -0.163   7.001  1.00  0.00     0.000 C 
BRANCH  17  18
ATOM     18  C   UNL     1      18.653  -1.186   7.907  1.00  0.00     0.000 C 
BRANCH  18  19
ATOM     19  C   UNL     1      17.693  -0.527   8.908  1.00  0.00     0.000 C 
BRANCH  19  20
ATOM     20  C   UNL     1      17.351  -1.442  10.094  1.00  0.00     0.000 C 
BRANCH  20  21
ATOM     21  C   UNL     1      17.471  -0.677  11.419  1.00  0.00     0.000 C 
BRANCH  21  22
ATOM     22  C   UNL     1      16.936   0.761  11.328  1.00  0.00    -0.000 C 
BRANCH  22  23
ATOM     23  C   UNL     1      15.443   0.858  11.692  1.00  0.00    -0.000 C 
BRANCH  23  24
ATOM     24  C   UNL     1      15.164   1.896  12.793  1.00  0.00    -0.000 C 
BRANCH  24  25
ATOM     25  C   UNL     1      15.039   1.320  14.218  1.00  0.00    -0.000 C 
BRANCH  25  26
ATOM     26  C   UNL     1      15.096  -0.221  14.278  1.00  0.00    -0.000 C 
BRANCH  26  27
ATOM     27  C   UNL     1      15.978  -0.730  15.428  1.00  0.00    -0.000 C 
BRANCH  27  28
ATOM     28  C   UNL     1      16.012   0.278  16.583  1.00  0.00    -0.000 C 
BRANCH  28  29
ATOM     29  C   UNL     1      17.288   0.112  17.420  1.00  0.00    -0.003 C 
ATOM     30  C   UNL     1      16.992  -0.594  18.741  1.00  0.00     0.004 C 
ENDBRANCH  28  29
ENDBRANCH  27  28
ENDBRANCH  26  27
ENDBRANCH  25  26
ENDBRANCH  24  25
ENDBRANCH  23  24
ENDBRANCH  22  23
ENDBRANCH  21  22
ENDBRANCH  20  21
ENDBRANCH  19  20
ENDBRANCH  18  19
ENDBRANCH  17  18
ENDBRANCH   1  17
TORSDOF 26
ENDMDL
MODEL 8
REMARK VINA RESULT:    -5.359      3.981      6.256
REMARK INTER + INTRA:         -17.868
REMARK INTER:                 -15.006
REMARK INTRA:                  -2.862
REMARK UNBOUND:                -4.362
REMARK SMILES CCCCCCCCCCCCCCCCCCCCCCCCCCCC(=O)[O-]
REMARK SMILES IDX 15 1 16 2 17 3 18 4 19 5 20 6 21 7 22 8 23 9 24 10 25 11
REMARK SMILES IDX 26 12 27 13 28 14 29 15 30 16 14 17 13 18 12 19 11 20 10 21
REMARK SMILES IDX 9 22 8 23 7 24 6 25 5 26 4 27 3 28 2 29 1 30
REMARK H PARENT
REMARK Flexibility Score: inf
ROOT
ATOM      1  C   UNL     1      17.539  -0.214  12.036  1.00  0.00     0.000 C 
ENDROOT
BRANCH   1   2
ATOM      2  C   UNL     1      17.516  -1.695  12.468  1.00  0.00     0.000 C 
BRANCH   2   3
ATOM      3  C   UNL     1      17.144  -1.868  13.951  1.00  0.00     0.000 C 
BRANCH   3   4
ATOM      4  C   UNL     1      18.221  -1.318  14.904  1.00  0.00     0.000 C 
BRANCH   4   5
ATOM      5  C   UNL     1      19.340  -2.315  15.266  1.00  0.00     0.000 C 
BRANCH   5   6
ATOM      6  C   UNL     1      20.413  -1.770  16.229  1.00  0.00     0.000 C 
BRANCH   6   7
ATOM      7  C   UNL     1      21.788  -2.460  16.122  1.00  0.00     0.000 C 
BRANCH   7   8
ATOM      8  C   UNL     1      23.002  -1.514  16.234  1.00  0.00     0.000 C 
BRANCH   8   9
ATOM      9  C   UNL     1      22.659  -0.013  16.249  1.00  0.00     0.000 C 
BRANCH   9  10
ATOM     10  C   UNL     1      23.897   0.881  16.426  1.00  0.00     0.000 C 
BRANCH  10  11
ATOM     11  C   UNL     1      24.995   0.152  17.214  1.00  0.00     0.000 C 
BRANCH  11  12
ATOM     12  C   UNL     1      26.390   0.334  16.597  1.00  0.00     0.006 C 
BRANCH  12  13
ATOM     13  C   UNL     1      26.756  -0.779  15.605  1.00  0.00     0.053 C 
BRANCH  13  14
ATOM     14  C   UNL     1      27.167  -0.197  14.289  1.00  0.00     0.041 C 
ATOM     15  O   UNL     1      27.088   1.046  14.093  1.00  0.00    -0.550 OA
ATOM     16  O   UNL     1      27.667  -1.022  13.289  1.00  0.00    -0.550 OA
ENDBRANCH  13  14
ENDBRANCH  12  13
ENDBRANCH  11  12
ENDBRANCH  10  11
ENDBRANCH   9  10
ENDBRANCH   8   9
ENDBRANCH   7   8
ENDBRANCH   6   7
ENDBRANCH   5   6
ENDBRANCH   4   5
ENDBRANCH   3   4
ENDBRANCH   2   3
ENDBRANCH   1   2
BRANCH   1  17
ATOM     17  C   UNL     1      16.273   0.234  11.283  1.00  0.00     0.000 C 
BRANCH  17  18
ATOM     18  C   UNL     1      15.442   1.263  12.067  1.00  0.00     0.000 C 
BRANCH  18  19
ATOM     19  C   UNL     1      14.688   0.637  13.249  1.00  0.00     0.000 C 
BRANCH  19  20
ATOM     20  C   UNL     1      15.144   1.193  14.607  1.00  0.00     0.000 C 
BRANCH  20  21
ATOM     21  C   UNL     1      14.035   1.032  15.656  1.00  0.00     0.000 C 
BRANCH  21  22
ATOM     22  C   UNL     1      14.248   1.925  16.889  1.00  0.00    -0.000 C 
BRANCH  22  23
ATOM     23  C   UNL     1      13.290   1.573  18.043  1.00  0.00    -0.000 C 
BRANCH  23  24
ATOM     24  C   UNL     1      14.025   1.315  19.369  1.00  0.00    -0.000 C 
BRANCH  24  25
ATOM     25  C   UNL     1      14.086  -0.163  19.806  1.00  0.00    -0.000 C 
BRANCH  25  26
ATOM     26  C   UNL     1      15.521  -0.708  19.969  1.00  0.00    -0.000 C 
BRANCH  26  27
ATOM     27  C   UNL     1      16.285  -0.750  18.637  1.00  0.00    -0.000 C 
BRANCH  27  28
ATOM     28  C   UNL     1      16.751  -2.174  18.314  1.00  0.00    -0.000 C 
BRANCH  28  29
ATOM     29  C   UNL     1      15.847  -2.822  17.256  1.00  0.00    -0.003 C 
ATOM     30  C   UNL     1      14.486  -3.188  17.844  1.00  0.00     0.004 C 
ENDBRANCH  28  29
ENDBRANCH  27  28
ENDBRANCH  26  27
ENDBRANCH  25  26
ENDBRANCH  24  25
ENDBRANCH  23  24
ENDBRANCH  22  23
ENDBRANCH  21  22
ENDBRANCH  20  21
ENDBRANCH  19  20
ENDBRANCH  18  19
ENDBRANCH  17  18
ENDBRANCH   1  17
TORSDOF 26
ENDMDL
MODEL 9
REMARK VINA RESULT:    -5.295      4.324      6.951
REMARK INTER + INTRA:         -17.704
REMARK INTER:                 -14.888
REMARK INTRA:                  -2.816
REMARK UNBOUND:                -4.362
REMARK SMILES CCCCCCCCCCCCCCCCCCCCCCCCCCCC(=O)[O-]
REMARK SMILES IDX 15 1 16 2 17 3 18 4 19 5 20 6 21 7 22 8 23 9 24 10 25 11
REMARK SMILES IDX 26 12 27 13 28 14 29 15 30 16 14 17 13 18 12 19 11 20 10 21
REMARK SMILES IDX 9 22 8 23 7 24 6 25 5 26 4 27 3 28 2 29 1 30
REMARK H PARENT
REMARK Flexibility Score: inf
ROOT
ATOM      1  C   UNL     1      17.129  -0.014  17.343  1.00  0.00     0.000 C 
ENDROOT
BRANCH   1   2
ATOM      2  C   UNL     1      16.981  -0.669  15.954  1.00  0.00     0.000 C 
BRANCH   2   3
ATOM      3  C   UNL     1      17.869  -1.917  15.797  1.00  0.00     0.000 C 
BRANCH   3   4
ATOM      4  C   UNL     1      19.259  -1.591  15.223  1.00  0.00     0.000 C 
BRANCH   4   5
ATOM      5  C   UNL     1      20.353  -1.326  16.278  1.00  0.00     0.000 C 
BRANCH   5   6
ATOM      6  C   UNL     1      21.116   0.002  16.106  1.00  0.00     0.000 C 
BRANCH   6   7
ATOM      7  C   UNL     1      22.645  -0.106  16.268  1.00  0.00     0.000 C 
BRANCH   7   8
ATOM      8  C   UNL     1      23.366   1.228  16.556  1.00  0.00     0.000 C 
BRANCH   8   9
ATOM      9  C   UNL     1      24.878   1.227  16.263  1.00  0.00     0.000 C 
BRANCH   9  10
ATOM     10  C   UNL     1      25.198   1.042  14.771  1.00  0.00     0.000 C 
BRANCH  10  11
ATOM     11  C   UNL     1      26.621   0.499  14.576  1.00  0.00     0.000 C 
BRANCH  11  12
ATOM     12  C   UNL     1      26.765  -0.966  15.016  1.00  0.00     0.006 C 
BRANCH  12  13
ATOM     13  C   UNL     1      25.492  -1.790  14.778  1.00  0.00     0.053 C 
BRANCH  13  14
ATOM     14  C   UNL     1      25.291  -2.779  15.882  1.00  0.00     0.041 C 
ATOM     15  O   UNL     1      25.417  -4.014  15.657  1.00  0.00    -0.550 OA
ATOM     16  O   UNL     1      24.996  -2.339  17.166  1.00  0.00    -0.550 OA
ENDBRANCH  13  14
ENDBRANCH  12  13
ENDBRANCH  11  12
ENDBRANCH  10  11
ENDBRANCH   9  10
ENDBRANCH   8   9
ENDBRANCH   7   8
ENDBRANCH   6   7
ENDBRANCH   5   6
ENDBRANCH   4   5
ENDBRANCH   3   4
ENDBRANCH   2   3
ENDBRANCH   1   2
BRANCH   1  17
ATOM     17  C   UNL     1      17.245  -1.024  18.499  1.00  0.00     0.000 C 
BRANCH  17  18
ATOM     18  C   UNL     1      16.149  -0.845  19.563  1.00  0.00     0.000 C 
BRANCH  18  19
ATOM     19  C   UNL     1      14.893  -1.675  19.262  1.00  0.00     0.000 C 
BRANCH  19  20
ATOM     20  C   UNL     1      13.594  -0.877  19.452  1.00  0.00     0.000 C 
BRANCH  20  21
ATOM     21  C   UNL     1      13.244  -0.100  18.175  1.00  0.00     0.000 C 
BRANCH  21  22
ATOM     22  C   UNL     1      13.398   1.421  18.341  1.00  0.00    -0.000 C 
BRANCH  22  23
ATOM     23  C   UNL     1      13.263   2.175  17.006  1.00  0.00    -0.000 C 
BRANCH  23  24
ATOM     24  C   UNL     1      14.402   1.857  16.023  1.00  0.00    -0.000 C 
BRANCH  24  25
ATOM     25  C   UNL     1      13.956   1.237  14.683  1.00  0.00    -0.000 C 
BRANCH  25  26
ATOM     26  C   UNL     1      14.846   1.630  13.485  1.00  0.00    -0.000 C 
BRANCH  26  27
ATOM     27  C   UNL     1      15.232   0.420  12.621  1.00  0.00    -0.000 C 
BRANCH  27  28
ATOM     28  C   UNL     1      15.918   0.865  11.324  1.00  0.00    -0.000 C 
BRANCH  28  29
ATOM     29  C   UNL     1      17.022  -0.122  10.920  1.00  0.00    -0.003 C 
ATOM     30  C   UNL     1      17.448  -0.988  12.103  1.00  0.00     0.004 C 
ENDBRANCH  28  29
ENDBRANCH  27  28
ENDBRANCH  26  27
ENDBRANCH  25  26
ENDBRANCH  24  25
ENDBRANCH  23  24
ENDBRANCH  22  23
ENDBRANCH  21  22
ENDBRANCH  20  21
ENDBRANCH  19  20
ENDBRANCH  18  19
ENDBRANCH  17  18
ENDBRANCH   1  17
TORSDOF 26
ENDMDL
