MODEL 1
REMARK VINA RESULT:    -3.127      0.000      0.000
REMARK INTER + INTRA:          -3.720
REMARK INTER:                  -3.676
REMARK INTRA:                  -0.044
REMARK UNBOUND:                -0.044
REMARK SMILES CCCCC(=O)[O-]
REMARK SMILES IDX 4 1 5 2 6 3 7 4 3 5 2 6 1 7
REMARK H PARENT
REMARK Flexibility Score: inf
ROOT
ATOM      1  C   UNL     1       3.838  28.918   7.947  1.00  0.00     0.053 C 
ENDROOT
BRANCH   1   2
ATOM      2  C   UNL     1       2.734  29.744   8.528  1.00  0.00     0.041 C 
ATOM      3  O   UNL     1       2.978  30.575   9.442  1.00  0.00    -0.550 OA
ATOM      4  O   UNL     1       1.444  29.633   8.026  1.00  0.00    -0.550 OA
ENDBRANCH   1   2
BRANCH   1   5
ATOM      5  C   UNL     1       3.999  27.613   8.731  1.00  0.00     0.006 C 
BRANCH   5   6
ATOM      6  C   UNL     1       5.321  27.599   9.508  1.00  0.00    -0.003 C 
ATOM      7  C   UNL     1       5.543  26.254  10.194  1.00  0.00     0.004 C 
ENDBRANCH   5   6
ENDBRANCH   1   5
TORSDOF 3
ENDMDL
MODEL 2
REMARK VINA RESULT:    -2.381      7.644      8.418
REMARK INTER + INTRA:          -2.842
REMARK INTER:                  -2.804
REMARK INTRA:                  -0.038
REMARK UNBOUND:                -0.044
REMARK SMILES CCCCC(=O)[O-]
REMARK SMILES IDX 4 1 5 2 6 3 7 4 3 5 2 6 1 7
REMARK H PARENT
REMARK Flexibility Score: inf
ROOT
ATOM      1  C   UNL     1      11.923  28.434   9.959  1.00  0.00     0.053 C 
ENDROOT
BRANCH   1   2
ATOM      2  C   UNL     1      11.207  29.747   9.975  1.00  0.00     0.041 C 
ATOM      3  O   UNL     1      10.310  29.991   9.126  1.00  0.00    -0.550 OA
ATOM      4  O   UNL     1      11.496  30.684  10.959  1.00  0.00    -0.550 OA
ENDBRANCH   1   2
BRANCH   1   5
ATOM      5  C   UNL     1      12.115  27.946   8.520  1.00  0.00     0.006 C 
BRANCH   5   6
ATOM      6  C   UNL     1      12.856  26.605   8.489  1.00  0.00    -0.003 C 
ATOM      7  C   UNL     1      13.450  26.271   9.854  1.00  0.00     0.004 C 
ENDBRANCH   5   6
ENDBRANCH   1   5
TORSDOF 3
ENDMDL
MODEL 3
REMARK VINA RESULT:    -2.375     12.434     12.924
REMARK INTER + INTRA:          -2.835
REMARK INTER:                  -2.820
REMARK INTRA:                  -0.016
REMARK UNBOUND:                -0.044
REMARK SMILES CCCCC(=O)[O-]
REMARK SMILES IDX 4 1 5 2 6 3 7 4 3 5 2 6 1 7
REMARK H PARENT
REMARK Flexibility Score: inf
ROOT
ATOM      1  C   UNL     1      -4.711  20.938  13.372  1.00  0.00     0.053 C 
ENDROOT
BRANCH   1   2
ATOM      2  C   UNL     1      -4.203  21.009  14.777  1.00  0.00     0.041 C 
ATOM      3  O   UNL     1      -4.970  21.361  15.711  1.00  0.00    -0.550 OA
ATOM      4  O   UNL     1      -2.896  20.638  15.064  1.00  0.00    -0.550 OA
ENDBRANCH   1   2
BRANCH   1   5
ATOM      5  C   UNL     1      -4.761  19.484  12.892  1.00  0.00     0.006 C 
BRANCH   5   6
ATOM      6  C   UNL     1      -5.125  19.409  11.405  1.00  0.00    -0.003 C 
ATOM      7  C   UNL     1      -4.395  18.259  10.717  1.00  0.00     0.004 C 
ENDBRANCH   5   6
ENDBRANCH   1   5
TORSDOF 3
ENDMDL
MODEL 4
REMARK VINA RESULT:    -2.338     15.665     16.681
REMARK INTER + INTRA:          -2.792
REMARK INTER:                  -2.689
REMARK INTRA:                  -0.103
REMARK UNBOUND:                -0.044
REMARK SMILES CCCCC(=O)[O-]
REMARK SMILES IDX 4 1 5 2 6 3 7 4 3 5 2 6 1 7
REMARK H PARENT
REMARK Flexibility Score: inf
ROOT
ATOM      1  C   UNL     1      -2.272  12.831  10.592  1.00  0.00     0.053 C 
ENDROOT
BRANCH   1   2
ATOM      2  C   UNL     1      -1.754  14.194  10.257  1.00  0.00     0.041 C 
ATOM      3  O   UNL     1      -2.369  14.920   9.432  1.00  0.00    -0.550 OA
ATOM      4  O   UNL     1      -0.619  14.683  10.891  1.00  0.00    -0.550 OA
ENDBRANCH   1   2
BRANCH   1   5
ATOM      5  C   UNL     1      -1.797  11.808   9.556  1.00  0.00     0.006 C 
BRANCH   5   6
ATOM      6  C   UNL     1      -0.578  11.032  10.069  1.00  0.00    -0.003 C 
ATOM      7  C   UNL     1      -0.623  10.875  11.586  1.00  0.00     0.004 C 
ENDBRANCH   5   6
ENDBRANCH   1   5
TORSDOF 3
ENDMDL
MODEL 5
REMARK VINA RESULT:    -2.276     15.626     16.664
REMARK INTER + INTRA:          -2.719
REMARK INTER:                  -2.629
REMARK INTRA:                  -0.090
REMARK UNBOUND:                -0.044
REMARK SMILES CCCCC(=O)[O-]
REMARK SMILES IDX 4 1 5 2 6 3 7 4 3 5 2 6 1 7
REMARK H PARENT
REMARK Flexibility Score: inf
ROOT
ATOM      1  C   UNL     1      -1.231  13.652  10.708  1.00  0.00     0.053 C 
ENDROOT
BRANCH   1   2
ATOM      2  C   UNL     1      -2.415  14.171   9.955  1.00  0.00     0.041 C 
ATOM      3  O   UNL     1      -3.515  13.561  10.006  1.00  0.00    -0.550 OA
ATOM      4  O   UNL     1      -2.317  15.355   9.235  1.00  0.00    -0.550 OA
ENDBRANCH   1   2
BRANCH   1   5
ATOM      5  C   UNL     1      -1.483  12.218  11.180  1.00  0.00     0.006 C 
BRANCH   5   6
ATOM      6  C   UNL     1      -0.498  11.242  10.525  1.00  0.00    -0.003 C 
ATOM      7  C   UNL     1      -0.937  10.884   9.108  1.00  0.00     0.004 C 
ENDBRANCH   5   6
ENDBRANCH   1   5
TORSDOF 3
ENDMDL
MODEL 6
REMARK VINA RESULT:    -2.240     16.194     17.489
REMARK INTER + INTRA:          -2.676
REMARK INTER:                  -2.634
REMARK INTRA:                  -0.042
REMARK UNBOUND:                -0.044
REMARK SMILES CCCCC(=O)[O-]
REMARK SMILES IDX 4 1 5 2 6 3 7 4 3 5 2 6 1 7
REMARK H PARENT
REMARK Flexibility Score: inf
ROOT
ATOM      1  C   UNL     1      14.634  26.853  22.660  1.00  0.00     0.053 C 
ENDROOT
BRANCH   1   2
ATOM      2  C   UNL     1      14.297  27.035  21.214  1.00  0.00     0.041 C 
ATOM      3  O   UNL     1      13.656  28.051  20.836  1.00  0.00    -0.550 OA
ATOM      4  O   UNL     1      14.732  26.108  20.276  1.00  0.00    -0.550 OA
ENDBRANCH   1   2
BRANCH   1   5
ATOM      5  C   UNL     1      13.357  26.730  23.496  1.00  0.00     0.006 C 
BRANCH   5   6
ATOM      6  C   UNL     1      13.601  25.879  24.748  1.00  0.00    -0.003 C 
ATOM      7  C   UNL     1      15.009  25.292  24.750  1.00  0.00     0.004 C 
ENDBRANCH   5   6
ENDBRANCH   1   5
TORSDOF 3
ENDMDL
MODEL 7
REMARK VINA RESULT:    -2.233     15.951     17.010
REMARK INTER + INTRA:          -2.669
REMARK INTER:                  -2.574
REMARK INTRA:                  -0.095
REMARK UNBOUND:                -0.044
REMARK SMILES CCCCC(=O)[O-]
REMARK SMILES IDX 4 1 5 2 6 3 7 4 3 5 2 6 1 7
REMARK H PARENT
REMARK Flexibility Score: inf
ROOT
ATOM      1  C   UNL     1      -1.396  12.691  11.244  1.00  0.00     0.053 C 
ENDROOT
BRANCH   1   2
ATOM      2  C   UNL     1      -1.343  14.045  10.612  1.00  0.00     0.041 C 
ATOM      3  O   UNL     1      -2.214  14.385   9.769  1.00  0.00    -0.550 OA
ATOM      4  O   UNL     1      -0.361  14.952  10.991  1.00  0.00    -0.550 OA
ENDBRANCH   1   2
BRANCH   1   5
ATOM      5  C   UNL     1      -1.178  11.600  10.192  1.00  0.00     0.006 C 
BRANCH   5   6
ATOM      6  C   UNL     1      -2.491  10.876   9.870  1.00  0.00    -0.003 C 
ATOM      7  C   UNL     1      -3.509  11.056  10.993  1.00  0.00     0.004 C 
ENDBRANCH   5   6
ENDBRANCH   1   5
TORSDOF 3
ENDMDL
MODEL 8
REMARK VINA RESULT:    -2.218     17.238     18.388
REMARK INTER + INTRA:          -2.651
REMARK INTER:                  -2.609
REMARK INTRA:                  -0.042
REMARK UNBOUND:                -0.044
REMARK SMILES CCCCC(=O)[O-]
REMARK SMILES IDX 4 1 5 2 6 3 7 4 3 5 2 6 1 7
REMARK H PARENT
REMARK Flexibility Score: inf
ROOT
ATOM      1  C   UNL     1      13.252  27.024  23.472  1.00  0.00     0.053 C 
ENDROOT
BRANCH   1   2
ATOM      2  C   UNL     1      12.743  28.361  23.908  1.00  0.00     0.041 C 
ATOM      3  O   UNL     1      12.818  28.705  25.116  1.00  0.00    -0.550 OA
ATOM      4  O   UNL     1      12.230  29.249  22.970  1.00  0.00    -0.550 OA
ENDBRANCH   1   2
BRANCH   1   5
ATOM      5  C   UNL     1      13.470  26.113  24.684  1.00  0.00     0.006 C 
BRANCH   5   6
ATOM      6  C   UNL     1      14.879  25.508  24.670  1.00  0.00    -0.003 C 
ATOM      7  C   UNL     1      15.056  24.495  25.797  1.00  0.00     0.004 C 
ENDBRANCH   5   6
ENDBRANCH   1   5
TORSDOF 3
ENDMDL
