MODEL 1
REMARK VINA RESULT:    -2.895      0.000      0.000
REMARK INTER + INTRA:          -3.557
REMARK INTER:                  -3.571
REMARK INTRA:                   0.015
REMARK UNBOUND:                 0.015
REMARK SMILES CCCCCC(=O)[O-]
REMARK SMILES IDX 4 1 5 2 6 3 7 4 8 5 3 6 2 7 1 8
REMARK H PARENT
REMARK Flexibility Score: inf
ROOT
ATOM      1  C   UNL     1      87.042  65.601 109.625  1.00  0.00     0.006 C 
ENDROOT
BRANCH   1   2
ATOM      2  C   UNL     1      87.858  64.713 110.576  1.00  0.00     0.053 C 
BRANCH   2   3
ATOM      3  C   UNL     1      87.742  63.262 110.220  1.00  0.00     0.041 C 
ATOM      4  O   UNL     1      87.584  62.400 111.124  1.00  0.00    -0.550 OA
ATOM      5  O   UNL     1      87.779  62.866 108.890  1.00  0.00    -0.550 OA
ENDBRANCH   2   3
ENDBRANCH   1   2
BRANCH   1   6
ATOM      6  C   UNL     1      86.064  66.515 110.383  1.00  0.00     0.000 C 
BRANCH   6   7
ATOM      7  C   UNL     1      86.779  67.655 111.125  1.00  0.00    -0.003 C 
ATOM      8  C   UNL     1      88.022  68.154 110.388  1.00  0.00     0.004 C 
ENDBRANCH   6   7
ENDBRANCH   1   6
TORSDOF 4
ENDMDL
MODEL 2
REMARK VINA RESULT:    -2.818     17.432     18.286
REMARK INTER + INTRA:          -3.462
REMARK INTER:                  -3.381
REMARK INTRA:                  -0.082
REMARK UNBOUND:                 0.015
REMARK SMILES CCCCCC(=O)[O-]
REMARK SMILES IDX 4 1 5 2 6 3 7 4 8 5 3 6 2 7 1 8
REMARK H PARENT
REMARK Flexibility Score: inf
ROOT
ATOM      1  C   UNL     1      75.374  62.127  97.163  1.00  0.00     0.006 C 
ENDROOT
BRANCH   1   2
ATOM      2  C   UNL     1      75.412  63.093  98.356  1.00  0.00     0.053 C 
BRANCH   2   3
ATOM      3  C   UNL     1      74.467  64.241  98.174  1.00  0.00     0.041 C 
ATOM      4  O   UNL     1      73.550  64.445  99.012  1.00  0.00    -0.550 OA
ATOM      5  O   UNL     1      74.617  65.103  97.096  1.00  0.00    -0.550 OA
ENDBRANCH   2   3
ENDBRANCH   1   2
BRANCH   1   6
ATOM      6  C   UNL     1      75.365  60.655  97.609  1.00  0.00     0.000 C 
BRANCH   6   7
ATOM      7  C   UNL     1      76.586  59.877  97.093  1.00  0.00    -0.003 C 
ATOM      8  C   UNL     1      76.927  60.205  95.640  1.00  0.00     0.004 C 
ENDBRANCH   6   7
ENDBRANCH   1   6
TORSDOF 4
ENDMDL
MODEL 3
REMARK VINA RESULT:    -2.484     17.329     17.929
REMARK INTER + INTRA:          -3.050
REMARK INTER:                  -2.925
REMARK INTRA:                  -0.125
REMARK UNBOUND:                 0.015
REMARK SMILES CCCCCC(=O)[O-]
REMARK SMILES IDX 4 1 5 2 6 3 7 4 8 5 3 6 2 7 1 8
REMARK H PARENT
REMARK Flexibility Score: inf
ROOT
ATOM      1  C   UNL     1      75.365  62.187  97.974  1.00  0.00     0.006 C 
ENDROOT
BRANCH   1   2
ATOM      2  C   UNL     1      75.187  60.760  97.436  1.00  0.00     0.053 C 
BRANCH   2   3
ATOM      3  C   UNL     1      76.408  60.282  96.710  1.00  0.00     0.041 C 
ATOM      4  O   UNL     1      76.432  60.271  95.452  1.00  0.00    -0.550 OA
ATOM      5  O   UNL     1      77.528  59.877  97.423  1.00  0.00    -0.550 OA
ENDBRANCH   2   3
ENDBRANCH   1   2
BRANCH   1   6
ATOM      6  C   UNL     1      75.065  63.251  96.903  1.00  0.00     0.000 C 
BRANCH   6   7
ATOM      7  C   UNL     1      74.648  64.598  97.514  1.00  0.00    -0.003 C 
ATOM      8  C   UNL     1      73.960  64.445  98.871  1.00  0.00     0.004 C 
ENDBRANCH   6   7
ENDBRANCH   1   6
TORSDOF 4
ENDMDL
MODEL 4
REMARK VINA RESULT:    -2.342     17.230     17.951
REMARK INTER + INTRA:          -2.874
REMARK INTER:                  -2.988
REMARK INTRA:                   0.114
REMARK UNBOUND:                 0.015
REMARK SMILES CCCCCC(=O)[O-]
REMARK SMILES IDX 4 1 5 2 6 3 7 4 8 5 3 6 2 7 1 8
REMARK H PARENT
REMARK Flexibility Score: inf
ROOT
ATOM      1  C   UNL     1      75.759  62.672  98.192  1.00  0.00     0.006 C 
ENDROOT
BRANCH   1   2
ATOM      2  C   UNL     1      75.198  61.329  97.703  1.00  0.00     0.053 C 
BRANCH   2   3
ATOM      3  C   UNL     1      76.193  60.581  96.869  1.00  0.00     0.041 C 
ATOM      4  O   UNL     1      77.078  59.876  97.420  1.00  0.00    -0.550 OA
ATOM      5  O   UNL     1      76.123  60.638  95.483  1.00  0.00    -0.550 OA
ENDBRANCH   2   3
ENDBRANCH   1   2
BRANCH   1   6
ATOM      6  C   UNL     1      74.645  63.684  98.514  1.00  0.00     0.000 C 
BRANCH   6   7
ATOM      7  C   UNL     1      74.338  64.616  97.332  1.00  0.00    -0.003 C 
ATOM      8  C   UNL     1      74.876  64.086  96.003  1.00  0.00     0.004 C 
ENDBRANCH   6   7
ENDBRANCH   1   6
TORSDOF 4
ENDMDL
MODEL 5
REMARK VINA RESULT:    -2.289      3.136      4.525
REMARK INTER + INTRA:          -2.809
REMARK INTER:                  -2.707
REMARK INTRA:                  -0.103
REMARK UNBOUND:                 0.015
REMARK SMILES CCCCCC(=O)[O-]
REMARK SMILES IDX 4 1 5 2 6 3 7 4 8 5 3 6 2 7 1 8
REMARK H PARENT
REMARK Flexibility Score: inf
ROOT
ATOM      1  C   UNL     1      87.209  65.284 110.583  1.00  0.00     0.006 C 
ENDROOT
BRANCH   1   2
ATOM      2  C   UNL     1      87.993  66.586 110.367  1.00  0.00     0.053 C 
BRANCH   2   3
ATOM      3  C   UNL     1      87.205  67.788 110.791  1.00  0.00     0.041 C 
ATOM      4  O   UNL     1      85.998  67.667 111.125  1.00  0.00    -0.550 OA
ATOM      5  O   UNL     1      87.813  69.035 110.846  1.00  0.00    -0.550 OA
ENDBRANCH   2   3
ENDBRANCH   1   2
BRANCH   1   6
ATOM      6  C   UNL     1      88.123  64.121 111.008  1.00  0.00     0.000 C 
BRANCH   6   7
ATOM      7  C   UNL     1      87.755  62.801 110.314  1.00  0.00    -0.003 C 
ATOM      8  C   UNL     1      87.865  62.882 108.791  1.00  0.00     0.004 C 
ENDBRANCH   6   7
ENDBRANCH   1   6
TORSDOF 4
ENDMDL
MODEL 6
REMARK VINA RESULT:    -1.501     27.687     28.052
REMARK INTER + INTRA:          -1.837
REMARK INTER:                  -1.788
REMARK INTRA:                  -0.049
REMARK UNBOUND:                 0.015
REMARK SMILES CCCCCC(=O)[O-]
REMARK SMILES IDX 4 1 5 2 6 3 7 4 8 5 3 6 2 7 1 8
REMARK H PARENT
REMARK Flexibility Score: inf
ROOT
ATOM      1  C   UNL     1      69.072  75.915  92.085  1.00  0.00     0.006 C 
ENDROOT
BRANCH   1   2
ATOM      2  C   UNL     1      68.682  75.053  90.877  1.00  0.00     0.053 C 
BRANCH   2   3
ATOM      3  C   UNL     1      68.987  73.603  91.105  1.00  0.00     0.041 C 
ATOM      4  O   UNL     1      70.146  73.160  90.894  1.00  0.00    -0.550 OA
ATOM      5  O   UNL     1      68.000  72.750  91.579  1.00  0.00    -0.550 OA
ENDBRANCH   2   3
ENDBRANCH   1   2
BRANCH   1   6
ATOM      6  C   UNL     1      67.917  76.822  92.547  1.00  0.00     0.000 C 
BRANCH   6   7
ATOM      7  C   UNL     1      67.887  77.005  94.072  1.00  0.00    -0.003 C 
ATOM      8  C   UNL     1      67.875  78.474  94.493  1.00  0.00     0.004 C 
ENDBRANCH   6   7
ENDBRANCH   1   6
TORSDOF 4
ENDMDL
MODEL 7
REMARK VINA RESULT:    -1.029     25.092     25.893
REMARK INTER + INTRA:          -1.255
REMARK INTER:                  -1.157
REMARK INTRA:                  -0.097
REMARK UNBOUND:                 0.015
REMARK SMILES CCCCCC(=O)[O-]
REMARK SMILES IDX 4 1 5 2 6 3 7 4 8 5 3 6 2 7 1 8
REMARK H PARENT
REMARK Flexibility Score: inf
ROOT
ATOM      1  C   UNL     1      69.244  78.632  98.776  1.00  0.00     0.006 C 
ENDROOT
BRANCH   1   2
ATOM      2  C   UNL     1      67.876  78.137  98.285  1.00  0.00     0.053 C 
BRANCH   2   3
ATOM      3  C   UNL     1      68.009  77.005  97.313  1.00  0.00     0.041 C 
ATOM      4  O   UNL     1      68.215  75.835  97.729  1.00  0.00    -0.550 OA
ATOM      5  O   UNL     1      67.876  77.238  95.951  1.00  0.00    -0.550 OA
ENDBRANCH   2   3
ENDBRANCH   1   2
BRANCH   1   6
ATOM      6  C   UNL     1      69.166  80.042  99.386  1.00  0.00     0.000 C 
BRANCH   6   7
ATOM      7  C   UNL     1      68.166  80.125 100.550  1.00  0.00    -0.003 C 
ATOM      8  C   UNL     1      68.754  79.632 101.873  1.00  0.00     0.004 C 
ENDBRANCH   6   7
ENDBRANCH   1   6
TORSDOF 4
ENDMDL
MODEL 8
REMARK VINA RESULT:    -0.898     27.555     28.330
REMARK INTER + INTRA:          -1.093
REMARK INTER:                  -1.673
REMARK INTRA:                   0.580
REMARK UNBOUND:                 0.015
REMARK SMILES CCCCCC(=O)[O-]
REMARK SMILES IDX 4 1 5 2 6 3 7 4 8 5 3 6 2 7 1 8
REMARK H PARENT
REMARK Flexibility Score: inf
ROOT
ATOM      1  C   UNL     1      69.660  74.380  92.123  1.00  0.00     0.006 C 
ENDROOT
BRANCH   1   2
ATOM      2  C   UNL     1      69.814  75.890  92.349  1.00  0.00     0.053 C 
BRANCH   2   3
ATOM      3  C   UNL     1      68.517  76.617  92.164  1.00  0.00     0.041 C 
ATOM      4  O   UNL     1      67.990  76.689  91.022  1.00  0.00    -0.550 OA
ATOM      5  O   UNL     1      67.876  77.189  93.254  1.00  0.00    -0.550 OA
ENDBRANCH   2   3
ENDBRANCH   1   2
BRANCH   1   6
ATOM      6  C   UNL     1      68.478  74.051  91.193  1.00  0.00     0.000 C 
BRANCH   6   7
ATOM      7  C   UNL     1      68.231  72.540  91.069  1.00  0.00    -0.003 C 
ATOM      8  C   UNL     1      69.521  71.742  90.876  1.00  0.00     0.004 C 
ENDBRANCH   6   7
ENDBRANCH   1   6
TORSDOF 4
ENDMDL
MODEL 9
REMARK VINA RESULT:    -0.706     11.031     12.771
REMARK INTER + INTRA:          -0.856
REMARK INTER:                  -0.794
REMARK INTRA:                  -0.063
REMARK UNBOUND:                 0.015
REMARK SMILES CCCCCC(=O)[O-]
REMARK SMILES IDX 4 1 5 2 6 3 7 4 8 5 3 6 2 7 1 8
REMARK H PARENT
REMARK Flexibility Score: inf
ROOT
ATOM      1  C   UNL     1      88.124  77.026 109.121  1.00  0.00     0.006 C 
ENDROOT
BRANCH   1   2
ATOM      2  C   UNL     1      87.989  78.413 108.478  1.00  0.00     0.053 C 
BRANCH   2   3
ATOM      3  C   UNL     1      87.978  78.336 106.982  1.00  0.00     0.041 C 
ATOM      4  O   UNL     1      88.124  79.380 106.293  1.00  0.00    -0.550 OA
ATOM      5  O   UNL     1      87.837  77.109 106.349  1.00  0.00    -0.550 OA
ENDBRANCH   2   3
ENDBRANCH   1   2
BRANCH   1   6
ATOM      6  C   UNL     1      87.853  77.059 110.635  1.00  0.00     0.000 C 
BRANCH   6   7
ATOM      7  C   UNL     1      87.098  75.813 111.125  1.00  0.00    -0.003 C 
ATOM      8  C   UNL     1      87.830  74.511 110.801  1.00  0.00     0.004 C 
ENDBRANCH   6   7
ENDBRANCH   1   6
TORSDOF 4
ENDMDL
