MODEL 1
REMARK VINA RESULT:    -7.730      0.000      0.000
REMARK INTER + INTRA:         -10.328
REMARK INTER:                  -9.763
REMARK INTRA:                  -0.565
REMARK UNBOUND:                -0.565
REMARK SMILES Oc1cc(O)cc(CCc2ccccc2O)c1
REMARK SMILES IDX 9 1 10 2 12 3 13 4 11 5 14 6 15 7 16 8 8 10 7 11 6 12 17 13
REMARK SMILES IDX 4 14 2 15 3 16 5 17 1 19
REMARK H PARENT 16 9 5 18 1 20
REMARK Flexibility Score: inf
ROOT
ATOM      1  C   UNL     1      80.448  61.882 104.086  1.00  0.00     0.044 C 
ENDROOT
BRANCH   1   2
ATOM      2  C   UNL     1      79.668  62.596 103.008  1.00  0.00    -0.006 A 
ATOM      3  C   UNL     1      79.618  64.300 101.269  1.00  0.00     0.001 A 
ATOM      4  C   UNL     1      78.303  63.955 100.960  1.00  0.00     0.004 A 
ATOM      5  C   UNL     1      80.299  63.624 102.282  1.00  0.00     0.007 A 
ATOM      6  C   UNL     1      77.668  62.927 101.658  1.00  0.00     0.046 A 
ATOM      7  C   UNL     1      78.338  62.236 102.675  1.00  0.00     0.118 A 
BRANCH   7   8
ATOM      8  O   UNL     1      77.658  61.202 103.322  1.00  0.00    -0.508 OA
ATOM      9  H   UNL     1      78.020  60.261 103.407  1.00  0.00     0.293 HD
ENDBRANCH   7   8
ENDBRANCH   1   2
BRANCH   1  10
ATOM     10  C   UNL     1      80.573  62.758 105.337  1.00  0.00     0.040 C 
BRANCH  10  11
ATOM     11  C   UNL     1      79.378  62.572 106.234  1.00  0.00    -0.040 A 
ATOM     12  C   UNL     1      78.760  61.316 106.338  1.00  0.00     0.050 A 
ATOM     13  C   UNL     1      78.910  63.639 107.018  1.00  0.00     0.050 A 
ATOM     14  C   UNL     1      77.669  61.134 107.195  1.00  0.00     0.119 A 
ATOM     15  C   UNL     1      77.821  63.461 107.876  1.00  0.00     0.119 A 
ATOM     16  C   UNL     1      77.199  62.208 107.963  1.00  0.00     0.092 A 
BRANCH  14  17
ATOM     17  O   UNL     1      77.063  59.882 107.279  1.00  0.00    -0.508 OA
ATOM     18  H   UNL     1      77.245  59.158 106.593  1.00  0.00     0.293 HD
ENDBRANCH  14  17
BRANCH  15  19
ATOM     19  O   UNL     1      77.366  64.533 108.641  1.00  0.00    -0.508 OA
ATOM     20  H   UNL     1      76.485  64.992 108.438  1.00  0.00     0.293 HD
ENDBRANCH  15  19
ENDBRANCH  10  11
ENDBRANCH   1  10
TORSDOF 6
ENDMDL
MODEL 2
REMARK VINA RESULT:    -7.647      0.204      2.047
REMARK INTER + INTRA:         -10.224
REMARK INTER:                  -9.662
REMARK INTRA:                  -0.561
REMARK UNBOUND:                -0.565
REMARK SMILES Oc1cc(O)cc(CCc2ccccc2O)c1
REMARK SMILES IDX 9 1 10 2 12 3 13 4 11 5 14 6 15 7 16 8 8 10 7 11 6 12 17 13
REMARK SMILES IDX 4 14 2 15 3 16 5 17 1 19
REMARK H PARENT 16 9 5 18 1 20
REMARK Flexibility Score: inf
ROOT
ATOM      1  C   UNL     1      80.409  61.883 104.055  1.00  0.00     0.044 C 
ENDROOT
BRANCH   1   2
ATOM      2  C   UNL     1      79.656  62.604 102.963  1.00  0.00    -0.006 A 
ATOM      3  C   UNL     1      79.660  64.292 101.208  1.00  0.00     0.001 A 
ATOM      4  C   UNL     1      78.340  63.974 100.889  1.00  0.00     0.004 A 
ATOM      5  C   UNL     1      80.316  63.611 102.234  1.00  0.00     0.007 A 
ATOM      6  C   UNL     1      77.676  62.967 101.591  1.00  0.00     0.046 A 
ATOM      7  C   UNL     1      78.321  62.270 102.621  1.00  0.00     0.118 A 
BRANCH   7   8
ATOM      8  O   UNL     1      77.612  61.258 103.271  1.00  0.00    -0.508 OA
ATOM      9  H   UNL     1      77.145  60.502 102.787  1.00  0.00     0.293 HD
ENDBRANCH   7   8
ENDBRANCH   1   2
BRANCH   1  10
ATOM     10  C   UNL     1      80.486  62.743 105.322  1.00  0.00     0.040 C 
BRANCH  10  11
ATOM     11  C   UNL     1      79.329  62.442 106.236  1.00  0.00    -0.040 A 
ATOM     12  C   UNL     1      78.765  63.459 107.023  1.00  0.00     0.050 A 
ATOM     13  C   UNL     1      78.767  61.156 106.265  1.00  0.00     0.050 A 
ATOM     14  C   UNL     1      77.668  63.188 107.849  1.00  0.00     0.119 A 
ATOM     15  C   UNL     1      77.671  60.881 107.088  1.00  0.00     0.119 A 
ATOM     16  C   UNL     1      77.123  61.897 107.882  1.00  0.00     0.092 A 
BRANCH  14  17
ATOM     17  O   UNL     1      77.127  64.208 108.628  1.00  0.00    -0.508 OA
ATOM     18  H   UNL     1      77.329  65.184 108.438  1.00  0.00     0.293 HD
ENDBRANCH  14  17
BRANCH  15  19
ATOM     19  O   UNL     1      77.131  59.596 107.109  1.00  0.00    -0.508 OA
ATOM     20  H   UNL     1      76.652  59.236 107.926  1.00  0.00     0.293 HD
ENDBRANCH  15  19
ENDBRANCH  10  11
ENDBRANCH   1  10
TORSDOF 6
ENDMDL
MODEL 3
REMARK VINA RESULT:    -7.565      1.537      2.083
REMARK INTER + INTRA:         -10.120
REMARK INTER:                  -9.560
REMARK INTRA:                  -0.560
REMARK UNBOUND:                -0.565
REMARK SMILES Oc1cc(O)cc(CCc2ccccc2O)c1
REMARK SMILES IDX 9 1 10 2 12 3 13 4 11 5 14 6 15 7 16 8 8 10 7 11 6 12 17 13
REMARK SMILES IDX 4 14 2 15 3 16 5 17 1 19
REMARK H PARENT 16 9 5 18 1 20
REMARK Flexibility Score: inf
ROOT
ATOM      1  C   UNL     1      77.823  61.985 104.792  1.00  0.00     0.044 C 
ENDROOT
BRANCH   1   2
ATOM      2  C   UNL     1      78.446  62.604 103.564  1.00  0.00    -0.006 A 
ATOM      3  C   UNL     1      80.369  63.692 102.540  1.00  0.00     0.001 A 
ATOM      4  C   UNL     1      79.697  63.744 101.319  1.00  0.00     0.004 A 
ATOM      5  C   UNL     1      79.751  63.123 103.655  1.00  0.00     0.007 A 
ATOM      6  C   UNL     1      78.408  63.219 101.207  1.00  0.00     0.046 A 
ATOM      7  C   UNL     1      77.776  62.641 102.315  1.00  0.00     0.118 A 
BRANCH   7   8
ATOM      8  O   UNL     1      76.496  62.112 102.136  1.00  0.00    -0.508 OA
ATOM      9  H   UNL     1      76.160  61.285 102.612  1.00  0.00     0.293 HD
ENDBRANCH   7   8
ENDBRANCH   1   2
BRANCH   1  10
ATOM     10  C   UNL     1      78.847  61.878 105.927  1.00  0.00     0.040 C 
BRANCH  10  11
ATOM     11  C   UNL     1      78.446  62.753 107.085  1.00  0.00    -0.040 A 
ATOM     12  C   UNL     1      77.330  62.422 107.869  1.00  0.00     0.050 A 
ATOM     13  C   UNL     1      79.220  63.874 107.423  1.00  0.00     0.050 A 
ATOM     14  C   UNL     1      76.976  63.217 108.965  1.00  0.00     0.119 A 
ATOM     15  C   UNL     1      78.870  64.671 108.518  1.00  0.00     0.119 A 
ATOM     16  C   UNL     1      77.745  64.343 109.287  1.00  0.00     0.092 A 
BRANCH  14  17
ATOM     17  O   UNL     1      75.860  62.877 109.727  1.00  0.00    -0.508 OA
ATOM     18  H   UNL     1      75.550  63.457 110.499  1.00  0.00     0.293 HD
ENDBRANCH  14  17
BRANCH  15  19
ATOM     19  O   UNL     1      79.646  65.784 108.834  1.00  0.00    -0.508 OA
ATOM     20  H   UNL     1      79.771  66.087 109.793  1.00  0.00     0.293 HD
ENDBRANCH  15  19
ENDBRANCH  10  11
ENDBRANCH   1  10
TORSDOF 6
ENDMDL
MODEL 4
REMARK VINA RESULT:    -7.539      1.544      2.591
REMARK INTER + INTRA:         -10.087
REMARK INTER:                  -9.526
REMARK INTRA:                  -0.561
REMARK UNBOUND:                -0.565
REMARK SMILES Oc1cc(O)cc(CCc2ccccc2O)c1
REMARK SMILES IDX 9 1 10 2 12 3 13 4 11 5 14 6 15 7 16 8 8 10 7 11 6 12 17 13
REMARK SMILES IDX 4 14 2 15 3 16 5 17 1 19
REMARK H PARENT 16 9 5 18 1 20
REMARK Flexibility Score: inf
ROOT
ATOM      1  C   UNL     1      77.802  62.099 104.782  1.00  0.00     0.044 C 
ENDROOT
BRANCH   1   2
ATOM      2  C   UNL     1      78.433  62.667 103.533  1.00  0.00    -0.006 A 
ATOM      3  C   UNL     1      80.364  63.707 102.475  1.00  0.00     0.001 A 
ATOM      4  C   UNL     1      79.698  63.712 101.250  1.00  0.00     0.004 A 
ATOM      5  C   UNL     1      79.739  63.185 103.609  1.00  0.00     0.007 A 
ATOM      6  C   UNL     1      78.409  63.186 101.153  1.00  0.00     0.046 A 
ATOM      7  C   UNL     1      77.769  62.655 102.281  1.00  0.00     0.118 A 
BRANCH   7   8
ATOM      8  O   UNL     1      76.488  62.124 102.116  1.00  0.00    -0.508 OA
ATOM      9  H   UNL     1      76.054  61.979 101.214  1.00  0.00     0.293 HD
ENDBRANCH   7   8
ENDBRANCH   1   2
BRANCH   1  10
ATOM     10  C   UNL     1      78.847  61.926 105.889  1.00  0.00     0.040 C 
BRANCH  10  11
ATOM     11  C   UNL     1      78.482  62.752 107.094  1.00  0.00    -0.040 A 
ATOM     12  C   UNL     1      79.228  63.895 107.421  1.00  0.00     0.050 A 
ATOM     13  C   UNL     1      77.358  62.417 107.865  1.00  0.00     0.050 A 
ATOM     14  C   UNL     1      78.871  64.681 108.521  1.00  0.00     0.119 A 
ATOM     15  C   UNL     1      76.997  63.201 108.966  1.00  0.00     0.119 A 
ATOM     16  C   UNL     1      77.755  64.332 109.295  1.00  0.00     0.092 A 
BRANCH  14  17
ATOM     17  O   UNL     1      79.628  65.808 108.835  1.00  0.00    -0.508 OA
ATOM     18  H   UNL     1      80.336  65.786 109.561  1.00  0.00     0.293 HD
ENDBRANCH  14  17
BRANCH  15  19
ATOM     19  O   UNL     1      75.882  62.849 109.724  1.00  0.00    -0.508 OA
ATOM     20  H   UNL     1      75.977  62.419 110.637  1.00  0.00     0.293 HD
ENDBRANCH  15  19
ENDBRANCH  10  11
ENDBRANCH   1  10
TORSDOF 6
ENDMDL
MODEL 5
REMARK VINA RESULT:    -7.397      3.066      5.475
REMARK INTER + INTRA:          -9.908
REMARK INTER:                  -9.276
REMARK INTRA:                  -0.633
REMARK UNBOUND:                -0.565
REMARK SMILES Oc1cc(O)cc(CCc2ccccc2O)c1
REMARK SMILES IDX 9 1 10 2 12 3 13 4 11 5 14 6 15 7 16 8 8 10 7 11 6 12 17 13
REMARK SMILES IDX 4 14 2 15 3 16 5 17 1 19
REMARK H PARENT 16 9 5 18 1 20
REMARK Flexibility Score: inf
ROOT
ATOM      1  C   UNL     1      78.260  64.544 101.830  1.00  0.00     0.044 C 
ENDROOT
BRANCH   1   2
ATOM      2  C   UNL     1      78.909  63.901 103.032  1.00  0.00    -0.006 A 
ATOM      3  C   UNL     1      80.862  62.816 104.000  1.00  0.00     0.001 A 
ATOM      4  C   UNL     1      80.207  62.719 105.228  1.00  0.00     0.004 A 
ATOM      5  C   UNL     1      80.221  63.405 102.910  1.00  0.00     0.007 A 
ATOM      6  C   UNL     1      78.912  63.220 105.371  1.00  0.00     0.046 A 
ATOM      7  C   UNL     1      78.256  63.819 104.288  1.00  0.00     0.118 A 
BRANCH   7   8
ATOM      8  O   UNL     1      76.970  64.322 104.499  1.00  0.00    -0.508 OA
ATOM      9  H   UNL     1      76.669  64.739 105.369  1.00  0.00     0.293 HD
ENDBRANCH   7   8
ENDBRANCH   1   2
BRANCH   1  10
ATOM     10  C   UNL     1      77.536  63.497 100.977  1.00  0.00     0.040 C 
BRANCH  10  11
ATOM     11  C   UNL     1      76.050  63.562 101.209  1.00  0.00    -0.040 A 
ATOM     12  C   UNL     1      75.309  62.382 101.390  1.00  0.00     0.050 A 
ATOM     13  C   UNL     1      75.403  64.804 101.305  1.00  0.00     0.050 A 
ATOM     14  C   UNL     1      73.934  62.443 101.639  1.00  0.00     0.119 A 
ATOM     15  C   UNL     1      74.028  64.869 101.553  1.00  0.00     0.119 A 
ATOM     16  C   UNL     1      73.293  63.687 101.718  1.00  0.00     0.092 A 
BRANCH  14  17
ATOM     17  O   UNL     1      73.214  61.262 101.809  1.00  0.00    -0.508 OA
ATOM     18  H   UNL     1      73.634  60.356 101.631  1.00  0.00     0.293 HD
ENDBRANCH  14  17
BRANCH  15  19
ATOM     19  O   UNL     1      73.403  66.111 101.637  1.00  0.00    -0.508 OA
ATOM     20  H   UNL     1      73.876  66.962 101.356  1.00  0.00     0.293 HD
ENDBRANCH  15  19
ENDBRANCH  10  11
ENDBRANCH   1  10
TORSDOF 6
ENDMDL
MODEL 6
REMARK VINA RESULT:    -7.392      1.573      5.623
REMARK INTER + INTRA:          -9.901
REMARK INTER:                  -9.335
REMARK INTRA:                  -0.566
REMARK UNBOUND:                -0.565
REMARK SMILES Oc1cc(O)cc(CCc2ccccc2O)c1
REMARK SMILES IDX 9 1 10 2 12 3 13 4 11 5 14 6 15 7 16 8 8 10 7 11 6 12 17 13
REMARK SMILES IDX 4 14 2 15 3 16 5 17 1 19
REMARK H PARENT 16 9 5 18 1 20
REMARK Flexibility Score: inf
ROOT
ATOM      1  C   UNL     1      79.219  61.657 105.634  1.00  0.00     0.044 C 
ENDROOT
BRANCH   1   2
ATOM      2  C   UNL     1      78.618  62.433 106.781  1.00  0.00    -0.006 A 
ATOM      3  C   UNL     1      78.516  64.507 108.053  1.00  0.00     0.001 A 
ATOM      4  C   UNL     1      77.528  63.964 108.873  1.00  0.00     0.004 A 
ATOM      5  C   UNL     1      79.056  63.751 107.011  1.00  0.00     0.007 A 
ATOM      6  C   UNL     1      77.070  62.665 108.648  1.00  0.00     0.046 A 
ATOM      7  C   UNL     1      77.598  61.894 107.605  1.00  0.00     0.118 A 
BRANCH   7   8
ATOM      8  O   UNL     1      77.083  60.609 107.416  1.00  0.00    -0.508 OA
ATOM      9  H   UNL     1      76.432  60.168 108.052  1.00  0.00     0.293 HD
ENDBRANCH   7   8
ENDBRANCH   1   2
BRANCH   1  10
ATOM     10  C   UNL     1      80.171  62.539 104.819  1.00  0.00     0.040 C 
BRANCH  10  11
ATOM     11  C   UNL     1      79.627  62.763 103.433  1.00  0.00    -0.040 A 
ATOM     12  C   UNL     1      78.385  62.222 103.064  1.00  0.00     0.050 A 
ATOM     13  C   UNL     1      80.331  63.562 102.519  1.00  0.00     0.050 A 
ATOM     14  C   UNL     1      77.864  62.456 101.787  1.00  0.00     0.119 A 
ATOM     15  C   UNL     1      79.813  63.799 101.241  1.00  0.00     0.119 A 
ATOM     16  C   UNL     1      78.580  63.243 100.875  1.00  0.00     0.092 A 
BRANCH  14  17
ATOM     17  O   UNL     1      76.633  61.905 101.436  1.00  0.00    -0.508 OA
ATOM     18  H   UNL     1      76.560  61.174 100.737  1.00  0.00     0.293 HD
ENDBRANCH  14  17
BRANCH  15  19
ATOM     19  O   UNL     1      80.530  64.589 100.345  1.00  0.00    -0.508 OA
ATOM     20  H   UNL     1      81.501  64.397 100.130  1.00  0.00     0.293 HD
ENDBRANCH  15  19
ENDBRANCH  10  11
ENDBRANCH   1  10
TORSDOF 6
ENDMDL
MODEL 7
REMARK VINA RESULT:    -7.390      3.088      5.835
REMARK INTER + INTRA:          -9.898
REMARK INTER:                  -9.272
REMARK INTRA:                  -0.626
REMARK UNBOUND:                -0.565
REMARK SMILES Oc1cc(O)cc(CCc2ccccc2O)c1
REMARK SMILES IDX 9 1 10 2 12 3 13 4 11 5 14 6 15 7 16 8 8 10 7 11 6 12 17 13
REMARK SMILES IDX 4 14 2 15 3 16 5 17 1 19
REMARK H PARENT 16 9 5 18 1 20
REMARK Flexibility Score: inf
ROOT
ATOM      1  C   UNL     1      78.272  64.561 101.859  1.00  0.00     0.044 C 
ENDROOT
BRANCH   1   2
ATOM      2  C   UNL     1      78.906  63.910 103.065  1.00  0.00    -0.006 A 
ATOM      3  C   UNL     1      80.822  62.759 104.032  1.00  0.00     0.001 A 
ATOM      4  C   UNL     1      80.176  62.710 105.268  1.00  0.00     0.004 A 
ATOM      5  C   UNL     1      80.195  63.358 102.938  1.00  0.00     0.007 A 
ATOM      6  C   UNL     1      78.906  63.268 105.415  1.00  0.00     0.046 A 
ATOM      7  C   UNL     1      78.264  63.876 104.328  1.00  0.00     0.118 A 
BRANCH   7   8
ATOM      8  O   UNL     1      77.003  64.437 104.543  1.00  0.00    -0.508 OA
ATOM      9  H   UNL     1      76.402  64.182 105.315  1.00  0.00     0.293 HD
ENDBRANCH   7   8
ENDBRANCH   1   2
BRANCH   1  10
ATOM     10  C   UNL     1      77.526  63.525 101.011  1.00  0.00     0.040 C 
BRANCH  10  11
ATOM     11  C   UNL     1      76.046  63.587 101.282  1.00  0.00    -0.040 A 
ATOM     12  C   UNL     1      75.390  64.827 101.345  1.00  0.00     0.050 A 
ATOM     13  C   UNL     1      75.302  62.405 101.416  1.00  0.00     0.050 A 
ATOM     14  C   UNL     1      74.010  64.885 101.565  1.00  0.00     0.119 A 
ATOM     15  C   UNL     1      73.922  62.459 101.635  1.00  0.00     0.119 A 
ATOM     16  C   UNL     1      73.276  63.700 101.712  1.00  0.00     0.092 A 
BRANCH  14  17
ATOM     17  O   UNL     1      73.377  66.125 101.632  1.00  0.00    -0.508 OA
ATOM     18  H   UNL     1      73.868  66.954 101.948  1.00  0.00     0.293 HD
ENDBRANCH  14  17
BRANCH  15  19
ATOM     19  O   UNL     1      73.201  61.274 101.772  1.00  0.00    -0.508 OA
ATOM     20  H   UNL     1      72.483  61.011 101.107  1.00  0.00     0.293 HD
ENDBRANCH  15  19
ENDBRANCH  10  11
ENDBRANCH   1  10
TORSDOF 6
ENDMDL
MODEL 8
REMARK VINA RESULT:    -7.388      2.370      5.115
REMARK INTER + INTRA:          -9.896
REMARK INTER:                  -9.188
REMARK INTRA:                  -0.709
REMARK UNBOUND:                -0.565
REMARK SMILES Oc1cc(O)cc(CCc2ccccc2O)c1
REMARK SMILES IDX 9 1 10 2 12 3 13 4 11 5 14 6 15 7 16 8 8 10 7 11 6 12 17 13
REMARK SMILES IDX 4 14 2 15 3 16 5 17 1 19
REMARK H PARENT 16 9 5 18 1 20
REMARK Flexibility Score: inf
ROOT
ATOM      1  C   UNL     1      79.921  62.791 101.812  1.00  0.00     0.044 C 
ENDROOT
BRANCH   1   2
ATOM      2  C   UNL     1      79.826  62.448 103.279  1.00  0.00    -0.006 A 
ATOM      3  C   UNL     1      80.825  62.536 105.498  1.00  0.00     0.001 A 
ATOM      4  C   UNL     1      79.716  61.880 106.031  1.00  0.00     0.004 A 
ATOM      5  C   UNL     1      80.880  62.822 104.133  1.00  0.00     0.007 A 
ATOM      6  C   UNL     1      78.654  61.517 105.202  1.00  0.00     0.046 A 
ATOM      7  C   UNL     1      78.692  61.800 103.830  1.00  0.00     0.118 A 
BRANCH   7   8
ATOM      8  O   UNL     1      77.589  61.432 103.056  1.00  0.00    -0.508 OA
ATOM      9  H   UNL     1      76.669  61.837 103.164  1.00  0.00     0.293 HD
ENDBRANCH   7   8
ENDBRANCH   1   2
BRANCH   1  10
ATOM     10  C   UNL     1      79.685  64.288 101.587  1.00  0.00     0.040 C 
BRANCH  10  11
ATOM     11  C   UNL     1      78.211  64.592 101.560  1.00  0.00    -0.040 A 
ATOM     12  C   UNL     1      77.353  63.867 100.718  1.00  0.00     0.050 A 
ATOM     13  C   UNL     1      77.674  65.564 102.420  1.00  0.00     0.050 A 
ATOM     14  C   UNL     1      75.978  64.127 100.716  1.00  0.00     0.119 A 
ATOM     15  C   UNL     1      76.300  65.826 102.421  1.00  0.00     0.119 A 
ATOM     16  C   UNL     1      75.453  65.108 101.567  1.00  0.00     0.092 A 
BRANCH  14  17
ATOM     17  O   UNL     1      75.144  63.401  99.867  1.00  0.00    -0.508 OA
ATOM     18  H   UNL     1      75.399  63.218  98.903  1.00  0.00     0.293 HD
ENDBRANCH  14  17
BRANCH  15  19
ATOM     19  O   UNL     1      75.787  66.799 103.276  1.00  0.00    -0.508 OA
ATOM     20  H   UNL     1      75.160  67.522 102.941  1.00  0.00     0.293 HD
ENDBRANCH  15  19
ENDBRANCH  10  11
ENDBRANCH   1  10
TORSDOF 6
ENDMDL
MODEL 9
REMARK VINA RESULT:    -7.368      2.382      5.487
REMARK INTER + INTRA:          -9.871
REMARK INTER:                  -9.199
REMARK INTRA:                  -0.672
REMARK UNBOUND:                -0.565
REMARK SMILES Oc1cc(O)cc(CCc2ccccc2O)c1
REMARK SMILES IDX 9 1 10 2 12 3 13 4 11 5 14 6 15 7 16 8 8 10 7 11 6 12 17 13
REMARK SMILES IDX 4 14 2 15 3 16 5 17 1 19
REMARK H PARENT 16 9 5 18 1 20
REMARK Flexibility Score: inf
ROOT
ATOM      1  C   UNL     1      79.945  62.777 101.813  1.00  0.00     0.044 C 
ENDROOT
BRANCH   1   2
ATOM      2  C   UNL     1      79.818  62.450 103.281  1.00  0.00    -0.006 A 
ATOM      3  C   UNL     1      80.761  62.575 105.523  1.00  0.00     0.001 A 
ATOM      4  C   UNL     1      79.647  61.911 106.036  1.00  0.00     0.004 A 
ATOM      5  C   UNL     1      80.847  62.847 104.157  1.00  0.00     0.007 A 
ATOM      6  C   UNL     1      78.610  61.526 105.185  1.00  0.00     0.046 A 
ATOM      7  C   UNL     1      78.678  61.795 103.812  1.00  0.00     0.118 A 
BRANCH   7   8
ATOM      8  O   UNL     1      77.600  61.404 103.015  1.00  0.00    -0.508 OA
ATOM      9  H   UNL     1      76.633  61.574 103.259  1.00  0.00     0.293 HD
ENDBRANCH   7   8
ENDBRANCH   1   2
BRANCH   1  10
ATOM     10  C   UNL     1      79.691  64.268 101.564  1.00  0.00     0.040 C 
BRANCH  10  11
ATOM     11  C   UNL     1      78.214  64.560 101.565  1.00  0.00    -0.040 A 
ATOM     12  C   UNL     1      77.699  65.607 102.346  1.00  0.00     0.050 A 
ATOM     13  C   UNL     1      77.348  63.823 100.741  1.00  0.00     0.050 A 
ATOM     14  C   UNL     1      76.331  65.899 102.323  1.00  0.00     0.119 A 
ATOM     15  C   UNL     1      75.980  64.113 100.715  1.00  0.00     0.119 A 
ATOM     16  C   UNL     1      75.472  65.150 101.508  1.00  0.00     0.092 A 
BRANCH  14  17
ATOM     17  O   UNL     1      75.838  66.938 103.109  1.00  0.00    -0.508 OA
ATOM     18  H   UNL     1      75.266  66.757 103.927  1.00  0.00     0.293 HD
ENDBRANCH  14  17
BRANCH  15  19
ATOM     19  O   UNL     1      75.135  63.366  99.896  1.00  0.00    -0.508 OA
ATOM     20  H   UNL     1      74.191  63.134 100.181  1.00  0.00     0.293 HD
ENDBRANCH  15  19
ENDBRANCH  10  11
ENDBRANCH   1  10
TORSDOF 6
ENDMDL
