MODEL 1
REMARK VINA RESULT:    -4.020      0.000      0.000
REMARK INTER + INTRA:          -9.763
REMARK INTER:                  -7.780
REMARK INTRA:                  -1.983
REMARK UNBOUND:                -1.983
REMARK SMILES CCCCCCCCCCCCCCCCCC(=O)[O-]
REMARK SMILES IDX 10 1 11 2 12 3 13 4 14 5 15 6 16 7 17 8 18 9 19 10 20 11
REMARK SMILES IDX 9 12 8 13 7 14 6 15 5 16 4 17 3 18 2 19 1 20
REMARK H PARENT
REMARK Flexibility Score: inf
ROOT
ATOM      1  C   UNL     1       5.647  10.728   4.373  1.00  0.00     0.000 C 
ENDROOT
BRANCH   1   2
ATOM      2  C   UNL     1       4.900  11.570   5.421  1.00  0.00     0.000 C 
BRANCH   2   3
ATOM      3  C   UNL     1       4.900  10.921   6.818  1.00  0.00     0.000 C 
BRANCH   3   4
ATOM      4  C   UNL     1       4.311   9.498   6.885  1.00  0.00     0.000 C 
BRANCH   4   5
ATOM      5  C   UNL     1       3.793   9.070   8.270  1.00  0.00     0.000 C 
BRANCH   5   6
ATOM      6  C   UNL     1       4.703   9.534   9.417  1.00  0.00     0.000 C 
BRANCH   6   7
ATOM      7  C   UNL     1       3.990  10.567  10.300  1.00  0.00     0.006 C 
BRANCH   7   8
ATOM      8  C   UNL     1       2.493  10.672   9.980  1.00  0.00     0.053 C 
BRANCH   8   9
ATOM      9  C   UNL     1       2.094  12.075   9.635  1.00  0.00     0.041 C 
ATOM     10  O   UNL     1       0.891  12.348   9.385  1.00  0.00    -0.550 OA
ATOM     11  O   UNL     1       3.058  13.072   9.556  1.00  0.00    -0.550 OA
ENDBRANCH   8   9
ENDBRANCH   7   8
ENDBRANCH   6   7
ENDBRANCH   5   6
ENDBRANCH   4   5
ENDBRANCH   3   4
ENDBRANCH   2   3
ENDBRANCH   1   2
BRANCH   1  12
ATOM     12  C   UNL     1       7.150  11.057   4.304  1.00  0.00     0.000 C 
BRANCH  12  13
ATOM     13  C   UNL     1       7.494  12.559   4.361  1.00  0.00    -0.000 C 
BRANCH  13  14
ATOM     14  C   UNL     1       8.853  12.945   3.743  1.00  0.00    -0.000 C 
BRANCH  14  15
ATOM     15  C   UNL     1      10.050  12.865   4.706  1.00  0.00    -0.000 C 
BRANCH  15  16
ATOM     16  C   UNL     1       9.658  13.123   6.168  1.00  0.00    -0.000 C 
BRANCH  16  17
ATOM     17  C   UNL     1       9.694  11.825   6.984  1.00  0.00    -0.000 C 
BRANCH  17  18
ATOM     18  C   UNL     1       8.398  11.640   7.781  1.00  0.00    -0.000 C 
BRANCH  18  19
ATOM     19  C   UNL     1       8.057  12.906   8.577  1.00  0.00    -0.003 C 
ATOM     20  C   UNL     1       6.673  12.803   9.209  1.00  0.00     0.004 C 
ENDBRANCH  18  19
ENDBRANCH  17  18
ENDBRANCH  16  17
ENDBRANCH  15  16
ENDBRANCH  14  15
ENDBRANCH  13  14
ENDBRANCH  12  13
ENDBRANCH   1  12
TORSDOF 16
ENDMDL
MODEL 2
REMARK VINA RESULT:    -3.452      2.917      6.951
REMARK INTER + INTRA:          -8.664
REMARK INTER:                  -6.975
REMARK INTRA:                  -1.690
REMARK UNBOUND:                -1.983
REMARK SMILES CCCCCCCCCCCCCCCCCC(=O)[O-]
REMARK SMILES IDX 10 1 11 2 12 3 13 4 14 5 15 6 16 7 17 8 18 9 19 10 20 11
REMARK SMILES IDX 9 12 8 13 7 14 6 15 5 16 4 17 3 18 2 19 1 20
REMARK H PARENT
REMARK Flexibility Score: inf
ROOT
ATOM      1  C   UNL     1       5.398  11.330   6.019  1.00  0.00     0.000 C 
ENDROOT
BRANCH   1   2
ATOM      2  C   UNL     1       5.470  12.504   7.010  1.00  0.00     0.000 C 
BRANCH   2   3
ATOM      3  C   UNL     1       6.069  12.101   8.371  1.00  0.00     0.000 C 
BRANCH   3   4
ATOM      4  C   UNL     1       7.340  12.869   8.787  1.00  0.00     0.000 C 
BRANCH   4   5
ATOM      5  C   UNL     1       8.468  12.880   7.740  1.00  0.00     0.000 C 
BRANCH   5   6
ATOM      6  C   UNL     1       9.007  11.476   7.428  1.00  0.00     0.000 C 
BRANCH   6   7
ATOM      7  C   UNL     1       9.151  11.267   5.914  1.00  0.00     0.006 C 
BRANCH   7   8
ATOM      8  C   UNL     1       9.305  12.591   5.156  1.00  0.00     0.053 C 
BRANCH   8   9
ATOM      9  C   UNL     1       8.782  12.495   3.755  1.00  0.00     0.041 C 
ATOM     10  O   UNL     1       9.370  13.096   2.817  1.00  0.00    -0.550 OA
ATOM     11  O   UNL     1       7.626  11.771   3.492  1.00  0.00    -0.550 OA
ENDBRANCH   8   9
ENDBRANCH   7   8
ENDBRANCH   6   7
ENDBRANCH   5   6
ENDBRANCH   4   5
ENDBRANCH   3   4
ENDBRANCH   2   3
ENDBRANCH   1   2
BRANCH   1  12
ATOM     12  C   UNL     1       5.176   9.975   6.715  1.00  0.00     0.000 C 
BRANCH  12  13
ATOM     13  C   UNL     1       3.705   9.633   7.029  1.00  0.00    -0.000 C 
BRANCH  13  14
ATOM     14  C   UNL     1       3.452   9.045   8.431  1.00  0.00    -0.000 C 
BRANCH  14  15
ATOM     15  C   UNL     1       3.643  10.035   9.594  1.00  0.00    -0.000 C 
BRANCH  15  16
ATOM     16  C   UNL     1       2.646   9.809  10.740  1.00  0.00    -0.000 C 
BRANCH  16  17
ATOM     17  C   UNL     1       1.594  10.924  10.781  1.00  0.00    -0.000 C 
BRANCH  17  18
ATOM     18  C   UNL     1       1.717  11.840   9.558  1.00  0.00    -0.000 C 
BRANCH  18  19
ATOM     19  C   UNL     1       0.901  13.125   9.750  1.00  0.00    -0.003 C 
ATOM     20  C   UNL     1      -0.427  13.049   9.004  1.00  0.00     0.004 C 
ENDBRANCH  18  19
ENDBRANCH  17  18
ENDBRANCH  16  17
ENDBRANCH  15  16
ENDBRANCH  14  15
ENDBRANCH  13  14
ENDBRANCH  12  13
ENDBRANCH   1  12
TORSDOF 16
ENDMDL
MODEL 3
REMARK VINA RESULT:    -3.416      1.246      2.712
REMARK INTER + INTRA:          -8.595
REMARK INTER:                  -6.524
REMARK INTRA:                  -2.071
REMARK UNBOUND:                -1.983
REMARK SMILES CCCCCCCCCCCCCCCCCC(=O)[O-]
REMARK SMILES IDX 10 1 11 2 12 3 13 4 14 5 15 6 16 7 17 8 18 9 19 10 20 11
REMARK SMILES IDX 9 12 8 13 7 14 6 15 5 16 4 17 3 18 2 19 1 20
REMARK H PARENT
REMARK Flexibility Score: inf
ROOT
ATOM      1  C   UNL     1       3.467   9.962   6.687  1.00  0.00     0.000 C 
ENDROOT
BRANCH   1   2
ATOM      2  C   UNL     1       4.661   9.399   7.477  1.00  0.00     0.000 C 
BRANCH   2   3
ATOM      3  C   UNL     1       4.343   9.188   8.969  1.00  0.00     0.000 C 
BRANCH   3   4
ATOM      4  C   UNL     1       4.380  10.461   9.839  1.00  0.00     0.000 C 
BRANCH   4   5
ATOM      5  C   UNL     1       5.477  11.474   9.467  1.00  0.00     0.000 C 
BRANCH   5   6
ATOM      6  C   UNL     1       4.947  12.911   9.348  1.00  0.00     0.000 C 
BRANCH   6   7
ATOM      7  C   UNL     1       3.544  12.929   8.726  1.00  0.00     0.006 C 
BRANCH   7   8
ATOM      8  C   UNL     1       2.441  13.065   9.784  1.00  0.00     0.053 C 
BRANCH   8   9
ATOM      9  C   UNL     1       1.470  11.925   9.725  1.00  0.00     0.041 C 
ATOM     10  O   UNL     1       1.136  11.435   8.614  1.00  0.00    -0.550 OA
ATOM     11  O   UNL     1       0.908  11.428  10.895  1.00  0.00    -0.550 OA
ENDBRANCH   8   9
ENDBRANCH   7   8
ENDBRANCH   6   7
ENDBRANCH   5   6
ENDBRANCH   4   5
ENDBRANCH   3   4
ENDBRANCH   2   3
ENDBRANCH   1   2
BRANCH   1  12
ATOM     12  C   UNL     1       3.896  10.911   5.553  1.00  0.00     0.000 C 
BRANCH  12  13
ATOM     13  C   UNL     1       5.353  11.411   5.633  1.00  0.00    -0.000 C 
BRANCH  13  14
ATOM     14  C   UNL     1       5.892  12.074   4.350  1.00  0.00    -0.000 C 
BRANCH  14  15
ATOM     15  C   UNL     1       6.998  13.120   4.576  1.00  0.00    -0.000 C 
BRANCH  15  16
ATOM     16  C   UNL     1       8.392  12.609   4.182  1.00  0.00    -0.000 C 
BRANCH  16  17
ATOM     17  C   UNL     1       9.266  12.387   5.423  1.00  0.00    -0.000 C 
BRANCH  17  18
ATOM     18  C   UNL     1       8.692  13.125   6.638  1.00  0.00    -0.000 C 
BRANCH  18  19
ATOM     19  C   UNL     1       8.535  12.177   7.833  1.00  0.00    -0.003 C 
ATOM     20  C   UNL     1       8.382  10.731   7.372  1.00  0.00     0.004 C 
ENDBRANCH  18  19
ENDBRANCH  17  18
ENDBRANCH  16  17
ENDBRANCH  15  16
ENDBRANCH  14  15
ENDBRANCH  13  14
ENDBRANCH  12  13
ENDBRANCH   1  12
TORSDOF 16
ENDMDL
MODEL 4
REMARK VINA RESULT:    -3.403      2.320      6.730
REMARK INTER + INTRA:          -8.570
REMARK INTER:                  -7.147
REMARK INTRA:                  -1.423
REMARK UNBOUND:                -1.983
REMARK SMILES CCCCCCCCCCCCCCCCCC(=O)[O-]
REMARK SMILES IDX 10 1 11 2 12 3 13 4 14 5 15 6 16 7 17 8 18 9 19 10 20 11
REMARK SMILES IDX 9 12 8 13 7 14 6 15 5 16 4 17 3 18 2 19 1 20
REMARK H PARENT
REMARK Flexibility Score: inf
ROOT
ATOM      1  C   UNL     1       6.321  10.918   7.560  1.00  0.00     0.000 C 
ENDROOT
BRANCH   1   2
ATOM      2  C   UNL     1       7.801  11.063   7.950  1.00  0.00     0.000 C 
BRANCH   2   3
ATOM      3  C   UNL     1       8.334  12.494   7.748  1.00  0.00     0.000 C 
BRANCH   3   4
ATOM      4  C   UNL     1       9.790  12.592   7.248  1.00  0.00     0.000 C 
BRANCH   4   5
ATOM      5  C   UNL     1      10.051  11.962   5.869  1.00  0.00     0.000 C 
BRANCH   5   6
ATOM      6  C   UNL     1      10.124  13.004   4.741  1.00  0.00     0.000 C 
BRANCH   6   7
ATOM      7  C   UNL     1       8.830  13.011   3.915  1.00  0.00     0.006 C 
BRANCH   7   8
ATOM      8  C   UNL     1       8.058  11.691   4.032  1.00  0.00     0.053 C 
BRANCH   8   9
ATOM      9  C   UNL     1       6.595  11.920   4.263  1.00  0.00     0.041 C 
ATOM     10  O   UNL     1       6.186  13.041   4.664  1.00  0.00    -0.550 OA
ATOM     11  O   UNL     1       5.690  10.885   4.068  1.00  0.00    -0.550 OA
ENDBRANCH   8   9
ENDBRANCH   7   8
ENDBRANCH   6   7
ENDBRANCH   5   6
ENDBRANCH   4   5
ENDBRANCH   3   4
ENDBRANCH   2   3
ENDBRANCH   1   2
BRANCH   1  12
ATOM     12  C   UNL     1       5.508  12.201   7.813  1.00  0.00     0.000 C 
BRANCH  12  13
ATOM     13  C   UNL     1       5.205  12.502   9.295  1.00  0.00    -0.000 C 
BRANCH  13  14
ATOM     14  C   UNL     1       3.795  13.059   9.577  1.00  0.00    -0.000 C 
BRANCH  14  15
ATOM     15  C   UNL     1       2.638  12.192   9.049  1.00  0.00    -0.000 C 
BRANCH  15  16
ATOM     16  C   UNL     1       1.791  11.578  10.173  1.00  0.00    -0.000 C 
BRANCH  16  17
ATOM     17  C   UNL     1       2.209  10.128  10.446  1.00  0.00    -0.000 C 
BRANCH  17  18
ATOM     18  C   UNL     1       3.550   9.808   9.777  1.00  0.00    -0.000 C 
BRANCH  18  19
ATOM     19  C   UNL     1       3.413   8.623   8.812  1.00  0.00    -0.003 C 
ATOM     20  C   UNL     1       3.445   9.089   7.360  1.00  0.00     0.004 C 
ENDBRANCH  18  19
ENDBRANCH  17  18
ENDBRANCH  16  17
ENDBRANCH  15  16
ENDBRANCH  14  15
ENDBRANCH  13  14
ENDBRANCH  12  13
ENDBRANCH   1  12
TORSDOF 16
ENDMDL
MODEL 5
REMARK VINA RESULT:    -3.273      1.062      2.838
REMARK INTER + INTRA:          -8.318
REMARK INTER:                  -6.161
REMARK INTRA:                  -2.158
REMARK UNBOUND:                -1.983
REMARK SMILES CCCCCCCCCCCCCCCCCC(=O)[O-]
REMARK SMILES IDX 10 1 11 2 12 3 13 4 14 5 15 6 16 7 17 8 18 9 19 10 20 11
REMARK SMILES IDX 9 12 8 13 7 14 6 15 5 16 4 17 3 18 2 19 1 20
REMARK H PARENT
REMARK Flexibility Score: inf
ROOT
ATOM      1  C   UNL     1       4.956  10.888   5.725  1.00  0.00     0.000 C 
ENDROOT
BRANCH   1   2
ATOM      2  C   UNL     1       3.765  10.796   6.693  1.00  0.00     0.000 C 
BRANCH   2   3
ATOM      3  C   UNL     1       3.364   9.343   7.011  1.00  0.00     0.000 C 
BRANCH   3   4
ATOM      4  C   UNL     1       3.701   8.862   8.437  1.00  0.00     0.000 C 
BRANCH   4   5
ATOM      5  C   UNL     1       4.935   9.524   9.075  1.00  0.00     0.000 C 
BRANCH   5   6
ATOM      6  C   UNL     1       4.570  10.674  10.026  1.00  0.00     0.000 C 
BRANCH   6   7
ATOM      7  C   UNL     1       3.048  10.851  10.116  1.00  0.00     0.006 C 
BRANCH   7   8
ATOM      8  C   UNL     1       2.593  12.235   9.636  1.00  0.00     0.053 C 
BRANCH   8   9
ATOM      9  C   UNL     1       1.147  12.241   9.244  1.00  0.00     0.041 C 
ATOM     10  O   UNL     1       0.371  13.121   9.700  1.00  0.00    -0.550 OA
ATOM     11  O   UNL     1       0.650  11.252   8.403  1.00  0.00    -0.550 OA
ENDBRANCH   8   9
ENDBRANCH   7   8
ENDBRANCH   6   7
ENDBRANCH   5   6
ENDBRANCH   4   5
ENDBRANCH   3   4
ENDBRANCH   2   3
ENDBRANCH   1   2
BRANCH   1  12
ATOM     12  C   UNL     1       5.742  12.204   5.869  1.00  0.00     0.000 C 
BRANCH  12  13
ATOM     13  C   UNL     1       5.708  12.837   7.275  1.00  0.00    -0.000 C 
BRANCH  13  14
ATOM     14  C   UNL     1       7.078  12.967   7.971  1.00  0.00    -0.000 C 
BRANCH  14  15
ATOM     15  C   UNL     1       7.910  11.674   8.011  1.00  0.00    -0.000 C 
BRANCH  15  16
ATOM     16  C   UNL     1       9.292  11.833   7.358  1.00  0.00    -0.000 C 
BRANCH  16  17
ATOM     17  C   UNL     1       9.364  13.125   6.535  1.00  0.00    -0.000 C 
BRANCH  17  18
ATOM     18  C   UNL     1       9.975  12.863   5.154  1.00  0.00    -0.000 C 
BRANCH  18  19
ATOM     19  C   UNL     1       8.953  13.125   4.042  1.00  0.00    -0.003 C 
ATOM     20  C   UNL     1       8.231  11.841   3.643  1.00  0.00     0.004 C 
ENDBRANCH  18  19
ENDBRANCH  17  18
ENDBRANCH  16  17
ENDBRANCH  15  16
ENDBRANCH  14  15
ENDBRANCH  13  14
ENDBRANCH  12  13
ENDBRANCH   1  12
TORSDOF 16
ENDMDL
MODEL 6
REMARK VINA RESULT:    -2.978      1.967      5.670
REMARK INTER + INTRA:          -7.746
REMARK INTER:                  -6.601
REMARK INTRA:                  -1.145
REMARK UNBOUND:                -1.983
REMARK SMILES CCCCCCCCCCCCCCCCCC(=O)[O-]
REMARK SMILES IDX 10 1 11 2 12 3 13 4 14 5 15 6 16 7 17 8 18 9 19 10 20 11
REMARK SMILES IDX 9 12 8 13 7 14 6 15 5 16 4 17 3 18 2 19 1 20
REMARK H PARENT
REMARK Flexibility Score: inf
ROOT
ATOM      1  C   UNL     1       8.384  11.313   7.287  1.00  0.00     0.000 C 
ENDROOT
BRANCH   1   2
ATOM      2  C   UNL     1       9.064  11.838   6.011  1.00  0.00     0.000 C 
BRANCH   2   3
ATOM      3  C   UNL     1       8.078  12.023   4.842  1.00  0.00     0.000 C 
BRANCH   3   4
ATOM      4  C   UNL     1       6.932  13.024   5.096  1.00  0.00     0.000 C 
BRANCH   4   5
ATOM      5  C   UNL     1       5.546  12.567   4.611  1.00  0.00     0.000 C 
BRANCH   5   6
ATOM      6  C   UNL     1       5.386  11.039   4.612  1.00  0.00     0.000 C 
BRANCH   6   7
ATOM      7  C   UNL     1       5.497  10.476   6.037  1.00  0.00     0.006 C 
BRANCH   7   8
ATOM      8  C   UNL     1       4.133  10.390   6.735  1.00  0.00     0.053 C 
BRANCH   8   9
ATOM      9  C   UNL     1       4.096   9.287   7.749  1.00  0.00     0.041 C 
ATOM     10  O   UNL     1       3.049   8.605   7.904  1.00  0.00    -0.550 OA
ATOM     11  O   UNL     1       5.207   9.036   8.545  1.00  0.00    -0.550 OA
ENDBRANCH   8   9
ENDBRANCH   7   8
ENDBRANCH   6   7
ENDBRANCH   5   6
ENDBRANCH   4   5
ENDBRANCH   3   4
ENDBRANCH   2   3
ENDBRANCH   1   2
BRANCH   1  12
ATOM     12  C   UNL     1       8.594  12.239   8.499  1.00  0.00     0.000 C 
BRANCH  12  13
ATOM     13  C   UNL     1       7.378  13.108   8.879  1.00  0.00    -0.000 C 
BRANCH  13  14
ATOM     14  C   UNL     1       6.135  12.328   9.351  1.00  0.00    -0.000 C 
BRANCH  14  15
ATOM     15  C   UNL     1       4.818  13.124   9.320  1.00  0.00    -0.000 C 
BRANCH  15  16
ATOM     16  C   UNL     1       3.575  12.223   9.353  1.00  0.00    -0.000 C 
BRANCH  16  17
ATOM     17  C   UNL     1       2.298  13.057   9.522  1.00  0.00    -0.000 C 
BRANCH  17  18
ATOM     18  C   UNL     1       1.111  12.170   9.913  1.00  0.00    -0.000 C 
BRANCH  18  19
ATOM     19  C   UNL     1       0.080  12.100   8.780  1.00  0.00    -0.003 C 
ATOM     20  C   UNL     1      -1.217  12.801   9.172  1.00  0.00     0.004 C 
ENDBRANCH  18  19
ENDBRANCH  17  18
ENDBRANCH  16  17
ENDBRANCH  15  16
ENDBRANCH  14  15
ENDBRANCH  13  14
ENDBRANCH  12  13
ENDBRANCH   1  12
TORSDOF 16
ENDMDL
MODEL 7
REMARK VINA RESULT:    -2.753      2.451      7.113
REMARK INTER + INTRA:          -7.311
REMARK INTER:                  -6.331
REMARK INTRA:                  -0.980
REMARK UNBOUND:                -1.983
REMARK SMILES CCCCCCCCCCCCCCCCCC(=O)[O-]
REMARK SMILES IDX 10 1 11 2 12 3 13 4 14 5 15 6 16 7 17 8 18 9 19 10 20 11
REMARK SMILES IDX 9 12 8 13 7 14 6 15 5 16 4 17 3 18 2 19 1 20
REMARK H PARENT
REMARK Flexibility Score: inf
ROOT
ATOM      1  C   UNL     1       6.226  10.948   7.853  1.00  0.00     0.000 C 
ENDROOT
BRANCH   1   2
ATOM      2  C   UNL     1       7.741  10.948   8.115  1.00  0.00     0.000 C 
BRANCH   2   3
ATOM      3  C   UNL     1       8.324  12.367   8.250  1.00  0.00     0.000 C 
BRANCH   3   4
ATOM      4  C   UNL     1       9.753  12.549   7.697  1.00  0.00     0.000 C 
BRANCH   4   5
ATOM      5  C   UNL     1       9.833  13.103   6.264  1.00  0.00     0.000 C 
BRANCH   5   6
ATOM      6  C   UNL     1       9.314  12.112   5.211  1.00  0.00     0.000 C 
BRANCH   6   7
ATOM      7  C   UNL     1       8.314  12.790   4.264  1.00  0.00     0.006 C 
BRANCH   7   8
ATOM      8  C   UNL     1       6.890  12.805   4.835  1.00  0.00     0.053 C 
BRANCH   8   9
ATOM      9  C   UNL     1       6.175  11.513   4.578  1.00  0.00     0.041 C 
ATOM     10  O   UNL     1       4.916  11.483   4.545  1.00  0.00    -0.550 OA
ATOM     11  O   UNL     1       6.897  10.339   4.410  1.00  0.00    -0.550 OA
ENDBRANCH   8   9
ENDBRANCH   7   8
ENDBRANCH   6   7
ENDBRANCH   5   6
ENDBRANCH   4   5
ENDBRANCH   3   4
ENDBRANCH   2   3
ENDBRANCH   1   2
BRANCH   1  12
ATOM     12  C   UNL     1       5.456  10.012   8.803  1.00  0.00     0.000 C 
BRANCH  12  13
ATOM     13  C   UNL     1       4.289   9.239   8.156  1.00  0.00    -0.000 C 
BRANCH  13  14
ATOM     14  C   UNL     1       2.931   9.377   8.874  1.00  0.00    -0.000 C 
BRANCH  14  15
ATOM     15  C   UNL     1       2.981  10.128  10.216  1.00  0.00    -0.000 C 
BRANCH  15  16
ATOM     16  C   UNL     1       1.773  11.054  10.427  1.00  0.00    -0.000 C 
BRANCH  16  17
ATOM     17  C   UNL     1       1.938  12.358   9.637  1.00  0.00    -0.000 C 
BRANCH  17  18
ATOM     18  C   UNL     1       0.609  13.116   9.544  1.00  0.00    -0.000 C 
BRANCH  18  19
ATOM     19  C   UNL     1      -0.433  12.304   8.765  1.00  0.00    -0.003 C 
ATOM     20  C   UNL     1      -1.760  13.051   8.679  1.00  0.00     0.004 C 
ENDBRANCH  18  19
ENDBRANCH  17  18
ENDBRANCH  16  17
ENDBRANCH  15  16
ENDBRANCH  14  15
ENDBRANCH  13  14
ENDBRANCH  12  13
ENDBRANCH   1  12
TORSDOF 16
ENDMDL
MODEL 8
REMARK VINA RESULT:    -2.674      1.632      6.054
REMARK INTER + INTRA:          -7.159
REMARK INTER:                  -5.795
REMARK INTRA:                  -1.364
REMARK UNBOUND:                -1.983
REMARK SMILES CCCCCCCCCCCCCCCCCC(=O)[O-]
REMARK SMILES IDX 10 1 11 2 12 3 13 4 14 5 15 6 16 7 17 8 18 9 19 10 20 11
REMARK SMILES IDX 9 12 8 13 7 14 6 15 5 16 4 17 3 18 2 19 1 20
REMARK H PARENT
REMARK Flexibility Score: inf
ROOT
ATOM      1  C   UNL     1       5.157  10.873   4.600  1.00  0.00     0.000 C 
ENDROOT
BRANCH   1   2
ATOM      2  C   UNL     1       6.461  11.426   4.001  1.00  0.00     0.000 C 
BRANCH   2   3
ATOM      3  C   UNL     1       6.817  12.826   4.537  1.00  0.00     0.000 C 
BRANCH   3   4
ATOM      4  C   UNL     1       8.326  13.125   4.649  1.00  0.00     0.000 C 
BRANCH   4   5
ATOM      5  C   UNL     1       9.155  12.047   5.369  1.00  0.00     0.000 C 
BRANCH   5   6
ATOM      6  C   UNL     1      10.076  12.626   6.453  1.00  0.00     0.000 C 
BRANCH   6   7
ATOM      7  C   UNL     1       9.493  12.392   7.853  1.00  0.00     0.006 C 
BRANCH   7   8
ATOM      8  C   UNL     1       8.121  13.056   8.031  1.00  0.00     0.053 C 
BRANCH   8   9
ATOM      9  C   UNL     1       7.129  12.125   8.660  1.00  0.00     0.041 C 
ATOM     10  O   UNL     1       6.190  12.582   9.364  1.00  0.00    -0.550 OA
ATOM     11  O   UNL     1       7.264  10.752   8.497  1.00  0.00    -0.550 OA
ENDBRANCH   8   9
ENDBRANCH   7   8
ENDBRANCH   6   7
ENDBRANCH   5   6
ENDBRANCH   4   5
ENDBRANCH   3   4
ENDBRANCH   2   3
ENDBRANCH   1   2
BRANCH   1  12
ATOM     12  C   UNL     1       5.291  10.514   6.091  1.00  0.00     0.000 C 
BRANCH  12  13
ATOM     13  C   UNL     1       4.040  10.798   6.948  1.00  0.00    -0.000 C 
BRANCH  13  14
ATOM     14  C   UNL     1       3.509   9.595   7.754  1.00  0.00    -0.000 C 
BRANCH  14  15
ATOM     15  C   UNL     1       4.204   9.364   9.107  1.00  0.00    -0.000 C 
BRANCH  15  16
ATOM     16  C   UNL     1       3.641  10.251  10.227  1.00  0.00    -0.000 C 
BRANCH  16  17
ATOM     17  C   UNL     1       2.117  10.106  10.329  1.00  0.00    -0.000 C 
BRANCH  17  18
ATOM     18  C   UNL     1       1.470  11.414  10.796  1.00  0.00    -0.000 C 
BRANCH  18  19
ATOM     19  C   UNL     1       1.464  12.456   9.671  1.00  0.00    -0.003 C 
ATOM     20  C   UNL     1       0.047  12.713   9.167  1.00  0.00     0.004 C 
ENDBRANCH  18  19
ENDBRANCH  17  18
ENDBRANCH  16  17
ENDBRANCH  15  16
ENDBRANCH  14  15
ENDBRANCH  13  14
ENDBRANCH  12  13
ENDBRANCH   1  12
TORSDOF 16
ENDMDL
