MODEL 1
REMARK VINA RESULT:    -4.654      0.000      0.000
REMARK INTER + INTRA:         -14.396
REMARK INTER:                 -10.639
REMARK INTRA:                  -3.757
REMARK UNBOUND:                -3.757
REMARK SMILES CCCCCCCCCCCCCCCCCCCCCCCC(=O)[O-]
REMARK SMILES IDX 13 1 14 2 15 3 16 4 17 5 18 6 19 7 20 8 21 9 22 10 23 11
REMARK SMILES IDX 24 12 25 13 26 14 12 15 11 16 10 17 9 18 8 19 7 20 6 21 5 22
REMARK SMILES IDX 4 23 3 24 2 25 1 26
REMARK H PARENT
REMARK Flexibility Score: inf
ROOT
ATOM      1  C   UNL     1      16.638   2.891  -0.956  1.00  0.00     0.000 C 
ENDROOT
BRANCH   1   2
ATOM      2  C   UNL     1      15.555   3.926  -0.605  1.00  0.00     0.000 C 
BRANCH   2   3
ATOM      3  C   UNL     1      15.044   3.794   0.845  1.00  0.00     0.000 C 
BRANCH   3   4
ATOM      4  C   UNL     1      13.591   4.265   1.043  1.00  0.00     0.000 C 
BRANCH   4   5
ATOM      5  C   UNL     1      13.041   4.130   2.474  1.00  0.00     0.000 C 
BRANCH   5   6
ATOM      6  C   UNL     1      11.616   4.676   2.687  1.00  0.00     0.000 C 
BRANCH   6   7
ATOM      7  C   UNL     1      10.998   5.248   1.400  1.00  0.00     0.000 C 
BRANCH   7   8
ATOM      8  C   UNL     1       9.979   4.292   0.759  1.00  0.00     0.000 C 
BRANCH   8   9
ATOM      9  C   UNL     1      10.248   4.051  -0.737  1.00  0.00     0.000 C 
BRANCH   9  10
ATOM     10  C   UNL     1       9.241   4.771  -1.653  1.00  0.00     0.006 C 
BRANCH  10  11
ATOM     11  C   UNL     1       9.834   5.977  -2.402  1.00  0.00     0.053 C 
BRANCH  11  12
ATOM     12  C   UNL     1       9.061   7.239  -2.164  1.00  0.00     0.041 C 
ATOM     13  O   UNL     1       8.387   7.752  -3.097  1.00  0.00    -0.550 OA
ATOM     14  O   UNL     1       9.061   7.833  -0.909  1.00  0.00    -0.550 OA
ENDBRANCH  11  12
ENDBRANCH  10  11
ENDBRANCH   9  10
ENDBRANCH   8   9
ENDBRANCH   7   8
ENDBRANCH   6   7
ENDBRANCH   5   6
ENDBRANCH   4   5
ENDBRANCH   3   4
ENDBRANCH   2   3
ENDBRANCH   1   2
BRANCH   1  15
ATOM     15  C   UNL     1      16.399   1.525  -0.288  1.00  0.00     0.000 C 
BRANCH  15  16
ATOM     16  C   UNL     1      16.141   0.381  -1.293  1.00  0.00     0.000 C 
BRANCH  16  17
ATOM     17  C   UNL     1      14.950   0.682  -2.219  1.00  0.00     0.000 C 
BRANCH  17  18
ATOM     18  C   UNL     1      13.612   0.197  -1.639  1.00  0.00    -0.000 C 
BRANCH  18  19
ATOM     19  C   UNL     1      12.744   1.351  -1.109  1.00  0.00    -0.000 C 
BRANCH  19  20
ATOM     20  C   UNL     1      12.282   1.074   0.328  1.00  0.00    -0.000 C 
BRANCH  20  21
ATOM     21  C   UNL     1      13.244   0.154   1.104  1.00  0.00    -0.000 C 
BRANCH  21  22
ATOM     22  C   UNL     1      13.619   0.639   2.517  1.00  0.00    -0.000 C 
BRANCH  22  23
ATOM     23  C   UNL     1      15.113   0.459   2.838  1.00  0.00    -0.000 C 
BRANCH  23  24
ATOM     24  C   UNL     1      15.705   1.646   3.620  1.00  0.00    -0.000 C 
BRANCH  24  25
ATOM     25  C   UNL     1      16.620   1.262   4.797  1.00  0.00    -0.003 C 
ATOM     26  C   UNL     1      17.311   2.466   5.436  1.00  0.00     0.004 C 
ENDBRANCH  24  25
ENDBRANCH  23  24
ENDBRANCH  22  23
ENDBRANCH  21  22
ENDBRANCH  20  21
ENDBRANCH  19  20
ENDBRANCH  18  19
ENDBRANCH  17  18
ENDBRANCH  16  17
ENDBRANCH  15  16
ENDBRANCH   1  15
TORSDOF 22
ENDMDL
MODEL 2
REMARK VINA RESULT:    -4.608      1.814      4.040
REMARK INTER + INTRA:         -14.292
REMARK INTER:                 -10.182
REMARK INTRA:                  -4.110
REMARK UNBOUND:                -3.757
REMARK SMILES CCCCCCCCCCCCCCCCCCCCCCCC(=O)[O-]
REMARK SMILES IDX 13 1 14 2 15 3 16 4 17 5 18 6 19 7 20 8 21 9 22 10 23 11
REMARK SMILES IDX 24 12 25 13 26 14 12 15 11 16 10 17 9 18 8 19 7 20 6 21 5 22
REMARK SMILES IDX 4 23 3 24 2 25 1 26
REMARK H PARENT
REMARK Flexibility Score: inf
ROOT
ATOM      1  C   UNL     1      13.551   3.310   2.219  1.00  0.00     0.000 C 
ENDROOT
BRANCH   1   2
ATOM      2  C   UNL     1      12.570   4.463   1.949  1.00  0.00     0.000 C 
BRANCH   2   3
ATOM      3  C   UNL     1      11.092   4.040   2.086  1.00  0.00     0.000 C 
BRANCH   3   4
ATOM      4  C   UNL     1      10.897   2.558   2.462  1.00  0.00     0.000 C 
BRANCH   4   5
ATOM      5  C   UNL     1      10.121   1.713   1.437  1.00  0.00     0.000 C 
BRANCH   5   6
ATOM      6  C   UNL     1       8.787   2.318   0.958  1.00  0.00     0.000 C 
BRANCH   6   7
ATOM      7  C   UNL     1       8.757   2.574  -0.558  1.00  0.00     0.000 C 
BRANCH   7   8
ATOM      8  C   UNL     1       8.662   4.069  -0.903  1.00  0.00     0.000 C 
BRANCH   8   9
ATOM      9  C   UNL     1       9.981   4.638  -1.454  1.00  0.00     0.000 C 
BRANCH   9  10
ATOM     10  C   UNL     1       9.795   5.971  -2.203  1.00  0.00     0.006 C 
BRANCH  10  11
ATOM     11  C   UNL     1       8.473   6.687  -1.878  1.00  0.00     0.053 C 
BRANCH  11  12
ATOM     12  C   UNL     1       8.658   8.153  -1.630  1.00  0.00     0.041 C 
ATOM     13  O   UNL     1       8.877   8.573  -0.463  1.00  0.00    -0.550 OA
ATOM     14  O   UNL     1       8.617   9.052  -2.688  1.00  0.00    -0.550 OA
ENDBRANCH  11  12
ENDBRANCH  10  11
ENDBRANCH   9  10
ENDBRANCH   8   9
ENDBRANCH   7   8
ENDBRANCH   6   7
ENDBRANCH   5   6
ENDBRANCH   4   5
ENDBRANCH   3   4
ENDBRANCH   2   3
ENDBRANCH   1   2
BRANCH   1  15
ATOM     15  C   UNL     1      14.988   3.627   1.766  1.00  0.00     0.000 C 
BRANCH  15  16
ATOM     16  C   UNL     1      15.768   2.390   1.271  1.00  0.00     0.000 C 
BRANCH  16  17
ATOM     17  C   UNL     1      16.289   2.571  -0.165  1.00  0.00     0.000 C 
BRANCH  17  18
ATOM     18  C   UNL     1      15.681   3.795  -0.867  1.00  0.00    -0.000 C 
BRANCH  18  19
ATOM     19  C   UNL     1      15.054   3.446  -2.227  1.00  0.00    -0.000 C 
BRANCH  19  20
ATOM     20  C   UNL     1      13.521   3.480  -2.148  1.00  0.00    -0.000 C 
BRANCH  20  21
ATOM     21  C   UNL     1      12.944   2.434  -1.176  1.00  0.00    -0.000 C 
BRANCH  21  22
ATOM     22  C   UNL     1      12.022   1.380  -1.817  1.00  0.00    -0.000 C 
BRANCH  22  23
ATOM     23  C   UNL     1      12.603  -0.043  -1.759  1.00  0.00    -0.000 C 
BRANCH  23  24
ATOM     24  C   UNL     1      13.889  -0.132  -0.916  1.00  0.00    -0.000 C 
BRANCH  24  25
ATOM     25  C   UNL     1      15.076  -0.828  -1.605  1.00  0.00    -0.003 C 
ATOM     26  C   UNL     1      15.520  -0.125  -2.887  1.00  0.00     0.004 C 
ENDBRANCH  24  25
ENDBRANCH  23  24
ENDBRANCH  22  23
ENDBRANCH  21  22
ENDBRANCH  20  21
ENDBRANCH  19  20
ENDBRANCH  18  19
ENDBRANCH  17  18
ENDBRANCH  16  17
ENDBRANCH  15  16
ENDBRANCH   1  15
TORSDOF 22
ENDMDL
MODEL 3
REMARK VINA RESULT:    -4.558      2.409      4.078
REMARK INTER + INTRA:         -14.176
REMARK INTER:                 -10.345
REMARK INTRA:                  -3.832
REMARK UNBOUND:                -3.757
REMARK SMILES CCCCCCCCCCCCCCCCCCCCCCCC(=O)[O-]
REMARK SMILES IDX 13 1 14 2 15 3 16 4 17 5 18 6 19 7 20 8 21 9 22 10 23 11
REMARK SMILES IDX 24 12 25 13 26 14 12 15 11 16 10 17 9 18 8 19 7 20 6 21 5 22
REMARK SMILES IDX 4 23 3 24 2 25 1 26
REMARK H PARENT
REMARK Flexibility Score: inf
ROOT
ATOM      1  C   UNL     1      17.109   1.830  -1.259  1.00  0.00     0.000 C 
ENDROOT
BRANCH   1   2
ATOM      2  C   UNL     1      17.070   0.747  -2.351  1.00  0.00     0.000 C 
BRANCH   2   3
ATOM      3  C   UNL     1      15.634   0.379  -2.782  1.00  0.00     0.000 C 
BRANCH   3   4
ATOM      4  C   UNL     1      14.976  -0.705  -1.908  1.00  0.00     0.000 C 
BRANCH   4   5
ATOM      5  C   UNL     1      13.515  -0.433  -1.506  1.00  0.00     0.000 C 
BRANCH   5   6
ATOM      6  C   UNL     1      12.891   0.839  -2.110  1.00  0.00     0.000 C 
BRANCH   6   7
ATOM      7  C   UNL     1      12.166   1.703  -1.065  1.00  0.00     0.000 C 
BRANCH   7   8
ATOM      8  C   UNL     1      10.676   1.896  -1.389  1.00  0.00     0.000 C 
BRANCH   8   9
ATOM      9  C   UNL     1      10.151   3.283  -0.977  1.00  0.00     0.000 C 
BRANCH   9  10
ATOM     10  C   UNL     1      11.171   4.091  -0.153  1.00  0.00     0.006 C 
BRANCH  10  11
ATOM     11  C   UNL     1      10.561   4.800   1.068  1.00  0.00     0.053 C 
BRANCH  11  12
ATOM     12  C   UNL     1      10.947   4.151   2.362  1.00  0.00     0.041 C 
ATOM     13  O   UNL     1      10.625   2.954   2.589  1.00  0.00    -0.550 OA
ATOM     14  O   UNL     1      11.684   4.856   3.306  1.00  0.00    -0.550 OA
ENDBRANCH  11  12
ENDBRANCH  10  11
ENDBRANCH   9  10
ENDBRANCH   8   9
ENDBRANCH   7   8
ENDBRANCH   6   7
ENDBRANCH   5   6
ENDBRANCH   4   5
ENDBRANCH   3   4
ENDBRANCH   2   3
ENDBRANCH   1   2
BRANCH   1  15
ATOM     15  C   UNL     1      15.969   2.856  -1.392  1.00  0.00     0.000 C 
BRANCH  15  16
ATOM     16  C   UNL     1      16.120   4.074  -0.455  1.00  0.00     0.000 C 
BRANCH  16  17
ATOM     17  C   UNL     1      15.068   4.074   0.667  1.00  0.00     0.000 C 
BRANCH  17  18
ATOM     18  C   UNL     1      15.405   3.089   1.796  1.00  0.00    -0.000 C 
BRANCH  18  19
ATOM     19  C   UNL     1      14.151   2.466   2.432  1.00  0.00    -0.000 C 
BRANCH  19  20
ATOM     20  C   UNL     1      13.931   1.035   1.921  1.00  0.00    -0.000 C 
BRANCH  20  21
ATOM     21  C   UNL     1      15.247   0.263   1.707  1.00  0.00    -0.000 C 
BRANCH  21  22
ATOM     22  C   UNL     1      15.480  -0.917   2.670  1.00  0.00    -0.000 C 
BRANCH  22  23
ATOM     23  C   UNL     1      15.312  -0.528   4.149  1.00  0.00    -0.000 C 
BRANCH  23  24
ATOM     24  C   UNL     1      16.524   0.240   4.709  1.00  0.00    -0.000 C 
BRANCH  24  25
ATOM     25  C   UNL     1      16.185   1.552   5.439  1.00  0.00    -0.003 C 
ATOM     26  C   UNL     1      17.355   2.534   5.478  1.00  0.00     0.004 C 
ENDBRANCH  24  25
ENDBRANCH  23  24
ENDBRANCH  22  23
ENDBRANCH  21  22
ENDBRANCH  20  21
ENDBRANCH  19  20
ENDBRANCH  18  19
ENDBRANCH  17  18
ENDBRANCH  16  17
ENDBRANCH  15  16
ENDBRANCH   1  15
TORSDOF 22
ENDMDL
MODEL 4
REMARK VINA RESULT:    -4.550      3.676      7.223
REMARK INTER + INTRA:         -14.159
REMARK INTER:                 -10.067
REMARK INTRA:                  -4.092
REMARK UNBOUND:                -3.757
REMARK SMILES CCCCCCCCCCCCCCCCCCCCCCCC(=O)[O-]
REMARK SMILES IDX 13 1 14 2 15 3 16 4 17 5 18 6 19 7 20 8 21 9 22 10 23 11
REMARK SMILES IDX 24 12 25 13 26 14 12 15 11 16 10 17 9 18 8 19 7 20 6 21 5 22
REMARK SMILES IDX 4 23 3 24 2 25 1 26
REMARK H PARENT
REMARK Flexibility Score: inf
ROOT
ATOM      1  C   UNL     1      16.569   1.780  -0.733  1.00  0.00     0.000 C 
ENDROOT
BRANCH   1   2
ATOM      2  C   UNL     1      17.198   1.217  -2.018  1.00  0.00     0.000 C 
BRANCH   2   3
ATOM      3  C   UNL     1      16.262   0.248  -2.771  1.00  0.00     0.000 C 
BRANCH   3   4
ATOM      4  C   UNL     1      14.769   0.436  -2.442  1.00  0.00     0.000 C 
BRANCH   4   5
ATOM      5  C   UNL     1      14.118  -0.709  -1.645  1.00  0.00     0.000 C 
BRANCH   5   6
ATOM      6  C   UNL     1      12.743  -0.385  -1.031  1.00  0.00     0.000 C 
BRANCH   6   7
ATOM      7  C   UNL     1      12.757  -0.399   0.508  1.00  0.00     0.000 C 
BRANCH   7   8
ATOM      8  C   UNL     1      14.176  -0.541   1.083  1.00  0.00     0.000 C 
BRANCH   8   9
ATOM      9  C   UNL     1      14.328   0.120   2.464  1.00  0.00     0.000 C 
BRANCH   9  10
ATOM     10  C   UNL     1      15.650   0.894   2.619  1.00  0.00     0.006 C 
BRANCH  10  11
ATOM     11  C   UNL     1      15.650   1.900   3.782  1.00  0.00     0.053 C 
BRANCH  11  12
ATOM     12  C   UNL     1      16.591   1.510   4.881  1.00  0.00     0.041 C 
ATOM     13  O   UNL     1      17.188   2.399   5.546  1.00  0.00    -0.550 OA
ATOM     14  O   UNL     1      16.790   0.171   5.189  1.00  0.00    -0.550 OA
ENDBRANCH  11  12
ENDBRANCH  10  11
ENDBRANCH   9  10
ENDBRANCH   8   9
ENDBRANCH   7   8
ENDBRANCH   6   7
ENDBRANCH   5   6
ENDBRANCH   4   5
ENDBRANCH   3   4
ENDBRANCH   2   3
ENDBRANCH   1   2
BRANCH   1  15
ATOM     15  C   UNL     1      16.363   3.305  -0.784  1.00  0.00     0.000 C 
BRANCH  15  16
ATOM     16  C   UNL     1      15.250   3.811   0.159  1.00  0.00     0.000 C 
BRANCH  16  17
ATOM     17  C   UNL     1      13.877   3.212  -0.192  1.00  0.00     0.000 C 
BRANCH  17  18
ATOM     18  C   UNL     1      12.894   3.251   0.989  1.00  0.00    -0.000 C 
BRANCH  18  19
ATOM     19  C   UNL     1      13.082   4.495   1.873  1.00  0.00    -0.000 C 
BRANCH  19  20
ATOM     20  C   UNL     1      11.763   4.886   2.555  1.00  0.00    -0.000 C 
BRANCH  20  21
ATOM     21  C   UNL     1      10.520   4.484   1.738  1.00  0.00    -0.000 C 
BRANCH  21  22
ATOM     22  C   UNL     1      10.101   5.486   0.645  1.00  0.00    -0.000 C 
BRANCH  22  23
ATOM     23  C   UNL     1      10.249   4.920  -0.778  1.00  0.00    -0.000 C 
BRANCH  23  24
ATOM     24  C   UNL     1       9.254   3.783  -1.078  1.00  0.00    -0.000 C 
BRANCH  24  25
ATOM     25  C   UNL     1       9.882   2.385  -1.217  1.00  0.00    -0.003 C 
ATOM     26  C   UNL     1       9.660   1.504   0.012  1.00  0.00     0.004 C 
ENDBRANCH  24  25
ENDBRANCH  23  24
ENDBRANCH  22  23
ENDBRANCH  21  22
ENDBRANCH  20  21
ENDBRANCH  19  20
ENDBRANCH  18  19
ENDBRANCH  17  18
ENDBRANCH  16  17
ENDBRANCH  15  16
ENDBRANCH   1  15
TORSDOF 22
ENDMDL
MODEL 5
REMARK VINA RESULT:    -4.522      3.365      6.164
REMARK INTER + INTRA:         -14.094
REMARK INTER:                  -9.255
REMARK INTRA:                  -4.839
REMARK UNBOUND:                -3.757
REMARK SMILES CCCCCCCCCCCCCCCCCCCCCCCC(=O)[O-]
REMARK SMILES IDX 13 1 14 2 15 3 16 4 17 5 18 6 19 7 20 8 21 9 22 10 23 11
REMARK SMILES IDX 24 12 25 13 26 14 12 15 11 16 10 17 9 18 8 19 7 20 6 21 5 22
REMARK SMILES IDX 4 23 3 24 2 25 1 26
REMARK H PARENT
REMARK Flexibility Score: inf
ROOT
ATOM      1  C   UNL     1      13.681   3.039  -2.199  1.00  0.00     0.000 C 
ENDROOT
BRANCH   1   2
ATOM      2  C   UNL     1      14.850   3.695  -1.444  1.00  0.00     0.000 C 
BRANCH   2   3
ATOM      3  C   UNL     1      14.678   3.647   0.089  1.00  0.00     0.000 C 
BRANCH   3   4
ATOM      4  C   UNL     1      15.962   3.271   0.852  1.00  0.00     0.000 C 
BRANCH   4   5
ATOM      5  C   UNL     1      15.751   2.461   2.144  1.00  0.00     0.000 C 
BRANCH   5   6
ATOM      6  C   UNL     1      14.288   2.095   2.460  1.00  0.00     0.000 C 
BRANCH   6   7
ATOM      7  C   UNL     1      14.130   0.651   2.965  1.00  0.00     0.000 C 
BRANCH   7   8
ATOM      8  C   UNL     1      14.777  -0.377   2.023  1.00  0.00     0.000 C 
BRANCH   8   9
ATOM      9  C   UNL     1      13.971  -0.589   0.729  1.00  0.00     0.000 C 
BRANCH   9  10
ATOM     10  C   UNL     1      14.857  -0.941  -0.481  1.00  0.00     0.006 C 
BRANCH  10  11
ATOM     11  C   UNL     1      16.064  -0.005  -0.661  1.00  0.00     0.053 C 
BRANCH  11  12
ATOM     12  C   UNL     1      16.257   0.419  -2.085  1.00  0.00     0.041 C 
ATOM     13  O   UNL     1      17.200   1.197  -2.390  1.00  0.00    -0.550 OA
ATOM     14  O   UNL     1      15.415  -0.065  -3.078  1.00  0.00    -0.550 OA
ENDBRANCH  11  12
ENDBRANCH  10  11
ENDBRANCH   9  10
ENDBRANCH   8   9
ENDBRANCH   7   8
ENDBRANCH   6   7
ENDBRANCH   5   6
ENDBRANCH   4   5
ENDBRANCH   3   4
ENDBRANCH   2   3
ENDBRANCH   1   2
BRANCH   1  15
ATOM     15  C   UNL     1      12.723   2.273  -1.271  1.00  0.00     0.000 C 
BRANCH  15  16
ATOM     16  C   UNL     1      12.032   1.071  -1.950  1.00  0.00     0.000 C 
BRANCH  16  17
ATOM     17  C   UNL     1      10.762   0.634  -1.200  1.00  0.00     0.000 C 
BRANCH  17  18
ATOM     18  C   UNL     1      10.739   1.117   0.258  1.00  0.00    -0.000 C 
BRANCH  18  19
ATOM     19  C   UNL     1       9.376   1.699   0.667  1.00  0.00    -0.000 C 
BRANCH  19  20
ATOM     20  C   UNL     1       8.665   2.329  -0.539  1.00  0.00    -0.000 C 
BRANCH  20  21
ATOM     21  C   UNL     1       8.995   3.822  -0.721  1.00  0.00    -0.000 C 
BRANCH  21  22
ATOM     22  C   UNL     1       8.682   4.716   0.494  1.00  0.00    -0.000 C 
BRANCH  22  23
ATOM     23  C   UNL     1       9.844   5.654   0.867  1.00  0.00    -0.000 C 
BRANCH  23  24
ATOM     24  C   UNL     1      11.217   4.959   0.810  1.00  0.00    -0.000 C 
BRANCH  24  25
ATOM     25  C   UNL     1      11.972   4.893   2.149  1.00  0.00    -0.003 C 
ATOM     26  C   UNL     1      11.267   4.027   3.192  1.00  0.00     0.004 C 
ENDBRANCH  24  25
ENDBRANCH  23  24
ENDBRANCH  22  23
ENDBRANCH  21  22
ENDBRANCH  20  21
ENDBRANCH  19  20
ENDBRANCH  18  19
ENDBRANCH  17  18
ENDBRANCH  16  17
ENDBRANCH  15  16
ENDBRANCH   1  15
TORSDOF 22
ENDMDL
MODEL 6
REMARK VINA RESULT:    -4.514      1.396      3.313
REMARK INTER + INTRA:         -14.077
REMARK INTER:                 -10.539
REMARK INTRA:                  -3.538
REMARK UNBOUND:                -3.757
REMARK SMILES CCCCCCCCCCCCCCCCCCCCCCCC(=O)[O-]
REMARK SMILES IDX 13 1 14 2 15 3 16 4 17 5 18 6 19 7 20 8 21 9 22 10 23 11
REMARK SMILES IDX 24 12 25 13 26 14 12 15 11 16 10 17 9 18 8 19 7 20 6 21 5 22
REMARK SMILES IDX 4 23 3 24 2 25 1 26
REMARK H PARENT
REMARK Flexibility Score: inf
ROOT
ATOM      1  C   UNL     1      16.917   1.465  -1.547  1.00  0.00     0.000 C 
ENDROOT
BRANCH   1   2
ATOM      2  C   UNL     1      16.499   0.383  -2.558  1.00  0.00     0.000 C 
BRANCH   2   3
ATOM      3  C   UNL     1      14.970   0.298  -2.749  1.00  0.00     0.000 C 
BRANCH   3   4
ATOM      4  C   UNL     1      14.249  -0.538  -1.674  1.00  0.00     0.000 C 
BRANCH   4   5
ATOM      5  C   UNL     1      12.868  -0.013  -1.243  1.00  0.00     0.000 C 
BRANCH   5   6
ATOM      6  C   UNL     1      12.620   1.484  -1.510  1.00  0.00     0.000 C 
BRANCH   6   7
ATOM      7  C   UNL     1      11.356   2.014  -0.811  1.00  0.00     0.000 C 
BRANCH   7   8
ATOM      8  C   UNL     1      11.576   3.386  -0.154  1.00  0.00     0.000 C 
BRANCH   8   9
ATOM      9  C   UNL     1      10.258   4.071   0.250  1.00  0.00     0.000 C 
BRANCH   9  10
ATOM     10  C   UNL     1      10.454   5.527   0.713  1.00  0.00     0.006 C 
BRANCH  10  11
ATOM     11  C   UNL     1       9.163   6.362   0.703  1.00  0.00     0.053 C 
BRANCH  11  12
ATOM     12  C   UNL     1       9.086   7.288  -0.473  1.00  0.00     0.041 C 
ATOM     13  O   UNL     1       8.788   8.500  -0.303  1.00  0.00    -0.550 OA
ATOM     14  O   UNL     1       9.371   6.822  -1.750  1.00  0.00    -0.550 OA
ENDBRANCH  11  12
ENDBRANCH  10  11
ENDBRANCH   9  10
ENDBRANCH   8   9
ENDBRANCH   7   8
ENDBRANCH   6   7
ENDBRANCH   5   6
ENDBRANCH   4   5
ENDBRANCH   3   4
ENDBRANCH   2   3
ENDBRANCH   1   2
BRANCH   1  15
ATOM     15  C   UNL     1      16.039   2.727  -1.623  1.00  0.00     0.000 C 
BRANCH  15  16
ATOM     16  C   UNL     1      16.367   3.775  -0.537  1.00  0.00     0.000 C 
BRANCH  16  17
ATOM     17  C   UNL     1      15.190   3.994   0.429  1.00  0.00     0.000 C 
BRANCH  17  18
ATOM     18  C   UNL     1      15.414   3.331   1.797  1.00  0.00    -0.000 C 
BRANCH  18  19
ATOM     19  C   UNL     1      14.126   2.724   2.378  1.00  0.00    -0.000 C 
BRANCH  19  20
ATOM     20  C   UNL     1      13.983   1.250   1.970  1.00  0.00    -0.000 C 
BRANCH  20  21
ATOM     21  C   UNL     1      15.338   0.539   1.794  1.00  0.00    -0.000 C 
BRANCH  21  22
ATOM     22  C   UNL     1      15.489  -0.785   2.565  1.00  0.00    -0.000 C 
BRANCH  22  23
ATOM     23  C   UNL     1      15.275  -0.627   4.080  1.00  0.00    -0.000 C 
BRANCH  23  24
ATOM     24  C   UNL     1      16.437   0.106   4.777  1.00  0.00    -0.000 C 
BRANCH  24  25
ATOM     25  C   UNL     1      16.103   1.517   5.294  1.00  0.00    -0.003 C 
ATOM     26  C   UNL     1      17.316   2.444   5.333  1.00  0.00     0.004 C 
ENDBRANCH  24  25
ENDBRANCH  23  24
ENDBRANCH  22  23
ENDBRANCH  21  22
ENDBRANCH  20  21
ENDBRANCH  19  20
ENDBRANCH  18  19
ENDBRANCH  17  18
ENDBRANCH  16  17
ENDBRANCH  15  16
ENDBRANCH   1  15
TORSDOF 22
ENDMDL
MODEL 7
REMARK VINA RESULT:    -4.474      3.513      6.573
REMARK INTER + INTRA:         -13.985
REMARK INTER:                  -9.353
REMARK INTRA:                  -4.632
REMARK UNBOUND:                -3.757
REMARK SMILES CCCCCCCCCCCCCCCCCCCCCCCC(=O)[O-]
REMARK SMILES IDX 13 1 14 2 15 3 16 4 17 5 18 6 19 7 20 8 21 9 22 10 23 11
REMARK SMILES IDX 24 12 25 13 26 14 12 15 11 16 10 17 9 18 8 19 7 20 6 21 5 22
REMARK SMILES IDX 4 23 3 24 2 25 1 26
REMARK H PARENT
REMARK Flexibility Score: inf
ROOT
ATOM      1  C   UNL     1      15.098   2.019   2.155  1.00  0.00     0.000 C 
ENDROOT
BRANCH   1   2
ATOM      2  C   UNL     1      15.745   3.206   1.420  1.00  0.00     0.000 C 
BRANCH   2   3
ATOM      3  C   UNL     1      14.802   3.860   0.388  1.00  0.00     0.000 C 
BRANCH   3   4
ATOM      4  C   UNL     1      15.352   3.862  -1.051  1.00  0.00     0.000 C 
BRANCH   4   5
ATOM      5  C   UNL     1      14.335   3.502  -2.149  1.00  0.00     0.000 C 
BRANCH   5   6
ATOM      6  C   UNL     1      12.991   2.943  -1.644  1.00  0.00     0.000 C 
BRANCH   6   7
ATOM      7  C   UNL     1      12.726   1.505  -2.121  1.00  0.00     0.000 C 
BRANCH   7   8
ATOM      8  C   UNL     1      14.022   0.722  -2.385  1.00  0.00     0.000 C 
BRANCH   8   9
ATOM      9  C   UNL     1      14.509  -0.057  -1.150  1.00  0.00     0.000 C 
BRANCH   9  10
ATOM     10  C   UNL     1      16.027   0.067  -0.919  1.00  0.00     0.006 C 
BRANCH  10  11
ATOM     11  C   UNL     1      16.793   0.648  -2.120  1.00  0.00     0.053 C 
BRANCH  11  12
ATOM     12  C   UNL     1      18.104   1.256  -1.726  1.00  0.00     0.041 C 
ATOM     13  O   UNL     1      18.130   2.310  -1.036  1.00  0.00    -0.550 OA
ATOM     14  O   UNL     1      19.296   0.646  -2.096  1.00  0.00    -0.550 OA
ENDBRANCH  11  12
ENDBRANCH  10  11
ENDBRANCH   9  10
ENDBRANCH   8   9
ENDBRANCH   7   8
ENDBRANCH   6   7
ENDBRANCH   5   6
ENDBRANCH   4   5
ENDBRANCH   3   4
ENDBRANCH   2   3
ENDBRANCH   1   2
BRANCH   1  15
ATOM     15  C   UNL     1      13.596   1.875   1.855  1.00  0.00     0.000 C 
BRANCH  15  16
ATOM     16  C   UNL     1      12.954   0.625   2.495  1.00  0.00     0.000 C 
BRANCH  16  17
ATOM     17  C   UNL     1      11.609   0.266   1.840  1.00  0.00     0.000 C 
BRANCH  17  18
ATOM     18  C   UNL     1      11.067   1.389   0.944  1.00  0.00    -0.000 C 
BRANCH  18  19
ATOM     19  C   UNL     1       9.534   1.502   0.997  1.00  0.00    -0.000 C 
BRANCH  19  20
ATOM     20  C   UNL     1       8.967   1.899  -0.373  1.00  0.00    -0.000 C 
BRANCH  20  21
ATOM     21  C   UNL     1       8.579   3.387  -0.456  1.00  0.00    -0.000 C 
BRANCH  21  22
ATOM     22  C   UNL     1       9.553   4.276  -1.252  1.00  0.00    -0.000 C 
BRANCH  22  23
ATOM     23  C   UNL     1       9.911   5.581  -0.521  1.00  0.00    -0.000 C 
BRANCH  23  24
ATOM     24  C   UNL     1      10.078   5.392   0.998  1.00  0.00    -0.000 C 
BRANCH  24  25
ATOM     25  C   UNL     1      11.462   4.889   1.446  1.00  0.00    -0.003 C 
ATOM     26  C   UNL     1      11.586   4.746   2.962  1.00  0.00     0.004 C 
ENDBRANCH  24  25
ENDBRANCH  23  24
ENDBRANCH  22  23
ENDBRANCH  21  22
ENDBRANCH  20  21
ENDBRANCH  19  20
ENDBRANCH  18  19
ENDBRANCH  17  18
ENDBRANCH  16  17
ENDBRANCH  15  16
ENDBRANCH   1  15
TORSDOF 22
ENDMDL
MODEL 8
REMARK VINA RESULT:    -4.467      1.498      3.297
REMARK INTER + INTRA:         -13.970
REMARK INTER:                  -9.781
REMARK INTRA:                  -4.189
REMARK UNBOUND:                -3.757
REMARK SMILES CCCCCCCCCCCCCCCCCCCCCCCC(=O)[O-]
REMARK SMILES IDX 13 1 14 2 15 3 16 4 17 5 18 6 19 7 20 8 21 9 22 10 23 11
REMARK SMILES IDX 24 12 25 13 26 14 12 15 11 16 10 17 9 18 8 19 7 20 6 21 5 22
REMARK SMILES IDX 4 23 3 24 2 25 1 26
REMARK H PARENT
REMARK Flexibility Score: inf
ROOT
ATOM      1  C   UNL     1      16.916   1.664  -1.874  1.00  0.00     0.000 C 
ENDROOT
BRANCH   1   2
ATOM      2  C   UNL     1      16.087   0.454  -2.338  1.00  0.00     0.000 C 
BRANCH   2   3
ATOM      3  C   UNL     1      14.662   0.440  -1.747  1.00  0.00     0.000 C 
BRANCH   3   4
ATOM      4  C   UNL     1      13.602   1.100  -2.651  1.00  0.00     0.000 C 
BRANCH   4   5
ATOM      5  C   UNL     1      12.169   1.112  -2.090  1.00  0.00     0.000 C 
BRANCH   5   6
ATOM      6  C   UNL     1      11.609  -0.264  -1.683  1.00  0.00     0.000 C 
BRANCH   6   7
ATOM      7  C   UNL     1      10.356  -0.160  -0.797  1.00  0.00     0.000 C 
BRANCH   7   8
ATOM      8  C   UNL     1       9.332   0.850  -1.339  1.00  0.00     0.000 C 
BRANCH   8   9
ATOM      9  C   UNL     1       8.947   1.921  -0.303  1.00  0.00     0.000 C 
BRANCH   9  10
ATOM     10  C   UNL     1       8.815   3.329  -0.915  1.00  0.00     0.006 C 
BRANCH  10  11
ATOM     11  C   UNL     1      10.161   4.041  -1.134  1.00  0.00     0.053 C 
BRANCH  11  12
ATOM     12  C   UNL     1      10.004   5.514  -1.356  1.00  0.00     0.041 C 
ATOM     13  O   UNL     1      10.092   5.990  -2.520  1.00  0.00    -0.550 OA
ATOM     14  O   UNL     1       9.732   6.357  -0.286  1.00  0.00    -0.550 OA
ENDBRANCH  11  12
ENDBRANCH  10  11
ENDBRANCH   9  10
ENDBRANCH   8   9
ENDBRANCH   7   8
ENDBRANCH   6   7
ENDBRANCH   5   6
ENDBRANCH   4   5
ENDBRANCH   3   4
ENDBRANCH   2   3
ENDBRANCH   1   2
BRANCH   1  15
ATOM     15  C   UNL     1      16.455   2.221  -0.516  1.00  0.00     0.000 C 
BRANCH  15  16
ATOM     16  C   UNL     1      16.100   3.723  -0.551  1.00  0.00     0.000 C 
BRANCH  16  17
ATOM     17  C   UNL     1      15.110   4.110   0.560  1.00  0.00     0.000 C 
BRANCH  17  18
ATOM     18  C   UNL     1      13.696   3.561   0.313  1.00  0.00    -0.000 C 
BRANCH  18  19
ATOM     19  C   UNL     1      12.891   3.393   1.611  1.00  0.00    -0.000 C 
BRANCH  19  20
ATOM     20  C   UNL     1      12.142   2.053   1.622  1.00  0.00    -0.000 C 
BRANCH  20  21
ATOM     21  C   UNL     1      13.082   0.836   1.532  1.00  0.00    -0.000 C 
BRANCH  21  22
ATOM     22  C   UNL     1      13.154  -0.033   2.802  1.00  0.00    -0.000 C 
BRANCH  22  23
ATOM     23  C   UNL     1      14.565  -0.092   3.412  1.00  0.00    -0.000 C 
BRANCH  23  24
ATOM     24  C   UNL     1      15.558   0.860   2.720  1.00  0.00    -0.000 C 
BRANCH  24  25
ATOM     25  C   UNL     1      16.031   2.047   3.578  1.00  0.00    -0.003 C 
ATOM     26  C   UNL     1      16.335   1.658   5.024  1.00  0.00     0.004 C 
ENDBRANCH  24  25
ENDBRANCH  23  24
ENDBRANCH  22  23
ENDBRANCH  21  22
ENDBRANCH  20  21
ENDBRANCH  19  20
ENDBRANCH  18  19
ENDBRANCH  17  18
ENDBRANCH  16  17
ENDBRANCH  15  16
ENDBRANCH   1  15
TORSDOF 22
ENDMDL
MODEL 9
REMARK VINA RESULT:    -4.431      3.645      7.233
REMARK INTER + INTRA:         -13.886
REMARK INTER:                  -9.286
REMARK INTRA:                  -4.600
REMARK UNBOUND:                -3.757
REMARK SMILES CCCCCCCCCCCCCCCCCCCCCCCC(=O)[O-]
REMARK SMILES IDX 13 1 14 2 15 3 16 4 17 5 18 6 19 7 20 8 21 9 22 10 23 11
REMARK SMILES IDX 24 12 25 13 26 14 12 15 11 16 10 17 9 18 8 19 7 20 6 21 5 22
REMARK SMILES IDX 4 23 3 24 2 25 1 26
REMARK H PARENT
REMARK Flexibility Score: inf
ROOT
ATOM      1  C   UNL     1      14.460   3.606   0.530  1.00  0.00     0.000 C 
ENDROOT
BRANCH   1   2
ATOM      2  C   UNL     1      15.812   3.683  -0.200  1.00  0.00     0.000 C 
BRANCH   2   3
ATOM      3  C   UNL     1      15.756   3.104  -1.630  1.00  0.00     0.000 C 
BRANCH   3   4
ATOM      4  C   UNL     1      14.333   2.774  -2.118  1.00  0.00     0.000 C 
BRANCH   4   5
ATOM      5  C   UNL     1      14.091   1.304  -2.505  1.00  0.00     0.000 C 
BRANCH   5   6
ATOM      6  C   UNL     1      15.157   0.308  -2.010  1.00  0.00     0.000 C 
BRANCH   6   7
ATOM      7  C   UNL     1      14.550  -0.911  -1.296  1.00  0.00     0.000 C 
BRANCH   7   8
ATOM      8  C   UNL     1      14.327  -0.664   0.205  1.00  0.00     0.000 C 
BRANCH   8   9
ATOM      9  C   UNL     1      15.457   0.161   0.847  1.00  0.00     0.000 C 
BRANCH   9  10
ATOM     10  C   UNL     1      15.447   0.099   2.386  1.00  0.00     0.006 C 
BRANCH  10  11
ATOM     11  C   UNL     1      15.710   1.454   3.065  1.00  0.00     0.053 C 
BRANCH  11  12
ATOM     12  C   UNL     1      16.203   1.306   4.472  1.00  0.00     0.041 C 
ATOM     13  O   UNL     1      15.910   0.278   5.140  1.00  0.00    -0.550 OA
ATOM     14  O   UNL     1      17.007   2.288   5.037  1.00  0.00    -0.550 OA
ENDBRANCH  11  12
ENDBRANCH  10  11
ENDBRANCH   9  10
ENDBRANCH   8   9
ENDBRANCH   7   8
ENDBRANCH   6   7
ENDBRANCH   5   6
ENDBRANCH   4   5
ENDBRANCH   3   4
ENDBRANCH   2   3
ENDBRANCH   1   2
BRANCH   1  15
ATOM     15  C   UNL     1      14.153   4.868   1.356  1.00  0.00     0.000 C 
BRANCH  15  16
ATOM     16  C   UNL     1      12.733   4.880   1.963  1.00  0.00     0.000 C 
BRANCH  16  17
ATOM     17  C   UNL     1      12.402   3.563   2.686  1.00  0.00     0.000 C 
BRANCH  17  18
ATOM     18  C   UNL     1      10.891   3.352   2.870  1.00  0.00    -0.000 C 
BRANCH  18  19
ATOM     19  C   UNL     1      10.364   2.135   2.093  1.00  0.00    -0.000 C 
BRANCH  19  20
ATOM     20  C   UNL     1      11.504   1.426   1.348  1.00  0.00    -0.000 C 
BRANCH  20  21
ATOM     21  C   UNL     1      11.330   1.450  -0.182  1.00  0.00    -0.000 C 
BRANCH  21  22
ATOM     22  C   UNL     1      10.342   2.504  -0.715  1.00  0.00    -0.000 C 
BRANCH  22  23
ATOM     23  C   UNL     1      11.032   3.804  -1.163  1.00  0.00    -0.000 C 
BRANCH  23  24
ATOM     24  C   UNL     1      10.049   4.979  -1.328  1.00  0.00    -0.000 C 
BRANCH  24  25
ATOM     25  C   UNL     1       9.978   5.943  -0.131  1.00  0.00    -0.003 C 
ATOM     26  C   UNL     1       8.696   5.790   0.686  1.00  0.00     0.004 C 
ENDBRANCH  24  25
ENDBRANCH  23  24
ENDBRANCH  22  23
ENDBRANCH  21  22
ENDBRANCH  20  21
ENDBRANCH  19  20
ENDBRANCH  18  19
ENDBRANCH  17  18
ENDBRANCH  16  17
ENDBRANCH  15  16
ENDBRANCH   1  15
TORSDOF 22
ENDMDL
