MODEL 1
REMARK VINA RESULT:    14.389      0.000      0.000
REMARK INTER + INTRA:          15.651
REMARK INTER:                  15.651
REMARK INTRA:                   0.000
REMARK UNBOUND:                 0.000
REMARK SMILES Cc1cc(O)c2c(c1)C(=O)c1cc(O)cc(O)c1C2=O
REMARK SMILES IDX 1 1 2 2 8 3 7 4 6 5 4 6 3 7 19 8 20 9 18 10 11 11 9 12 10 13
REMARK SMILES IDX 12 14 13 15 15 16 16 17 5 18 17 20 14 22
REMARK H PARENT 5 19 17 21 14 23
REMARK Flexibility Score: inf
ROOT
ATOM      1  C   UNL     1       4.444   0.075  19.198  1.00  0.00     0.044 C 
ATOM      2  C   UNL     1       5.553   1.067  19.003  1.00  0.00    -0.047 A 
ATOM      3  C   UNL     1       5.276   2.437  18.964  1.00  0.00     0.016 A 
ATOM      4  C   UNL     1       6.302   3.373  18.745  1.00  0.00     0.038 A 
ATOM      5  C   UNL     1       7.629   2.928  18.549  1.00  0.00     0.076 A 
ATOM      6  C   UNL     1       7.900   1.539  18.569  1.00  0.00     0.127 A 
ATOM      7  C   UNL     1       6.862   0.623  18.789  1.00  0.00     0.050 A 
ATOM      8  C   UNL     1       8.708   3.930  18.321  1.00  0.00     0.201 C 
ATOM      9  O   UNL     1       9.895   3.543  18.153  1.00  0.00    -0.288 OA
ATOM     10  C   UNL     1       8.396   5.388  18.292  1.00  0.00     0.076 A 
ATOM     11  C   UNL     1       7.063   5.814  18.488  1.00  0.00     0.041 A 
ATOM     12  C   UNL     1       5.990   4.820  18.720  1.00  0.00     0.194 C 
ATOM     13  O   UNL     1       4.803   5.210  18.895  1.00  0.00    -0.289 OA
ATOM     14  C   UNL     1       6.758   7.186  18.463  1.00  0.00     0.059 A 
ATOM     15  C   UNL     1       7.761   8.135  18.246  1.00  0.00     0.120 A 
ATOM     16  C   UNL     1       9.077   7.719  18.053  1.00  0.00     0.093 A 
ATOM     17  C   UNL     1       9.405   6.358  18.074  1.00  0.00     0.131 A 
ENDROOT
BRANCH   6  18
ATOM     18  O   UNL     1       9.195   1.060  18.368  1.00  0.00    -0.507 OA
ATOM     19  H   UNL     1       9.439   0.091  18.541  1.00  0.00     0.293 HD
ENDBRANCH   6  18
BRANCH  17  20
ATOM     20  O   UNL     1      10.733   5.979  17.876  1.00  0.00    -0.507 OA
ATOM     21  H   UNL     1      11.094   5.759  16.955  1.00  0.00     0.293 HD
ENDBRANCH  17  20
BRANCH  15  22
ATOM     22  O   UNL     1       7.459   9.495  18.221  1.00  0.00    -0.508 OA
ATOM     23  H   UNL     1       6.541   9.830  17.950  1.00  0.00     0.293 HD
ENDBRANCH  15  22
TORSDOF 3
ENDMDL
MODEL 2
REMARK VINA RESULT:    15.110      1.219      5.489
REMARK INTER + INTRA:          16.435
REMARK INTER:                  16.435
REMARK INTRA:                   0.000
REMARK UNBOUND:                 0.000
REMARK SMILES Cc1cc(O)c2c(c1)C(=O)c1cc(O)cc(O)c1C2=O
REMARK SMILES IDX 1 1 2 2 8 3 7 4 6 5 4 6 3 7 19 8 20 9 18 10 11 11 9 12 10 13
REMARK SMILES IDX 12 14 13 15 15 16 16 17 5 18 17 20 14 22
REMARK H PARENT 5 19 17 21 14 23
REMARK Flexibility Score: inf
ROOT
ATOM      1  C   UNL     1       7.520   9.423  18.276  1.00  0.00     0.044 C 
ATOM      2  C   UNL     1       7.780   7.945  18.265  1.00  0.00    -0.047 A 
ATOM      3  C   UNL     1       6.742   7.044  18.524  1.00  0.00     0.016 A 
ATOM      4  C   UNL     1       6.983   5.659  18.553  1.00  0.00     0.038 A 
ATOM      5  C   UNL     1       8.288   5.167  18.330  1.00  0.00     0.076 A 
ATOM      6  C   UNL     1       9.339   6.086  18.089  1.00  0.00     0.127 A 
ATOM      7  C   UNL     1       9.077   7.462  18.065  1.00  0.00     0.050 A 
ATOM      8  C   UNL     1       8.530   3.697  18.360  1.00  0.00     0.201 C 
ATOM      9  O   UNL     1       9.690   3.250  18.155  1.00  0.00    -0.288 OA
ATOM     10  C   UNL     1       7.410   2.750  18.628  1.00  0.00     0.076 A 
ATOM     11  C   UNL     1       6.111   3.260  18.851  1.00  0.00     0.041 A 
ATOM     12  C   UNL     1       5.869   4.720  18.817  1.00  0.00     0.194 C 
ATOM     13  O   UNL     1       4.705   5.167  19.015  1.00  0.00    -0.289 OA
ATOM     14  C   UNL     1       5.048   2.376  19.104  1.00  0.00     0.059 A 
ATOM     15  C   UNL     1       5.262   0.995  19.139  1.00  0.00     0.120 A 
ATOM     16  C   UNL     1       6.541   0.488  18.919  1.00  0.00     0.093 A 
ATOM     17  C   UNL     1       7.616   1.349  18.665  1.00  0.00     0.131 A 
ENDROOT
BRANCH   6  18
ATOM     18  O   UNL     1      10.644   5.640  17.876  1.00  0.00    -0.507 OA
ATOM     19  H   UNL     1      11.135   5.077  18.561  1.00  0.00     0.293 HD
ENDBRANCH   6  18
BRANCH  17  20
ATOM     20  O   UNL     1       8.883   0.806  18.450  1.00  0.00    -0.507 OA
ATOM     21  H   UNL     1       9.643   1.357  18.068  1.00  0.00     0.293 HD
ENDBRANCH  17  20
BRANCH  15  22
ATOM     22  O   UNL     1       4.209   0.118  19.390  1.00  0.00    -0.508 OA
ATOM     23  H   UNL     1       3.634  -0.249  18.639  1.00  0.00     0.293 HD
ENDBRANCH  15  22
TORSDOF 3
ENDMDL
