MODEL 1
REMARK VINA RESULT:    -3.718      0.000      0.000
REMARK INTER + INTRA:          -4.860
REMARK INTER:                  -4.479
REMARK INTRA:                  -0.382
REMARK UNBOUND:                -0.382
REMARK SMILES NC(=O)C[C@H]([NH3+])C(=O)[O-]
REMARK SMILES IDX 4 1 5 2 6 3 7 7 8 8 9 9 2 10 3 11 1 12
REMARK H PARENT 6 4 6 5 6 6 1 13 1 14
REMARK Flexibility Score: inf
ROOT
ATOM      1  C   UNL     1    -115.922 -98.519  33.219  1.00  0.00     0.171 C 
ENDROOT
BRANCH   1   2
ATOM      2  C   UNL     1    -116.644 -99.126  34.440  1.00  0.00     0.237 C 
BRANCH   2   3
ATOM      3  N   UNL     1    -118.052 -98.712  34.493  1.00  0.00    -0.350 N 
ATOM      4  H   UNL     1    -118.400 -98.496  33.531  1.00  0.00     0.345 HD
ATOM      5  H   UNL     1    -118.168 -97.866  35.098  1.00  0.00     0.345 HD
ATOM      6  H   UNL     1    -118.637 -99.490  34.876  1.00  0.00     0.345 HD
ENDBRANCH   2   3
BRANCH   2   7
ATOM      7  C   UNL     1    -115.935 -98.723  35.705  1.00  0.00     0.100 C 
ATOM      8  O   UNL     1    -114.740 -98.326  35.669  1.00  0.00    -0.544 OA
ATOM      9  O   UNL     1    -116.591 -98.809  36.926  1.00  0.00    -0.544 OA
ENDBRANCH   2   7
ENDBRANCH   1   2
BRANCH   1  10
ATOM     10  C   UNL     1    -116.352 -97.103  32.967  1.00  0.00     0.223 C 
ATOM     11  O   UNL     1    -117.230 -96.862  32.097  1.00  0.00    -0.275 OA
ATOM     12  N   UNL     1    -115.798 -96.031  33.729  1.00  0.00    -0.369 N 
ATOM     13  H   UNL     1    -115.086 -96.215  34.471  1.00  0.00     0.159 HD
ATOM     14  H   UNL     1    -116.107 -95.048  33.558  1.00  0.00     0.159 HD
ENDBRANCH   1  10
TORSDOF 4
ENDMDL
MODEL 2
REMARK VINA RESULT:    -3.476      1.116      3.956
REMARK INTER + INTRA:          -4.569
REMARK INTER:                  -4.084
REMARK INTRA:                  -0.485
REMARK UNBOUND:                -0.382
REMARK SMILES NC(=O)C[C@H]([NH3+])C(=O)[O-]
REMARK SMILES IDX 4 1 5 2 6 3 7 7 8 8 9 9 2 10 3 11 1 12
REMARK H PARENT 6 4 6 5 6 6 1 13 1 14
REMARK Flexibility Score: inf
ROOT
ATOM      1  C   UNL     1    -115.889 -98.513  33.212  1.00  0.00     0.171 C 
ENDROOT
BRANCH   1   2
ATOM      2  C   UNL     1    -116.319 -97.148  32.637  1.00  0.00     0.237 C 
BRANCH   2   3
ATOM      3  N   UNL     1    -116.285 -96.097  33.663  1.00  0.00    -0.350 N 
ATOM      4  H   UNL     1    -116.722 -95.222  33.295  1.00  0.00     0.345 HD
ATOM      5  H   UNL     1    -115.300 -95.894  33.953  1.00  0.00     0.345 HD
ATOM      6  H   UNL     1    -116.833 -96.400  34.501  1.00  0.00     0.345 HD
ENDBRANCH   2   3
BRANCH   2   7
ATOM      7  C   UNL     1    -117.700 -97.255  32.047  1.00  0.00     0.100 C 
ATOM      8  O   UNL     1    -118.670 -97.635  32.755  1.00  0.00    -0.544 OA
ATOM      9  O   UNL     1    -117.907 -96.952  30.707  1.00  0.00    -0.544 OA
ENDBRANCH   2   7
ENDBRANCH   1   2
BRANCH   1  10
ATOM     10  C   UNL     1    -116.010 -98.549  34.707  1.00  0.00     0.223 C 
ATOM     11  O   UNL     1    -115.031 -98.211  35.422  1.00  0.00    -0.275 OA
ATOM     12  N   UNL     1    -117.238 -98.932  35.326  1.00  0.00    -0.369 N 
ATOM     13  H   UNL     1    -118.069 -99.193  34.749  1.00  0.00     0.159 HD
ATOM     14  H   UNL     1    -117.323 -98.947  36.367  1.00  0.00     0.159 HD
ENDBRANCH   1  10
TORSDOF 4
ENDMDL
MODEL 3
REMARK VINA RESULT:    -3.268      1.586      1.882
REMARK INTER + INTRA:          -4.318
REMARK INTER:                  -3.816
REMARK INTRA:                  -0.502
REMARK UNBOUND:                -0.382
REMARK SMILES NC(=O)C[C@H]([NH3+])C(=O)[O-]
REMARK SMILES IDX 4 1 5 2 6 3 7 7 8 8 9 9 2 10 3 11 1 12
REMARK H PARENT 6 4 6 5 6 6 1 13 1 14
REMARK Flexibility Score: inf
ROOT
ATOM      1  C   UNL     1    -116.502 -97.114  32.976  1.00  0.00     0.171 C 
ENDROOT
BRANCH   1   2
ATOM      2  C   UNL     1    -115.765 -98.392  33.427  1.00  0.00     0.237 C 
BRANCH   2   3
ATOM      3  N   UNL     1    -116.299 -99.586  32.759  1.00  0.00    -0.350 N 
ATOM      4  H   UNL     1    -117.087 -99.321  32.125  1.00  0.00     0.345 HD
ATOM      5  H   UNL     1    -116.642-100.282  33.462  1.00  0.00     0.345 HD
ATOM      6  H   UNL     1    -115.554-100.029  32.174  1.00  0.00     0.345 HD
ENDBRANCH   2   3
BRANCH   2   7
ATOM      7  C   UNL     1    -115.869 -98.540  34.921  1.00  0.00     0.100 C 
ATOM      8  O   UNL     1    -114.843 -98.443  35.645  1.00  0.00    -0.544 OA
ATOM      9  O   UNL     1    -117.099 -98.806  35.509  1.00  0.00    -0.544 OA
ENDBRANCH   2   7
ENDBRANCH   1   2
BRANCH   1  10
ATOM     10  C   UNL     1    -117.858 -97.426  32.411  1.00  0.00     0.223 C 
ATOM     11  O   UNL     1    -117.992 -97.608  31.172  1.00  0.00    -0.275 OA
ATOM     12  N   UNL     1    -118.990 -97.550  33.271  1.00  0.00    -0.369 N 
ATOM     13  H   UNL     1    -118.893 -97.425  34.304  1.00  0.00     0.159 HD
ATOM     14  H   UNL     1    -119.930 -97.777  32.877  1.00  0.00     0.159 HD
ENDBRANCH   1  10
TORSDOF 4
ENDMDL
MODEL 4
REMARK VINA RESULT:    -3.261      2.179      4.001
REMARK INTER + INTRA:          -4.310
REMARK INTER:                  -3.971
REMARK INTRA:                  -0.338
REMARK UNBOUND:                -0.382
REMARK SMILES NC(=O)C[C@H]([NH3+])C(=O)[O-]
REMARK SMILES IDX 4 1 5 2 6 3 7 7 8 8 9 9 2 10 3 11 1 12
REMARK H PARENT 6 4 6 5 6 6 1 13 1 14
REMARK Flexibility Score: inf
ROOT
ATOM      1  C   UNL     1    -116.475 -96.825  32.765  1.00  0.00     0.171 C 
ENDROOT
BRANCH   1   2
ATOM      2  C   UNL     1    -117.984 -97.062  32.548  1.00  0.00     0.237 C 
BRANCH   2   3
ATOM      3  N   UNL     1    -118.544 -97.947  33.578  1.00  0.00    -0.350 N 
ATOM      4  H   UNL     1    -117.829 -98.133  34.318  1.00  0.00     0.345 HD
ATOM      5  H   UNL     1    -118.850 -98.856  33.160  1.00  0.00     0.345 HD
ATOM      6  H   UNL     1    -119.364 -97.486  34.035  1.00  0.00     0.345 HD
ENDBRANCH   2   3
BRANCH   2   7
ATOM      7  C   UNL     1    -118.218 -97.642  31.179  1.00  0.00     0.100 C 
ATOM      8  O   UNL     1    -118.417 -98.877  31.035  1.00  0.00    -0.544 OA
ATOM      9  O   UNL     1    -118.196 -96.817  30.062  1.00  0.00    -0.544 OA
ENDBRANCH   2   7
ENDBRANCH   1   2
BRANCH   1  10
ATOM     10  C   UNL     1    -115.857 -97.909  33.600  1.00  0.00     0.223 C 
ATOM     11  O   UNL     1    -115.722 -99.066  33.121  1.00  0.00    -0.275 OA
ATOM     12  N   UNL     1    -115.391 -97.631  34.920  1.00  0.00    -0.369 N 
ATOM     13  H   UNL     1    -115.473 -96.671  35.324  1.00  0.00     0.159 HD
ATOM     14  H   UNL     1    -114.953 -98.385  35.494  1.00  0.00     0.159 HD
ENDBRANCH   1  10
TORSDOF 4
ENDMDL
MODEL 5
REMARK VINA RESULT:    -3.159      7.139      8.848
REMARK INTER + INTRA:          -4.187
REMARK INTER:                  -3.921
REMARK INTRA:                  -0.266
REMARK UNBOUND:                -0.382
REMARK SMILES NC(=O)C[C@H]([NH3+])C(=O)[O-]
REMARK SMILES IDX 4 1 5 2 6 3 7 7 8 8 9 9 2 10 3 11 1 12
REMARK H PARENT 6 4 6 5 6 6 1 13 1 14
REMARK Flexibility Score: inf
ROOT
ATOM      1  C   UNL     1    -118.558 -97.916  42.711  1.00  0.00     0.171 C 
ENDROOT
BRANCH   1   2
ATOM      2  C   UNL     1    -117.516 -98.520  41.747  1.00  0.00     0.237 C 
BRANCH   2   3
ATOM      3  N   UNL     1    -116.144 -98.220  42.179  1.00  0.00    -0.350 N 
ATOM      4  H   UNL     1    -115.725 -97.489  41.561  1.00  0.00     0.345 HD
ATOM      5  H   UNL     1    -115.549 -99.080  42.147  1.00  0.00     0.345 HD
ATOM      6  H   UNL     1    -116.153 -97.846  43.155  1.00  0.00     0.345 HD
ENDBRANCH   2   3
BRANCH   2   7
ATOM      7  C   UNL     1    -117.748 -98.001  40.353  1.00  0.00     0.100 C 
ATOM      8  O   UNL     1    -117.424 -98.693  39.351  1.00  0.00    -0.544 OA
ATOM      9  O   UNL     1    -118.306 -96.744  40.164  1.00  0.00    -0.544 OA
ENDBRANCH   2   7
ENDBRANCH   1   2
BRANCH   1  10
ATOM     10  C   UNL     1    -118.155 -98.095  44.146  1.00  0.00     0.223 C 
ATOM     11  O   UNL     1    -117.559 -99.146  44.501  1.00  0.00    -0.275 OA
ATOM     12  N   UNL     1    -118.412 -97.069  45.104  1.00  0.00    -0.369 N 
ATOM     13  H   UNL     1    -118.884 -96.181  44.822  1.00  0.00     0.159 HD
ATOM     14  H   UNL     1    -118.122 -97.193  46.099  1.00  0.00     0.159 HD
ENDBRANCH   1  10
TORSDOF 4
ENDMDL
MODEL 6
REMARK VINA RESULT:    -3.105      2.020      4.087
REMARK INTER + INTRA:          -4.122
REMARK INTER:                  -3.620
REMARK INTRA:                  -0.503
REMARK UNBOUND:                -0.382
REMARK SMILES NC(=O)C[C@H]([NH3+])C(=O)[O-]
REMARK SMILES IDX 4 1 5 2 6 3 7 7 8 8 9 9 2 10 3 11 1 12
REMARK H PARENT 6 4 6 5 6 6 1 13 1 14
REMARK Flexibility Score: inf
ROOT
ATOM      1  C   UNL     1    -116.470 -97.064  32.757  1.00  0.00     0.171 C 
ENDROOT
BRANCH   1   2
ATOM      2  C   UNL     1    -117.984 -97.095  32.458  1.00  0.00     0.237 C 
BRANCH   2   3
ATOM      3  N   UNL     1    -118.728 -97.790  33.517  1.00  0.00    -0.350 N 
ATOM      4  H   UNL     1    -119.647 -97.320  33.678  1.00  0.00     0.345 HD
ATOM      5  H   UNL     1    -118.183 -97.796  34.411  1.00  0.00     0.345 HD
ATOM      6  H   UNL     1    -118.920 -98.777  33.228  1.00  0.00     0.345 HD
ENDBRANCH   2   3
BRANCH   2   7
ATOM      7  C   UNL     1    -118.229 -97.757  31.129  1.00  0.00     0.100 C 
ATOM      8  O   UNL     1    -118.360 -97.065  30.085  1.00  0.00    -0.544 OA
ATOM      9  O   UNL     1    -118.331 -99.140  31.051  1.00  0.00    -0.544 OA
ENDBRANCH   2   7
ENDBRANCH   1   2
BRANCH   1  10
ATOM     10  C   UNL     1    -116.040 -98.255  33.563  1.00  0.00     0.223 C 
ATOM     11  O   UNL     1    -116.022 -98.186  34.820  1.00  0.00    -0.275 OA
ATOM     12  N   UNL     1    -115.682 -99.477  32.916  1.00  0.00    -0.369 N 
ATOM     13  H   UNL     1    -115.713 -99.560  31.876  1.00  0.00     0.159 HD
ATOM     14  H   UNL     1    -115.392-100.307  33.480  1.00  0.00     0.159 HD
ENDBRANCH   1  10
TORSDOF 4
ENDMDL
MODEL 7
REMARK VINA RESULT:    -3.072      1.482      2.429
REMARK INTER + INTRA:          -4.082
REMARK INTER:                  -3.822
REMARK INTRA:                  -0.261
REMARK UNBOUND:                -0.382
REMARK SMILES NC(=O)C[C@H]([NH3+])C(=O)[O-]
REMARK SMILES IDX 4 1 5 2 6 3 7 7 8 8 9 9 2 10 3 11 1 12
REMARK H PARENT 6 4 6 5 6 6 1 13 1 14
REMARK Flexibility Score: inf
ROOT
ATOM      1  C   UNL     1    -116.650 -99.367  33.733  1.00  0.00     0.171 C 
ENDROOT
BRANCH   1   2
ATOM      2  C   UNL     1    -116.488 -98.228  34.761  1.00  0.00     0.237 C 
BRANCH   2   3
ATOM      3  N   UNL     1    -115.649 -97.143  34.235  1.00  0.00    -0.350 N 
ATOM      4  H   UNL     1    -116.034 -96.216  34.530  1.00  0.00     0.345 HD
ATOM      5  H   UNL     1    -115.607 -97.180  33.190  1.00  0.00     0.345 HD
ATOM      6  H   UNL     1    -114.680 -97.224  34.620  1.00  0.00     0.345 HD
ENDBRANCH   2   3
BRANCH   2   7
ATOM      7  C   UNL     1    -115.899 -98.770  36.036  1.00  0.00     0.100 C 
ATOM      8  O   UNL     1    -116.560 -98.742  37.108  1.00  0.00    -0.544 OA
ATOM      9  O   UNL     1    -114.610 -99.288  36.040  1.00  0.00    -0.544 OA
ENDBRANCH   2   7
ENDBRANCH   1   2
BRANCH   1  10
ATOM     10  C   UNL     1    -117.626 -99.003  32.652  1.00  0.00     0.223 C 
ATOM     11  O   UNL     1    -118.155 -97.860  32.646  1.00  0.00    -0.275 OA
ATOM     12  N   UNL     1    -117.933 -99.930  31.611  1.00  0.00    -0.369 N 
ATOM     13  H   UNL     1    -117.486-100.874  31.587  1.00  0.00     0.159 HD
ATOM     14  H   UNL     1    -118.604 -99.671  30.855  1.00  0.00     0.159 HD
ENDBRANCH   1  10
TORSDOF 4
ENDMDL
MODEL 8
REMARK VINA RESULT:    -3.027      1.600      3.610
REMARK INTER + INTRA:          -4.027
REMARK INTER:                  -3.590
REMARK INTRA:                  -0.437
REMARK UNBOUND:                -0.382
REMARK SMILES NC(=O)C[C@H]([NH3+])C(=O)[O-]
REMARK SMILES IDX 4 1 5 2 6 3 7 7 8 8 9 9 2 10 3 11 1 12
REMARK H PARENT 6 4 6 5 6 6 1 13 1 14
REMARK Flexibility Score: inf
ROOT
ATOM      1  C   UNL     1    -116.580 -99.603  33.869  1.00  0.00     0.171 C 
ENDROOT
BRANCH   1   2
ATOM      2  C   UNL     1    -115.764 -98.296  33.797  1.00  0.00     0.237 C 
BRANCH   2   3
ATOM      3  N   UNL     1    -115.382 -97.826  35.135  1.00  0.00    -0.350 N 
ATOM      4  H   UNL     1    -116.236 -97.639  35.708  1.00  0.00     0.345 HD
ATOM      5  H   UNL     1    -114.812 -96.950  35.072  1.00  0.00     0.345 HD
ATOM      6  H   UNL     1    -114.824 -98.562  35.626  1.00  0.00     0.345 HD
ENDBRANCH   2   3
BRANCH   2   7
ATOM      7  C   UNL     1    -116.557 -97.238  33.079  1.00  0.00     0.100 C 
ATOM      8  O   UNL     1    -116.363 -96.018  33.325  1.00  0.00    -0.544 OA
ATOM      9  O   UNL     1    -117.525 -97.604  32.153  1.00  0.00    -0.544 OA
ENDBRANCH   2   7
ENDBRANCH   1   2
BRANCH   1  10
ATOM     10  C   UNL     1    -117.649 -99.533  34.921  1.00  0.00     0.223 C 
ATOM     11  O   UNL     1    -117.348 -99.713  36.131  1.00  0.00    -0.275 OA
ATOM     12  N   UNL     1    -118.997 -99.229  34.565  1.00  0.00    -0.369 N 
ATOM     13  H   UNL     1    -119.261 -99.053  33.570  1.00  0.00     0.159 HD
ATOM     14  H   UNL     1    -119.737 -99.171  35.300  1.00  0.00     0.159 HD
ENDBRANCH   1  10
TORSDOF 4
ENDMDL
MODEL 9
REMARK VINA RESULT:    -2.927      1.753      3.536
REMARK INTER + INTRA:          -3.907
REMARK INTER:                  -3.776
REMARK INTRA:                  -0.131
REMARK UNBOUND:                -0.382
REMARK SMILES NC(=O)C[C@H]([NH3+])C(=O)[O-]
REMARK SMILES IDX 4 1 5 2 6 3 7 7 8 8 9 9 2 10 3 11 1 12
REMARK H PARENT 6 4 6 5 6 6 1 13 1 14
REMARK Flexibility Score: inf
ROOT
ATOM      1  C   UNL     1    -116.070 -99.220  34.089  1.00  0.00     0.171 C 
ENDROOT
BRANCH   1   2
ATOM      2  C   UNL     1    -117.175 -98.156  33.932  1.00  0.00     0.237 C 
BRANCH   2   3
ATOM      3  N   UNL     1    -118.390 -98.725  33.334  1.00  0.00    -0.350 N 
ATOM      4  H   UNL     1    -119.085 -97.967  33.143  1.00  0.00     0.345 HD
ATOM      5  H   UNL     1    -118.821 -99.434  33.971  1.00  0.00     0.345 HD
ATOM      6  H   UNL     1    -118.157 -99.180  32.422  1.00  0.00     0.345 HD
ENDBRANCH   2   3
BRANCH   2   7
ATOM      7  C   UNL     1    -116.668 -97.013  33.094  1.00  0.00     0.100 C 
ATOM      8  O   UNL     1    -115.623 -96.392  33.425  1.00  0.00    -0.544 OA
ATOM      9  O   UNL     1    -117.364 -96.623  31.957  1.00  0.00    -0.544 OA
ENDBRANCH   2   7
ENDBRANCH   1   2
BRANCH   1  10
ATOM     10  C   UNL     1    -115.636 -99.362  35.519  1.00  0.00     0.223 C 
ATOM     11  O   UNL     1    -114.589-100.005  35.794  1.00  0.00    -0.275 OA
ATOM     12  N   UNL     1    -116.382 -98.745  36.568  1.00  0.00    -0.369 N 
ATOM     13  H   UNL     1    -117.241 -98.188  36.357  1.00  0.00     0.159 HD
ATOM     14  H   UNL     1    -116.073 -98.837  37.561  1.00  0.00     0.159 HD
ENDBRANCH   1  10
TORSDOF 4
ENDMDL
