MODEL 1
REMARK VINA RESULT:    -4.202      0.000      0.000
REMARK INTER + INTRA:          -2.291
REMARK INTER:                  -5.185
REMARK INTRA:                   2.894
REMARK UNBOUND:                 2.894
REMARK SMILES C=C1CC[C@H]2[C@H]([C@H]3[C@H](C)CC[C@@H]13)C2(C)C
REMARK SMILES IDX 3 1 2 2 1 3 12 4 9 5 8 6 10 7 7 8 11 9 4 11 5 12 6 13 13 14
REMARK SMILES IDX 14 16 15 17
REMARK H PARENT
REMARK Flexibility Score: 80.00
ROOT
ATOM      1  C   UNL     1      32.034   7.740  32.914  1.00  0.00     0.031 C 
ENDROOT
BRANCH   1   2
ATOM      2  C   UNL     1      30.556   7.490  32.608  1.00  0.00    -0.074 C 
ATOM      3  C   UNL     1      29.704   7.371  33.641  1.00  0.00     0.008 C 
BRANCH   2   4
ATOM      4  C   UNL     1      29.979   7.552  31.178  1.00  0.00     0.018 C 
ATOM      5  C   UNL     1      29.072   9.413  28.136  1.00  0.00     0.008 C 
ATOM      6  C   UNL     1      30.151   8.827  29.057  1.00  0.00    -0.010 C 
ATOM      7  C   UNL     1      30.335   7.326  28.810  1.00  0.00     0.004 C 
ATOM      8  C   UNL     1      29.795   8.972  30.561  1.00  0.00     0.003 CG0
ATOM      9  C   UNL     1      30.765   6.748  30.145  1.00  0.00     0.008 C 
ATOM     10  G   UNL     1      30.499  10.078  31.401  1.00  0.00     0.000 G0
ENDBRANCH   2   4
ENDBRANCH   1   2
BRANCH   1  11
ATOM     11  C   UNL     1      32.412   9.229  32.836  1.00  0.00     0.009 C 
BRANCH  11  12
ATOM     12  C   UNL     1      32.034   9.768  31.452  1.00  0.00    -0.001 C 
ATOM     13  C   UNL     1      30.521  10.081  31.425  1.00  0.00     0.002 CG0
ATOM     14  C   UNL     1      31.563  11.185  31.142  1.00  0.00    -0.029 C 
ATOM     15  G   UNL     1      29.798   8.989  30.583  1.00  0.00     0.000 G0
ATOM     16  C   UNL     1      31.769  12.231  32.250  1.00  0.00     0.011 C 
ATOM     17  C   UNL     1      31.752  11.677  29.699  1.00  0.00     0.011 C 
ENDBRANCH  11  12
ENDBRANCH   1  11
TORSDOF 0
ENDMDL
MODEL 2
REMARK VINA RESULT:    -3.942      1.032      3.689
REMARK INTER + INTRA:          -1.970
REMARK INTER:                  -4.758
REMARK INTRA:                   2.788
REMARK UNBOUND:                 2.894
REMARK SMILES C=C1CC[C@H]2[C@H]([C@H]3[C@H](C)CC[C@@H]13)C2(C)C
REMARK SMILES IDX 3 1 2 2 1 3 12 4 9 5 8 6 10 7 7 8 11 9 4 11 5 12 6 13 13 14
REMARK SMILES IDX 14 16 15 17
REMARK H PARENT
REMARK Flexibility Score: 80.00
ROOT
ATOM      1  C   UNL     1      32.814  11.585  30.641  1.00  0.00     0.031 C 
ENDROOT
BRANCH   1   2
ATOM      2  C   UNL     1      31.775  11.494  31.760  1.00  0.00    -0.074 C 
ATOM      3  C   UNL     1      31.164  12.626  32.153  1.00  0.00     0.008 C 
BRANCH   2   4
ATOM      4  C   UNL     1      31.272  10.148  32.323  1.00  0.00     0.018 C 
ATOM      5  C   UNL     1      29.448   6.972  31.963  1.00  0.00     0.008 C 
ATOM      6  C   UNL     1      30.666   7.846  31.628  1.00  0.00    -0.010 C 
ATOM      7  C   UNL     1      31.694   7.822  32.764  1.00  0.00     0.004 C 
ATOM      8  C   UNL     1      30.292   9.337  31.421  1.00  0.00     0.003 CG0
ATOM      9  C   UNL     1      32.380   9.174  32.714  1.00  0.00     0.008 C 
ATOM     10  G   UNL     1      30.214   9.904  29.973  1.00  0.00     0.000 G0
ENDBRANCH   2   4
ENDBRANCH   1   2
BRANCH   1  11
ATOM     11  C   UNL     1      32.228  11.245  29.259  1.00  0.00     0.009 C 
BRANCH  11  12
ATOM     12  C   UNL     1      31.621   9.839  29.307  1.00  0.00    -0.001 C 
ATOM     13  C   UNL     1      30.222   9.912  29.961  1.00  0.00     0.002 CG0
ATOM     14  C   UNL     1      30.399   9.365  28.527  1.00  0.00    -0.029 C 
ATOM     15  G   UNL     1      30.310   9.319  31.398  1.00  0.00     0.000 G0
ATOM     16  C   UNL     1      29.923  10.278  27.385  1.00  0.00     0.011 C 
ATOM     17  C   UNL     1      30.274   7.853  28.287  1.00  0.00     0.011 C 
ENDBRANCH  11  12
ENDBRANCH   1  11
TORSDOF 0
ENDMDL
MODEL 3
REMARK VINA RESULT:    -3.867      0.919      3.762
REMARK INTER + INTRA:          -1.877
REMARK INTER:                  -4.645
REMARK INTRA:                   2.768
REMARK UNBOUND:                 2.894
REMARK SMILES C=C1CC[C@H]2[C@H]([C@H]3[C@H](C)CC[C@@H]13)C2(C)C
REMARK SMILES IDX 3 1 2 2 1 3 12 4 9 5 8 6 10 7 7 8 11 9 4 11 5 12 6 13 13 14
REMARK SMILES IDX 14 16 15 17
REMARK H PARENT
REMARK Flexibility Score: 80.00
ROOT
ATOM      1  C   UNL     1      30.811   7.507  29.012  1.00  0.00     0.031 C 
ENDROOT
BRANCH   1   2
ATOM      2  C   UNL     1      30.011   8.795  28.810  1.00  0.00    -0.074 C 
ATOM      3  C   UNL     1      28.731   8.694  28.412  1.00  0.00     0.008 C 
BRANCH   2   4
ATOM      4  C   UNL     1      30.550  10.183  29.218  1.00  0.00     0.018 C 
ATOM      5  C   UNL     1      31.622  12.615  31.763  1.00  0.00     0.008 C 
ATOM      6  C   UNL     1      31.879  11.322  30.976  1.00  0.00    -0.010 C 
ATOM      7  C   UNL     1      32.441  11.624  29.582  1.00  0.00     0.004 C 
ATOM      8  C   UNL     1      30.585  10.498  30.744  1.00  0.00     0.003 CG0
ATOM      9  C   UNL     1      31.952  10.493  28.698  1.00  0.00     0.008 C 
ATOM     10  G   UNL     1      30.328   9.232  31.615  1.00  0.00     0.000 G0
ENDBRANCH   2   4
ENDBRANCH   1   2
BRANCH   1  11
ATOM     11  C   UNL     1      30.832   7.046  30.480  1.00  0.00     0.009 C 
BRANCH  11  12
ATOM     12  C   UNL     1      31.407   8.169  31.348  1.00  0.00    -0.001 C 
ATOM     13  C   UNL     1      30.302   9.215  31.623  1.00  0.00     0.002 CG0
ATOM     14  C   UNL     1      31.007   8.483  32.786  1.00  0.00    -0.029 C 
ATOM     15  G   UNL     1      30.589  10.484  30.768  1.00  0.00     0.000 G0
ATOM     16  C   UNL     1      30.184   7.408  33.515  1.00  0.00     0.011 C 
ATOM     17  C   UNL     1      32.029   9.251  33.637  1.00  0.00     0.011 C 
ENDBRANCH  11  12
ENDBRANCH   1  11
TORSDOF 0
ENDMDL
MODEL 4
REMARK VINA RESULT:    -3.772      3.313      5.214
REMARK INTER + INTRA:          -1.760
REMARK INTER:                  -4.497
REMARK INTRA:                   2.738
REMARK UNBOUND:                 2.894
REMARK SMILES C=C1CC[C@H]2[C@H]([C@H]3[C@H](C)CC[C@@H]13)C2(C)C
REMARK SMILES IDX 3 1 2 2 1 3 12 4 9 5 8 6 10 7 7 8 11 9 4 11 5 12 6 13 13 14
REMARK SMILES IDX 14 16 15 17
REMARK H PARENT
REMARK Flexibility Score: 80.00
ROOT
ATOM      1  C   UNL     1      32.405  11.614  27.184  1.00  0.00     0.031 C 
ENDROOT
BRANCH   1   2
ATOM      2  C   UNL     1      31.695  11.009  28.396  1.00  0.00    -0.074 C 
ATOM      3  C   UNL     1      31.492  11.791  29.471  1.00  0.00     0.008 C 
BRANCH   2   4
ATOM      4  C   UNL     1      31.045   9.609  28.368  1.00  0.00     0.018 C 
ATOM      5  C   UNL     1      28.498   7.251  27.146  1.00  0.00     0.008 C 
ATOM      6  C   UNL     1      29.765   8.080  26.892  1.00  0.00    -0.010 C 
ATOM      7  C   UNL     1      31.007   7.382  27.459  1.00  0.00     0.004 C 
ATOM      8  C   UNL     1      29.712   9.474  27.571  1.00  0.00     0.003 CG0
ATOM      9  C   UNL     1      31.956   8.501  27.845  1.00  0.00     0.008 C 
ATOM     10  G   UNL     1      29.415  10.729  26.699  1.00  0.00     0.000 G0
ENDBRANCH   2   4
ENDBRANCH   1   2
BRANCH   1  11
ATOM     11  C   UNL     1      31.423  12.111  26.109  1.00  0.00     0.009 C 
BRANCH  11  12
ATOM     12  C   UNL     1      30.536  10.943  25.664  1.00  0.00    -0.001 C 
ATOM     13  C   UNL     1      29.404  10.744  26.698  1.00  0.00     0.002 CG0
ATOM     14  C   UNL     1      29.082  11.044  25.217  1.00  0.00    -0.029 C 
ATOM     15  G   UNL     1      29.708   9.467  27.535  1.00  0.00     0.000 G0
ATOM     16  C   UNL     1      28.561  12.456  24.904  1.00  0.00     0.011 C 
ATOM     17  C   UNL     1      28.551   9.910  24.327  1.00  0.00     0.011 C 
ENDBRANCH  11  12
ENDBRANCH   1  11
TORSDOF 0
ENDMDL
MODEL 5
REMARK VINA RESULT:    -3.765      1.339      2.729
REMARK INTER + INTRA:          -1.751
REMARK INTER:                  -4.596
REMARK INTRA:                   2.846
REMARK UNBOUND:                 2.894
REMARK SMILES C=C1CC[C@H]2[C@H]([C@H]3[C@H](C)CC[C@@H]13)C2(C)C
REMARK SMILES IDX 3 1 2 2 1 3 12 4 9 5 8 6 10 7 7 8 11 9 4 11 5 12 6 13 13 14
REMARK SMILES IDX 14 16 15 17
REMARK H PARENT
REMARK Flexibility Score: 80.00
ROOT
ATOM      1  C   UNL     1      32.303  11.442  33.292  1.00  0.00     0.031 C 
ENDROOT
BRANCH   1   2
ATOM      2  C   UNL     1      31.139  10.571  33.766  1.00  0.00    -0.074 C 
ATOM      3  C   UNL     1      30.217  11.125  34.573  1.00  0.00     0.008 C 
BRANCH   2   4
ATOM      4  C   UNL     1      30.882   9.152  33.217  1.00  0.00     0.018 C 
ATOM      5  C   UNL     1      29.959   6.859  30.490  1.00  0.00     0.008 C 
ATOM      6  C   UNL     1      30.972   7.823  31.124  1.00  0.00    -0.010 C 
ATOM      7  C   UNL     1      31.765   7.138  32.242  1.00  0.00     0.004 C 
ATOM      8  C   UNL     1      30.294   9.057  31.776  1.00  0.00     0.003 CG0
ATOM      9  C   UNL     1      32.106   8.240  33.227  1.00  0.00     0.008 C 
ATOM     10  G   UNL     1      30.335  10.424  31.030  1.00  0.00     0.000 G0
ENDBRANCH   2   4
ENDBRANCH   1   2
BRANCH   1  11
ATOM     11  C   UNL     1      32.072  12.027  31.888  1.00  0.00     0.009 C 
BRANCH  11  12
ATOM     12  C   UNL     1      31.824  10.879  30.903  1.00  0.00    -0.001 C 
ATOM     13  C   UNL     1      30.347  10.433  31.005  1.00  0.00     0.002 CG0
ATOM     14  C   UNL     1      30.932  10.937  29.668  1.00  0.00    -0.029 C 
ATOM     15  G   UNL     1      30.286   9.068  31.751  1.00  0.00     0.000 G0
ATOM     16  C   UNL     1      30.488  12.337  29.212  1.00  0.00     0.011 C 
ATOM     17  C   UNL     1      31.225   9.920  28.554  1.00  0.00     0.011 C 
ENDBRANCH  11  12
ENDBRANCH   1  11
TORSDOF 0
ENDMDL
MODEL 6
REMARK VINA RESULT:    -3.569      1.981      3.966
REMARK INTER + INTRA:          -1.509
REMARK INTER:                  -4.339
REMARK INTRA:                   2.831
REMARK UNBOUND:                 2.894
REMARK SMILES C=C1CC[C@H]2[C@H]([C@H]3[C@H](C)CC[C@@H]13)C2(C)C
REMARK SMILES IDX 3 1 2 2 1 3 12 4 9 5 8 6 10 7 7 8 11 9 4 11 5 12 6 13 13 14
REMARK SMILES IDX 14 16 15 17
REMARK H PARENT
REMARK Flexibility Score: 80.00
ROOT
ATOM      1  C   UNL     1      30.486   7.662  27.555  1.00  0.00     0.031 C 
ENDROOT
BRANCH   1   2
ATOM      2  C   UNL     1      29.087   8.278  27.485  1.00  0.00    -0.074 C 
ATOM      3  C   UNL     1      28.042   7.530  27.881  1.00  0.00     0.008 C 
BRANCH   2   4
ATOM      4  C   UNL     1      28.848   9.766  27.155  1.00  0.00     0.018 C 
ATOM      5  C   UNL     1      29.135  13.344  27.966  1.00  0.00     0.008 C 
ATOM      6  C   UNL     1      29.796  12.027  27.535  1.00  0.00    -0.010 C 
ATOM      7  C   UNL     1      29.586  11.765  26.040  1.00  0.00     0.004 C 
ATOM      8  C   UNL     1      29.205  10.795  28.271  1.00  0.00     0.003 CG0
ATOM      9  C   UNL     1      29.559  10.256  25.895  1.00  0.00     0.008 C 
ATOM     10  G   UNL     1      30.015  10.148  29.433  1.00  0.00     0.000 G0
ENDBRANCH   2   4
ENDBRANCH   1   2
BRANCH   1  11
ATOM     11  C   UNL     1      31.244   8.058  28.834  1.00  0.00     0.009 C 
BRANCH  11  12
ATOM     12  C   UNL     1      31.338   9.586  28.906  1.00  0.00    -0.001 C 
ATOM     13  C   UNL     1      30.004  10.152  29.444  1.00  0.00     0.002 CG0
ATOM     14  C   UNL     1      31.334  10.424  30.180  1.00  0.00    -0.029 C 
ATOM     15  G   UNL     1      29.227  10.810  28.265  1.00  0.00     0.000 G0
ATOM     16  C   UNL     1      31.553   9.662  31.498  1.00  0.00     0.011 C 
ATOM     17  C   UNL     1      31.960  11.823  30.090  1.00  0.00     0.011 C 
ENDBRANCH  11  12
ENDBRANCH   1  11
TORSDOF 0
ENDMDL
MODEL 7
REMARK VINA RESULT:    -3.567      1.724      2.821
REMARK INTER + INTRA:          -1.507
REMARK INTER:                  -4.423
REMARK INTRA:                   2.915
REMARK UNBOUND:                 2.894
REMARK SMILES C=C1CC[C@H]2[C@H]([C@H]3[C@H](C)CC[C@@H]13)C2(C)C
REMARK SMILES IDX 3 1 2 2 1 3 12 4 9 5 8 6 10 7 7 8 11 9 4 11 5 12 6 13 13 14
REMARK SMILES IDX 14 16 15 17
REMARK H PARENT
REMARK Flexibility Score: 80.00
ROOT
ATOM      1  C   UNL     1      31.877  10.046  30.828  1.00  0.00     0.031 C 
ENDROOT
BRANCH   1   2
ATOM      2  C   UNL     1      30.579   9.365  31.266  1.00  0.00    -0.074 C 
ATOM      3  C   UNL     1      29.969   9.812  32.378  1.00  0.00     0.008 C 
BRANCH   2   4
ATOM      4  C   UNL     1      29.851   8.319  30.395  1.00  0.00     0.018 C 
ATOM      5  C   UNL     1      27.974   7.370  27.375  1.00  0.00     0.008 C 
ATOM      6  C   UNL     1      29.295   7.791  28.036  1.00  0.00    -0.010 C 
ATOM      7  C   UNL     1      29.978   6.600  28.717  1.00  0.00     0.004 C 
ATOM      8  C   UNL     1      29.094   8.859  29.143  1.00  0.00     0.003 CG0
ATOM      9  C   UNL     1      30.744   7.190  29.885  1.00  0.00     0.008 C 
ATOM     10  G   UNL     1      29.446  10.344  28.834  1.00  0.00     0.000 G0
ENDBRANCH   2   4
ENDBRANCH   1   2
BRANCH   1  11
ATOM     11  C   UNL     1      31.649  11.110  29.740  1.00  0.00     0.009 C 
BRANCH  11  12
ATOM     12  C   UNL     1      30.949  10.458  28.543  1.00  0.00    -0.001 C 
ATOM     13  C   UNL     1      29.435  10.355  28.834  1.00  0.00     0.002 CG0
ATOM     14  C   UNL     1      29.954  11.139  27.609  1.00  0.00    -0.029 C 
ATOM     15  G   UNL     1      29.083   8.870  29.140  1.00  0.00     0.000 G0
ATOM     16  C   UNL     1      29.876  12.672  27.695  1.00  0.00     0.011 C 
ATOM     17  C   UNL     1      29.787  10.527  26.210  1.00  0.00     0.011 C 
ENDBRANCH  11  12
ENDBRANCH   1  11
TORSDOF 0
ENDMDL
MODEL 8
REMARK VINA RESULT:    -3.513      2.042      2.956
REMARK INTER + INTRA:          -1.440
REMARK INTER:                  -4.322
REMARK INTRA:                   2.882
REMARK UNBOUND:                 2.894
REMARK SMILES C=C1CC[C@H]2[C@H]([C@H]3[C@H](C)CC[C@@H]13)C2(C)C
REMARK SMILES IDX 3 1 2 2 1 3 12 4 9 5 8 6 10 7 7 8 11 9 4 11 5 12 6 13 13 14
REMARK SMILES IDX 14 16 15 17
REMARK H PARENT
REMARK Flexibility Score: 80.00
ROOT
ATOM      1  C   UNL     1      32.005  10.884  30.764  1.00  0.00     0.031 C 
ENDROOT
BRANCH   1   2
ATOM      2  C   UNL     1      31.291   9.532  30.706  1.00  0.00    -0.074 C 
ATOM      3  C   UNL     1      31.121   8.853  31.854  1.00  0.00     0.008 C 
BRANCH   2   4
ATOM      4  C   UNL     1      30.602   9.008  29.428  1.00  0.00     0.018 C 
ATOM      5  C   UNL     1      27.975   9.203  26.858  1.00  0.00     0.008 C 
ATOM      6  C   UNL     1      29.262   9.763  27.482  1.00  0.00    -0.010 C 
ATOM      7  C   UNL     1      30.490   8.969  27.026  1.00  0.00     0.004 C 
ATOM      8  C   UNL     1      29.255   9.686  29.032  1.00  0.00     0.003 CG0
ATOM      9  C   UNL     1      31.475   9.054  28.176  1.00  0.00     0.008 C 
ATOM     10  G   UNL     1      28.983  10.982  29.852  1.00  0.00     0.000 G0
ENDBRANCH   2   4
ENDBRANCH   1   2
BRANCH   1  11
ATOM     11  C   UNL     1      31.026  12.070  30.811  1.00  0.00     0.009 C 
BRANCH  11  12
ATOM     12  C   UNL     1      30.101  12.003  29.591  1.00  0.00    -0.001 C 
ATOM     13  C   UNL     1      28.974  10.980  29.865  1.00  0.00     0.002 CG0
ATOM     14  C   UNL     1      28.645  12.455  29.546  1.00  0.00    -0.029 C 
ATOM     15  G   UNL     1      29.250   9.695  29.030  1.00  0.00     0.000 G0
ATOM     16  C   UNL     1      28.162  13.317  30.725  1.00  0.00     0.011 C 
ATOM     17  C   UNL     1      28.072  12.808  28.166  1.00  0.00     0.011 C 
ENDBRANCH  11  12
ENDBRANCH   1  11
TORSDOF 0
ENDMDL
MODEL 9
REMARK VINA RESULT:    -3.420      2.128      4.762
REMARK INTER + INTRA:          -1.325
REMARK INTER:                  -4.181
REMARK INTRA:                   2.856
REMARK UNBOUND:                 2.894
REMARK SMILES C=C1CC[C@H]2[C@H]([C@H]3[C@H](C)CC[C@@H]13)C2(C)C
REMARK SMILES IDX 3 1 2 2 1 3 12 4 9 5 8 6 10 7 7 8 11 9 4 11 5 12 6 13 13 14
REMARK SMILES IDX 14 16 15 17
REMARK H PARENT
REMARK Flexibility Score: 80.00
ROOT
ATOM      1  C   UNL     1      28.207   7.589  27.787  1.00  0.00     0.031 C 
ENDROOT
BRANCH   1   2
ATOM      2  C   UNL     1      29.706   7.382  28.008  1.00  0.00    -0.074 C 
ATOM      3  C   UNL     1      30.334   6.446  27.275  1.00  0.00     0.008 C 
BRANCH   2   4
ATOM      4  C   UNL     1      30.555   8.317  28.896  1.00  0.00     0.018 C 
ATOM      5  C   UNL     1      32.082  11.587  29.613  1.00  0.00     0.008 C 
ATOM      6  C   UNL     1      30.830  10.703  29.513  1.00  0.00    -0.010 C 
ATOM      7  C   UNL     1      30.667   9.831  30.762  1.00  0.00     0.004 C 
ATOM      8  C   UNL     1      30.886   9.723  28.311  1.00  0.00     0.003 CG0
ATOM      9  C   UNL     1      29.970   8.571  30.284  1.00  0.00     0.008 C 
ATOM     10  G   UNL     1      30.055  10.044  27.034  1.00  0.00     0.000 G0
ENDBRANCH   2   4
ENDBRANCH   1   2
BRANCH   1  11
ATOM     11  C   UNL     1      27.905   8.754  26.828  1.00  0.00     0.009 C 
BRANCH  11  12
ATOM     12  C   UNL     1      28.548  10.032  27.376  1.00  0.00    -0.001 C 
ATOM     13  C   UNL     1      30.053  10.035  27.022  1.00  0.00     0.002 CG0
ATOM     14  C   UNL     1      29.124  11.172  26.544  1.00  0.00    -0.029 C 
ATOM     15  G   UNL     1      30.872   9.733  28.311  1.00  0.00     0.000 G0
ATOM     16  C   UNL     1      28.762  11.176  25.049  1.00  0.00     0.011 C 
ATOM     17  C   UNL     1      29.219  12.546  27.223  1.00  0.00     0.011 C 
ENDBRANCH  11  12
ENDBRANCH   1  11
TORSDOF 0
ENDMDL
