MODEL 1
REMARK VINA RESULT:    -3.634      0.000      0.000
REMARK INTER + INTRA:          -4.703
REMARK INTER:                  -4.378
REMARK INTRA:                  -0.325
REMARK UNBOUND:                -0.325
REMARK SMILES NC(=O)C[C@H]([NH3+])C(=O)[O-]
REMARK SMILES IDX 4 1 5 2 6 3 7 7 8 8 9 9 2 10 3 11 1 12
REMARK H PARENT 6 4 6 5 6 6 1 13 1 14
REMARK Flexibility Score: inf
ROOT
ATOM      1  C   UNL     1     136.819 123.486 120.126  1.00  0.00     0.171 C 
ENDROOT
BRANCH   1   2
ATOM      2  C   UNL     1     136.419 122.040 119.769  1.00  0.00     0.237 C 
BRANCH   2   3
ATOM      3  N   UNL     1     135.031 121.971 119.293  1.00  0.00    -0.350 N 
ATOM      4  H   UNL     1     135.001 122.142 118.261  1.00  0.00     0.345 HD
ATOM      5  H   UNL     1     134.614 121.032 119.496  1.00  0.00     0.345 HD
ATOM      6  H   UNL     1     134.455 122.709 119.758  1.00  0.00     0.345 HD
ENDBRANCH   2   3
BRANCH   2   7
ATOM      7  C   UNL     1     136.597 121.154 120.974  1.00  0.00     0.100 C 
ATOM      8  O   UNL     1     137.742 120.985 121.471  1.00  0.00    -0.544 OA
ATOM      9  O   UNL     1     135.498 120.532 121.555  1.00  0.00    -0.544 OA
ENDBRANCH   2   7
ENDBRANCH   1   2
BRANCH   1  10
ATOM     10  C   UNL     1     136.011 124.018 121.274  1.00  0.00     0.223 C 
ATOM     11  O   UNL     1     134.753 123.968 121.231  1.00  0.00    -0.275 OA
ATOM     12  N   UNL     1     136.658 124.606 122.401  1.00  0.00    -0.369 N 
ATOM     13  H   UNL     1     136.095 124.986 123.194  1.00  0.00     0.159 HD
ATOM     14  H   UNL     1     137.700 124.665 122.446  1.00  0.00     0.159 HD
ENDBRANCH   1  10
TORSDOF 4
ENDMDL
MODEL 2
REMARK VINA RESULT:    -3.580      2.161      2.427
REMARK INTER + INTRA:          -4.638
REMARK INTER:                  -4.242
REMARK INTRA:                  -0.396
REMARK UNBOUND:                -0.325
REMARK SMILES NC(=O)C[C@H]([NH3+])C(=O)[O-]
REMARK SMILES IDX 4 1 5 2 6 3 7 7 8 8 9 9 2 10 3 11 1 12
REMARK H PARENT 6 4 6 5 6 6 1 13 1 14
REMARK Flexibility Score: inf
ROOT
ATOM      1  C   UNL     1     135.866 122.258 122.410  1.00  0.00     0.171 C 
ENDROOT
BRANCH   1   2
ATOM      2  C   UNL     1     136.254 121.029 121.564  1.00  0.00     0.237 C 
BRANCH   2   3
ATOM      3  N   UNL     1     137.657 120.651 121.782  1.00  0.00    -0.350 N 
ATOM      4  H   UNL     1     137.845 119.719 121.345  1.00  0.00     0.345 HD
ATOM      5  H   UNL     1     138.303 121.361 121.365  1.00  0.00     0.345 HD
ATOM      6  H   UNL     1     137.852 120.569 122.806  1.00  0.00     0.345 HD
ENDBRANCH   2   3
BRANCH   2   7
ATOM      7  C   UNL     1     136.019 121.323 120.107  1.00  0.00     0.100 C 
ATOM      8  O   UNL     1     136.873 120.983 119.246  1.00  0.00    -0.544 OA
ATOM      9  O   UNL     1     134.851 121.957 119.699  1.00  0.00    -0.544 OA
ENDBRANCH   2   7
ENDBRANCH   1   2
BRANCH   1  10
ATOM     10  C   UNL     1     136.608 123.489 121.974  1.00  0.00     0.223 C 
ATOM     11  O   UNL     1     137.829 123.617 122.255  1.00  0.00    -0.275 OA
ATOM     12  N   UNL     1     135.931 124.527 121.267  1.00  0.00    -0.369 N 
ATOM     13  H   UNL     1     136.444 125.387 120.973  1.00  0.00     0.159 HD
ATOM     14  H   UNL     1     134.916 124.440 121.036  1.00  0.00     0.159 HD
ENDBRANCH   1  10
TORSDOF 4
ENDMDL
MODEL 3
REMARK VINA RESULT:    -3.558      1.771      3.387
REMARK INTER + INTRA:          -4.611
REMARK INTER:                  -4.269
REMARK INTRA:                  -0.342
REMARK UNBOUND:                -0.325
REMARK SMILES NC(=O)C[C@H]([NH3+])C(=O)[O-]
REMARK SMILES IDX 4 1 5 2 6 3 7 7 8 8 9 9 2 10 3 11 1 12
REMARK H PARENT 6 4 6 5 6 6 1 13 1 14
REMARK Flexibility Score: inf
ROOT
ATOM      1  C   UNL     1     135.447 122.136 120.044  1.00  0.00     0.171 C 
ENDROOT
BRANCH   1   2
ATOM      2  C   UNL     1     136.069 123.517 120.334  1.00  0.00     0.237 C 
BRANCH   2   3
ATOM      3  N   UNL     1     137.486 123.558 119.948  1.00  0.00    -0.350 N 
ATOM      4  H   UNL     1     137.934 122.634 120.147  1.00  0.00     0.345 HD
ATOM      5  H   UNL     1     137.588 123.777 118.930  1.00  0.00     0.345 HD
ATOM      6  H   UNL     1     137.989 124.285 120.507  1.00  0.00     0.345 HD
ENDBRANCH   2   3
BRANCH   2   7
ATOM      7  C   UNL     1     135.922 123.840 121.797  1.00  0.00     0.100 C 
ATOM      8  O   UNL     1     134.814 123.676 122.373  1.00  0.00    -0.544 OA
ATOM      9  O   UNL     1     137.010 124.306 122.525  1.00  0.00    -0.544 OA
ENDBRANCH   2   7
ENDBRANCH   1   2
BRANCH   1  10
ATOM     10  C   UNL     1     136.008 121.075 120.947  1.00  0.00     0.223 C 
ATOM     11  O   UNL     1     137.225 120.759 120.862  1.00  0.00    -0.275 OA
ATOM     12  N   UNL     1     135.164 120.402 121.880  1.00  0.00    -0.369 N 
ATOM     13  H   UNL     1     135.552 119.657 122.499  1.00  0.00     0.159 HD
ATOM     14  H   UNL     1     134.151 120.645 121.953  1.00  0.00     0.159 HD
ENDBRANCH   1  10
TORSDOF 4
ENDMDL
MODEL 4
REMARK VINA RESULT:    -3.532      2.045      3.312
REMARK INTER + INTRA:          -4.580
REMARK INTER:                  -4.349
REMARK INTRA:                  -0.231
REMARK UNBOUND:                -0.325
REMARK SMILES NC(=O)C[C@H]([NH3+])C(=O)[O-]
REMARK SMILES IDX 4 1 5 2 6 3 7 7 8 8 9 9 2 10 3 11 1 12
REMARK H PARENT 6 4 6 5 6 6 1 13 1 14
REMARK Flexibility Score: inf
ROOT
ATOM      1  C   UNL     1     137.834 122.151 121.720  1.00  0.00     0.171 C 
ENDROOT
BRANCH   1   2
ATOM      2  C   UNL     1     137.255 123.552 121.439  1.00  0.00     0.237 C 
BRANCH   2   3
ATOM      3  N   UNL     1     137.023 124.295 122.686  1.00  0.00    -0.350 N 
ATOM      4  H   UNL     1     137.586 123.872 123.460  1.00  0.00     0.345 HD
ATOM      5  H   UNL     1     137.293 125.300 122.575  1.00  0.00     0.345 HD
ATOM      6  H   UNL     1     136.015 124.238 122.955  1.00  0.00     0.345 HD
ENDBRANCH   2   3
BRANCH   2   7
ATOM      7  C   UNL     1     135.969 123.423 120.668  1.00  0.00     0.100 C 
ATOM      8  O   UNL     1     135.949 122.809 119.568  1.00  0.00    -0.544 OA
ATOM      9  O   UNL     1     134.792 123.965 121.171  1.00  0.00    -0.544 OA
ENDBRANCH   2   7
ENDBRANCH   1   2
BRANCH   1  10
ATOM     10  C   UNL     1     137.275 121.563 122.984  1.00  0.00     0.223 C 
ATOM     11  O   UNL     1     136.044 121.306 123.065  1.00  0.00    -0.275 OA
ATOM     12  N   UNL     1     138.124 121.320 124.104  1.00  0.00    -0.369 N 
ATOM     13  H   UNL     1     137.733 120.922 124.986  1.00  0.00     0.159 HD
ATOM     14  H   UNL     1     139.145 121.539 124.056  1.00  0.00     0.159 HD
ENDBRANCH   1  10
TORSDOF 4
ENDMDL
MODEL 5
REMARK VINA RESULT:    -3.499      2.264      2.476
REMARK INTER + INTRA:          -4.540
REMARK INTER:                  -4.113
REMARK INTRA:                  -0.427
REMARK UNBOUND:                -0.325
REMARK SMILES NC(=O)C[C@H]([NH3+])C(=O)[O-]
REMARK SMILES IDX 4 1 5 2 6 3 7 7 8 8 9 9 2 10 3 11 1 12
REMARK H PARENT 6 4 6 5 6 6 1 13 1 14
REMARK Flexibility Score: inf
ROOT
ATOM      1  C   UNL     1     137.093 123.026 120.399  1.00  0.00     0.171 C 
ENDROOT
BRANCH   1   2
ATOM      2  C   UNL     1     137.645 121.981 121.390  1.00  0.00     0.237 C 
BRANCH   2   3
ATOM      3  N   UNL     1     136.887 120.724 121.320  1.00  0.00    -0.350 N 
ATOM      4  H   UNL     1     137.159 120.194 120.460  1.00  0.00     0.345 HD
ATOM      5  H   UNL     1     137.073 120.130 122.161  1.00  0.00     0.345 HD
ATOM      6  H   UNL     1     135.863 120.926 121.262  1.00  0.00     0.345 HD
ENDBRANCH   2   3
BRANCH   2   7
ATOM      7  C   UNL     1     137.597 122.536 122.788  1.00  0.00     0.100 C 
ATOM      8  O   UNL     1     137.601 121.757 123.779  1.00  0.00    -0.544 OA
ATOM      9  O   UNL     1     137.566 123.909 122.997  1.00  0.00    -0.544 OA
ENDBRANCH   2   7
ENDBRANCH   1   2
BRANCH   1  10
ATOM     10  C   UNL     1     135.594 123.088 120.437  1.00  0.00     0.223 C 
ATOM     11  O   UNL     1     134.915 122.194 119.865  1.00  0.00    -0.275 OA
ATOM     12  N   UNL     1     134.932 124.170 121.091  1.00  0.00    -0.369 N 
ATOM     13  H   UNL     1     133.890 124.219 121.107  1.00  0.00     0.159 HD
ATOM     14  H   UNL     1     135.481 124.925 121.559  1.00  0.00     0.159 HD
ENDBRANCH   1  10
TORSDOF 4
ENDMDL
MODEL 6
REMARK VINA RESULT:    -3.493      1.693      3.022
REMARK INTER + INTRA:          -4.533
REMARK INTER:                  -4.159
REMARK INTRA:                  -0.373
REMARK UNBOUND:                -0.325
REMARK SMILES NC(=O)C[C@H]([NH3+])C(=O)[O-]
REMARK SMILES IDX 4 1 5 2 6 3 7 7 8 8 9 9 2 10 3 11 1 12
REMARK H PARENT 6 4 6 5 6 6 1 13 1 14
REMARK Flexibility Score: inf
ROOT
ATOM      1  C   UNL     1     135.217 123.133 120.602  1.00  0.00     0.171 C 
ENDROOT
BRANCH   1   2
ATOM      2  C   UNL     1     135.656 123.428 122.051  1.00  0.00     0.237 C 
BRANCH   2   3
ATOM      3  N   UNL     1     136.560 124.585 122.112  1.00  0.00    -0.350 N 
ATOM      4  H   UNL     1     136.791 124.905 121.143  1.00  0.00     0.345 HD
ATOM      5  H   UNL     1     136.118 125.374 122.637  1.00  0.00     0.345 HD
ATOM      6  H   UNL     1     137.454 124.317 122.583  1.00  0.00     0.345 HD
ENDBRANCH   2   3
BRANCH   2   7
ATOM      7  C   UNL     1     136.330 122.214 122.632  1.00  0.00     0.100 C 
ATOM      8  O   UNL     1     135.742 121.100 122.626  1.00  0.00    -0.544 OA
ATOM      9  O   UNL     1     137.610 122.310 123.163  1.00  0.00    -0.544 OA
ENDBRANCH   2   7
ENDBRANCH   1   2
BRANCH   1  10
ATOM     10  C   UNL     1     136.358 122.620 119.772  1.00  0.00     0.223 C 
ATOM     11  O   UNL     1     137.284 123.401 119.427  1.00  0.00    -0.275 OA
ATOM     12  N   UNL     1     136.384 121.259 119.345  1.00  0.00    -0.369 N 
ATOM     13  H   UNL     1     137.171 120.905 118.758  1.00  0.00     0.159 HD
ATOM     14  H   UNL     1     135.617 120.602 119.612  1.00  0.00     0.159 HD
ENDBRANCH   1  10
TORSDOF 4
ENDMDL
MODEL 7
REMARK VINA RESULT:    -3.437      1.938      3.389
REMARK INTER + INTRA:          -4.465
REMARK INTER:                  -3.984
REMARK INTRA:                  -0.481
REMARK UNBOUND:                -0.325
REMARK SMILES NC(=O)C[C@H]([NH3+])C(=O)[O-]
REMARK SMILES IDX 4 1 5 2 6 3 7 7 8 8 9 9 2 10 3 11 1 12
REMARK H PARENT 6 4 6 5 6 6 1 13 1 14
REMARK Flexibility Score: inf
ROOT
ATOM      1  C   UNL     1     137.236 122.048 120.362  1.00  0.00     0.171 C 
ENDROOT
BRANCH   1   2
ATOM      2  C   UNL     1     136.508 122.200 121.714  1.00  0.00     0.237 C 
BRANCH   2   3
ATOM      3  N   UNL     1     135.455 121.188 121.870  1.00  0.00    -0.350 N 
ATOM      4  H   UNL     1     134.537 121.581 121.558  1.00  0.00     0.345 HD
ATOM      5  H   UNL     1     135.671 120.335 121.305  1.00  0.00     0.345 HD
ATOM      6  H   UNL     1     135.362 120.918 122.876  1.00  0.00     0.345 HD
ENDBRANCH   2   3
BRANCH   2   7
ATOM      7  C   UNL     1     135.919 123.581 121.818  1.00  0.00     0.100 C 
ATOM      8  O   UNL     1     136.499 124.467 122.500  1.00  0.00    -0.544 OA
ATOM      9  O   UNL     1     134.740 123.892 121.151  1.00  0.00    -0.544 OA
ENDBRANCH   2   7
ENDBRANCH   1   2
BRANCH   1  10
ATOM     10  C   UNL     1     136.383 121.341 119.350  1.00  0.00     0.223 C 
ATOM     11  O   UNL     1     136.545 120.108 119.146  1.00  0.00    -0.275 OA
ATOM     12  N   UNL     1     135.409 122.061 118.595  1.00  0.00    -0.369 N 
ATOM     13  H   UNL     1     134.825 121.571 117.884  1.00  0.00     0.159 HD
ATOM     14  H   UNL     1     135.272 123.086 118.745  1.00  0.00     0.159 HD
ENDBRANCH   1  10
TORSDOF 4
ENDMDL
MODEL 8
REMARK VINA RESULT:    -3.319      2.204      2.745
REMARK INTER + INTRA:          -4.323
REMARK INTER:                  -3.950
REMARK INTRA:                  -0.373
REMARK UNBOUND:                -0.325
REMARK SMILES NC(=O)C[C@H]([NH3+])C(=O)[O-]
REMARK SMILES IDX 4 1 5 2 6 3 7 7 8 8 9 9 2 10 3 11 1 12
REMARK H PARENT 6 4 6 5 6 6 1 13 1 14
REMARK Flexibility Score: inf
ROOT
ATOM      1  C   UNL     1     138.026 122.713 121.356  1.00  0.00     0.171 C 
ENDROOT
BRANCH   1   2
ATOM      2  C   UNL     1     136.906 123.271 120.454  1.00  0.00     0.237 C 
BRANCH   2   3
ATOM      3  N   UNL     1     136.119 124.297 121.151  1.00  0.00    -0.350 N 
ATOM      4  H   UNL     1     135.170 123.919 121.381  1.00  0.00     0.345 HD
ATOM      5  H   UNL     1     136.593 124.593 122.035  1.00  0.00     0.345 HD
ATOM      6  H   UNL     1     135.991 125.131 120.535  1.00  0.00     0.345 HD
ENDBRANCH   2   3
BRANCH   2   7
ATOM      7  C   UNL     1     136.010 122.147 120.007  1.00  0.00     0.100 C 
ATOM      8  O   UNL     1     134.774 122.341 119.864  1.00  0.00    -0.544 OA
ATOM      9  O   UNL     1     136.543 120.893 119.732  1.00  0.00    -0.544 OA
ENDBRANCH   2   7
ENDBRANCH   1   2
BRANCH   1  10
ATOM     10  C   UNL     1     137.617 122.696 122.801  1.00  0.00     0.223 C 
ATOM     11  O   UNL     1     137.824 123.708 123.522  1.00  0.00    -0.275 OA
ATOM     12  N   UNL     1     137.022 121.531 123.370  1.00  0.00    -0.369 N 
ATOM     13  H   UNL     1     136.749 121.516 124.377  1.00  0.00     0.159 HD
ATOM     14  H   UNL     1     136.855 120.680 122.787  1.00  0.00     0.159 HD
ENDBRANCH   1  10
TORSDOF 4
ENDMDL
MODEL 9
REMARK VINA RESULT:    -3.309     16.328     17.191
REMARK INTER + INTRA:          -4.311
REMARK INTER:                  -4.054
REMARK INTRA:                  -0.257
REMARK UNBOUND:                -0.325
REMARK SMILES NC(=O)C[C@H]([NH3+])C(=O)[O-]
REMARK SMILES IDX 4 1 5 2 6 3 7 7 8 8 9 9 2 10 3 11 1 12
REMARK H PARENT 6 4 6 5 6 6 1 13 1 14
REMARK Flexibility Score: inf
ROOT
ATOM      1  C   UNL     1     119.669 121.787 122.339  1.00  0.00     0.171 C 
ENDROOT
BRANCH   1   2
ATOM      2  C   UNL     1     119.160 122.353 120.998  1.00  0.00     0.237 C 
BRANCH   2   3
ATOM      3  N   UNL     1     119.304 121.373 119.913  1.00  0.00    -0.350 N 
ATOM      4  H   UNL     1     120.153 120.783 120.079  1.00  0.00     0.345 HD
ATOM      5  H   UNL     1     118.463 120.753 119.858  1.00  0.00     0.345 HD
ATOM      6  H   UNL     1     119.429 121.864 118.999  1.00  0.00     0.345 HD
ENDBRANCH   2   3
BRANCH   2   7
ATOM      7  C   UNL     1     119.915 123.611 120.661  1.00  0.00     0.100 C 
ATOM      8  O   UNL     1     119.410 124.464 119.884  1.00  0.00    -0.544 OA
ATOM      9  O   UNL     1     121.166 123.848 121.218  1.00  0.00    -0.544 OA
ENDBRANCH   2   7
ENDBRANCH   1   2
BRANCH   1  10
ATOM     10  C   UNL     1     118.709 120.789 122.920  1.00  0.00     0.223 C 
ATOM     11  O   UNL     1     118.447 119.731 122.288  1.00  0.00    -0.275 OA
ATOM     12  N   UNL     1     118.070 121.045 124.169  1.00  0.00    -0.369 N 
ATOM     13  H   UNL     1     117.394 120.356 124.567  1.00  0.00     0.159 HD
ATOM     14  H   UNL     1     118.268 121.923 124.699  1.00  0.00     0.159 HD
ENDBRANCH   1  10
TORSDOF 4
ENDMDL
