MODEL 1
REMARK VINA RESULT:    -5.149      0.000      0.000
REMARK INTER + INTRA:          -5.149
REMARK INTER:                  -5.149
REMARK INTRA:                   0.000
REMARK UNBOUND:                 0.000
REMARK SMILES c1ccc2nc3ccccc3cc2c1
REMARK SMILES IDX 1 1 2 2 3 3 4 4 13 5 14 6 12 7 11 8 10 9 9 10 8 11 7 12 6 13
REMARK SMILES IDX 5 14
REMARK H PARENT
REMARK Flexibility Score: inf
ROOT
ATOM      1  C   UNL     1      -3.058 -16.704  44.041  1.00  0.00     0.001 A 
ATOM      2  C   UNL     1      -4.425 -16.415  44.110  1.00  0.00     0.002 A 
ATOM      3  C   UNL     1      -4.904 -15.172  43.685  1.00  0.00     0.029 A 
ATOM      4  C   UNL     1      -4.016 -14.212  43.188  1.00  0.00     0.071 A 
ATOM      5  C   UNL     1      -2.634 -14.500  43.117  1.00  0.00     0.001 A 
ATOM      6  C   UNL     1      -2.161 -15.750  43.547  1.00  0.00     0.010 A 
ATOM      7  C   UNL     1      -1.757 -13.528  42.617  1.00  0.00     0.020 A 
ATOM      8  C   UNL     1      -2.260 -12.289  42.196  1.00  0.00     0.001 A 
ATOM      9  C   UNL     1      -1.409 -11.294  41.691  1.00  0.00     0.010 A 
ATOM     10  C   UNL     1      -1.938 -10.067  41.278  1.00  0.00     0.001 A 
ATOM     11  C   UNL     1      -3.312  -9.826  41.366  1.00  0.00     0.002 A 
ATOM     12  C   UNL     1      -4.167 -10.812  41.869  1.00  0.00     0.029 A 
ATOM     13  C   UNL     1      -3.649 -12.044  42.285  1.00  0.00     0.071 A 
ATOM     14  N   UNL     1      -4.481 -13.002  42.774  1.00  0.00    -0.248 NA
ENDROOT
TORSDOF 0
ENDMDL
MODEL 2
REMARK VINA RESULT:    -5.129      0.040      4.831
REMARK INTER + INTRA:          -5.129
REMARK INTER:                  -5.129
REMARK INTRA:                   0.000
REMARK UNBOUND:                 0.000
REMARK SMILES c1ccc2nc3ccccc3cc2c1
REMARK SMILES IDX 1 1 2 2 3 3 4 4 13 5 14 6 12 7 11 8 10 9 9 10 8 11 7 12 6 13
REMARK SMILES IDX 5 14
REMARK H PARENT
REMARK Flexibility Score: inf
ROOT
ATOM      1  C   UNL     1      -1.901 -10.073  41.279  1.00  0.00     0.001 A 
ATOM      2  C   UNL     1      -3.278  -9.837  41.344  1.00  0.00     0.002 A 
ATOM      3  C   UNL     1      -4.140 -10.825  41.830  1.00  0.00     0.029 A 
ATOM      4  C   UNL     1      -3.626 -12.056  42.254  1.00  0.00     0.071 A 
ATOM      5  C   UNL     1      -2.234 -12.298  42.189  1.00  0.00     0.001 A 
ATOM      6  C   UNL     1      -1.377 -11.301  41.699  1.00  0.00     0.010 A 
ATOM      7  C   UNL     1      -1.736 -13.536  42.617  1.00  0.00     0.020 A 
ATOM      8  C   UNL     1      -2.618 -14.512  43.101  1.00  0.00     0.001 A 
ATOM      9  C   UNL     1      -2.151 -15.761  43.537  1.00  0.00     0.010 A 
ATOM     10  C   UNL     1      -3.053 -16.716  44.015  1.00  0.00     0.001 A 
ATOM     11  C   UNL     1      -4.421 -16.432  44.061  1.00  0.00     0.002 A 
ATOM     12  C   UNL     1      -4.896 -15.190  43.628  1.00  0.00     0.029 A 
ATOM     13  C   UNL     1      -4.001 -14.226  43.148  1.00  0.00     0.071 A 
ATOM     14  N   UNL     1      -4.463 -13.018  42.727  1.00  0.00    -0.248 NA
ENDROOT
TORSDOF 0
ENDMDL
MODEL 3
REMARK VINA RESULT:    -5.043      2.132      3.793
REMARK INTER + INTRA:          -5.043
REMARK INTER:                  -5.043
REMARK INTRA:                   0.000
REMARK UNBOUND:                 0.000
REMARK SMILES c1ccc2nc3ccccc3cc2c1
REMARK SMILES IDX 1 1 2 2 3 3 4 4 13 5 14 6 12 7 11 8 10 9 9 10 8 11 7 12 6 13
REMARK SMILES IDX 5 14
REMARK H PARENT
REMARK Flexibility Score: inf
ROOT
ATOM      1  C   UNL     1      -5.669 -12.035  43.507  1.00  0.00     0.001 A 
ATOM      2  C   UNL     1      -4.933 -13.202  43.278  1.00  0.00     0.002 A 
ATOM      3  C   UNL     1      -3.777 -13.163  42.494  1.00  0.00     0.029 A 
ATOM      4  C   UNL     1      -3.351 -11.953  41.935  1.00  0.00     0.071 A 
ATOM      5  C   UNL     1      -4.092 -10.771  42.164  1.00  0.00     0.001 A 
ATOM      6  C   UNL     1      -5.252 -10.820  42.952  1.00  0.00     0.010 A 
ATOM      7  C   UNL     1      -3.652  -9.567  41.597  1.00  0.00     0.020 A 
ATOM      8  C   UNL     1      -2.489  -9.551  40.814  1.00  0.00     0.001 A 
ATOM      9  C   UNL     1      -2.022  -8.363  40.233  1.00  0.00     0.010 A 
ATOM     10  C   UNL     1      -0.859  -8.376  39.456  1.00  0.00     0.001 A 
ATOM     11  C   UNL     1      -0.158  -9.569  39.257  1.00  0.00     0.002 A 
ATOM     12  C   UNL     1      -0.617 -10.758  39.832  1.00  0.00     0.029 A 
ATOM     13  C   UNL     1      -1.780 -10.756  40.611  1.00  0.00     0.071 A 
ATOM     14  N   UNL     1      -2.225 -11.913  41.172  1.00  0.00    -0.248 NA
ENDROOT
TORSDOF 0
ENDMDL
MODEL 4
REMARK VINA RESULT:    -5.042      0.880      2.134
REMARK INTER + INTRA:          -5.042
REMARK INTER:                  -5.042
REMARK INTRA:                   0.000
REMARK UNBOUND:                 0.000
REMARK SMILES c1ccc2nc3ccccc3cc2c1
REMARK SMILES IDX 1 1 2 2 3 3 4 4 13 5 14 6 12 7 11 8 10 9 9 10 8 11 7 12 6 13
REMARK SMILES IDX 5 14
REMARK H PARENT
REMARK Flexibility Score: inf
ROOT
ATOM      1  C   UNL     1      -4.341 -16.763  43.878  1.00  0.00     0.001 A 
ATOM      2  C   UNL     1      -2.959 -16.969  43.945  1.00  0.00     0.002 A 
ATOM      3  C   UNL     1      -2.077 -15.949  43.576  1.00  0.00     0.029 A 
ATOM      4  C   UNL     1      -2.576 -14.717  43.138  1.00  0.00     0.071 A 
ATOM      5  C   UNL     1      -3.972 -14.506  43.069  1.00  0.00     0.001 A 
ATOM      6  C   UNL     1      -4.851 -15.536  43.441  1.00  0.00     0.010 A 
ATOM      7  C   UNL     1      -4.455 -13.266  42.628  1.00  0.00     0.020 A 
ATOM      8  C   UNL     1      -3.553 -12.258  42.263  1.00  0.00     0.001 A 
ATOM      9  C   UNL     1      -4.004 -11.006  41.817  1.00  0.00     0.010 A 
ATOM     10  C   UNL     1      -3.081 -10.018  41.460  1.00  0.00     0.001 A 
ATOM     11  C   UNL     1      -1.709 -10.272  41.544  1.00  0.00     0.002 A 
ATOM     12  C   UNL     1      -1.250 -11.516  41.986  1.00  0.00     0.029 A 
ATOM     13  C   UNL     1      -2.165 -12.513  42.347  1.00  0.00     0.071 A 
ATOM     14  N   UNL     1      -1.719 -13.723  42.778  1.00  0.00    -0.248 NA
ENDROOT
TORSDOF 0
ENDMDL
MODEL 5
REMARK VINA RESULT:    -5.030      2.183      5.724
REMARK INTER + INTRA:          -5.030
REMARK INTER:                  -5.030
REMARK INTRA:                   0.000
REMARK UNBOUND:                 0.000
REMARK SMILES c1ccc2nc3ccccc3cc2c1
REMARK SMILES IDX 1 1 2 2 3 3 4 4 13 5 14 6 12 7 11 8 10 9 9 10 8 11 7 12 6 13
REMARK SMILES IDX 5 14
REMARK H PARENT
REMARK Flexibility Score: inf
ROOT
ATOM      1  C   UNL     1      -0.890  -8.350  39.357  1.00  0.00     0.001 A 
ATOM      2  C   UNL     1      -0.188  -9.546  39.175  1.00  0.00     0.002 A 
ATOM      3  C   UNL     1      -0.643 -10.727  39.770  1.00  0.00     0.029 A 
ATOM      4  C   UNL     1      -1.803 -10.715  40.553  1.00  0.00     0.071 A 
ATOM      5  C   UNL     1      -2.515  -9.508  40.739  1.00  0.00     0.001 A 
ATOM      6  C   UNL     1      -2.051  -8.327  40.138  1.00  0.00     0.010 A 
ATOM      7  C   UNL     1      -3.675  -9.513  41.526  1.00  0.00     0.020 A 
ATOM      8  C   UNL     1      -4.112 -10.708  42.113  1.00  0.00     0.001 A 
ATOM      9  C   UNL     1      -5.269 -10.747  42.905  1.00  0.00     0.010 A 
ATOM     10  C   UNL     1      -5.682 -11.954  43.480  1.00  0.00     0.001 A 
ATOM     11  C   UNL     1      -4.946 -13.123  43.267  1.00  0.00     0.002 A 
ATOM     12  C   UNL     1      -3.791 -13.094  42.479  1.00  0.00     0.029 A 
ATOM     13  C   UNL     1      -3.369 -11.891  41.900  1.00  0.00     0.071 A 
ATOM     14  N   UNL     1      -2.246 -11.863  41.133  1.00  0.00    -0.248 NA
ENDROOT
TORSDOF 0
ENDMDL
MODEL 6
REMARK VINA RESULT:    -5.013      0.830      5.276
REMARK INTER + INTRA:          -5.013
REMARK INTER:                  -5.013
REMARK INTRA:                   0.000
REMARK UNBOUND:                 0.000
REMARK SMILES c1ccc2nc3ccccc3cc2c1
REMARK SMILES IDX 1 1 2 2 3 3 4 4 13 5 14 6 12 7 11 8 10 9 9 10 8 11 7 12 6 13
REMARK SMILES IDX 5 14
REMARK H PARENT
REMARK Flexibility Score: inf
ROOT
ATOM      1  C   UNL     1      -3.217  -9.752  41.230  1.00  0.00     0.001 A 
ATOM      2  C   UNL     1      -1.847 -10.025  41.164  1.00  0.00     0.002 A 
ATOM      3  C   UNL     1      -1.353 -11.258  41.600  1.00  0.00     0.029 A 
ATOM      4  C   UNL     1      -2.230 -12.225  42.105  1.00  0.00     0.071 A 
ATOM      5  C   UNL     1      -3.615 -11.952  42.173  1.00  0.00     0.001 A 
ATOM      6  C   UNL     1      -4.102 -10.711  41.734  1.00  0.00     0.010 A 
ATOM      7  C   UNL     1      -4.480 -12.931  42.682  1.00  0.00     0.020 A 
ATOM      8  C   UNL     1      -3.963 -14.160  43.113  1.00  0.00     0.001 A 
ATOM      9  C   UNL     1      -4.801 -15.160  43.627  1.00  0.00     0.010 A 
ATOM     10  C   UNL     1      -4.258 -16.378  44.050  1.00  0.00     0.001 A 
ATOM     11  C   UNL     1      -2.881 -16.603  43.963  1.00  0.00     0.002 A 
ATOM     12  C   UNL     1      -2.038 -15.611  43.453  1.00  0.00     0.029 A 
ATOM     13  C   UNL     1      -2.571 -14.389  43.026  1.00  0.00     0.071 A 
ATOM     14  N   UNL     1      -1.750 -13.425  42.529  1.00  0.00    -0.248 NA
ENDROOT
TORSDOF 0
ENDMDL
MODEL 7
REMARK VINA RESULT:    -4.971      2.589      3.819
REMARK INTER + INTRA:          -4.971
REMARK INTER:                  -4.971
REMARK INTRA:                   0.000
REMARK UNBOUND:                 0.000
REMARK SMILES c1ccc2nc3ccccc3cc2c1
REMARK SMILES IDX 1 1 2 2 3 3 4 4 13 5 14 6 12 7 11 8 10 9 9 10 8 11 7 12 6 13
REMARK SMILES IDX 5 14
REMARK H PARENT
REMARK Flexibility Score: inf
ROOT
ATOM      1  C   UNL     1      -5.174 -12.479  43.309  1.00  0.00     0.001 A 
ATOM      2  C   UNL     1      -5.783 -11.222  43.372  1.00  0.00     0.002 A 
ATOM      3  C   UNL     1      -5.213 -10.129  42.711  1.00  0.00     0.029 A 
ATOM      4  C   UNL     1      -4.029 -10.291  41.984  1.00  0.00     0.071 A 
ATOM      5  C   UNL     1      -3.409 -11.561  41.919  1.00  0.00     0.001 A 
ATOM      6  C   UNL     1      -3.989 -12.652  42.586  1.00  0.00     0.010 A 
ATOM      7  C   UNL     1      -2.223 -11.706  41.187  1.00  0.00     0.020 A 
ATOM      8  C   UNL     1      -1.670 -10.597  40.532  1.00  0.00     0.001 A 
ATOM      9  C   UNL     1      -0.484 -10.709  39.791  1.00  0.00     0.010 A 
ATOM     10  C   UNL     1       0.047  -9.586  39.148  1.00  0.00     0.001 A 
ATOM     11  C   UNL     1      -0.601  -8.351  39.239  1.00  0.00     0.002 A 
ATOM     12  C   UNL     1      -1.783  -8.230  39.976  1.00  0.00     0.029 A 
ATOM     13  C   UNL     1      -2.322  -9.347  40.624  1.00  0.00     0.071 A 
ATOM     14  N   UNL     1      -3.473  -9.229  41.340  1.00  0.00    -0.248 NA
ENDROOT
TORSDOF 0
ENDMDL
MODEL 8
REMARK VINA RESULT:    -4.764      3.387      5.722
REMARK INTER + INTRA:          -4.764
REMARK INTER:                  -4.764
REMARK INTRA:                   0.000
REMARK UNBOUND:                 0.000
REMARK SMILES c1ccc2nc3ccccc3cc2c1
REMARK SMILES IDX 1 1 2 2 3 3 4 4 13 5 14 6 12 7 11 8 10 9 9 10 8 11 7 12 6 13
REMARK SMILES IDX 5 14
REMARK H PARENT
REMARK Flexibility Score: inf
ROOT
ATOM      1  C   UNL     1      -3.136 -11.232  42.592  1.00  0.00     0.001 A 
ATOM      2  C   UNL     1      -1.839 -11.659  42.290  1.00  0.00     0.002 A 
ATOM      3  C   UNL     1      -1.153 -11.110  41.202  1.00  0.00     0.029 A 
ATOM      4  C   UNL     1      -1.764 -10.131  40.410  1.00  0.00     0.071 A 
ATOM      5  C   UNL     1      -3.076  -9.697  40.713  1.00  0.00     0.001 A 
ATOM      6  C   UNL     1      -3.757 -10.254  41.807  1.00  0.00     0.010 A 
ATOM      7  C   UNL     1      -3.673  -8.716  39.911  1.00  0.00     0.020 A 
ATOM      8  C   UNL     1      -2.967  -8.180  38.825  1.00  0.00     0.001 A 
ATOM      9  C   UNL     1      -3.537  -7.197  38.002  1.00  0.00     0.010 A 
ATOM     10  C   UNL     1      -2.810  -6.679  36.926  1.00  0.00     0.001 A 
ATOM     11  C   UNL     1      -1.515  -7.138  36.665  1.00  0.00     0.002 A 
ATOM     12  C   UNL     1      -0.940  -8.119  37.479  1.00  0.00     0.029 A 
ATOM     13  C   UNL     1      -1.659  -8.643  38.559  1.00  0.00     0.071 A 
ATOM     14  N   UNL     1      -1.098  -9.597  39.351  1.00  0.00    -0.248 NA
ENDROOT
TORSDOF 0
ENDMDL
MODEL 9
REMARK VINA RESULT:    -4.634      6.817      9.424
REMARK INTER + INTRA:          -4.634
REMARK INTER:                  -4.634
REMARK INTRA:                   0.000
REMARK UNBOUND:                 0.000
REMARK SMILES c1ccc2nc3ccccc3cc2c1
REMARK SMILES IDX 1 1 2 2 3 3 4 4 13 5 14 6 12 7 11 8 10 9 9 10 8 11 7 12 6 13
REMARK SMILES IDX 5 14
REMARK H PARENT
REMARK Flexibility Score: inf
ROOT
ATOM      1  C   UNL     1      -1.306  -8.669  39.348  1.00  0.00     0.001 A 
ATOM      2  C   UNL     1      -0.439  -9.163  38.367  1.00  0.00     0.002 A 
ATOM      3  C   UNL     1      -0.554  -8.729  37.043  1.00  0.00     0.029 A 
ATOM      4  C   UNL     1      -1.538  -7.797  36.694  1.00  0.00     0.071 A 
ATOM      5  C   UNL     1      -2.416  -7.297  37.683  1.00  0.00     0.001 A 
ATOM      6  C   UNL     1      -2.294  -7.738  39.010  1.00  0.00     0.010 A 
ATOM      7  C   UNL     1      -3.397  -6.365  37.317  1.00  0.00     0.020 A 
ATOM      8  C   UNL     1      -3.493  -5.943  35.984  1.00  0.00     0.001 A 
ATOM      9  C   UNL     1      -4.464  -5.012  35.585  1.00  0.00     0.010 A 
ATOM     10  C   UNL     1      -4.538  -4.609  34.248  1.00  0.00     0.001 A 
ATOM     11  C   UNL     1      -3.648  -5.131  33.305  1.00  0.00     0.002 A 
ATOM     12  C   UNL     1      -2.678  -6.061  33.693  1.00  0.00     0.029 A 
ATOM     13  C   UNL     1      -2.595  -6.471  35.029  1.00  0.00     0.071 A 
ATOM     14  N   UNL     1      -1.651  -7.374  35.406  1.00  0.00    -0.248 NA
ENDROOT
TORSDOF 0
ENDMDL
