MODEL 1
REMARK VINA RESULT:    -5.408      0.000      0.000
REMARK INTER + INTRA:          -8.622
REMARK INTER:                  -8.254
REMARK INTRA:                  -0.368
REMARK UNBOUND:                -0.368
REMARK SMILES CCCCCCCCCCC(=O)[O-]
REMARK SMILES IDX 7 1 8 2 9 3 10 4 11 5 12 6 13 7 6 8 5 9 4 10 3 11 2 12 1 13
REMARK H PARENT
REMARK Flexibility Score: inf
ROOT
ATOM      1  C   UNL     1     104.333 311.987 195.836  1.00  0.00     0.000 C 
ENDROOT
BRANCH   1   2
ATOM      2  C   UNL     1     103.869 311.298 197.131  1.00  0.00     0.000 C 
BRANCH   2   3
ATOM      3  C   UNL     1     103.827 312.262 198.328  1.00  0.00     0.006 C 
BRANCH   3   4
ATOM      4  C   UNL     1     103.258 311.608 199.595  1.00  0.00     0.053 C 
BRANCH   4   5
ATOM      5  C   UNL     1     104.090 311.968 200.786  1.00  0.00     0.041 C 
ATOM      6  O   UNL     1     103.984 311.310 201.855  1.00  0.00    -0.550 OA
ATOM      7  O   UNL     1     104.946 313.060 200.731  1.00  0.00    -0.550 OA
ENDBRANCH   4   5
ENDBRANCH   3   4
ENDBRANCH   2   3
ENDBRANCH   1   2
BRANCH   1   8
ATOM      8  C   UNL     1     103.349 311.782 194.672  1.00  0.00     0.000 C 
BRANCH   8   9
ATOM      9  C   UNL     1     104.053 311.359 193.370  1.00  0.00    -0.000 C 
BRANCH   9  10
ATOM     10  C   UNL     1     105.422 312.039 193.192  1.00  0.00    -0.000 C 
BRANCH  10  11
ATOM     11  C   UNL     1     105.386 313.178 192.159  1.00  0.00    -0.000 C 
BRANCH  11  12
ATOM     12  C   UNL     1     104.014 313.314 191.481  1.00  0.00    -0.003 C 
ATOM     13  C   UNL     1     104.018 314.324 190.332  1.00  0.00     0.004 C 
ENDBRANCH  11  12
ENDBRANCH  10  11
ENDBRANCH   9  10
ENDBRANCH   8   9
ENDBRANCH   1   8
TORSDOF 9
ENDMDL
MODEL 2
REMARK VINA RESULT:    -5.371      0.905      1.571
REMARK INTER + INTRA:          -8.566
REMARK INTER:                  -8.164
REMARK INTRA:                  -0.401
REMARK UNBOUND:                -0.368
REMARK SMILES CCCCCCCCCCC(=O)[O-]
REMARK SMILES IDX 7 1 8 2 9 3 10 4 11 5 12 6 13 7 6 8 5 9 4 10 3 11 2 12 1 13
REMARK H PARENT
REMARK Flexibility Score: inf
ROOT
ATOM      1  C   UNL     1     103.425 311.894 194.749  1.00  0.00     0.000 C 
ENDROOT
BRANCH   1   2
ATOM      2  C   UNL     1     104.486 311.913 195.863  1.00  0.00     0.000 C 
BRANCH   2   3
ATOM      3  C   UNL     1     103.953 311.354 197.193  1.00  0.00     0.006 C 
BRANCH   3   4
ATOM      4  C   UNL     1     103.670 312.454 198.226  1.00  0.00     0.053 C 
BRANCH   4   5
ATOM      5  C   UNL     1     103.563 311.865 199.597  1.00  0.00     0.041 C 
ATOM      6  O   UNL     1     102.462 311.409 200.007  1.00  0.00    -0.550 OA
ATOM      7  O   UNL     1     104.665 311.865 200.442  1.00  0.00    -0.550 OA
ENDBRANCH   4   5
ENDBRANCH   3   4
ENDBRANCH   2   3
ENDBRANCH   1   2
BRANCH   1   8
ATOM      8  C   UNL     1     103.975 311.350 193.419  1.00  0.00     0.000 C 
BRANCH   8   9
ATOM      9  C   UNL     1     105.397 311.855 193.116  1.00  0.00    -0.000 C 
BRANCH   9  10
ATOM     10  C   UNL     1     105.399 313.135 192.262  1.00  0.00    -0.000 C 
BRANCH  10  11
ATOM     11  C   UNL     1     104.069 313.351 191.519  1.00  0.00    -0.000 C 
BRANCH  11  12
ATOM     12  C   UNL     1     104.200 314.350 190.358  1.00  0.00    -0.003 C 
ATOM     13  C   UNL     1     105.609 314.930 190.230  1.00  0.00     0.004 C 
ENDBRANCH  11  12
ENDBRANCH  10  11
ENDBRANCH   9  10
ENDBRANCH   8   9
ENDBRANCH   1   8
TORSDOF 9
ENDMDL
MODEL 3
REMARK VINA RESULT:    -5.321     20.413     21.137
REMARK INTER + INTRA:          -8.488
REMARK INTER:                  -7.920
REMARK INTRA:                  -0.568
REMARK UNBOUND:                -0.368
REMARK SMILES CCCCCCCCCCC(=O)[O-]
REMARK SMILES IDX 7 1 8 2 9 3 10 4 11 5 12 6 13 7 6 8 5 9 4 10 3 11 2 12 1 13
REMARK H PARENT
REMARK Flexibility Score: inf
ROOT
ATOM      1  C   UNL     1      88.904 326.263 195.622  1.00  0.00     0.000 C 
ENDROOT
BRANCH   1   2
ATOM      2  C   UNL     1      88.025 326.159 196.881  1.00  0.00     0.000 C 
BRANCH   2   3
ATOM      3  C   UNL     1      88.730 326.695 198.137  1.00  0.00     0.006 C 
BRANCH   3   4
ATOM      4  C   UNL     1      89.053 325.590 199.152  1.00  0.00     0.053 C 
BRANCH   4   5
ATOM      5  C   UNL     1      89.338 326.183 200.496  1.00  0.00     0.041 C 
ATOM      6  O   UNL     1      90.475 326.663 200.749  1.00  0.00    -0.550 OA
ATOM      7  O   UNL     1      88.364 326.161 201.486  1.00  0.00    -0.550 OA
ENDBRANCH   4   5
ENDBRANCH   3   4
ENDBRANCH   2   3
ENDBRANCH   1   2
BRANCH   1   8
ATOM      8  C   UNL     1      88.078 326.471 194.341  1.00  0.00     0.000 C 
BRANCH   8   9
ATOM      9  C   UNL     1      86.563 326.347 194.587  1.00  0.00    -0.000 C 
BRANCH   9  10
ATOM     10  C   UNL     1      85.875 325.414 193.576  1.00  0.00    -0.000 C 
BRANCH  10  11
ATOM     11  C   UNL     1      86.506 324.012 193.542  1.00  0.00    -0.000 C 
BRANCH  11  12
ATOM     12  C   UNL     1      86.818 323.541 192.112  1.00  0.00    -0.003 C 
ATOM     13  C   UNL     1      88.032 324.245 191.507  1.00  0.00     0.004 C 
ENDBRANCH  11  12
ENDBRANCH  10  11
ENDBRANCH   9  10
ENDBRANCH   8   9
ENDBRANCH   1   8
TORSDOF 9
ENDMDL
MODEL 4
REMARK VINA RESULT:    -5.257      5.363      7.371
REMARK INTER + INTRA:          -8.391
REMARK INTER:                  -7.250
REMARK INTRA:                  -1.142
REMARK UNBOUND:                -0.368
REMARK SMILES CCCCCCCCCCC(=O)[O-]
REMARK SMILES IDX 7 1 8 2 9 3 10 4 11 5 12 6 13 7 6 8 5 9 4 10 3 11 2 12 1 13
REMARK H PARENT
REMARK Flexibility Score: inf
ROOT
ATOM      1  C   UNL     1     105.431 312.042 193.129  1.00  0.00     0.000 C 
ENDROOT
BRANCH   1   2
ATOM      2  C   UNL     1     105.447 313.216 192.135  1.00  0.00     0.000 C 
BRANCH   2   3
ATOM      3  C   UNL     1     104.103 313.390 191.408  1.00  0.00     0.006 C 
BRANCH   3   4
ATOM      4  C   UNL     1     103.826 314.848 191.015  1.00  0.00     0.053 C 
BRANCH   4   5
ATOM      5  C   UNL     1     103.863 315.003 189.528  1.00  0.00     0.041 C 
ATOM      6  O   UNL     1     102.930 314.543 188.819  1.00  0.00    -0.550 OA
ATOM      7  O   UNL     1     104.954 315.612 188.919  1.00  0.00    -0.550 OA
ENDBRANCH   4   5
ENDBRANCH   3   4
ENDBRANCH   2   3
ENDBRANCH   1   2
BRANCH   1   8
ATOM      8  C   UNL     1     104.044 311.390 193.252  1.00  0.00     0.000 C 
BRANCH   8   9
ATOM      9  C   UNL     1     103.405 311.615 194.634  1.00  0.00    -0.000 C 
BRANCH   9  10
ATOM     10  C   UNL     1     104.429 312.059 195.693  1.00  0.00    -0.000 C 
BRANCH  10  11
ATOM     11  C   UNL     1     104.088 313.428 196.307  1.00  0.00    -0.000 C 
BRANCH  11  12
ATOM     12  C   UNL     1     103.021 314.185 195.501  1.00  0.00    -0.003 C 
ATOM     13  C   UNL     1     103.596 315.368 194.721  1.00  0.00     0.004 C 
ENDBRANCH  11  12
ENDBRANCH  10  11
ENDBRANCH   9  10
ENDBRANCH   8   9
ENDBRANCH   1   8
TORSDOF 9
ENDMDL
MODEL 5
REMARK VINA RESULT:    -5.253     19.700     20.681
REMARK INTER + INTRA:          -8.385
REMARK INTER:                  -7.771
REMARK INTRA:                  -0.614
REMARK UNBOUND:                -0.368
REMARK SMILES CCCCCCCCCCC(=O)[O-]
REMARK SMILES IDX 7 1 8 2 9 3 10 4 11 5 12 6 13 7 6 8 5 9 4 10 3 11 2 12 1 13
REMARK H PARENT
REMARK Flexibility Score: inf
ROOT
ATOM      1  C   UNL     1      86.730 326.174 194.159  1.00  0.00     0.000 C 
ENDROOT
BRANCH   1   2
ATOM      2  C   UNL     1      88.193 326.652 194.118  1.00  0.00     0.000 C 
BRANCH   2   3
ATOM      3  C   UNL     1      88.911 326.465 195.464  1.00  0.00     0.006 C 
BRANCH   3   4
ATOM      4  C   UNL     1      87.956 326.055 196.594  1.00  0.00     0.053 C 
BRANCH   4   5
ATOM      5  C   UNL     1      88.325 324.705 197.123  1.00  0.00     0.041 C 
ATOM      6  O   UNL     1      88.812 324.589 198.279  1.00  0.00    -0.550 OA
ATOM      7  O   UNL     1      88.179 323.580 196.322  1.00  0.00    -0.550 OA
ENDBRANCH   4   5
ENDBRANCH   3   4
ENDBRANCH   2   3
ENDBRANCH   1   2
BRANCH   1   8
ATOM      8  C   UNL     1      86.468 324.994 193.209  1.00  0.00     0.000 C 
BRANCH   8   9
ATOM      9  C   UNL     1      87.750 324.212 192.868  1.00  0.00    -0.000 C 
BRANCH   9  10
ATOM     10  C   UNL     1      88.068 324.229 191.363  1.00  0.00    -0.000 C 
BRANCH  10  11
ATOM     11  C   UNL     1      87.522 322.991 190.631  1.00  0.00    -0.000 C 
BRANCH  11  12
ATOM     12  C   UNL     1      88.051 322.878 189.192  1.00  0.00    -0.003 C 
ATOM     13  C   UNL     1      89.390 323.589 188.995  1.00  0.00     0.004 C 
ENDBRANCH  11  12
ENDBRANCH  10  11
ENDBRANCH   9  10
ENDBRANCH   8   9
ENDBRANCH   1   8
TORSDOF 9
ENDMDL
MODEL 6
REMARK VINA RESULT:    -5.246      1.156      1.914
REMARK INTER + INTRA:          -8.373
REMARK INTER:                  -8.045
REMARK INTRA:                  -0.329
REMARK UNBOUND:                -0.368
REMARK SMILES CCCCCCCCCCC(=O)[O-]
REMARK SMILES IDX 7 1 8 2 9 3 10 4 11 5 12 6 13 7 6 8 5 9 4 10 3 11 2 12 1 13
REMARK H PARENT
REMARK Flexibility Score: inf
ROOT
ATOM      1  C   UNL     1     103.904 311.219 197.167  1.00  0.00     0.000 C 
ENDROOT
BRANCH   1   2
ATOM      2  C   UNL     1     103.885 312.159 198.385  1.00  0.00     0.000 C 
BRANCH   2   3
ATOM      3  C   UNL     1     103.038 311.607 199.543  1.00  0.00     0.006 C 
BRANCH   3   4
ATOM      4  C   UNL     1     103.683 311.844 200.915  1.00  0.00     0.053 C 
BRANCH   4   5
ATOM      5  C   UNL     1     102.926 311.116 201.981  1.00  0.00     0.041 C 
ATOM      6  O   UNL     1     103.531 310.652 202.983  1.00  0.00    -0.550 OA
ATOM      7  O   UNL     1     101.560 310.905 201.842  1.00  0.00    -0.550 OA
ENDBRANCH   4   5
ENDBRANCH   3   4
ENDBRANCH   2   3
ENDBRANCH   1   2
BRANCH   1   8
ATOM      8  C   UNL     1     104.437 311.906 195.899  1.00  0.00     0.000 C 
BRANCH   8   9
ATOM      9  C   UNL     1     103.382 311.981 194.779  1.00  0.00    -0.000 C 
BRANCH   9  10
ATOM     10  C   UNL     1     103.909 311.450 193.435  1.00  0.00    -0.000 C 
BRANCH  10  11
ATOM     11  C   UNL     1     105.346 311.914 193.140  1.00  0.00    -0.000 C 
BRANCH  11  12
ATOM     12  C   UNL     1     105.389 313.177 192.266  1.00  0.00    -0.003 C 
ATOM     13  C   UNL     1     104.106 313.386 191.461  1.00  0.00     0.004 C 
ENDBRANCH  11  12
ENDBRANCH  10  11
ENDBRANCH   9  10
ENDBRANCH   8   9
ENDBRANCH   1   8
TORSDOF 9
ENDMDL
MODEL 7
REMARK VINA RESULT:    -5.229     20.191     20.819
REMARK INTER + INTRA:          -8.348
REMARK INTER:                  -8.031
REMARK INTRA:                  -0.317
REMARK UNBOUND:                -0.368
REMARK SMILES CCCCCCCCCCC(=O)[O-]
REMARK SMILES IDX 7 1 8 2 9 3 10 4 11 5 12 6 13 7 6 8 5 9 4 10 3 11 2 12 1 13
REMARK H PARENT
REMARK Flexibility Score: inf
ROOT
ATOM      1  C   UNL     1      88.785 326.754 197.920  1.00  0.00     0.000 C 
ENDROOT
BRANCH   1   2
ATOM      2  C   UNL     1      89.010 325.783 199.093  1.00  0.00     0.000 C 
BRANCH   2   3
ATOM      3  C   UNL     1      89.309 326.513 200.412  1.00  0.00     0.006 C 
BRANCH   3   4
ATOM      4  C   UNL     1      90.684 326.152 200.991  1.00  0.00     0.053 C 
BRANCH   4   5
ATOM      5  C   UNL     1      90.951 326.942 202.234  1.00  0.00     0.041 C 
ATOM      6  O   UNL     1      92.121 327.320 202.505  1.00  0.00    -0.550 OA
ATOM      7  O   UNL     1      89.915 327.217 203.118  1.00  0.00    -0.550 OA
ENDBRANCH   4   5
ENDBRANCH   3   4
ENDBRANCH   2   3
ENDBRANCH   1   2
BRANCH   1   8
ATOM      8  C   UNL     1      88.061 326.092 196.736  1.00  0.00     0.000 C 
BRANCH   8   9
ATOM      9  C   UNL     1      88.927 326.046 195.464  1.00  0.00    -0.000 C 
BRANCH   9  10
ATOM     10  C   UNL     1      88.198 326.611 194.233  1.00  0.00    -0.000 C 
BRANCH  10  11
ATOM     11  C   UNL     1      86.780 326.038 194.071  1.00  0.00    -0.000 C 
BRANCH  11  12
ATOM     12  C   UNL     1      86.764 324.722 193.276  1.00  0.00    -0.003 C 
ATOM     13  C   UNL     1      87.894 324.636 192.249  1.00  0.00     0.004 C 
ENDBRANCH  11  12
ENDBRANCH  10  11
ENDBRANCH   9  10
ENDBRANCH   8   9
ENDBRANCH   1   8
TORSDOF 9
ENDMDL
MODEL 8
REMARK VINA RESULT:    -5.180      5.342      8.169
REMARK INTER + INTRA:          -8.273
REMARK INTER:                  -7.765
REMARK INTRA:                  -0.508
REMARK UNBOUND:                -0.368
REMARK SMILES CCCCCCCCCCC(=O)[O-]
REMARK SMILES IDX 7 1 8 2 9 3 10 4 11 5 12 6 13 7 6 8 5 9 4 10 3 11 2 12 1 13
REMARK H PARENT
REMARK Flexibility Score: inf
ROOT
ATOM      1  C   UNL     1     103.947 312.856 192.272  1.00  0.00     0.000 C 
ENDROOT
BRANCH   1   2
ATOM      2  C   UNL     1     105.208 313.611 191.813  1.00  0.00     0.000 C 
BRANCH   2   3
ATOM      3  C   UNL     1     104.942 314.518 190.600  1.00  0.00     0.006 C 
BRANCH   3   4
ATOM      4  C   UNL     1     103.575 314.256 189.953  1.00  0.00     0.053 C 
BRANCH   4   5
ATOM      5  C   UNL     1     103.337 315.215 188.829  1.00  0.00     0.041 C 
ATOM      6  O   UNL     1     104.167 316.133 188.594  1.00  0.00    -0.550 OA
ATOM      7  O   UNL     1     102.176 315.126 188.073  1.00  0.00    -0.550 OA
ENDBRANCH   4   5
ENDBRANCH   3   4
ENDBRANCH   2   3
ENDBRANCH   1   2
BRANCH   1   8
ATOM      8  C   UNL     1     104.279 311.590 193.080  1.00  0.00     0.000 C 
BRANCH   8   9
ATOM      9  C   UNL     1     105.715 311.602 193.635  1.00  0.00    -0.000 C 
BRANCH   9  10
ATOM     10  C   UNL     1     105.756 311.485 195.168  1.00  0.00    -0.000 C 
BRANCH  10  11
ATOM     11  C   UNL     1     104.605 312.243 195.850  1.00  0.00    -0.000 C 
BRANCH  11  12
ATOM     12  C   UNL     1     103.924 311.414 196.950  1.00  0.00    -0.003 C 
ATOM     13  C   UNL     1     103.780 312.179 198.266  1.00  0.00     0.004 C 
ENDBRANCH  11  12
ENDBRANCH  10  11
ENDBRANCH   9  10
ENDBRANCH   8   9
ENDBRANCH   1   8
TORSDOF 9
ENDMDL
MODEL 9
REMARK VINA RESULT:    -5.179     20.346     21.784
REMARK INTER + INTRA:          -8.271
REMARK INTER:                  -7.476
REMARK INTRA:                  -0.796
REMARK UNBOUND:                -0.368
REMARK SMILES CCCCCCCCCCC(=O)[O-]
REMARK SMILES IDX 7 1 8 2 9 3 10 4 11 5 12 6 13 7 6 8 5 9 4 10 3 11 2 12 1 13
REMARK H PARENT
REMARK Flexibility Score: inf
ROOT
ATOM      1  C   UNL     1      88.122 325.286 193.047  1.00  0.00     0.000 C 
ENDROOT
BRANCH   1   2
ATOM      2  C   UNL     1      86.777 324.552 192.898  1.00  0.00     0.000 C 
BRANCH   2   3
ATOM      3  C   UNL     1      86.767 323.577 191.709  1.00  0.00     0.006 C 
BRANCH   3   4
ATOM      4  C   UNL     1      88.046 323.660 190.865  1.00  0.00     0.053 C 
BRANCH   4   5
ATOM      5  C   UNL     1      87.939 322.769 189.667  1.00  0.00     0.041 C 
ATOM      6  O   UNL     1      88.925 322.620 188.898  1.00  0.00    -0.550 OA
ATOM      7  O   UNL     1      86.734 322.144 189.372  1.00  0.00    -0.550 OA
ENDBRANCH   4   5
ENDBRANCH   3   4
ENDBRANCH   2   3
ENDBRANCH   1   2
BRANCH   1   8
ATOM      8  C   UNL     1      88.012 326.547 193.921  1.00  0.00     0.000 C 
BRANCH   8   9
ATOM      9  C   UNL     1      86.726 326.571 194.767  1.00  0.00    -0.000 C 
BRANCH   9  10
ATOM     10  C   UNL     1      86.977 326.188 196.235  1.00  0.00    -0.000 C 
BRANCH  10  11
ATOM     11  C   UNL     1      88.465 326.266 196.620  1.00  0.00    -0.000 C 
BRANCH  11  12
ATOM     12  C   UNL     1      88.974 324.967 197.266  1.00  0.00    -0.003 C 
ATOM     13  C   UNL     1      89.281 323.876 196.241  1.00  0.00     0.004 C 
ENDBRANCH  11  12
ENDBRANCH  10  11
ENDBRANCH   9  10
ENDBRANCH   8   9
ENDBRANCH   1   8
TORSDOF 9
ENDMDL
