MODEL 1
REMARK VINA RESULT:    -2.988      0.000      0.000
REMARK INTER + INTRA:          -3.602
REMARK INTER:                  -3.599
REMARK INTRA:                  -0.003
REMARK UNBOUND:                -0.003
REMARK SMILES OCC(O)CO
REMARK SMILES IDX 3 1 5 2 6 3 2 5 1 6 4 8
REMARK H PARENT 6 4 1 7 4 9
REMARK Flexibility Score: inf
ROOT
ATOM      1  C   UNL     1     -20.483  26.373  18.484  1.00  0.00     0.165 C 
ENDROOT
BRANCH   1   2
ATOM      2  C   UNL     1     -19.326  27.159  19.124  1.00  0.00     0.190 C 
BRANCH   2   3
ATOM      3  O   UNL     1     -18.292  27.344  18.197  1.00  0.00    -0.394 OA
ATOM      4  H   UNL     1     -17.879  28.219  18.417  1.00  0.00     0.210 HD
ENDBRANCH   2   3
ENDBRANCH   1   2
BRANCH   1   5
ATOM      5  C   UNL     1     -21.864  26.934  18.877  1.00  0.00     0.190 C 
BRANCH   5   6
ATOM      6  O   UNL     1     -22.798  25.902  19.047  1.00  0.00    -0.394 OA
ATOM      7  H   UNL     1     -22.330  25.172  19.530  1.00  0.00     0.210 HD
ENDBRANCH   5   6
ENDBRANCH   1   5
BRANCH   1   8
ATOM      8  O   UNL     1     -20.396  25.014  18.833  1.00  0.00    -0.388 OA
ATOM      9  H   UNL     1     -19.980  24.534  18.069  1.00  0.00     0.211 HD
ENDBRANCH   1   8
TORSDOF 5
ENDMDL
MODEL 2
REMARK VINA RESULT:    -2.985      1.556      2.567
REMARK INTER + INTRA:          -3.599
REMARK INTER:                  -3.586
REMARK INTRA:                  -0.013
REMARK UNBOUND:                -0.003
REMARK SMILES OCC(O)CO
REMARK SMILES IDX 3 1 5 2 6 3 2 5 1 6 4 8
REMARK H PARENT 6 4 1 7 4 9
REMARK Flexibility Score: inf
ROOT
ATOM      1  C   UNL     1     -21.640  27.082  19.125  1.00  0.00     0.165 C 
ENDROOT
BRANCH   1   2
ATOM      2  C   UNL     1     -21.854  28.452  18.459  1.00  0.00     0.190 C 
BRANCH   2   3
ATOM      3  O   UNL     1     -21.499  28.395  17.105  1.00  0.00    -0.394 OA
ATOM      4  H   UNL     1     -20.713  28.993  17.002  1.00  0.00     0.210 HD
ENDBRANCH   2   3
ENDBRANCH   1   2
BRANCH   1   5
ATOM      5  C   UNL     1     -20.310  26.426  18.705  1.00  0.00     0.190 C 
BRANCH   5   6
ATOM      6  O   UNL     1     -20.383  25.029  18.802  1.00  0.00    -0.394 OA
ATOM      7  H   UNL     1     -19.898  24.776  19.630  1.00  0.00     0.210 HD
ENDBRANCH   5   6
ENDBRANCH   1   5
BRANCH   1   8
ATOM      8  O   UNL     1     -22.715  26.226  18.827  1.00  0.00    -0.388 OA
ATOM      9  H   UNL     1     -23.493  26.522  19.371  1.00  0.00     0.211 HD
ENDBRANCH   1   8
TORSDOF 5
ENDMDL
MODEL 3
REMARK VINA RESULT:    -2.977      1.811      2.721
REMARK INTER + INTRA:          -3.588
REMARK INTER:                  -3.586
REMARK INTRA:                  -0.002
REMARK UNBOUND:                -0.003
REMARK SMILES OCC(O)CO
REMARK SMILES IDX 3 1 5 2 6 3 2 5 1 6 4 8
REMARK H PARENT 6 4 1 7 4 9
REMARK Flexibility Score: inf
ROOT
ATOM      1  C   UNL     1     -21.540  27.158  18.315  1.00  0.00     0.165 C 
ENDROOT
BRANCH   1   2
ATOM      2  C   UNL     1     -20.372  26.400  18.970  1.00  0.00     0.190 C 
BRANCH   2   3
ATOM      3  O   UNL     1     -20.523  25.020  18.785  1.00  0.00    -0.394 OA
ATOM      4  H   UNL     1     -20.757  24.895  17.828  1.00  0.00     0.210 HD
ENDBRANCH   2   3
ENDBRANCH   1   2
BRANCH   1   5
ATOM      5  C   UNL     1     -21.254  28.666  18.171  1.00  0.00     0.190 C 
BRANCH   5   6
ATOM      6  O   UNL     1     -21.309  29.064  16.827  1.00  0.00    -0.394 OA
ATOM      7  H   UNL     1     -20.370  29.188  16.530  1.00  0.00     0.210 HD
ENDBRANCH   5   6
ENDBRANCH   1   5
BRANCH   1   8
ATOM      8  O   UNL     1     -22.720  26.959  19.053  1.00  0.00    -0.388 OA
ATOM      9  H   UNL     1     -22.704  27.591  19.819  1.00  0.00     0.211 HD
ENDBRANCH   1   8
TORSDOF 5
ENDMDL
MODEL 4
REMARK VINA RESULT:    -2.738      5.627      6.708
REMARK INTER + INTRA:          -3.301
REMARK INTER:                  -3.078
REMARK INTRA:                  -0.223
REMARK UNBOUND:                -0.003
REMARK SMILES OCC(O)CO
REMARK SMILES IDX 3 1 5 2 6 3 2 5 1 6 4 8
REMARK H PARENT 6 4 1 7 4 9
REMARK Flexibility Score: inf
ROOT
ATOM      1  C   UNL     1     -17.280  29.768  14.379  1.00  0.00     0.165 C 
ENDROOT
BRANCH   1   2
ATOM      2  C   UNL     1     -17.493  30.761  13.224  1.00  0.00     0.190 C 
BRANCH   2   3
ATOM      3  O   UNL     1     -18.844  31.124  13.138  1.00  0.00    -0.394 OA
ATOM      4  H   UNL     1     -18.971  31.867  13.783  1.00  0.00     0.210 HD
ENDBRANCH   2   3
ENDBRANCH   1   2
BRANCH   1   5
ATOM      5  C   UNL     1     -17.701  30.352  15.742  1.00  0.00     0.190 C 
BRANCH   5   6
ATOM      6  O   UNL     1     -19.093  30.300  15.905  1.00  0.00    -0.394 OA
ATOM      7  H   UNL     1     -19.351  31.121  16.400  1.00  0.00     0.210 HD
ENDBRANCH   5   6
ENDBRANCH   1   5
BRANCH   1   8
ATOM      8  O   UNL     1     -15.935  29.360  14.423  1.00  0.00    -0.388 OA
ATOM      9  H   UNL     1     -15.382  30.168  14.594  1.00  0.00     0.211 HD
ENDBRANCH   1   8
TORSDOF 5
ENDMDL
MODEL 5
REMARK VINA RESULT:    -2.724      1.763      3.355
REMARK INTER + INTRA:          -3.284
REMARK INTER:                  -3.063
REMARK INTRA:                  -0.221
REMARK UNBOUND:                -0.003
REMARK SMILES OCC(O)CO
REMARK SMILES IDX 3 1 5 2 6 3 2 5 1 6 4 8
REMARK H PARENT 6 4 1 7 4 9
REMARK Flexibility Score: inf
ROOT
ATOM      1  C   UNL     1     -21.362  27.728  17.987  1.00  0.00     0.165 C 
ENDROOT
BRANCH   1   2
ATOM      2  C   UNL     1     -22.418  27.288  19.015  1.00  0.00     0.190 C 
BRANCH   2   3
ATOM      3  O   UNL     1     -22.638  25.907  18.925  1.00  0.00    -0.394 OA
ATOM      4  H   UNL     1     -22.136  25.600  18.125  1.00  0.00     0.210 HD
ENDBRANCH   2   3
ENDBRANCH   1   2
BRANCH   1   5
ATOM      5  C   UNL     1     -19.923  27.573  18.519  1.00  0.00     0.190 C 
BRANCH   5   6
ATOM      6  O   UNL     1     -19.659  26.243  18.879  1.00  0.00    -0.394 OA
ATOM      7  H   UNL     1     -19.396  26.255  19.836  1.00  0.00     0.210 HD
ENDBRANCH   5   6
ENDBRANCH   1   5
BRANCH   1   8
ATOM      8  O   UNL     1     -21.591  29.060  17.598  1.00  0.00    -0.388 OA
ATOM      9  H   UNL     1     -22.153  29.484  18.300  1.00  0.00     0.211 HD
ENDBRANCH   1   8
TORSDOF 5
ENDMDL
MODEL 6
REMARK VINA RESULT:    -2.686      5.254      6.442
REMARK INTER + INTRA:          -3.238
REMARK INTER:                  -3.026
REMARK INTRA:                  -0.211
REMARK UNBOUND:                -0.003
REMARK SMILES OCC(O)CO
REMARK SMILES IDX 3 1 5 2 6 3 2 5 1 6 4 8
REMARK H PARENT 6 4 1 7 4 9
REMARK Flexibility Score: inf
ROOT
ATOM      1  C   UNL     1     -17.717  30.781  14.475  1.00  0.00     0.165 C 
ENDROOT
BRANCH   1   2
ATOM      2  C   UNL     1     -16.876  29.608  13.945  1.00  0.00     0.190 C 
BRANCH   2   3
ATOM      3  O   UNL     1     -15.687  29.492  14.677  1.00  0.00    -0.394 OA
ATOM      4  H   UNL     1     -15.720  30.202  15.370  1.00  0.00     0.210 HD
ENDBRANCH   2   3
ENDBRANCH   1   2
BRANCH   1   5
ATOM      5  C   UNL     1     -18.257  30.522  15.896  1.00  0.00     0.190 C 
BRANCH   5   6
ATOM      6  O   UNL     1     -17.948  29.223  16.324  1.00  0.00    -0.394 OA
ATOM      7  H   UNL     1     -18.631  28.977  17.001  1.00  0.00     0.210 HD
ENDBRANCH   5   6
ENDBRANCH   1   5
BRANCH   1   8
ATOM      8  O   UNL     1     -18.781  31.049  13.596  1.00  0.00    -0.388 OA
ATOM      9  H   UNL     1     -18.391  31.231  12.700  1.00  0.00     0.211 HD
ENDBRANCH   1   8
TORSDOF 5
ENDMDL
MODEL 7
REMARK VINA RESULT:    -2.664      7.018      7.992
REMARK INTER + INTRA:          -3.212
REMARK INTER:                  -3.209
REMARK INTRA:                  -0.003
REMARK UNBOUND:                -0.003
REMARK SMILES OCC(O)CO
REMARK SMILES IDX 3 1 5 2 6 3 2 5 1 6 4 8
REMARK H PARENT 6 4 1 7 4 9
REMARK Flexibility Score: inf
ROOT
ATOM      1  C   UNL     1     -16.501  30.317  14.138  1.00  0.00     0.165 C 
ENDROOT
BRANCH   1   2
ATOM      2  C   UNL     1     -17.432  30.968  13.101  1.00  0.00     0.190 C 
BRANCH   2   3
ATOM      3  O   UNL     1     -18.770  30.682  13.400  1.00  0.00    -0.394 OA
ATOM      4  H   UNL     1     -19.284  31.499  13.169  1.00  0.00     0.210 HD
ENDBRANCH   2   3
ENDBRANCH   1   2
BRANCH   1   5
ATOM      5  C   UNL     1     -15.012  30.564  13.829  1.00  0.00     0.190 C 
BRANCH   5   6
ATOM      6  O   UNL     1     -14.194  29.674  14.541  1.00  0.00    -0.394 OA
ATOM      7  H   UNL     1     -14.787  28.956  14.884  1.00  0.00     0.210 HD
ENDBRANCH   5   6
ENDBRANCH   1   5
BRANCH   1   8
ATOM      8  O   UNL     1     -16.755  28.936  14.217  1.00  0.00    -0.388 OA
ATOM      9  H   UNL     1     -17.587  28.756  13.703  1.00  0.00     0.211 HD
ENDBRANCH   1   8
TORSDOF 5
ENDMDL
MODEL 8
REMARK VINA RESULT:    -2.664      5.832      6.852
REMARK INTER + INTRA:          -3.212
REMARK INTER:                  -3.002
REMARK INTRA:                  -0.209
REMARK UNBOUND:                -0.003
REMARK SMILES OCC(O)CO
REMARK SMILES IDX 3 1 5 2 6 3 2 5 1 6 4 8
REMARK H PARENT 6 4 1 7 4 9
REMARK Flexibility Score: inf
ROOT
ATOM      1  C   UNL     1     -16.792  30.318  14.403  1.00  0.00     0.165 C 
ENDROOT
BRANCH   1   2
ATOM      2  C   UNL     1     -17.508  30.692  15.712  1.00  0.00     0.190 C 
BRANCH   2   3
ATOM      3  O   UNL     1     -18.807  30.168  15.723  1.00  0.00    -0.394 OA
ATOM      4  H   UNL     1     -19.152  30.306  16.643  1.00  0.00     0.210 HD
ENDBRANCH   2   3
ENDBRANCH   1   2
BRANCH   1   5
ATOM      5  C   UNL     1     -17.408  31.018  13.175  1.00  0.00     0.190 C 
BRANCH   5   6
ATOM      6  O   UNL     1     -18.724  30.587  12.956  1.00  0.00    -0.394 OA
ATOM      7  H   UNL     1     -19.054  30.231  13.822  1.00  0.00     0.210 HD
ENDBRANCH   5   6
ENDBRANCH   1   5
BRANCH   1   8
ATOM      8  O   UNL     1     -16.810  28.924  14.223  1.00  0.00    -0.388 OA
ATOM      9  H   UNL     1     -16.619  28.506  15.105  1.00  0.00     0.211 HD
ENDBRANCH   1   8
TORSDOF 5
ENDMDL
MODEL 9
REMARK VINA RESULT:    -2.636      2.454      3.318
REMARK INTER + INTRA:          -3.178
REMARK INTER:                  -2.955
REMARK INTRA:                  -0.224
REMARK UNBOUND:                -0.003
REMARK SMILES OCC(O)CO
REMARK SMILES IDX 3 1 5 2 6 3 2 5 1 6 4 8
REMARK H PARENT 6 4 1 7 4 9
REMARK Flexibility Score: inf
ROOT
ATOM      1  C   UNL     1     -21.246  28.535  18.227  1.00  0.00     0.165 C 
ENDROOT
BRANCH   1   2
ATOM      2  C   UNL     1     -21.245  27.002  18.350  1.00  0.00     0.190 C 
BRANCH   2   3
ATOM      3  O   UNL     1     -22.515  26.544  18.725  1.00  0.00    -0.394 OA
ATOM      4  H   UNL     1     -23.073  26.578  17.905  1.00  0.00     0.210 HD
ENDBRANCH   2   3
ENDBRANCH   1   2
BRANCH   1   5
ATOM      5  C   UNL     1     -22.340  29.194  19.090  1.00  0.00     0.190 C 
BRANCH   5   6
ATOM      6  O   UNL     1     -23.558  29.259  18.399  1.00  0.00    -0.394 OA
ATOM      7  H   UNL     1     -24.143  28.559  18.789  1.00  0.00     0.210 HD
ENDBRANCH   5   6
ENDBRANCH   1   5
BRANCH   1   8
ATOM      8  O   UNL     1     -21.402  28.912  16.881  1.00  0.00    -0.388 OA
ATOM      9  H   UNL     1     -20.493  29.033  16.497  1.00  0.00     0.211 HD
ENDBRANCH   1   8
TORSDOF 5
ENDMDL
