MODEL 1
REMARK VINA RESULT:    -4.548      0.000      0.000
REMARK INTER + INTRA:          -9.978
REMARK INTER:                  -8.005
REMARK INTRA:                  -1.973
REMARK UNBOUND:                -1.973
REMARK SMILES CCCCCCC=CCCCCCCCC(=O)[O-]
REMARK SMILES IDX 10 1 11 2 12 3 13 4 14 5 15 6 16 7 17 8 18 9 9 10 8 11 7 12
REMARK SMILES IDX 6 13 5 14 4 15 3 16 2 17 1 18
REMARK H PARENT
REMARK Flexibility Score: inf
ROOT
ATOM      1  C   UNL     1     192.257 246.132 133.494  1.00  0.00     0.004 C 
ENDROOT
BRANCH   1   2
ATOM      2  C   UNL     1     191.578 245.077 132.605  1.00  0.00     0.000 C 
BRANCH   2   3
ATOM      3  C   UNL     1     192.083 243.654 132.886  1.00  0.00     0.000 C 
BRANCH   3   4
ATOM      4  C   UNL     1     193.119 243.224 131.841  1.00  0.00     0.000 C 
BRANCH   4   5
ATOM      5  C   UNL     1     194.474 242.920 132.500  1.00  0.00     0.006 C 
BRANCH   5   6
ATOM      6  C   UNL     1     195.533 242.487 131.478  1.00  0.00     0.053 C 
BRANCH   6   7
ATOM      7  C   UNL     1     195.590 240.998 131.332  1.00  0.00     0.041 C 
ATOM      8  O   UNL     1     195.586 240.261 132.353  1.00  0.00    -0.550 OA
ATOM      9  O   UNL     1     195.614 240.423 130.068  1.00  0.00    -0.550 OA
ENDBRANCH   6   7
ENDBRANCH   5   6
ENDBRANCH   4   5
ENDBRANCH   3   4
ENDBRANCH   2   3
ENDBRANCH   1   2
BRANCH   1  10
ATOM     10  C   UNL     1     192.814 247.314 132.689  1.00  0.00     0.027 C 
BRANCH  10  11
ATOM     11  C   UNL     1     194.012 246.900 131.879  1.00  0.00    -0.031 C 
ATOM     12  C   UNL     1     195.151 246.533 132.483  1.00  0.00    -0.031 C 
BRANCH  12  13
ATOM     13  C   UNL     1     196.365 246.114 131.697  1.00  0.00     0.027 C 
BRANCH  13  14
ATOM     14  C   UNL     1     196.835 247.197 130.709  1.00  0.00     0.004 C 
BRANCH  14  15
ATOM     15  C   UNL     1     197.390 248.465 131.381  1.00  0.00     0.000 C 
BRANCH  15  16
ATOM     16  C   UNL     1     197.149 249.734 130.550  1.00  0.00    -0.000 C 
BRANCH  16  17
ATOM     17  C   UNL     1     195.659 250.092 130.517  1.00  0.00    -0.003 C 
ATOM     18  C   UNL     1     195.149 250.463 131.907  1.00  0.00     0.004 C 
ENDBRANCH  16  17
ENDBRANCH  15  16
ENDBRANCH  14  15
ENDBRANCH  13  14
ENDBRANCH  12  13
ENDBRANCH  10  11
ENDBRANCH   1  10
TORSDOF 13
ENDMDL
MODEL 2
REMARK VINA RESULT:    -4.530      4.836      6.570
REMARK INTER + INTRA:          -9.945
REMARK INTER:                  -8.149
REMARK INTRA:                  -1.796
REMARK UNBOUND:                -1.973
REMARK SMILES CCCCCCC=CCCCCCCCC(=O)[O-]
REMARK SMILES IDX 10 1 11 2 12 3 13 4 14 5 15 6 16 7 17 8 18 9 9 10 8 11 7 12
REMARK SMILES IDX 6 13 5 14 4 15 3 16 2 17 1 18
REMARK H PARENT
REMARK Flexibility Score: inf
ROOT
ATOM      1  C   UNL     1     191.060 244.961 133.458  1.00  0.00     0.004 C 
ENDROOT
BRANCH   1   2
ATOM      2  C   UNL     1     190.202 243.686 133.431  1.00  0.00     0.000 C 
BRANCH   2   3
ATOM      3  C   UNL     1     189.849 243.181 134.837  1.00  0.00     0.000 C 
BRANCH   3   4
ATOM      4  C   UNL     1     190.474 241.804 135.097  1.00  0.00     0.000 C 
BRANCH   4   5
ATOM      5  C   UNL     1     191.609 241.899 136.128  1.00  0.00     0.006 C 
BRANCH   5   6
ATOM      6  C   UNL     1     191.704 243.293 136.761  1.00  0.00     0.053 C 
BRANCH   6   7
ATOM      7  C   UNL     1     191.753 243.223 138.257  1.00  0.00     0.041 C 
ATOM      8  O   UNL     1     190.901 242.542 138.886  1.00  0.00    -0.550 OA
ATOM      9  O   UNL     1     192.758 243.882 138.953  1.00  0.00    -0.550 OA
ENDBRANCH   6   7
ENDBRANCH   5   6
ENDBRANCH   4   5
ENDBRANCH   3   4
ENDBRANCH   2   3
ENDBRANCH   1   2
BRANCH   1  10
ATOM     10  C   UNL     1     192.355 244.819 132.646  1.00  0.00     0.027 C 
BRANCH  10  11
ATOM     11  C   UNL     1     192.824 243.390 132.620  1.00  0.00    -0.031 C 
ATOM     12  C   UNL     1     193.845 242.992 133.392  1.00  0.00    -0.031 C 
BRANCH  12  13
ATOM     13  C   UNL     1     194.333 241.567 133.385  1.00  0.00     0.027 C 
BRANCH  13  14
ATOM     14  C   UNL     1     195.443 241.325 132.346  1.00  0.00     0.004 C 
BRANCH  14  15
ATOM     15  C   UNL     1     195.400 239.934 131.689  1.00  0.00     0.000 C 
BRANCH  15  16
ATOM     16  C   UNL     1     195.245 240.000 130.163  1.00  0.00    -0.000 C 
BRANCH  16  17
ATOM     17  C   UNL     1     194.370 241.189 129.751  1.00  0.00    -0.003 C 
ATOM     18  C   UNL     1     195.110 242.112 128.788  1.00  0.00     0.004 C 
ENDBRANCH  16  17
ENDBRANCH  15  16
ENDBRANCH  14  15
ENDBRANCH  13  14
ENDBRANCH  12  13
ENDBRANCH  10  11
ENDBRANCH   1  10
TORSDOF 13
ENDMDL
MODEL 3
REMARK VINA RESULT:    -4.509      6.189      8.728
REMARK INTER + INTRA:          -9.908
REMARK INTER:                  -8.527
REMARK INTRA:                  -1.381
REMARK UNBOUND:                -1.973
REMARK SMILES CCCCCCC=CCCCCCCCC(=O)[O-]
REMARK SMILES IDX 10 1 11 2 12 3 13 4 14 5 15 6 16 7 17 8 18 9 9 10 8 11 7 12
REMARK SMILES IDX 6 13 5 14 4 15 3 16 2 17 1 18
REMARK H PARENT
REMARK Flexibility Score: inf
ROOT
ATOM      1  C   UNL     1     191.636 244.049 137.503  1.00  0.00     0.004 C 
ENDROOT
BRANCH   1   2
ATOM      2  C   UNL     1     192.381 244.209 138.839  1.00  0.00     0.000 C 
BRANCH   2   3
ATOM      3  C   UNL     1     192.064 245.539 139.537  1.00  0.00     0.000 C 
BRANCH   3   4
ATOM      4  C   UNL     1     190.916 245.372 140.540  1.00  0.00     0.000 C 
BRANCH   4   5
ATOM      5  C   UNL     1     190.492 246.728 141.124  1.00  0.00     0.006 C 
BRANCH   5   6
ATOM      6  C   UNL     1     191.595 247.787 140.998  1.00  0.00     0.053 C 
BRANCH   6   7
ATOM      7  C   UNL     1     191.103 249.024 140.311  1.00  0.00     0.041 C 
ATOM      8  O   UNL     1     190.850 250.060 140.979  1.00  0.00    -0.550 OA
ATOM      9  O   UNL     1     190.956 249.042 138.930  1.00  0.00    -0.550 OA
ENDBRANCH   6   7
ENDBRANCH   5   6
ENDBRANCH   4   5
ENDBRANCH   3   4
ENDBRANCH   2   3
ENDBRANCH   1   2
BRANCH   1  10
ATOM     10  C   UNL     1     191.429 245.387 136.779  1.00  0.00     0.027 C 
BRANCH  10  11
ATOM     11  C   UNL     1     191.155 245.174 135.315  1.00  0.00    -0.031 C 
ATOM     12  C   UNL     1     191.961 245.704 134.385  1.00  0.00    -0.031 C 
BRANCH  12  13
ATOM     13  C   UNL     1     191.710 245.505 132.914  1.00  0.00     0.027 C 
BRANCH  13  14
ATOM     14  C   UNL     1     191.737 244.022 132.503  1.00  0.00     0.004 C 
BRANCH  14  15
ATOM     15  C   UNL     1     193.117 243.519 132.043  1.00  0.00     0.000 C 
BRANCH  15  16
ATOM     16  C   UNL     1     193.916 242.853 133.173  1.00  0.00    -0.000 C 
BRANCH  16  17
ATOM     17  C   UNL     1     192.984 242.121 134.145  1.00  0.00    -0.003 C 
ATOM     18  C   UNL     1     193.730 241.690 135.405  1.00  0.00     0.004 C 
ENDBRANCH  16  17
ENDBRANCH  15  16
ENDBRANCH  14  15
ENDBRANCH  13  14
ENDBRANCH  12  13
ENDBRANCH  10  11
ENDBRANCH   1  10
TORSDOF 13
ENDMDL
MODEL 4
REMARK VINA RESULT:    -4.498      2.740      6.304
REMARK INTER + INTRA:          -9.890
REMARK INTER:                  -7.984
REMARK INTRA:                  -1.906
REMARK UNBOUND:                -1.973
REMARK SMILES CCCCCCC=CCCCCCCCC(=O)[O-]
REMARK SMILES IDX 10 1 11 2 12 3 13 4 14 5 15 6 16 7 17 8 18 9 9 10 8 11 7 12
REMARK SMILES IDX 6 13 5 14 4 15 3 16 2 17 1 18
REMARK H PARENT
REMARK Flexibility Score: inf
ROOT
ATOM      1  C   UNL     1     192.690 244.428 133.760  1.00  0.00     0.004 C 
ENDROOT
BRANCH   1   2
ATOM      2  C   UNL     1     191.751 245.599 133.427  1.00  0.00     0.000 C 
BRANCH   2   3
ATOM      3  C   UNL     1     192.512 246.878 133.050  1.00  0.00     0.000 C 
BRANCH   3   4
ATOM      4  C   UNL     1     193.125 246.758 131.649  1.00  0.00     0.000 C 
BRANCH   4   5
ATOM      5  C   UNL     1     194.424 247.571 131.544  1.00  0.00     0.006 C 
BRANCH   5   6
ATOM      6  C   UNL     1     195.664 246.732 131.881  1.00  0.00     0.053 C 
BRANCH   6   7
ATOM      7  C   UNL     1     196.894 247.263 131.211  1.00  0.00     0.041 C 
ATOM      8  O   UNL     1     197.482 248.273 131.677  1.00  0.00    -0.550 OA
ATOM      9  O   UNL     1     197.409 246.621 130.092  1.00  0.00    -0.550 OA
ENDBRANCH   6   7
ENDBRANCH   5   6
ENDBRANCH   4   5
ENDBRANCH   3   4
ENDBRANCH   2   3
ENDBRANCH   1   2
BRANCH   1  10
ATOM     10  C   UNL     1     192.342 243.152 132.980  1.00  0.00     0.027 C 
BRANCH  10  11
ATOM     11  C   UNL     1     193.274 242.958 131.815  1.00  0.00    -0.031 C 
ATOM     12  C   UNL     1     194.571 243.282 131.917  1.00  0.00    -0.031 C 
BRANCH  12  13
ATOM     13  C   UNL     1     195.525 243.098 130.766  1.00  0.00     0.027 C 
BRANCH  13  14
ATOM     14  C   UNL     1     194.920 242.266 129.621  1.00  0.00     0.004 C 
BRANCH  14  15
ATOM     15  C   UNL     1     195.500 240.846 129.497  1.00  0.00     0.000 C 
BRANCH  15  16
ATOM     16  C   UNL     1     194.626 239.783 130.180  1.00  0.00    -0.000 C 
BRANCH  16  17
ATOM     17  C   UNL     1     195.403 239.063 131.286  1.00  0.00    -0.003 C 
ATOM     18  C   UNL     1     195.022 239.596 132.665  1.00  0.00     0.004 C 
ENDBRANCH  16  17
ENDBRANCH  15  16
ENDBRANCH  14  15
ENDBRANCH  13  14
ENDBRANCH  12  13
ENDBRANCH  10  11
ENDBRANCH   1  10
TORSDOF 13
ENDMDL
MODEL 5
REMARK VINA RESULT:    -4.465      2.690      5.231
REMARK INTER + INTRA:          -9.831
REMARK INTER:                  -7.719
REMARK INTRA:                  -2.111
REMARK UNBOUND:                -1.973
REMARK SMILES CCCCCCC=CCCCCCCCC(=O)[O-]
REMARK SMILES IDX 10 1 11 2 12 3 13 4 14 5 15 6 16 7 17 8 18 9 9 10 8 11 7 12
REMARK SMILES IDX 6 13 5 14 4 15 3 16 2 17 1 18
REMARK H PARENT
REMARK Flexibility Score: inf
ROOT
ATOM      1  C   UNL     1     192.706 241.212 136.127  1.00  0.00     0.004 C 
ENDROOT
BRANCH   1   2
ATOM      2  C   UNL     1     193.826 240.440 135.411  1.00  0.00     0.000 C 
BRANCH   2   3
ATOM      3  C   UNL     1     193.977 240.849 133.938  1.00  0.00     0.000 C 
BRANCH   3   4
ATOM      4  C   UNL     1     194.007 242.375 133.793  1.00  0.00     0.000 C 
BRANCH   4   5
ATOM      5  C   UNL     1     193.259 242.825 132.529  1.00  0.00     0.006 C 
BRANCH   5   6
ATOM      6  C   UNL     1     194.185 243.518 131.521  1.00  0.00     0.053 C 
BRANCH   6   7
ATOM      7  C   UNL     1     194.964 242.529 130.709  1.00  0.00     0.041 C 
ATOM      8  O   UNL     1     196.195 242.371 130.915  1.00  0.00    -0.550 OA
ATOM      9  O   UNL     1     194.323 241.759 129.747  1.00  0.00    -0.550 OA
ENDBRANCH   6   7
ENDBRANCH   5   6
ENDBRANCH   4   5
ENDBRANCH   3   4
ENDBRANCH   2   3
ENDBRANCH   1   2
BRANCH   1  10
ATOM     10  C   UNL     1     191.308 240.679 135.784  1.00  0.00     0.027 C 
BRANCH  10  11
ATOM     11  C   UNL     1     190.525 241.687 134.987  1.00  0.00    -0.031 C 
ATOM     12  C   UNL     1     190.473 242.970 135.371  1.00  0.00    -0.031 C 
BRANCH  12  13
ATOM     13  C   UNL     1     189.698 243.999 134.591  1.00  0.00     0.027 C 
BRANCH  13  14
ATOM     14  C   UNL     1     190.609 244.945 133.788  1.00  0.00     0.004 C 
BRANCH  14  15
ATOM     15  C   UNL     1     191.723 245.605 134.620  1.00  0.00     0.000 C 
BRANCH  15  16
ATOM     16  C   UNL     1     192.745 246.358 133.756  1.00  0.00    -0.000 C 
BRANCH  16  17
ATOM     17  C   UNL     1     192.245 246.503 132.316  1.00  0.00    -0.003 C 
ATOM     18  C   UNL     1     192.932 247.667 131.607  1.00  0.00     0.004 C 
ENDBRANCH  16  17
ENDBRANCH  15  16
ENDBRANCH  14  15
ENDBRANCH  13  14
ENDBRANCH  12  13
ENDBRANCH  10  11
ENDBRANCH   1  10
TORSDOF 13
ENDMDL
MODEL 6
REMARK VINA RESULT:    -4.456      3.611      7.363
REMARK INTER + INTRA:          -9.815
REMARK INTER:                  -8.012
REMARK INTRA:                  -1.803
REMARK UNBOUND:                -1.973
REMARK SMILES CCCCCCC=CCCCCCCCC(=O)[O-]
REMARK SMILES IDX 10 1 11 2 12 3 13 4 14 5 15 6 16 7 17 8 18 9 9 10 8 11 7 12
REMARK SMILES IDX 6 13 5 14 4 15 3 16 2 17 1 18
REMARK H PARENT
REMARK Flexibility Score: inf
ROOT
ATOM      1  C   UNL     1     195.591 239.906 131.392  1.00  0.00     0.004 C 
ENDROOT
BRANCH   1   2
ATOM      2  C   UNL     1     194.857 240.197 130.073  1.00  0.00     0.000 C 
BRANCH   2   3
ATOM      3  C   UNL     1     194.388 241.656 129.967  1.00  0.00     0.000 C 
BRANCH   3   4
ATOM      4  C   UNL     1     194.750 242.441 131.233  1.00  0.00     0.000 C 
BRANCH   4   5
ATOM      5  C   UNL     1     193.499 243.059 131.877  1.00  0.00     0.006 C 
BRANCH   5   6
ATOM      6  C   UNL     1     193.846 243.992 133.044  1.00  0.00     0.053 C 
BRANCH   6   7
ATOM      7  C   UNL     1     193.938 245.421 132.605  1.00  0.00     0.041 C 
ATOM      8  O   UNL     1     194.995 246.076 132.802  1.00  0.00    -0.550 OA
ATOM      9  O   UNL     1     192.869 246.019 131.950  1.00  0.00    -0.550 OA
ENDBRANCH   6   7
ENDBRANCH   5   6
ENDBRANCH   4   5
ENDBRANCH   3   4
ENDBRANCH   2   3
ENDBRANCH   1   2
BRANCH   1  10
ATOM     10  C   UNL     1     195.270 238.513 131.953  1.00  0.00     0.027 C 
BRANCH  10  11
ATOM     11  C   UNL     1     194.347 238.605 133.137  1.00  0.00    -0.031 C 
ATOM     12  C   UNL     1     194.152 239.775 133.761  1.00  0.00    -0.031 C 
BRANCH  12  13
ATOM     13  C   UNL     1     193.233 239.895 134.948  1.00  0.00     0.027 C 
BRANCH  13  14
ATOM     14  C   UNL     1     192.256 241.078 134.824  1.00  0.00     0.004 C 
BRANCH  14  15
ATOM     15  C   UNL     1     190.924 240.878 135.569  1.00  0.00     0.000 C 
BRANCH  15  16
ATOM     16  C   UNL     1     189.982 242.083 135.440  1.00  0.00    -0.000 C 
BRANCH  16  17
ATOM     17  C   UNL     1     190.738 243.320 134.943  1.00  0.00    -0.003 C 
ATOM     18  C   UNL     1     190.106 243.881 133.673  1.00  0.00     0.004 C 
ENDBRANCH  16  17
ENDBRANCH  15  16
ENDBRANCH  14  15
ENDBRANCH  13  14
ENDBRANCH  12  13
ENDBRANCH  10  11
ENDBRANCH   1  10
TORSDOF 13
ENDMDL
MODEL 7
REMARK VINA RESULT:    -4.455      4.195      6.117
REMARK INTER + INTRA:          -9.813
REMARK INTER:                  -7.872
REMARK INTRA:                  -1.941
REMARK UNBOUND:                -1.973
REMARK SMILES CCCCCCC=CCCCCCCCC(=O)[O-]
REMARK SMILES IDX 10 1 11 2 12 3 13 4 14 5 15 6 16 7 17 8 18 9 9 10 8 11 7 12
REMARK SMILES IDX 6 13 5 14 4 15 3 16 2 17 1 18
REMARK H PARENT
REMARK Flexibility Score: inf
ROOT
ATOM      1  C   UNL     1     192.769 239.335 134.802  1.00  0.00     0.004 C 
ENDROOT
BRANCH   1   2
ATOM      2  C   UNL     1     193.880 238.327 134.465  1.00  0.00     0.000 C 
BRANCH   2   3
ATOM      3  C   UNL     1     194.201 238.280 132.964  1.00  0.00     0.000 C 
BRANCH   3   4
ATOM      4  C   UNL     1     195.592 238.862 132.683  1.00  0.00     0.000 C 
BRANCH   4   5
ATOM      5  C   UNL     1     195.497 240.127 131.818  1.00  0.00     0.006 C 
BRANCH   5   6
ATOM      6  C   UNL     1     194.771 239.871 130.491  1.00  0.00     0.053 C 
BRANCH   6   7
ATOM      7  C   UNL     1     194.907 241.028 129.549  1.00  0.00     0.041 C 
ATOM      8  O   UNL     1     194.252 242.085 129.746  1.00  0.00    -0.550 OA
ATOM      9  O   UNL     1     195.782 240.951 128.473  1.00  0.00    -0.550 OA
ENDBRANCH   6   7
ENDBRANCH   5   6
ENDBRANCH   4   5
ENDBRANCH   3   4
ENDBRANCH   2   3
ENDBRANCH   1   2
BRANCH   1  10
ATOM     10  C   UNL     1     193.245 240.442 135.753  1.00  0.00     0.027 C 
BRANCH  10  11
ATOM     11  C   UNL     1     193.665 241.669 134.990  1.00  0.00    -0.031 C 
ATOM     12  C   UNL     1     193.096 241.970 133.814  1.00  0.00    -0.031 C 
BRANCH  12  13
ATOM     13  C   UNL     1     193.497 243.192 133.031  1.00  0.00     0.027 C 
BRANCH  13  14
ATOM     14  C   UNL     1     192.387 244.258 132.985  1.00  0.00     0.004 C 
BRANCH  14  15
ATOM     15  C   UNL     1     190.960 243.686 133.046  1.00  0.00     0.000 C 
BRANCH  15  16
ATOM     16  C   UNL     1     190.190 244.136 134.296  1.00  0.00    -0.000 C 
BRANCH  16  17
ATOM     17  C   UNL     1     191.072 245.002 135.201  1.00  0.00    -0.003 C 
ATOM     18  C   UNL     1     191.444 244.261 136.482  1.00  0.00     0.004 C 
ENDBRANCH  16  17
ENDBRANCH  15  16
ENDBRANCH  14  15
ENDBRANCH  13  14
ENDBRANCH  12  13
ENDBRANCH  10  11
ENDBRANCH   1  10
TORSDOF 13
ENDMDL
MODEL 8
REMARK VINA RESULT:    -4.426      6.679      9.145
REMARK INTER + INTRA:          -9.762
REMARK INTER:                  -8.526
REMARK INTRA:                  -1.236
REMARK UNBOUND:                -1.973
REMARK SMILES CCCCCCC=CCCCCCCCC(=O)[O-]
REMARK SMILES IDX 10 1 11 2 12 3 13 4 14 5 15 6 16 7 17 8 18 9 9 10 8 11 7 12
REMARK SMILES IDX 6 13 5 14 4 15 3 16 2 17 1 18
REMARK H PARENT
REMARK Flexibility Score: inf
ROOT
ATOM      1  C   UNL     1     191.775 245.081 138.362  1.00  0.00     0.004 C 
ENDROOT
BRANCH   1   2
ATOM      2  C   UNL     1     192.075 245.834 139.669  1.00  0.00     0.000 C 
BRANCH   2   3
ATOM      3  C   UNL     1     190.911 246.731 140.115  1.00  0.00     0.000 C 
BRANCH   3   4
ATOM      4  C   UNL     1     191.408 248.136 140.474  1.00  0.00     0.000 C 
BRANCH   4   5
ATOM      5  C   UNL     1     191.072 249.142 139.362  1.00  0.00     0.006 C 
BRANCH   5   6
ATOM      6  C   UNL     1     190.971 250.579 139.888  1.00  0.00     0.053 C 
BRANCH   6   7
ATOM      7  C   UNL     1     189.959 251.380 139.129  1.00  0.00     0.041 C 
ATOM      8  O   UNL     1     190.181 251.713 137.935  1.00  0.00    -0.550 OA
ATOM      9  O   UNL     1     188.756 251.730 139.729  1.00  0.00    -0.550 OA
ENDBRANCH   6   7
ENDBRANCH   5   6
ENDBRANCH   4   5
ENDBRANCH   3   4
ENDBRANCH   2   3
ENDBRANCH   1   2
BRANCH   1  10
ATOM     10  C   UNL     1     191.785 246.002 137.134  1.00  0.00     0.027 C 
BRANCH  10  11
ATOM     11  C   UNL     1     191.051 245.375 135.981  1.00  0.00    -0.031 C 
ATOM     12  C   UNL     1     191.058 244.045 135.809  1.00  0.00    -0.031 C 
BRANCH  12  13
ATOM     13  C   UNL     1     190.331 243.392 134.663  1.00  0.00     0.027 C 
BRANCH  13  14
ATOM     14  C   UNL     1     191.283 242.904 133.557  1.00  0.00     0.004 C 
BRANCH  14  15
ATOM     15  C   UNL     1     191.715 244.000 132.567  1.00  0.00     0.000 C 
BRANCH  15  16
ATOM     16  C   UNL     1     193.237 244.199 132.525  1.00  0.00    -0.000 C 
BRANCH  16  17
ATOM     17  C   UNL     1     193.606 245.664 132.777  1.00  0.00    -0.003 C 
ATOM     18  C   UNL     1     192.369 246.557 132.753  1.00  0.00     0.004 C 
ENDBRANCH  16  17
ENDBRANCH  15  16
ENDBRANCH  14  15
ENDBRANCH  13  14
ENDBRANCH  12  13
ENDBRANCH  10  11
ENDBRANCH   1  10
TORSDOF 13
ENDMDL
MODEL 9
REMARK VINA RESULT:    -4.386      2.476      4.506
REMARK INTER + INTRA:          -9.693
REMARK INTER:                  -7.616
REMARK INTRA:                  -2.077
REMARK UNBOUND:                -1.973
REMARK SMILES CCCCCCC=CCCCCCCCC(=O)[O-]
REMARK SMILES IDX 10 1 11 2 12 3 13 4 14 5 15 6 16 7 17 8 18 9 9 10 8 11 7 12
REMARK SMILES IDX 6 13 5 14 4 15 3 16 2 17 1 18
REMARK H PARENT
REMARK Flexibility Score: inf
ROOT
ATOM      1  C   UNL     1     195.589 248.329 134.439  1.00  0.00     0.004 C 
ENDROOT
BRANCH   1   2
ATOM      2  C   UNL     1     194.070 248.381 134.203  1.00  0.00     0.000 C 
BRANCH   2   3
ATOM      3  C   UNL     1     193.697 249.145 132.925  1.00  0.00     0.000 C 
BRANCH   3   4
ATOM      4  C   UNL     1     193.259 248.179 131.817  1.00  0.00     0.000 C 
BRANCH   4   5
ATOM      5  C   UNL     1     192.643 246.902 132.411  1.00  0.00     0.006 C 
BRANCH   5   6
ATOM      6  C   UNL     1     193.381 245.636 131.959  1.00  0.00     0.053 C 
BRANCH   6   7
ATOM      7  C   UNL     1     192.821 244.405 132.603  1.00  0.00     0.041 C 
ATOM      8  O   UNL     1     193.564 243.654 133.287  1.00  0.00    -0.550 OA
ATOM      9  O   UNL     1     191.471 244.106 132.474  1.00  0.00    -0.550 OA
ENDBRANCH   6   7
ENDBRANCH   5   6
ENDBRANCH   4   5
ENDBRANCH   3   4
ENDBRANCH   2   3
ENDBRANCH   1   2
BRANCH   1  10
ATOM     10  C   UNL     1     196.146 249.646 135.000  1.00  0.00     0.027 C 
BRANCH  10  11
ATOM     11  C   UNL     1     196.937 250.387 133.957  1.00  0.00    -0.031 C 
ATOM     12  C   UNL     1     196.551 251.601 133.542  1.00  0.00    -0.031 C 
BRANCH  12  13
ATOM     13  C   UNL     1     197.325 252.365 132.500  1.00  0.00     0.027 C 
BRANCH  13  14
ATOM     14  C   UNL     1     197.739 251.486 131.306  1.00  0.00     0.004 C 
BRANCH  14  15
ATOM     15  C   UNL     1     196.607 251.217 130.299  1.00  0.00     0.000 C 
BRANCH  15  16
ATOM     16  C   UNL     1     196.181 249.742 130.260  1.00  0.00    -0.000 C 
BRANCH  16  17
ATOM     17  C   UNL     1     197.317 248.831 130.736  1.00  0.00    -0.003 C 
ATOM     18  C   UNL     1     196.827 247.400 130.944  1.00  0.00     0.004 C 
ENDBRANCH  16  17
ENDBRANCH  15  16
ENDBRANCH  14  15
ENDBRANCH  13  14
ENDBRANCH  12  13
ENDBRANCH  10  11
ENDBRANCH   1  10
TORSDOF 13
ENDMDL
