MODEL 1
REMARK VINA RESULT:     6.215      0.000      0.000
REMARK INTER + INTRA:          13.751
REMARK INTER:                  15.662
REMARK INTRA:                  -1.912
REMARK UNBOUND:                -1.912
REMARK SMILES CCCCCCCCCCCCCCCCCCCCCCCCCCCC(=O)[O-]
REMARK SMILES IDX 15 1 16 2 17 3 18 4 19 5 20 6 21 7 22 8 23 9 24 10 25 11
REMARK SMILES IDX 26 12 27 13 28 14 29 15 30 16 14 17 13 18 12 19 11 20 10 21
REMARK SMILES IDX 9 22 8 23 7 24 6 25 5 26 4 27 3 28 2 29 1 30
REMARK H PARENT
REMARK Flexibility Score: inf
ROOT
ATOM      1  C   UNL     1      -1.452  10.444  -4.652  1.00  0.00     0.000 C 
ENDROOT
BRANCH   1   2
ATOM      2  C   UNL     1      -2.589  10.526  -3.618  1.00  0.00     0.000 C 
BRANCH   2   3
ATOM      3  C   UNL     1      -3.444   9.249  -3.575  1.00  0.00     0.000 C 
BRANCH   3   4
ATOM      4  C   UNL     1      -2.968   8.310  -2.453  1.00  0.00     0.000 C 
BRANCH   4   5
ATOM      5  C   UNL     1      -4.095   7.415  -1.906  1.00  0.00     0.000 C 
BRANCH   5   6
ATOM      6  C   UNL     1      -3.660   5.991  -1.508  1.00  0.00     0.000 C 
BRANCH   6   7
ATOM      7  C   UNL     1      -2.128   5.803  -1.444  1.00  0.00     0.000 C 
BRANCH   7   8
ATOM      8  C   UNL     1      -1.685   4.424  -1.972  1.00  0.00     0.000 C 
BRANCH   8   9
ATOM      9  C   UNL     1      -2.854   3.646  -2.619  1.00  0.00     0.000 C 
BRANCH   9  10
ATOM     10  C   UNL     1      -3.649   2.786  -1.622  1.00  0.00     0.000 C 
BRANCH  10  11
ATOM     11  C   UNL     1      -3.899   1.361  -2.141  1.00  0.00     0.000 C 
BRANCH  11  12
ATOM     12  C   UNL     1      -3.974   1.288  -3.675  1.00  0.00     0.006 C 
BRANCH  12  13
ATOM     13  C   UNL     1      -5.405   1.088  -4.196  1.00  0.00     0.053 C 
BRANCH  13  14
ATOM     14  C   UNL     1      -5.444   1.100  -5.695  1.00  0.00     0.041 C 
ATOM     15  O   UNL     1      -6.486   0.743  -6.306  1.00  0.00    -0.550 OA
ATOM     16  O   UNL     1      -4.316   1.473  -6.417  1.00  0.00    -0.550 OA
ENDBRANCH  13  14
ENDBRANCH  12  13
ENDBRANCH  11  12
ENDBRANCH  10  11
ENDBRANCH   9  10
ENDBRANCH   8   9
ENDBRANCH   7   8
ENDBRANCH   6   7
ENDBRANCH   5   6
ENDBRANCH   4   5
ENDBRANCH   3   4
ENDBRANCH   2   3
ENDBRANCH   1   2
BRANCH   1  17
ATOM     17  C   UNL     1      -1.684  11.275  -5.928  1.00  0.00     0.000 C 
BRANCH  17  18
ATOM     18  C   UNL     1      -3.163  11.322  -6.351  1.00  0.00     0.000 C 
BRANCH  18  19
ATOM     19  C   UNL     1      -3.369  12.099  -7.670  1.00  0.00     0.000 C 
BRANCH  19  20
ATOM     20  C   UNL     1      -3.809  11.214  -8.849  1.00  0.00     0.000 C 
BRANCH  20  21
ATOM     21  C   UNL     1      -5.337  11.089  -8.966  1.00  0.00     0.000 C 
BRANCH  21  22
ATOM     22  C   UNL     1      -5.825   9.635  -8.788  1.00  0.00    -0.000 C 
BRANCH  22  23
ATOM     23  C   UNL     1      -6.295   9.313  -7.357  1.00  0.00    -0.000 C 
BRANCH  23  24
ATOM     24  C   UNL     1      -6.666  10.543  -6.509  1.00  0.00    -0.000 C 
BRANCH  24  25
ATOM     25  C   UNL     1      -8.093  11.087  -6.733  1.00  0.00    -0.000 C 
BRANCH  25  26
ATOM     26  C   UNL     1      -9.102  10.776  -5.613  1.00  0.00    -0.000 C 
BRANCH  26  27
ATOM     27  C   UNL     1      -9.845   9.447  -5.826  1.00  0.00    -0.000 C 
BRANCH  27  28
ATOM     28  C   UNL     1      -9.164   8.268  -5.113  1.00  0.00    -0.000 C 
BRANCH  28  29
ATOM     29  C   UNL     1      -9.416   6.921  -5.811  1.00  0.00    -0.003 C 
ATOM     30  C   UNL     1      -9.806   7.123  -7.273  1.00  0.00     0.004 C 
ENDBRANCH  28  29
ENDBRANCH  27  28
ENDBRANCH  26  27
ENDBRANCH  25  26
ENDBRANCH  24  25
ENDBRANCH  23  24
ENDBRANCH  22  23
ENDBRANCH  21  22
ENDBRANCH  20  21
ENDBRANCH  19  20
ENDBRANCH  18  19
ENDBRANCH  17  18
ENDBRANCH   1  17
TORSDOF 26
ENDMDL
MODEL 2
REMARK VINA RESULT:     6.411      1.578      3.725
REMARK INTER + INTRA:          14.245
REMARK INTER:                  15.671
REMARK INTRA:                  -1.426
REMARK UNBOUND:                -1.912
REMARK SMILES CCCCCCCCCCCCCCCCCCCCCCCCCCCC(=O)[O-]
REMARK SMILES IDX 15 1 16 2 17 3 18 4 19 5 20 6 21 7 22 8 23 9 24 10 25 11
REMARK SMILES IDX 26 12 27 13 28 14 29 15 30 16 14 17 13 18 12 19 11 20 10 21
REMARK SMILES IDX 9 22 8 23 7 24 6 25 5 26 4 27 3 28 2 29 1 30
REMARK H PARENT
REMARK Flexibility Score: inf
ROOT
ATOM      1  C   UNL     1      -2.629  11.144  -7.260  1.00  0.00     0.000 C 
ENDROOT
BRANCH   1   2
ATOM      2  C   UNL     1      -2.174  11.615  -5.868  1.00  0.00     0.000 C 
BRANCH   2   3
ATOM      3  C   UNL     1      -0.933  10.862  -5.363  1.00  0.00     0.000 C 
BRANCH   3   4
ATOM      4  C   UNL     1      -1.122  10.412  -3.905  1.00  0.00     0.000 C 
BRANCH   4   5
ATOM      5  C   UNL     1      -2.573  10.004  -3.591  1.00  0.00     0.000 C 
BRANCH   5   6
ATOM      6  C   UNL     1      -2.719   8.817  -2.618  1.00  0.00     0.000 C 
BRANCH   6   7
ATOM      7  C   UNL     1      -4.183   8.381  -2.384  1.00  0.00     0.000 C 
BRANCH   7   8
ATOM      8  C   UNL     1      -4.308   7.336  -1.258  1.00  0.00     0.000 C 
BRANCH   8   9
ATOM      9  C   UNL     1      -3.848   5.932  -1.713  1.00  0.00     0.000 C 
BRANCH   9  10
ATOM     10  C   UNL     1      -2.477   5.520  -1.150  1.00  0.00     0.000 C 
BRANCH  10  11
ATOM     11  C   UNL     1      -1.684   4.630  -2.120  1.00  0.00     0.000 C 
BRANCH  11  12
ATOM     12  C   UNL     1      -2.542   3.518  -2.747  1.00  0.00     0.006 C 
BRANCH  12  13
ATOM     13  C   UNL     1      -3.300   2.686  -1.702  1.00  0.00     0.053 C 
BRANCH  13  14
ATOM     14  C   UNL     1      -3.955   1.493  -2.330  1.00  0.00     0.041 C 
ATOM     15  O   UNL     1      -3.997   1.377  -3.584  1.00  0.00    -0.550 OA
ATOM     16  O   UNL     1      -4.552   0.525  -1.529  1.00  0.00    -0.550 OA
ENDBRANCH  13  14
ENDBRANCH  12  13
ENDBRANCH  11  12
ENDBRANCH  10  11
ENDBRANCH   9  10
ENDBRANCH   8   9
ENDBRANCH   7   8
ENDBRANCH   6   7
ENDBRANCH   5   6
ENDBRANCH   4   5
ENDBRANCH   3   4
ENDBRANCH   2   3
ENDBRANCH   1   2
BRANCH   1  17
ATOM     17  C   UNL     1      -3.360  12.214  -8.093  1.00  0.00     0.000 C 
BRANCH  17  18
ATOM     18  C   UNL     1      -4.330  11.611  -9.124  1.00  0.00     0.000 C 
BRANCH  18  19
ATOM     19  C   UNL     1      -4.804  10.197  -8.723  1.00  0.00     0.000 C 
BRANCH  19  20
ATOM     20  C   UNL     1      -6.335  10.039  -8.702  1.00  0.00     0.000 C 
BRANCH  20  21
ATOM     21  C   UNL     1      -6.831   9.168  -7.536  1.00  0.00     0.000 C 
BRANCH  21  22
ATOM     22  C   UNL     1      -7.380  10.010  -6.363  1.00  0.00    -0.000 C 
BRANCH  22  23
ATOM     23  C   UNL     1      -8.238   9.202  -5.373  1.00  0.00    -0.000 C 
BRANCH  23  24
ATOM     24  C   UNL     1      -9.681   9.711  -5.207  1.00  0.00    -0.000 C 
BRANCH  24  25
ATOM     25  C   UNL     1      -9.852  11.242  -5.307  1.00  0.00    -0.000 C 
BRANCH  25  26
ATOM     26  C   UNL     1      -9.626  11.842  -6.706  1.00  0.00    -0.000 C 
BRANCH  26  27
ATOM     27  C   UNL     1      -8.767  13.117  -6.682  1.00  0.00    -0.000 C 
BRANCH  27  28
ATOM     28  C   UNL     1      -7.746  13.121  -5.534  1.00  0.00    -0.000 C 
BRANCH  28  29
ATOM     29  C   UNL     1      -6.296  12.969  -6.022  1.00  0.00    -0.003 C 
ATOM     30  C   UNL     1      -5.311  13.061  -4.858  1.00  0.00     0.004 C 
ENDBRANCH  28  29
ENDBRANCH  27  28
ENDBRANCH  26  27
ENDBRANCH  25  26
ENDBRANCH  24  25
ENDBRANCH  23  24
ENDBRANCH  22  23
ENDBRANCH  21  22
ENDBRANCH  20  21
ENDBRANCH  19  20
ENDBRANCH  18  19
ENDBRANCH  17  18
ENDBRANCH   1  17
TORSDOF 26
ENDMDL
MODEL 3
REMARK VINA RESULT:     6.466      2.451      4.231
REMARK INTER + INTRA:          14.384
REMARK INTER:                  14.145
REMARK INTRA:                   0.239
REMARK UNBOUND:                -1.912
REMARK SMILES CCCCCCCCCCCCCCCCCCCCCCCCCCCC(=O)[O-]
REMARK SMILES IDX 15 1 16 2 17 3 18 4 19 5 20 6 21 7 22 8 23 9 24 10 25 11
REMARK SMILES IDX 26 12 27 13 28 14 29 15 30 16 14 17 13 18 12 19 11 20 10 21
REMARK SMILES IDX 9 22 8 23 7 24 6 25 5 26 4 27 3 28 2 29 1 30
REMARK H PARENT
REMARK Flexibility Score: inf
ROOT
ATOM      1  C   UNL     1      -3.877  12.797  -6.663  1.00  0.00     0.000 C 
ENDROOT
BRANCH   1   2
ATOM      2  C   UNL     1      -3.097  11.619  -6.053  1.00  0.00     0.000 C 
BRANCH   2   3
ATOM      3  C   UNL     1      -1.866  11.227  -6.886  1.00  0.00     0.000 C 
BRANCH   3   4
ATOM      4  C   UNL     1      -0.769  10.626  -5.992  1.00  0.00     0.000 C 
BRANCH   4   5
ATOM      5  C   UNL     1      -0.410  11.532  -4.799  1.00  0.00     0.000 C 
BRANCH   5   6
ATOM      6  C   UNL     1      -0.339  10.816  -3.436  1.00  0.00     0.000 C 
BRANCH   6   7
ATOM      7  C   UNL     1      -1.418   9.726  -3.248  1.00  0.00     0.000 C 
BRANCH   7   8
ATOM      8  C   UNL     1      -2.776  10.138  -3.849  1.00  0.00     0.000 C 
BRANCH   8   9
ATOM      9  C   UNL     1      -3.933   9.250  -3.337  1.00  0.00     0.000 C 
BRANCH   9  10
ATOM     10  C   UNL     1      -3.534   8.325  -2.176  1.00  0.00     0.000 C 
BRANCH  10  11
ATOM     11  C   UNL     1      -4.619   7.286  -1.848  1.00  0.00     0.000 C 
BRANCH  11  12
ATOM     12  C   UNL     1      -4.049   6.011  -1.204  1.00  0.00     0.006 C 
BRANCH  12  13
ATOM     13  C   UNL     1      -2.527   5.889  -1.360  1.00  0.00     0.053 C 
BRANCH  13  14
ATOM     14  C   UNL     1      -2.143   4.550  -1.914  1.00  0.00     0.041 C 
ATOM     15  O   UNL     1      -0.946   4.313  -2.230  1.00  0.00    -0.550 OA
ATOM     16  O   UNL     1      -3.114   3.576  -2.114  1.00  0.00    -0.550 OA
ENDBRANCH  13  14
ENDBRANCH  12  13
ENDBRANCH  11  12
ENDBRANCH  10  11
ENDBRANCH   9  10
ENDBRANCH   8   9
ENDBRANCH   7   8
ENDBRANCH   6   7
ENDBRANCH   5   6
ENDBRANCH   4   5
ENDBRANCH   3   4
ENDBRANCH   2   3
ENDBRANCH   1   2
BRANCH   1  17
ATOM     17  C   UNL     1      -3.855  12.852  -8.202  1.00  0.00     0.000 C 
BRANCH  17  18
ATOM     18  C   UNL     1      -3.284  11.572  -8.839  1.00  0.00     0.000 C 
BRANCH  18  19
ATOM     19  C   UNL     1      -4.377  10.518  -9.116  1.00  0.00     0.000 C 
BRANCH  19  20
ATOM     20  C   UNL     1      -4.610   9.544  -7.948  1.00  0.00     0.000 C 
BRANCH  20  21
ATOM     21  C   UNL     1      -6.096   9.214  -7.730  1.00  0.00     0.000 C 
BRANCH  21  22
ATOM     22  C   UNL     1      -7.033  10.203  -8.457  1.00  0.00    -0.000 C 
BRANCH  22  23
ATOM     23  C   UNL     1      -7.372  11.455  -7.626  1.00  0.00    -0.000 C 
BRANCH  23  24
ATOM     24  C   UNL     1      -7.749  11.172  -6.161  1.00  0.00    -0.000 C 
BRANCH  24  25
ATOM     25  C   UNL     1      -9.160  11.641  -5.745  1.00  0.00    -0.000 C 
BRANCH  25  26
ATOM     26  C   UNL     1     -10.123  10.526  -5.301  1.00  0.00    -0.000 C 
BRANCH  26  27
ATOM     27  C   UNL     1      -9.447   9.462  -4.420  1.00  0.00    -0.000 C 
BRANCH  27  28
ATOM     28  C   UNL     1      -9.140   8.167  -5.186  1.00  0.00    -0.000 C 
BRANCH  28  29
ATOM     29  C   UNL     1      -9.917   8.054  -6.508  1.00  0.00    -0.003 C 
ATOM     30  C   UNL     1      -9.407   6.885  -7.348  1.00  0.00     0.004 C 
ENDBRANCH  28  29
ENDBRANCH  27  28
ENDBRANCH  26  27
ENDBRANCH  25  26
ENDBRANCH  24  25
ENDBRANCH  23  24
ENDBRANCH  22  23
ENDBRANCH  21  22
ENDBRANCH  20  21
ENDBRANCH  19  20
ENDBRANCH  18  19
ENDBRANCH  17  18
ENDBRANCH   1  17
TORSDOF 26
ENDMDL
MODEL 4
REMARK VINA RESULT:     6.537      2.497      4.562
REMARK INTER + INTRA:          14.562
REMARK INTER:                  13.955
REMARK INTRA:                   0.607
REMARK UNBOUND:                -1.912
REMARK SMILES CCCCCCCCCCCCCCCCCCCCCCCCCCCC(=O)[O-]
REMARK SMILES IDX 15 1 16 2 17 3 18 4 19 5 20 6 21 7 22 8 23 9 24 10 25 11
REMARK SMILES IDX 26 12 27 13 28 14 29 15 30 16 14 17 13 18 12 19 11 20 10 21
REMARK SMILES IDX 9 22 8 23 7 24 6 25 5 26 4 27 3 28 2 29 1 30
REMARK H PARENT
REMARK Flexibility Score: inf
ROOT
ATOM      1  C   UNL     1      -3.466  12.709  -7.434  1.00  0.00     0.000 C 
ENDROOT
BRANCH   1   2
ATOM      2  C   UNL     1      -2.877  11.708  -6.425  1.00  0.00     0.000 C 
BRANCH   2   3
ATOM      3  C   UNL     1      -1.700  10.906  -7.003  1.00  0.00     0.000 C 
BRANCH   3   4
ATOM      4  C   UNL     1      -0.946  10.162  -5.889  1.00  0.00     0.000 C 
BRANCH   4   5
ATOM      5  C   UNL     1      -0.204  11.115  -4.932  1.00  0.00     0.000 C 
BRANCH   5   6
ATOM      6  C   UNL     1      -0.637  11.021  -3.455  1.00  0.00     0.000 C 
BRANCH   6   7
ATOM      7  C   UNL     1      -1.569   9.827  -3.153  1.00  0.00     0.000 C 
BRANCH   7   8
ATOM      8  C   UNL     1      -2.946   9.975  -3.829  1.00  0.00     0.000 C 
BRANCH   8   9
ATOM      9  C   UNL     1      -3.920   8.847  -3.418  1.00  0.00     0.000 C 
BRANCH   9  10
ATOM     10  C   UNL     1      -3.747   8.382  -1.962  1.00  0.00     0.000 C 
BRANCH  10  11
ATOM     11  C   UNL     1      -4.645   7.184  -1.615  1.00  0.00     0.000 C 
BRANCH  11  12
ATOM     12  C   UNL     1      -3.850   5.968  -1.112  1.00  0.00     0.006 C 
BRANCH  12  13
ATOM     13  C   UNL     1      -2.383   5.981  -1.567  1.00  0.00     0.053 C 
BRANCH  13  14
ATOM     14  C   UNL     1      -1.915   4.605  -1.932  1.00  0.00     0.041 C 
ATOM     15  O   UNL     1      -0.688   4.319  -1.892  1.00  0.00    -0.550 OA
ATOM     16  O   UNL     1      -2.831   3.646  -2.350  1.00  0.00    -0.550 OA
ENDBRANCH  13  14
ENDBRANCH  12  13
ENDBRANCH  11  12
ENDBRANCH  10  11
ENDBRANCH   9  10
ENDBRANCH   8   9
ENDBRANCH   7   8
ENDBRANCH   6   7
ENDBRANCH   5   6
ENDBRANCH   4   5
ENDBRANCH   3   4
ENDBRANCH   2   3
ENDBRANCH   1   2
BRANCH   1  17
ATOM     17  C   UNL     1      -3.687  12.140  -8.848  1.00  0.00     0.000 C 
BRANCH  17  18
ATOM     18  C   UNL     1      -4.823  11.104  -8.906  1.00  0.00     0.000 C 
BRANCH  18  19
ATOM     19  C   UNL     1      -6.155  11.666  -8.362  1.00  0.00     0.000 C 
BRANCH  19  20
ATOM     20  C   UNL     1      -6.437  11.285  -6.898  1.00  0.00     0.000 C 
BRANCH  20  21
ATOM     21  C   UNL     1      -5.778   9.959  -6.487  1.00  0.00     0.000 C 
BRANCH  21  22
ATOM     22  C   UNL     1      -5.660   8.968  -7.665  1.00  0.00    -0.000 C 
BRANCH  22  23
ATOM     23  C   UNL     1      -7.019   8.451  -8.174  1.00  0.00    -0.000 C 
BRANCH  23  24
ATOM     24  C   UNL     1      -8.145   8.460  -7.124  1.00  0.00    -0.000 C 
BRANCH  24  25
ATOM     25  C   UNL     1      -9.001   7.176  -7.069  1.00  0.00    -0.000 C 
BRANCH  25  26
ATOM     26  C   UNL     1      -9.785   6.960  -5.763  1.00  0.00    -0.000 C 
BRANCH  26  27
ATOM     27  C   UNL     1      -9.858   8.223  -4.889  1.00  0.00    -0.000 C 
BRANCH  27  28
ATOM     28  C   UNL     1     -10.125   9.495  -5.709  1.00  0.00    -0.000 C 
BRANCH  28  29
ATOM     29  C   UNL     1      -9.912  10.784  -4.899  1.00  0.00    -0.003 C 
ATOM     30  C   UNL     1      -9.640  11.973  -5.819  1.00  0.00     0.004 C 
ENDBRANCH  28  29
ENDBRANCH  27  28
ENDBRANCH  26  27
ENDBRANCH  25  26
ENDBRANCH  24  25
ENDBRANCH  23  24
ENDBRANCH  22  23
ENDBRANCH  21  22
ENDBRANCH  20  21
ENDBRANCH  19  20
ENDBRANCH  18  19
ENDBRANCH  17  18
ENDBRANCH   1  17
TORSDOF 26
ENDMDL
MODEL 5
REMARK VINA RESULT:     7.220     14.072     17.216
REMARK INTER + INTRA:          16.282
REMARK INTER:                  17.261
REMARK INTRA:                  -0.979
REMARK UNBOUND:                -1.912
REMARK SMILES CCCCCCCCCCCCCCCCCCCCCCCCCCCC(=O)[O-]
REMARK SMILES IDX 15 1 16 2 17 3 18 4 19 5 20 6 21 7 22 8 23 9 24 10 25 11
REMARK SMILES IDX 26 12 27 13 28 14 29 15 30 16 14 17 13 18 12 19 11 20 10 21
REMARK SMILES IDX 9 22 8 23 7 24 6 25 5 26 4 27 3 28 2 29 1 30
REMARK H PARENT
REMARK Flexibility Score: inf
ROOT
ATOM      1  C   UNL     1       5.094  11.193   7.635  1.00  0.00     0.000 C 
ENDROOT
BRANCH   1   2
ATOM      2  C   UNL     1       4.798  12.638   8.073  1.00  0.00     0.000 C 
BRANCH   2   3
ATOM      3  C   UNL     1       5.073  12.872   9.568  1.00  0.00     0.000 C 
BRANCH   3   4
ATOM      4  C   UNL     1       3.762  13.122  10.332  1.00  0.00     0.000 C 
BRANCH   4   5
ATOM      5  C   UNL     1       2.525  13.110   9.414  1.00  0.00     0.000 C 
BRANCH   5   6
ATOM      6  C   UNL     1       1.631  11.860   9.544  1.00  0.00     0.000 C 
BRANCH   6   7
ATOM      7  C   UNL     1       1.494  11.340  10.992  1.00  0.00     0.000 C 
BRANCH   7   8
ATOM      8  C   UNL     1       1.196   9.829  11.044  1.00  0.00     0.000 C 
BRANCH   8   9
ATOM      9  C   UNL     1       2.009   9.038   9.994  1.00  0.00     0.000 C 
BRANCH   9  10
ATOM     10  C   UNL     1       3.513   8.962  10.308  1.00  0.00     0.000 C 
BRANCH  10  11
ATOM     11  C   UNL     1       4.226   7.855   9.514  1.00  0.00     0.000 C 
BRANCH  11  12
ATOM     12  C   UNL     1       3.337   7.237   8.422  1.00  0.00     0.006 C 
BRANCH  12  13
ATOM     13  C   UNL     1       3.303   5.703   8.475  1.00  0.00     0.053 C 
BRANCH  13  14
ATOM     14  C   UNL     1       4.327   5.169   9.431  1.00  0.00     0.041 C 
ATOM     15  O   UNL     1       3.986   4.805  10.589  1.00  0.00    -0.550 OA
ATOM     16  O   UNL     1       5.664   5.106   9.056  1.00  0.00    -0.550 OA
ENDBRANCH  13  14
ENDBRANCH  12  13
ENDBRANCH  11  12
ENDBRANCH  10  11
ENDBRANCH   9  10
ENDBRANCH   8   9
ENDBRANCH   7   8
ENDBRANCH   6   7
ENDBRANCH   5   6
ENDBRANCH   4   5
ENDBRANCH   3   4
ENDBRANCH   2   3
ENDBRANCH   1   2
BRANCH   1  17
ATOM     17  C   UNL     1       6.274  10.529   8.370  1.00  0.00     0.000 C 
BRANCH  17  18
ATOM     18  C   UNL     1       7.624  10.761   7.669  1.00  0.00     0.000 C 
BRANCH  18  19
ATOM     19  C   UNL     1       8.183  12.176   7.933  1.00  0.00     0.000 C 
BRANCH  19  20
ATOM     20  C   UNL     1       9.659  12.345   7.531  1.00  0.00     0.000 C 
BRANCH  20  21
ATOM     21  C   UNL     1       9.956  11.833   6.112  1.00  0.00     0.000 C 
BRANCH  21  22
ATOM     22  C   UNL     1      10.124  12.981   5.094  1.00  0.00    -0.000 C 
BRANCH  22  23
ATOM     23  C   UNL     1       9.049  12.989   3.990  1.00  0.00    -0.000 C 
BRANCH  23  24
ATOM     24  C   UNL     1       7.605  12.818   4.497  1.00  0.00    -0.000 C 
BRANCH  24  25
ATOM     25  C   UNL     1       7.166  11.359   4.745  1.00  0.00    -0.000 C 
BRANCH  25  26
ATOM     26  C   UNL     1       5.813  10.962   4.131  1.00  0.00    -0.000 C 
BRANCH  26  27
ATOM     27  C   UNL     1       4.712  10.755   5.185  1.00  0.00    -0.000 C 
BRANCH  27  28
ATOM     28  C   UNL     1       3.325  11.187   4.684  1.00  0.00    -0.000 C 
BRANCH  28  29
ATOM     29  C   UNL     1       2.195  10.274   5.189  1.00  0.00    -0.003 C 
ATOM     30  C   UNL     1       2.343   9.990   6.682  1.00  0.00     0.004 C 
ENDBRANCH  28  29
ENDBRANCH  27  28
ENDBRANCH  26  27
ENDBRANCH  25  26
ENDBRANCH  24  25
ENDBRANCH  23  24
ENDBRANCH  22  23
ENDBRANCH  21  22
ENDBRANCH  20  21
ENDBRANCH  19  20
ENDBRANCH  18  19
ENDBRANCH  17  18
ENDBRANCH   1  17
TORSDOF 26
ENDMDL
MODEL 6
REMARK VINA RESULT:     7.591     14.318     17.565
REMARK INTER + INTRA:          17.217
REMARK INTER:                  12.215
REMARK INTRA:                   5.003
REMARK UNBOUND:                -1.912
REMARK SMILES CCCCCCCCCCCCCCCCCCCCCCCCCCCC(=O)[O-]
REMARK SMILES IDX 15 1 16 2 17 3 18 4 19 5 20 6 21 7 22 8 23 9 24 10 25 11
REMARK SMILES IDX 26 12 27 13 28 14 29 15 30 16 14 17 13 18 12 19 11 20 10 21
REMARK SMILES IDX 9 22 8 23 7 24 6 25 5 26 4 27 3 28 2 29 1 30
REMARK H PARENT
REMARK Flexibility Score: inf
ROOT
ATOM      1  C   UNL     1       3.585   9.714   9.893  1.00  0.00     0.000 C 
ENDROOT
BRANCH   1   2
ATOM      2  C   UNL     1       3.833   8.251   9.483  1.00  0.00     0.000 C 
BRANCH   2   3
ATOM      3  C   UNL     1       2.559   7.552   8.981  1.00  0.00     0.000 C 
BRANCH   3   4
ATOM      4  C   UNL     1       2.183   8.048   7.575  1.00  0.00     0.000 C 
BRANCH   4   5
ATOM      5  C   UNL     1       3.139   9.134   7.049  1.00  0.00     0.000 C 
BRANCH   5   6
ATOM      6  C   UNL     1       2.607   9.947   5.852  1.00  0.00     0.000 C 
BRANCH   6   7
ATOM      7  C   UNL     1       2.089  11.351   6.234  1.00  0.00     0.000 C 
BRANCH   7   8
ATOM      8  C   UNL     1       1.477  11.384   7.648  1.00  0.00     0.000 C 
BRANCH   8   9
ATOM      9  C   UNL     1       2.427  12.035   8.679  1.00  0.00     0.000 C 
BRANCH   9  10
ATOM     10  C   UNL     1       1.738  12.405  10.004  1.00  0.00     0.000 C 
BRANCH  10  11
ATOM     11  C   UNL     1       0.226  12.130   9.980  1.00  0.00     0.000 C 
BRANCH  11  12
ATOM     12  C   UNL     1      -0.547  13.124   9.097  1.00  0.00     0.006 C 
BRANCH  12  13
ATOM     13  C   UNL     1      -2.065  13.071   9.323  1.00  0.00     0.053 C 
BRANCH  13  14
ATOM     14  C   UNL     1      -2.765  12.426   8.165  1.00  0.00     0.041 C 
ATOM     15  O   UNL     1      -3.983  12.662   7.947  1.00  0.00    -0.550 OA
ATOM     16  O   UNL     1      -2.079  11.535   7.347  1.00  0.00    -0.550 OA
ENDBRANCH  13  14
ENDBRANCH  12  13
ENDBRANCH  11  12
ENDBRANCH  10  11
ENDBRANCH   9  10
ENDBRANCH   8   9
ENDBRANCH   7   8
ENDBRANCH   6   7
ENDBRANCH   5   6
ENDBRANCH   4   5
ENDBRANCH   3   4
ENDBRANCH   2   3
ENDBRANCH   1   2
BRANCH   1  17
ATOM     17  C   UNL     1       4.857  10.574  10.005  1.00  0.00     0.000 C 
BRANCH  17  18
ATOM     18  C   UNL     1       5.432  10.975   8.634  1.00  0.00     0.000 C 
BRANCH  18  19
ATOM     19  C   UNL     1       6.866  10.445   8.424  1.00  0.00     0.000 C 
BRANCH  19  20
ATOM     20  C   UNL     1       7.921  11.555   8.269  1.00  0.00     0.000 C 
BRANCH  20  21
ATOM     21  C   UNL     1       7.453  12.909   8.825  1.00  0.00     0.000 C 
BRANCH  21  22
ATOM     22  C   UNL     1       5.926  13.102   8.699  1.00  0.00    -0.000 C 
BRANCH  22  23
ATOM     23  C   UNL     1       5.342  12.553   7.384  1.00  0.00    -0.000 C 
BRANCH  23  24
ATOM     24  C   UNL     1       5.997  13.111   6.107  1.00  0.00    -0.000 C 
BRANCH  24  25
ATOM     25  C   UNL     1       5.583  12.406   4.797  1.00  0.00    -0.000 C 
BRANCH  25  26
ATOM     26  C   UNL     1       6.218  11.024   4.561  1.00  0.00    -0.000 C 
BRANCH  26  27
ATOM     27  C   UNL     1       7.734  11.008   4.814  1.00  0.00    -0.000 C 
BRANCH  27  28
ATOM     28  C   UNL     1       8.517  11.817   3.768  1.00  0.00    -0.000 C 
BRANCH  28  29
ATOM     29  C   UNL     1       9.094  13.125   4.333  1.00  0.00    -0.003 C 
ATOM     30  C   UNL     1      10.051  12.849   5.492  1.00  0.00     0.004 C 
ENDBRANCH  28  29
ENDBRANCH  27  28
ENDBRANCH  26  27
ENDBRANCH  25  26
ENDBRANCH  24  25
ENDBRANCH  23  24
ENDBRANCH  22  23
ENDBRANCH  21  22
ENDBRANCH  20  21
ENDBRANCH  19  20
ENDBRANCH  18  19
ENDBRANCH  17  18
ENDBRANCH   1  17
TORSDOF 26
ENDMDL
MODEL 7
REMARK VINA RESULT:     8.027      9.573     14.314
REMARK INTER + INTRA:          18.317
REMARK INTER:                  19.881
REMARK INTRA:                  -1.564
REMARK UNBOUND:                -1.912
REMARK SMILES CCCCCCCCCCCCCCCCCCCCCCCCCCCC(=O)[O-]
REMARK SMILES IDX 15 1 16 2 17 3 18 4 19 5 20 6 21 7 22 8 23 9 24 10 25 11
REMARK SMILES IDX 26 12 27 13 28 14 29 15 30 16 14 17 13 18 12 19 11 20 10 21
REMARK SMILES IDX 9 22 8 23 7 24 6 25 5 26 4 27 3 28 2 29 1 30
REMARK H PARENT
REMARK Flexibility Score: inf
ROOT
ATOM      1  C   UNL     1       4.892  11.016   0.479  1.00  0.00     0.000 C 
ENDROOT
BRANCH   1   2
ATOM      2  C   UNL     1       3.698  10.991  -0.492  1.00  0.00     0.000 C 
BRANCH   2   3
ATOM      3  C   UNL     1       3.534  12.311  -1.263  1.00  0.00     0.000 C 
BRANCH   3   4
ATOM      4  C   UNL     1       3.096  12.046  -2.713  1.00  0.00     0.000 C 
BRANCH   4   5
ATOM      5  C   UNL     1       1.592  12.289  -2.936  1.00  0.00     0.000 C 
BRANCH   5   6
ATOM      6  C   UNL     1       1.065  11.879  -4.326  1.00  0.00     0.000 C 
BRANCH   6   7
ATOM      7  C   UNL     1      -0.281  11.121  -4.282  1.00  0.00     0.000 C 
BRANCH   7   8
ATOM      8  C   UNL     1      -0.813  10.794  -5.691  1.00  0.00     0.000 C 
BRANCH   8   9
ATOM      9  C   UNL     1      -2.335  11.038  -5.810  1.00  0.00     0.000 C 
BRANCH   9  10
ATOM     10  C   UNL     1      -2.732  11.865  -7.044  1.00  0.00     0.000 C 
BRANCH  10  11
ATOM     11  C   UNL     1      -4.134  11.511  -7.565  1.00  0.00     0.000 C 
BRANCH  11  12
ATOM     12  C   UNL     1      -5.112  11.135  -6.440  1.00  0.00     0.006 C 
BRANCH  12  13
ATOM     13  C   UNL     1      -5.929   9.872  -6.753  1.00  0.00     0.053 C 
BRANCH  13  14
ATOM     14  C   UNL     1      -7.383  10.077  -6.453  1.00  0.00     0.041 C 
ATOM     15  O   UNL     1      -7.873  11.238  -6.449  1.00  0.00    -0.550 OA
ATOM     16  O   UNL     1      -8.191   8.988  -6.145  1.00  0.00    -0.550 OA
ENDBRANCH  13  14
ENDBRANCH  12  13
ENDBRANCH  11  12
ENDBRANCH  10  11
ENDBRANCH   9  10
ENDBRANCH   8   9
ENDBRANCH   7   8
ENDBRANCH   6   7
ENDBRANCH   5   6
ENDBRANCH   4   5
ENDBRANCH   3   4
ENDBRANCH   2   3
ENDBRANCH   1   2
BRANCH   1  17
ATOM     17  C   UNL     1       4.518  10.834   1.961  1.00  0.00     0.000 C 
BRANCH  17  18
ATOM     18  C   UNL     1       5.739  10.882   2.897  1.00  0.00     0.000 C 
BRANCH  18  19
ATOM     19  C   UNL     1       5.370  11.376   4.313  1.00  0.00     0.000 C 
BRANCH  19  20
ATOM     20  C   UNL     1       6.060  12.693   4.710  1.00  0.00     0.000 C 
BRANCH  20  21
ATOM     21  C   UNL     1       7.575  12.679   4.450  1.00  0.00     0.000 C 
BRANCH  21  22
ATOM     22  C   UNL     1       8.281  11.494   5.145  1.00  0.00    -0.000 C 
BRANCH  22  23
ATOM     23  C   UNL     1       9.250  11.924   6.263  1.00  0.00    -0.000 C 
BRANCH  23  24
ATOM     24  C   UNL     1       8.778  11.585   7.689  1.00  0.00    -0.000 C 
BRANCH  24  25
ATOM     25  C   UNL     1       7.275  11.263   7.823  1.00  0.00    -0.000 C 
BRANCH  25  26
ATOM     26  C   UNL     1       6.429  12.335   8.532  1.00  0.00    -0.000 C 
BRANCH  26  27
ATOM     27  C   UNL     1       5.325  11.738   9.421  1.00  0.00    -0.000 C 
BRANCH  27  28
ATOM     28  C   UNL     1       3.965  11.668   8.709  1.00  0.00    -0.000 C 
BRANCH  28  29
ATOM     29  C   UNL     1       3.441  10.230   8.560  1.00  0.00    -0.003 C 
ATOM     30  C   UNL     1       4.254   9.453   7.526  1.00  0.00     0.004 C 
ENDBRANCH  28  29
ENDBRANCH  27  28
ENDBRANCH  26  27
ENDBRANCH  25  26
ENDBRANCH  24  25
ENDBRANCH  23  24
ENDBRANCH  22  23
ENDBRANCH  21  22
ENDBRANCH  20  21
ENDBRANCH  19  20
ENDBRANCH  18  19
ENDBRANCH  17  18
ENDBRANCH   1  17
TORSDOF 26
ENDMDL
