MODEL 1
REMARK VINA RESULT:    -3.241      0.000      0.000
REMARK INTER + INTRA:          -3.924
REMARK INTER:                  -3.809
REMARK INTRA:                  -0.116
REMARK UNBOUND:                -0.116
REMARK SMILES CCCCC(=O)[O-]
REMARK SMILES IDX 4 1 5 2 6 3 7 4 3 5 2 6 1 7
REMARK H PARENT
REMARK Flexibility Score: inf
ROOT
ATOM      1  C   UNL     1      16.464 -21.461  22.786  1.00  0.00     0.053 C 
ENDROOT
BRANCH   1   2
ATOM      2  C   UNL     1      15.742 -21.011  24.017  1.00  0.00     0.041 C 
ATOM      3  O   UNL     1      14.790 -20.192  23.929  1.00  0.00    -0.550 OA
ATOM      4  O   UNL     1      16.088 -21.534  25.257  1.00  0.00    -0.550 OA
ENDBRANCH   1   2
BRANCH   1   5
ATOM      5  C   UNL     1      15.511 -21.479  21.583  1.00  0.00     0.006 C 
BRANCH   5   6
ATOM      6  C   UNL     1      14.778 -22.821  21.432  1.00  0.00    -0.003 C 
ATOM      7  C   UNL     1      13.288 -22.722  21.756  1.00  0.00     0.004 C 
ENDBRANCH   5   6
ENDBRANCH   1   5
TORSDOF 3
ENDMDL
MODEL 2
REMARK VINA RESULT:    -3.197      2.531      3.651
REMARK INTER + INTRA:          -3.873
REMARK INTER:                  -3.838
REMARK INTRA:                  -0.035
REMARK UNBOUND:                -0.116
REMARK SMILES CCCCC(=O)[O-]
REMARK SMILES IDX 4 1 5 2 6 3 7 4 3 5 2 6 1 7
REMARK H PARENT
REMARK Flexibility Score: inf
ROOT
ATOM      1  C   UNL     1      14.486 -21.838  22.628  1.00  0.00     0.053 C 
ENDROOT
BRANCH   1   2
ATOM      2  C   UNL     1      13.462 -22.622  21.868  1.00  0.00     0.041 C 
ATOM      3  O   UNL     1      13.794 -23.671  21.256  1.00  0.00    -0.550 OA
ATOM      4  O   UNL     1      12.132 -22.222  21.878  1.00  0.00    -0.550 OA
ENDBRANCH   1   2
BRANCH   1   5
ATOM      5  C   UNL     1      15.840 -21.889  21.908  1.00  0.00     0.006 C 
BRANCH   5   6
ATOM      6  C   UNL     1      16.972 -21.265  22.739  1.00  0.00    -0.003 C 
ATOM      7  C   UNL     1      16.646 -21.204  24.231  1.00  0.00     0.004 C 
ENDBRANCH   5   6
ENDBRANCH   1   5
TORSDOF 3
ENDMDL
MODEL 3
REMARK VINA RESULT:    -3.167      1.472      1.896
REMARK INTER + INTRA:          -3.838
REMARK INTER:                  -3.735
REMARK INTRA:                  -0.104
REMARK UNBOUND:                -0.116
REMARK SMILES CCCCC(=O)[O-]
REMARK SMILES IDX 4 1 5 2 6 3 7 4 3 5 2 6 1 7
REMARK H PARENT
REMARK Flexibility Score: inf
ROOT
ATOM      1  C   UNL     1      14.058 -21.399  22.421  1.00  0.00     0.053 C 
ENDROOT
BRANCH   1   2
ATOM      2  C   UNL     1      15.264 -21.317  23.302  1.00  0.00     0.041 C 
ATOM      3  O   UNL     1      16.418 -21.323  22.798  1.00  0.00    -0.550 OA
ATOM      4  O   UNL     1      15.114 -21.184  24.677  1.00  0.00    -0.550 OA
ENDBRANCH   1   2
BRANCH   1   5
ATOM      5  C   UNL     1      13.718 -22.863  22.113  1.00  0.00     0.006 C 
BRANCH   5   6
ATOM      6  C   UNL     1      14.275 -23.324  20.757  1.00  0.00    -0.003 C 
ATOM      7  C   UNL     1      14.255 -22.219  19.702  1.00  0.00     0.004 C 
ENDBRANCH   5   6
ENDBRANCH   1   5
TORSDOF 3
ENDMDL
MODEL 4
REMARK VINA RESULT:    -3.097      2.374      3.553
REMARK INTER + INTRA:          -3.756
REMARK INTER:                  -3.666
REMARK INTRA:                  -0.090
REMARK UNBOUND:                -0.116
REMARK SMILES CCCCC(=O)[O-]
REMARK SMILES IDX 4 1 5 2 6 3 7 4 3 5 2 6 1 7
REMARK H PARENT
REMARK Flexibility Score: inf
ROOT
ATOM      1  C   UNL     1      15.413 -22.252  21.843  1.00  0.00     0.053 C 
ENDROOT
BRANCH   1   2
ATOM      2  C   UNL     1      14.600 -21.595  20.773  1.00  0.00     0.041 C 
ATOM      3  O   UNL     1      14.229 -20.399  20.902  1.00  0.00    -0.550 OA
ATOM      4  O   UNL     1      14.293 -22.289  19.608  1.00  0.00    -0.550 OA
ENDBRANCH   1   2
BRANCH   1   5
ATOM      5  C   UNL     1      16.640 -21.396  22.183  1.00  0.00     0.006 C 
BRANCH   5   6
ATOM      6  C   UNL     1      16.862 -21.259  23.697  1.00  0.00    -0.003 C 
ATOM      7  C   UNL     1      15.554 -21.238  24.487  1.00  0.00     0.004 C 
ENDBRANCH   5   6
ENDBRANCH   1   5
TORSDOF 3
ENDMDL
MODEL 5
REMARK VINA RESULT:    -2.920      2.156      3.557
REMARK INTER + INTRA:          -3.548
REMARK INTER:                  -3.518
REMARK INTRA:                  -0.030
REMARK UNBOUND:                -0.116
REMARK SMILES CCCCC(=O)[O-]
REMARK SMILES IDX 4 1 5 2 6 3 7 4 3 5 2 6 1 7
REMARK H PARENT
REMARK Flexibility Score: inf
ROOT
ATOM      1  C   UNL     1      13.721 -22.063  22.026  1.00  0.00     0.053 C 
ENDROOT
BRANCH   1   2
ATOM      2  C   UNL     1      12.518 -21.217  22.300  1.00  0.00     0.041 C 
ATOM      3  O   UNL     1      12.653 -20.063  22.788  1.00  0.00    -0.550 OA
ATOM      4  O   UNL     1      11.251 -21.680  21.970  1.00  0.00    -0.550 OA
ENDBRANCH   1   2
BRANCH   1   5
ATOM      5  C   UNL     1      14.924 -21.562  22.836  1.00  0.00     0.006 C 
BRANCH   5   6
ATOM      6  C   UNL     1      16.256 -21.760  22.096  1.00  0.00    -0.003 C 
ATOM      7  C   UNL     1      17.425 -21.058  22.786  1.00  0.00     0.004 C 
ENDBRANCH   5   6
ENDBRANCH   1   5
TORSDOF 3
ENDMDL
MODEL 6
REMARK VINA RESULT:    -2.884      2.177      2.937
REMARK INTER + INTRA:          -3.506
REMARK INTER:                  -3.415
REMARK INTRA:                  -0.091
REMARK UNBOUND:                -0.116
REMARK SMILES CCCCC(=O)[O-]
REMARK SMILES IDX 4 1 5 2 6 3 7 4 3 5 2 6 1 7
REMARK H PARENT
REMARK Flexibility Score: inf
ROOT
ATOM      1  C   UNL     1      14.536 -21.902  22.723  1.00  0.00     0.053 C 
ENDROOT
BRANCH   1   2
ATOM      2  C   UNL     1      15.729 -21.570  21.884  1.00  0.00     0.041 C 
ATOM      3  O   UNL     1      16.888 -21.649  22.370  1.00  0.00    -0.550 OA
ATOM      4  O   UNL     1      15.565 -21.220  20.549  1.00  0.00    -0.550 OA
ENDBRANCH   1   2
BRANCH   1   5
ATOM      5  C   UNL     1      13.485 -22.645  21.888  1.00  0.00     0.006 C 
BRANCH   5   6
ATOM      6  C   UNL     1      12.127 -21.926  21.876  1.00  0.00    -0.003 C 
ATOM      7  C   UNL     1      12.241 -20.441  22.220  1.00  0.00     0.004 C 
ENDBRANCH   5   6
ENDBRANCH   1   5
TORSDOF 3
ENDMDL
MODEL 7
REMARK VINA RESULT:    -2.881      2.229      2.893
REMARK INTER + INTRA:          -3.502
REMARK INTER:                  -3.378
REMARK INTRA:                  -0.125
REMARK UNBOUND:                -0.116
REMARK SMILES CCCCC(=O)[O-]
REMARK SMILES IDX 4 1 5 2 6 3 7 4 3 5 2 6 1 7
REMARK H PARENT
REMARK Flexibility Score: inf
ROOT
ATOM      1  C   UNL     1      15.377 -21.810  22.805  1.00  0.00     0.053 C 
ENDROOT
BRANCH   1   2
ATOM      2  C   UNL     1      16.449 -21.045  22.096  1.00  0.00     0.041 C 
ATOM      3  O   UNL     1      16.195 -20.451  21.015  1.00  0.00    -0.550 OA
ATOM      4  O   UNL     1      17.718 -20.946  22.653  1.00  0.00    -0.550 OA
ENDBRANCH   1   2
BRANCH   1   5
ATOM      5  C   UNL     1      15.109 -21.200  24.187  1.00  0.00     0.006 C 
BRANCH   5   6
ATOM      6  C   UNL     1      14.331 -19.878  24.106  1.00  0.00    -0.003 C 
ATOM      7  C   UNL     1      13.074 -19.982  23.244  1.00  0.00     0.004 C 
ENDBRANCH   5   6
ENDBRANCH   1   5
TORSDOF 3
ENDMDL
MODEL 8
REMARK VINA RESULT:    -2.879      2.204      2.787
REMARK INTER + INTRA:          -3.500
REMARK INTER:                  -3.382
REMARK INTRA:                  -0.117
REMARK UNBOUND:                -0.116
REMARK SMILES CCCCC(=O)[O-]
REMARK SMILES IDX 4 1 5 2 6 3 7 4 3 5 2 6 1 7
REMARK H PARENT
REMARK Flexibility Score: inf
ROOT
ATOM      1  C   UNL     1      15.718 -21.403  22.186  1.00  0.00     0.053 C 
ENDROOT
BRANCH   1   2
ATOM      2  C   UNL     1      15.437 -20.364  21.148  1.00  0.00     0.041 C 
ATOM      3  O   UNL     1      14.886 -19.278  21.471  1.00  0.00    -0.550 OA
ATOM      4  O   UNL     1      15.829 -20.571  19.831  1.00  0.00    -0.550 OA
ENDBRANCH   1   2
BRANCH   1   5
ATOM      5  C   UNL     1      14.413 -22.065  22.648  1.00  0.00     0.006 C 
BRANCH   5   6
ATOM      6  C   UNL     1      13.695 -22.808  21.511  1.00  0.00    -0.003 C 
ATOM      7  C   UNL     1      14.378 -24.125  21.141  1.00  0.00     0.004 C 
ENDBRANCH   5   6
ENDBRANCH   1   5
TORSDOF 3
ENDMDL
MODEL 9
REMARK VINA RESULT:    -2.698      2.980      4.006
REMARK INTER + INTRA:          -3.287
REMARK INTER:                  -3.206
REMARK INTRA:                  -0.081
REMARK UNBOUND:                -0.116
REMARK SMILES CCCCC(=O)[O-]
REMARK SMILES IDX 4 1 5 2 6 3 7 4 3 5 2 6 1 7
REMARK H PARENT
REMARK Flexibility Score: inf
ROOT
ATOM      1  C   UNL     1      12.952 -22.201  21.889  1.00  0.00     0.053 C 
ENDROOT
BRANCH   1   2
ATOM      2  C   UNL     1      13.889 -22.965  21.008  1.00  0.00     0.041 C 
ATOM      3  O   UNL     1      14.259 -24.125  21.331  1.00  0.00    -0.550 OA
ATOM      4  O   UNL     1      14.316 -22.417  19.804  1.00  0.00    -0.550 OA
ENDBRANCH   1   2
BRANCH   1   5
ATOM      5  C   UNL     1      13.200 -20.693  21.753  1.00  0.00     0.006 C 
BRANCH   5   6
ATOM      6  C   UNL     1      14.370 -20.207  22.622  1.00  0.00    -0.003 C 
ATOM      7  C   UNL     1      14.101 -20.369  24.118  1.00  0.00     0.004 C 
ENDBRANCH   5   6
ENDBRANCH   1   5
TORSDOF 3
ENDMDL
