MODEL 1
REMARK VINA RESULT:    -5.879      0.000      0.000
REMARK INTER + INTRA:          -6.325
REMARK INTER:                  -6.394
REMARK INTRA:                   0.069
REMARK UNBOUND:                 0.069
REMARK SMILES C[C@@H]1[C@H](C)CC[C@@]2(C(=O)[O-])CC[C@]3(C)C(=CC[C@@H]4[C@]5(C)CC[C@@H](O)C(C)(C)[C@@H]5CC[C@@]43C)[C@@H]12
REMARK SMILES IDX 7 1 6 2 11 3 33 4 5 5 12 6 15 7 2 8 3 9 13 10 16 11 1 12
REMARK SMILES IDX 4 13 14 14 31 15 17 16 18 17 30 18 32 19 19 20 29 21 28 22
REMARK SMILES IDX 21 23 20 24 25 25 22 26 23 27 26 28 27 29 8 30 9 31 10 32
REMARK SMILES IDX 24 33
REMARK H PARENT 24 34
REMARK Flexibility Score: inf
ROOT
ATOM      1  C   UNL     1      69.410  97.571  10.111  1.00  0.00     0.017 C 
ATOM      2  C   UNL     1      69.759  98.392   8.837  1.00  0.00     0.014 C 
ATOM      3  C   UNL     1      70.453  97.919  11.229  1.00  0.00     0.014 C 
ATOM      4  C   UNL     1      67.913  97.876  10.541  1.00  0.00     0.030 C 
ATOM      5  C   UNL     1      68.808  98.103   7.670  1.00  0.00     0.004 C 
ATOM      6  C   UNL     1      70.202  99.224  12.015  1.00  0.00     0.013 C 
ATOM      7  C   UNL     1      67.848  99.213  11.310  1.00  0.00    -0.063 C 
ATOM      8  C   UNL     1      66.890  97.731   9.346  1.00  0.00    -0.003 C 
ATOM      9  C   UNL     1      67.366  98.461   8.045  1.00  0.00    -0.011 C 
ATOM     10  C   UNL     1      68.750  99.368  12.542  1.00  0.00    -0.006 C 
ATOM     11  C   UNL     1      67.298 100.316  10.768  1.00  0.00    -0.027 C 
ATOM     12  C   UNL     1      66.516  96.253   9.087  1.00  0.00     0.008 C 
ATOM     13  C   UNL     1      66.423  98.239   6.852  1.00  0.00     0.008 C 
ATOM     14  C   UNL     1      68.434  98.174  13.518  1.00  0.00     0.017 C 
ATOM     15  C   UNL     1      68.496 100.786  13.298  1.00  0.00    -0.020 C 
ATOM     16  C   UNL     1      68.037 101.608  10.846  1.00  0.00     0.032 C 
ATOM     17  C   UNL     1      68.380 102.042  12.293  1.00  0.00     0.006 C 
ATOM     18  C   UNL     1      69.537 101.030  14.438  1.00  0.00     0.008 C 
ATOM     19  C   UNL     1      67.112 100.686  14.042  1.00  0.00     0.012 C 
ATOM     20  C   UNL     1      69.433 103.278  12.341  1.00  0.00    -0.025 C 
ATOM     21  C   UNL     1      70.696 101.932  14.074  1.00  0.00     0.005 C 
ATOM     22  C   UNL     1      70.194 103.352  13.725  1.00  0.00     0.003 C 
ATOM     23  C   UNL     1      70.494 103.208  11.188  1.00  0.00     0.010 C 
ATOM     24  C   UNL     1      68.580 104.573  12.117  1.00  0.00     0.012 C 
ATOM     25  C   UNL     1      71.366 104.434  13.813  1.00  0.00    -0.006 C 
ATOM     26  C   UNL     1      71.615 104.256  11.259  1.00  0.00     0.033 C 
ATOM     27  C   UNL     1      72.340 104.260  12.612  1.00  0.00     0.120 C 
ATOM     28  C   UNL     1      70.800 105.888  13.875  1.00  0.00     0.014 C 
ATOM     29  C   UNL     1      72.193 104.268  15.125  1.00  0.00     0.014 C 
ENDROOT
BRANCH   1  30
ATOM     30  C   UNL     1      69.597  96.079   9.846  1.00  0.00     0.048 C 
ATOM     31  O   UNL     1      70.123  95.673   8.775  1.00  0.00    -0.550 OA
ATOM     32  O   UNL     1      69.318  95.151  10.842  1.00  0.00    -0.550 OA
ENDBRANCH   1  30
BRANCH  27  33
ATOM     33  O   UNL     1      73.308 105.281  12.623  1.00  0.00    -0.393 OA
ATOM     34  H   UNL     1      73.967 105.064  11.913  1.00  0.00     0.210 HD
ENDBRANCH  27  33
TORSDOF 2
ENDMDL
MODEL 2
REMARK VINA RESULT:    -5.804      5.342      9.613
REMARK INTER + INTRA:          -6.244
REMARK INTER:                  -6.304
REMARK INTRA:                   0.060
REMARK UNBOUND:                 0.069
REMARK SMILES C[C@@H]1[C@H](C)CC[C@@]2(C(=O)[O-])CC[C@]3(C)C(=CC[C@@H]4[C@]5(C)CC[C@@H](O)C(C)(C)[C@@H]5CC[C@@]43C)[C@@H]12
REMARK SMILES IDX 7 1 6 2 11 3 33 4 5 5 12 6 15 7 2 8 3 9 13 10 16 11 1 12
REMARK SMILES IDX 4 13 14 14 31 15 17 16 18 17 30 18 32 19 19 20 29 21 28 22
REMARK SMILES IDX 21 23 20 24 25 25 22 26 23 27 26 28 27 29 8 30 9 31 10 32
REMARK SMILES IDX 24 33
REMARK H PARENT 24 34
REMARK Flexibility Score: inf
ROOT
ATOM      1  C   UNL     1      68.876  95.268  10.555  1.00  0.00     0.017 C 
ATOM      2  C   UNL     1      70.122  95.889   9.862  1.00  0.00     0.014 C 
ATOM      3  C   UNL     1      68.869  93.725  10.278  1.00  0.00     0.014 C 
ATOM      4  C   UNL     1      68.903  95.621  12.102  1.00  0.00     0.030 C 
ATOM      5  C   UNL     1      70.207  97.408  10.053  1.00  0.00     0.004 C 
ATOM      6  C   UNL     1      69.784  92.865  11.177  1.00  0.00     0.013 C 
ATOM      7  C   UNL     1      69.866  94.669  12.844  1.00  0.00    -0.063 C 
ATOM      8  C   UNL     1      69.127  97.160  12.376  1.00  0.00    -0.003 C 
ATOM      9  C   UNL     1      70.307  97.762  11.541  1.00  0.00    -0.011 C 
ATOM     10  C   UNL     1      69.629  93.160  12.692  1.00  0.00    -0.006 C 
ATOM     11  C   UNL     1      71.050  95.093  13.324  1.00  0.00    -0.027 C 
ATOM     12  C   UNL     1      67.819  97.970  12.213  1.00  0.00     0.008 C 
ATOM     13  C   UNL     1      70.464  99.279  11.729  1.00  0.00     0.008 C 
ATOM     14  C   UNL     1      68.145  92.864  13.127  1.00  0.00     0.017 C 
ATOM     15  C   UNL     1      70.660  92.296  13.607  1.00  0.00    -0.020 C 
ATOM     16  C   UNL     1      72.275  94.291  13.049  1.00  0.00     0.032 C 
ATOM     17  C   UNL     1      72.181  92.824  13.541  1.00  0.00     0.006 C 
ATOM     18  C   UNL     1      70.548  90.764  13.316  1.00  0.00     0.008 C 
ATOM     19  C   UNL     1      70.204  92.446  15.107  1.00  0.00     0.012 C 
ATOM     20  C   UNL     1      73.387  91.897  12.970  1.00  0.00    -0.025 C 
ATOM     21  C   UNL     1      71.598  90.204  12.381  1.00  0.00     0.005 C 
ATOM     22  C   UNL     1      73.010  90.361  12.989  1.00  0.00     0.003 C 
ATOM     23  C   UNL     1      73.808  92.291  11.511  1.00  0.00     0.010 C 
ATOM     24  C   UNL     1      74.614  92.170  13.904  1.00  0.00     0.012 C 
ATOM     25  C   UNL     1      74.066  89.381  12.298  1.00  0.00    -0.006 C 
ATOM     26  C   UNL     1      74.835  91.360  10.847  1.00  0.00     0.033 C 
ATOM     27  C   UNL     1      74.402  89.888  10.866  1.00  0.00     0.120 C 
ATOM     28  C   UNL     1      75.358  89.229  13.162  1.00  0.00     0.014 C 
ATOM     29  C   UNL     1      73.496  87.935  12.170  1.00  0.00     0.014 C 
ENDROOT
BRANCH   1  30
ATOM     30  C   UNL     1      67.595  95.792   9.909  1.00  0.00     0.048 C 
ATOM     31  O   UNL     1      67.636  96.456   8.838  1.00  0.00    -0.550 OA
ATOM     32  O   UNL     1      66.355  95.425  10.416  1.00  0.00    -0.550 OA
ENDBRANCH   1  30
BRANCH  27  33
ATOM     33  O   UNL     1      75.415  89.094  10.298  1.00  0.00    -0.393 OA
ATOM     34  H   UNL     1      75.449  89.314   9.331  1.00  0.00     0.210 HD
ENDBRANCH  27  33
TORSDOF 2
ENDMDL
MODEL 3
REMARK VINA RESULT:    -5.738      5.067      9.341
REMARK INTER + INTRA:          -6.172
REMARK INTER:                  -6.227
REMARK INTRA:                   0.055
REMARK UNBOUND:                 0.069
REMARK SMILES C[C@@H]1[C@H](C)CC[C@@]2(C(=O)[O-])CC[C@]3(C)C(=CC[C@@H]4[C@]5(C)CC[C@@H](O)C(C)(C)[C@@H]5CC[C@@]43C)[C@@H]12
REMARK SMILES IDX 7 1 6 2 11 3 33 4 5 5 12 6 15 7 2 8 3 9 13 10 16 11 1 12
REMARK SMILES IDX 4 13 14 14 31 15 17 16 18 17 30 18 32 19 19 20 29 21 28 22
REMARK SMILES IDX 21 23 20 24 25 25 22 26 23 27 26 28 27 29 8 30 9 31 10 32
REMARK SMILES IDX 24 33
REMARK H PARENT 24 34
REMARK Flexibility Score: inf
ROOT
ATOM      1  C   UNL     1      68.986  95.892  10.358  1.00  0.00     0.017 C 
ATOM      2  C   UNL     1      70.123  96.831  10.852  1.00  0.00     0.014 C 
ATOM      3  C   UNL     1      69.627  94.733   9.518  1.00  0.00     0.014 C 
ATOM      4  C   UNL     1      68.155  95.370  11.605  1.00  0.00     0.030 C 
ATOM      5  C   UNL     1      69.595  98.018  11.666  1.00  0.00     0.004 C 
ATOM      6  C   UNL     1      70.231  93.560  10.322  1.00  0.00     0.013 C 
ATOM      7  C   UNL     1      68.904  94.204  12.287  1.00  0.00    -0.063 C 
ATOM      8  C   UNL     1      67.694  96.534  12.566  1.00  0.00    -0.003 C 
ATOM      9  C   UNL     1      68.851  97.531  12.914  1.00  0.00    -0.011 C 
ATOM     10  C   UNL     1      69.286  92.999  11.416  1.00  0.00    -0.006 C 
ATOM     11  C   UNL     1      69.498  94.351  13.487  1.00  0.00    -0.027 C 
ATOM     12  C   UNL     1      66.437  97.259  12.030  1.00  0.00     0.008 C 
ATOM     13  C   UNL     1      68.384  98.720  13.768  1.00  0.00     0.008 C 
ATOM     14  C   UNL     1      67.970  92.464  10.739  1.00  0.00     0.017 C 
ATOM     15  C   UNL     1      69.978  91.819  12.297  1.00  0.00    -0.020 C 
ATOM     16  C   UNL     1      70.894  93.863  13.670  1.00  0.00     0.032 C 
ATOM     17  C   UNL     1      71.073  92.357  13.351  1.00  0.00     0.006 C 
ATOM     18  C   UNL     1      70.537  90.673  11.391  1.00  0.00     0.008 C 
ATOM     19  C   UNL     1      68.845  91.133  13.146  1.00  0.00     0.012 C 
ATOM     20  C   UNL     1      72.635  91.919  13.264  1.00  0.00    -0.025 C 
ATOM     21  C   UNL     1      72.023  90.735  11.111  1.00  0.00     0.005 C 
ATOM     22  C   UNL     1      72.831  90.595  12.422  1.00  0.00     0.003 C 
ATOM     23  C   UNL     1      73.540  93.043  12.650  1.00  0.00     0.010 C 
ATOM     24  C   UNL     1      73.099  91.698  14.744  1.00  0.00     0.012 C 
ATOM     25  C   UNL     1      74.346  90.171  12.142  1.00  0.00    -0.006 C 
ATOM     26  C   UNL     1      75.002  92.645  12.393  1.00  0.00     0.033 C 
ATOM     27  C   UNL     1      75.131  91.374  11.544  1.00  0.00     0.120 C 
ATOM     28  C   UNL     1      75.038  89.631  13.433  1.00  0.00     0.014 C 
ATOM     29  C   UNL     1      74.425  88.995  11.121  1.00  0.00     0.014 C 
ENDROOT
BRANCH   1  30
ATOM     30  C   UNL     1      68.076  96.632   9.380  1.00  0.00     0.048 C 
ATOM     31  O   UNL     1      68.463  97.687   8.809  1.00  0.00    -0.550 OA
ATOM     32  O   UNL     1      66.861  96.077   8.998  1.00  0.00    -0.550 OA
ENDBRANCH   1  30
BRANCH  27  33
ATOM     33  O   UNL     1      76.491  91.040  11.402  1.00  0.00    -0.393 OA
ATOM     34  H   UNL     1      76.743  90.505  12.199  1.00  0.00     0.210 HD
ENDBRANCH  27  33
TORSDOF 2
ENDMDL
MODEL 4
REMARK VINA RESULT:    -5.719      3.353      6.108
REMARK INTER + INTRA:          -6.152
REMARK INTER:                  -6.203
REMARK INTRA:                   0.051
REMARK UNBOUND:                 0.069
REMARK SMILES C[C@@H]1[C@H](C)CC[C@@]2(C(=O)[O-])CC[C@]3(C)C(=CC[C@@H]4[C@]5(C)CC[C@@H](O)C(C)(C)[C@@H]5CC[C@@]43C)[C@@H]12
REMARK SMILES IDX 7 1 6 2 11 3 33 4 5 5 12 6 15 7 2 8 3 9 13 10 16 11 1 12
REMARK SMILES IDX 4 13 14 14 31 15 17 16 18 17 30 18 32 19 19 20 29 21 28 22
REMARK SMILES IDX 21 23 20 24 25 25 22 26 23 27 26 28 27 29 8 30 9 31 10 32
REMARK SMILES IDX 24 33
REMARK H PARENT 24 34
REMARK Flexibility Score: inf
ROOT
ATOM      1  C   UNL     1      70.101  93.787  13.262  1.00  0.00     0.017 C 
ATOM      2  C   UNL     1      71.561  94.109  12.831  1.00  0.00     0.014 C 
ATOM      3  C   UNL     1      69.426  95.111  13.761  1.00  0.00     0.014 C 
ATOM      4  C   UNL     1      69.330  93.114  12.050  1.00  0.00     0.030 C 
ATOM      5  C   UNL     1      72.320  92.867  12.349  1.00  0.00     0.004 C 
ATOM      6  C   UNL     1      68.882  96.055  12.666  1.00  0.00     0.013 C 
ATOM      7  C   UNL     1      68.862  94.199  11.056  1.00  0.00    -0.063 C 
ATOM      8  C   UNL     1      70.123  91.907  11.412  1.00  0.00    -0.003 C 
ATOM      9  C   UNL     1      71.626  92.246  11.131  1.00  0.00    -0.011 C 
ATOM     10  C   UNL     1      68.000  95.343  11.607  1.00  0.00    -0.006 C 
ATOM     11  C   UNL     1      69.435  94.345   9.846  1.00  0.00    -0.027 C 
ATOM     12  C   UNL     1      69.959  90.610  12.238  1.00  0.00     0.008 C 
ATOM     13  C   UNL     1      72.426  91.045  10.604  1.00  0.00     0.008 C 
ATOM     14  C   UNL     1      66.754  94.700  12.321  1.00  0.00     0.017 C 
ATOM     15  C   UNL     1      67.507  96.347  10.425  1.00  0.00    -0.020 C 
ATOM     16  C   UNL     1      69.837  95.707   9.394  1.00  0.00     0.032 C 
ATOM     17  C   UNL     1      68.669  96.725   9.373  1.00  0.00     0.006 C 
ATOM     18  C   UNL     1      66.790  97.611  11.000  1.00  0.00     0.008 C 
ATOM     19  C   UNL     1      66.392  95.600   9.603  1.00  0.00     0.012 C 
ATOM     20  C   UNL     1      69.178  98.255   9.172  1.00  0.00    -0.025 C 
ATOM     21  C   UNL     1      67.647  98.854  11.098  1.00  0.00     0.005 C 
ATOM     22  C   UNL     1      68.117  99.304   9.695  1.00  0.00     0.003 C 
ATOM     23  C   UNL     1      70.549  98.530   9.884  1.00  0.00     0.010 C 
ATOM     24  C   UNL     1      69.405  98.429   7.632  1.00  0.00     0.012 C 
ATOM     25  C   UNL     1      68.592 100.829   9.690  1.00  0.00    -0.006 C 
ATOM     26  C   UNL     1      71.017  99.993   9.869  1.00  0.00     0.033 C 
ATOM     27  C   UNL     1      69.961 100.961  10.418  1.00  0.00     0.120 C 
ATOM     28  C   UNL     1      68.666 101.402   8.239  1.00  0.00     0.014 C 
ATOM     29  C   UNL     1      67.568 101.743  10.432  1.00  0.00     0.014 C 
ENDROOT
BRANCH   1  30
ATOM     30  C   UNL     1      70.101  92.861  14.477  1.00  0.00     0.048 C 
ATOM     31  O   UNL     1      71.160  92.642  15.124  1.00  0.00    -0.550 OA
ATOM     32  O   UNL     1      68.904  92.356  14.971  1.00  0.00    -0.550 OA
ENDBRANCH   1  30
BRANCH  27  33
ATOM     33  O   UNL     1      70.437 102.281  10.316  1.00  0.00    -0.393 OA
ATOM     34  H   UNL     1      70.837 102.377   9.412  1.00  0.00     0.210 HD
ENDBRANCH  27  33
TORSDOF 2
ENDMDL
MODEL 5
REMARK VINA RESULT:    -5.714      3.661      7.964
REMARK INTER + INTRA:          -6.146
REMARK INTER:                  -6.193
REMARK INTRA:                   0.047
REMARK UNBOUND:                 0.069
REMARK SMILES C[C@@H]1[C@H](C)CC[C@@]2(C(=O)[O-])CC[C@]3(C)C(=CC[C@@H]4[C@]5(C)CC[C@@H](O)C(C)(C)[C@@H]5CC[C@@]43C)[C@@H]12
REMARK SMILES IDX 7 1 6 2 11 3 33 4 5 5 12 6 15 7 2 8 3 9 13 10 16 11 1 12
REMARK SMILES IDX 4 13 14 14 31 15 17 16 18 17 30 18 32 19 19 20 29 21 28 22
REMARK SMILES IDX 21 23 20 24 25 25 22 26 23 27 26 28 27 29 8 30 9 31 10 32
REMARK SMILES IDX 24 33
REMARK H PARENT 24 34
REMARK Flexibility Score: inf
ROOT
ATOM      1  C   UNL     1      69.565  97.996   8.869  1.00  0.00     0.017 C 
ATOM      2  C   UNL     1      70.916  98.509   9.444  1.00  0.00     0.014 C 
ATOM      3  C   UNL     1      69.739  96.492   8.458  1.00  0.00     0.014 C 
ATOM      4  C   UNL     1      68.417  98.218   9.941  1.00  0.00     0.030 C 
ATOM      5  C   UNL     1      70.859  99.986   9.853  1.00  0.00     0.004 C 
ATOM      6  C   UNL     1      69.634  95.456   9.598  1.00  0.00     0.013 C 
ATOM      7  C   UNL     1      68.462  97.097  11.002  1.00  0.00    -0.063 C 
ATOM      8  C   UNL     1      68.387  99.690  10.511  1.00  0.00    -0.003 C 
ATOM      9  C   UNL     1      69.803 100.205  10.943  1.00  0.00    -0.011 C 
ATOM     10  C   UNL     1      68.391  95.646  10.505  1.00  0.00    -0.006 C 
ATOM     11  C   UNL     1      68.877  97.331  12.261  1.00  0.00    -0.027 C 
ATOM     12  C   UNL     1      67.677 100.667   9.546  1.00  0.00     0.008 C 
ATOM     13  C   UNL     1      69.794 101.671  11.404  1.00  0.00     0.008 C 
ATOM     14  C   UNL     1      67.089  95.504   9.633  1.00  0.00     0.017 C 
ATOM     15  C   UNL     1      68.350  94.590  11.743  1.00  0.00    -0.020 C 
ATOM     16  C   UNL     1      69.868  96.406  12.882  1.00  0.00     0.032 C 
ATOM     17  C   UNL     1      69.403  94.928  12.916  1.00  0.00     0.006 C 
ATOM     18  C   UNL     1      68.466  93.112  11.246  1.00  0.00     0.008 C 
ATOM     19  C   UNL     1      66.919  94.677  12.393  1.00  0.00     0.012 C 
ATOM     20  C   UNL     1      70.601  93.906  13.313  1.00  0.00    -0.025 C 
ATOM     21  C   UNL     1      69.847  92.503  11.345  1.00  0.00     0.005 C 
ATOM     22  C   UNL     1      70.309  92.433  12.819  1.00  0.00     0.003 C 
ATOM     23  C   UNL     1      71.991  94.360  12.743  1.00  0.00     0.010 C 
ATOM     24  C   UNL     1      70.698  93.949  14.876  1.00  0.00     0.012 C 
ATOM     25  C   UNL     1      71.500  91.387  13.019  1.00  0.00    -0.006 C 
ATOM     26  C   UNL     1      73.143  93.364  12.946  1.00  0.00     0.033 C 
ATOM     27  C   UNL     1      72.816  91.961  12.418  1.00  0.00     0.120 C 
ATOM     28  C   UNL     1      71.683  91.007  14.522  1.00  0.00     0.014 C 
ATOM     29  C   UNL     1      71.196  90.038  12.297  1.00  0.00     0.014 C 
ENDROOT
BRANCH   1  30
ATOM     30  C   UNL     1      69.233  98.724   7.569  1.00  0.00     0.048 C 
ATOM     31  O   UNL     1      70.110  99.394   6.960  1.00  0.00    -0.550 OA
ATOM     32  O   UNL     1      67.994  98.546   6.964  1.00  0.00    -0.550 OA
ENDBRANCH   1  30
BRANCH  27  33
ATOM     33  O   UNL     1      73.890  91.094  12.692  1.00  0.00    -0.393 OA
ATOM     34  H   UNL     1      74.649  91.658  12.994  1.00  0.00     0.210 HD
ENDBRANCH  27  33
TORSDOF 2
ENDMDL
MODEL 6
REMARK VINA RESULT:    -5.589      6.286      9.642
REMARK INTER + INTRA:          -6.010
REMARK INTER:                  -6.136
REMARK INTRA:                   0.126
REMARK UNBOUND:                 0.069
REMARK SMILES C[C@@H]1[C@H](C)CC[C@@]2(C(=O)[O-])CC[C@]3(C)C(=CC[C@@H]4[C@]5(C)CC[C@@H](O)C(C)(C)[C@@H]5CC[C@@]43C)[C@@H]12
REMARK SMILES IDX 7 1 6 2 11 3 33 4 5 5 12 6 15 7 2 8 3 9 13 10 16 11 1 12
REMARK SMILES IDX 4 13 14 14 31 15 17 16 18 17 30 18 32 19 19 20 29 21 28 22
REMARK SMILES IDX 21 23 20 24 25 25 22 26 23 27 26 28 27 29 8 30 9 31 10 32
REMARK SMILES IDX 24 33
REMARK H PARENT 24 34
REMARK Flexibility Score: inf
ROOT
ATOM      1  C   UNL     1      74.884  91.047  12.432  1.00  0.00     0.017 C 
ATOM      2  C   UNL     1      74.542  90.547  10.999  1.00  0.00     0.014 C 
ATOM      3  C   UNL     1      74.841  92.615  12.435  1.00  0.00     0.014 C 
ATOM      4  C   UNL     1      73.879  90.395  13.472  1.00  0.00     0.030 C 
ATOM      5  C   UNL     1      74.584  89.018  10.883  1.00  0.00     0.004 C 
ATOM      6  C   UNL     1      73.442  93.258  12.557  1.00  0.00     0.013 C 
ATOM      7  C   UNL     1      72.538  91.160  13.460  1.00  0.00    -0.063 C 
ATOM      8  C   UNL     1      73.767  88.827  13.317  1.00  0.00    -0.003 C 
ATOM      9  C   UNL     1      73.565  88.375  11.831  1.00  0.00    -0.011 C 
ATOM     10  C   UNL     1      72.581  92.674  13.707  1.00  0.00    -0.006 C 
ATOM     11  C   UNL     1      71.421  90.622  12.933  1.00  0.00    -0.027 C 
ATOM     12  C   UNL     1      74.948  88.097  13.998  1.00  0.00     0.008 C 
ATOM     13  C   UNL     1      73.556  86.848  11.663  1.00  0.00     0.008 C 
ATOM     14  C   UNL     1      73.319  92.912  15.077  1.00  0.00     0.017 C 
ATOM     15  C   UNL     1      71.087  93.317  13.761  1.00  0.00    -0.020 C 
ATOM     16  C   UNL     1      70.597  91.434  11.995  1.00  0.00     0.032 C 
ATOM     17  C   UNL     1      70.110  92.777  12.597  1.00  0.00     0.006 C 
ATOM     18  C   UNL     1      71.131  94.878  13.825  1.00  0.00     0.008 C 
ATOM     19  C   UNL     1      70.433  92.883  15.125  1.00  0.00     0.012 C 
ATOM     20  C   UNL     1      69.479  93.771  11.478  1.00  0.00    -0.025 C 
ATOM     21  C   UNL     1      70.913  95.587  12.506  1.00  0.00     0.005 C 
ATOM     22  C   UNL     1      69.504  95.280  11.947  1.00  0.00     0.003 C 
ATOM     23  C   UNL     1      70.214  93.663  10.096  1.00  0.00     0.010 C 
ATOM     24  C   UNL     1      68.003  93.290  11.264  1.00  0.00     0.012 C 
ATOM     25  C   UNL     1      69.055  96.353  10.852  1.00  0.00    -0.006 C 
ATOM     26  C   UNL     1      69.774  94.682   9.034  1.00  0.00     0.033 C 
ATOM     27  C   UNL     1      69.851  96.131   9.534  1.00  0.00     0.120 C 
ATOM     28  C   UNL     1      67.515  96.301  10.598  1.00  0.00     0.014 C 
ATOM     29  C   UNL     1      69.333  97.809  11.338  1.00  0.00     0.014 C 
ENDROOT
BRANCH   1  30
ATOM     30  C   UNL     1      76.327  90.691  12.786  1.00  0.00     0.048 C 
ATOM     31  O   UNL     1      77.207  90.591  11.889  1.00  0.00    -0.550 OA
ATOM     32  O   UNL     1      76.721  90.609  14.116  1.00  0.00    -0.550 OA
ENDBRANCH   1  30
BRANCH  27  33
ATOM     33  O   UNL     1      69.378  96.999   8.532  1.00  0.00    -0.393 OA
ATOM     34  H   UNL     1      70.171  97.327   8.033  1.00  0.00     0.210 HD
ENDBRANCH  27  33
TORSDOF 2
ENDMDL
MODEL 7
REMARK VINA RESULT:    -5.188      4.472      8.738
REMARK INTER + INTRA:          -5.574
REMARK INTER:                  -5.637
REMARK INTRA:                   0.063
REMARK UNBOUND:                 0.069
REMARK SMILES C[C@@H]1[C@H](C)CC[C@@]2(C(=O)[O-])CC[C@]3(C)C(=CC[C@@H]4[C@]5(C)CC[C@@H](O)C(C)(C)[C@@H]5CC[C@@]43C)[C@@H]12
REMARK SMILES IDX 7 1 6 2 11 3 33 4 5 5 12 6 15 7 2 8 3 9 13 10 16 11 1 12
REMARK SMILES IDX 4 13 14 14 31 15 17 16 18 17 30 18 32 19 19 20 29 21 28 22
REMARK SMILES IDX 21 23 20 24 25 25 22 26 23 27 26 28 27 29 8 30 9 31 10 32
REMARK SMILES IDX 24 33
REMARK H PARENT 24 34
REMARK Flexibility Score: inf
ROOT
ATOM      1  C   UNL     1      68.362  96.433   9.702  1.00  0.00     0.017 C 
ATOM      2  C   UNL     1      69.749  96.455   8.998  1.00  0.00     0.014 C 
ATOM      3  C   UNL     1      67.899  94.941   9.842  1.00  0.00     0.014 C 
ATOM      4  C   UNL     1      68.466  97.185  11.096  1.00  0.00     0.030 C 
ATOM      5  C   UNL     1      70.281  97.879   8.789  1.00  0.00     0.004 C 
ATOM      6  C   UNL     1      68.499  94.148  11.024  1.00  0.00     0.013 C 
ATOM      7  C   UNL     1      69.088  96.248  12.155  1.00  0.00    -0.063 C 
ATOM      8  C   UNL     1      69.136  98.610  10.975  1.00  0.00    -0.003 C 
ATOM      9  C   UNL     1      70.456  98.594  10.133  1.00  0.00    -0.011 C 
ATOM     10  C   UNL     1      68.413  94.889  12.384  1.00  0.00    -0.006 C 
ATOM     11  C   UNL     1      70.336  96.439  12.623  1.00  0.00    -0.027 C 
ATOM     12  C   UNL     1      68.133  99.675  10.474  1.00  0.00     0.008 C 
ATOM     13  C   UNL     1      71.056  99.994   9.929  1.00  0.00     0.008 C 
ATOM     14  C   UNL     1      66.902  95.158  12.730  1.00  0.00     0.017 C 
ATOM     15  C   UNL     1      69.123  94.063  13.593  1.00  0.00    -0.020 C 
ATOM     16  C   UNL     1      71.270  95.279  12.692  1.00  0.00     0.032 C 
ATOM     17  C   UNL     1      70.734  94.099  13.542  1.00  0.00     0.006 C 
ATOM     18  C   UNL     1      68.564  92.607  13.706  1.00  0.00     0.008 C 
ATOM     19  C   UNL     1      68.707  94.752  14.946  1.00  0.00     0.012 C 
ATOM     20  C   UNL     1      71.616  92.748  13.359  1.00  0.00    -0.025 C 
ATOM     21  C   UNL     1      69.414  91.535  13.061  1.00  0.00     0.005 C 
ATOM     22  C   UNL     1      70.798  91.451  13.745  1.00  0.00     0.003 C 
ATOM     23  C   UNL     1      72.162  92.579  11.898  1.00  0.00     0.010 C 
ATOM     24  C   UNL     1      72.853  92.915  14.306  1.00  0.00     0.012 C 
ATOM     25  C   UNL     1      71.524  90.060  13.447  1.00  0.00    -0.006 C 
ATOM     26  C   UNL     1      72.875  91.249  11.610  1.00  0.00     0.033 C 
ATOM     27  C   UNL     1      72.022  90.027  11.972  1.00  0.00     0.120 C 
ATOM     28  C   UNL     1      72.697  89.799  14.444  1.00  0.00     0.014 C 
ATOM     29  C   UNL     1      70.550  88.858  13.648  1.00  0.00     0.014 C 
ENDROOT
BRANCH   1  30
ATOM     30  C   UNL     1      67.308  97.093   8.816  1.00  0.00     0.048 C 
ATOM     31  O   UNL     1      67.572  97.412   7.625  1.00  0.00    -0.550 OA
ATOM     32  O   UNL     1      65.999  97.224   9.265  1.00  0.00    -0.550 OA
ENDBRANCH   1  30
BRANCH  27  33
ATOM     33  O   UNL     1      72.760  88.853  11.738  1.00  0.00    -0.393 OA
ATOM     34  H   UNL     1      72.716  88.311  12.569  1.00  0.00     0.210 HD
ENDBRANCH  27  33
TORSDOF 2
ENDMDL
MODEL 8
REMARK VINA RESULT:    -5.135      7.798     11.635
REMARK INTER + INTRA:          -5.516
REMARK INTER:                  -5.586
REMARK INTRA:                   0.070
REMARK UNBOUND:                 0.069
REMARK SMILES C[C@@H]1[C@H](C)CC[C@@]2(C(=O)[O-])CC[C@]3(C)C(=CC[C@@H]4[C@]5(C)CC[C@@H](O)C(C)(C)[C@@H]5CC[C@@]43C)[C@@H]12
REMARK SMILES IDX 7 1 6 2 11 3 33 4 5 5 12 6 15 7 2 8 3 9 13 10 16 11 1 12
REMARK SMILES IDX 4 13 14 14 31 15 17 16 18 17 30 18 32 19 19 20 29 21 28 22
REMARK SMILES IDX 21 23 20 24 25 25 22 26 23 27 26 28 27 29 8 30 9 31 10 32
REMARK SMILES IDX 24 33
REMARK H PARENT 24 34
REMARK Flexibility Score: inf
ROOT
ATOM      1  C   UNL     1      74.841  89.518  11.769  1.00  0.00     0.017 C 
ATOM      2  C   UNL     1      74.010  88.202  11.787  1.00  0.00     0.014 C 
ATOM      3  C   UNL     1      74.167  90.518  10.767  1.00  0.00     0.014 C 
ATOM      4  C   UNL     1      74.948  90.093  13.244  1.00  0.00     0.030 C 
ATOM      5  C   UNL     1      74.605  87.143  12.723  1.00  0.00     0.004 C 
ATOM      6  C   UNL     1      72.951  91.306  11.301  1.00  0.00     0.013 C 
ATOM      7  C   UNL     1      73.650  90.846  13.611  1.00  0.00    -0.063 C 
ATOM      8  C   UNL     1      75.424  89.013  14.292  1.00  0.00    -0.003 C 
ATOM      9  C   UNL     1      74.647  87.658  14.166  1.00  0.00    -0.011 C 
ATOM     10  C   UNL     1      73.196  91.976  12.678  1.00  0.00    -0.006 C 
ATOM     11  C   UNL     1      72.769  90.345  14.498  1.00  0.00    -0.027 C 
ATOM     12  C   UNL     1      76.958  88.815  14.256  1.00  0.00     0.008 C 
ATOM     13  C   UNL     1      75.176  86.572  15.116  1.00  0.00     0.008 C 
ATOM     14  C   UNL     1      74.387  92.997  12.551  1.00  0.00     0.017 C 
ATOM     15  C   UNL     1      71.874  92.733  13.250  1.00  0.00    -0.020 C 
ATOM     16  C   UNL     1      71.320  90.328  14.151  1.00  0.00     0.032 C 
ATOM     17  C   UNL     1      70.745  91.726  13.809  1.00  0.00     0.006 C 
ATOM     18  C   UNL     1      71.299  93.756  12.218  1.00  0.00     0.008 C 
ATOM     19  C   UNL     1      72.324  93.616  14.473  1.00  0.00     0.012 C 
ATOM     20  C   UNL     1      69.263  91.647  13.149  1.00  0.00    -0.025 C 
ATOM     21  C   UNL     1      70.126  93.262  11.400  1.00  0.00     0.005 C 
ATOM     22  C   UNL     1      68.919  92.944  12.313  1.00  0.00     0.003 C 
ATOM     23  C   UNL     1      69.084  90.392  12.223  1.00  0.00     0.010 C 
ATOM     24  C   UNL     1      68.269  91.491  14.349  1.00  0.00     0.012 C 
ATOM     25  C   UNL     1      67.550  92.895  11.491  1.00  0.00    -0.006 C 
ATOM     26  C   UNL     1      67.762  90.333  11.442  1.00  0.00     0.033 C 
ATOM     27  C   UNL     1      67.498  91.603  10.625  1.00  0.00     0.120 C 
ATOM     28  C   UNL     1      66.311  92.993  12.435  1.00  0.00     0.014 C 
ATOM     29  C   UNL     1      67.422  94.118  10.532  1.00  0.00     0.014 C 
ENDROOT
BRANCH   1  30
ATOM     30  C   UNL     1      76.231  89.258  11.194  1.00  0.00     0.048 C 
ATOM     31  O   UNL     1      76.446  88.268  10.444  1.00  0.00    -0.550 OA
ATOM     32  O   UNL     1      77.249  90.187  11.376  1.00  0.00    -0.550 OA
ENDBRANCH   1  30
BRANCH  27  33
ATOM     33  O   UNL     1      66.247  91.500   9.988  1.00  0.00    -0.393 OA
ATOM     34  H   UNL     1      66.406  91.079   9.103  1.00  0.00     0.210 HD
ENDBRANCH  27  33
TORSDOF 2
ENDMDL
MODEL 9
REMARK VINA RESULT:    -5.024      4.013      6.036
REMARK INTER + INTRA:          -5.396
REMARK INTER:                  -5.449
REMARK INTRA:                   0.053
REMARK UNBOUND:                 0.069
REMARK SMILES C[C@@H]1[C@H](C)CC[C@@]2(C(=O)[O-])CC[C@]3(C)C(=CC[C@@H]4[C@]5(C)CC[C@@H](O)C(C)(C)[C@@H]5CC[C@@]43C)[C@@H]12
REMARK SMILES IDX 7 1 6 2 11 3 33 4 5 5 12 6 15 7 2 8 3 9 13 10 16 11 1 12
REMARK SMILES IDX 4 13 14 14 31 15 17 16 18 17 30 18 32 19 19 20 29 21 28 22
REMARK SMILES IDX 21 23 20 24 25 25 22 26 23 27 26 28 27 29 8 30 9 31 10 32
REMARK SMILES IDX 24 33
REMARK H PARENT 24 34
REMARK Flexibility Score: inf
ROOT
ATOM      1  C   UNL     1      70.228  94.832  12.377  1.00  0.00     0.017 C 
ATOM      2  C   UNL     1      70.514  94.110  11.029  1.00  0.00     0.014 C 
ATOM      3  C   UNL     1      70.645  96.337  12.233  1.00  0.00     0.014 C 
ATOM      4  C   UNL     1      68.700  94.645  12.761  1.00  0.00     0.030 C 
ATOM      5  C   UNL     1      70.163  92.618  11.075  1.00  0.00     0.004 C 
ATOM      6  C   UNL     1      69.627  97.264  11.532  1.00  0.00     0.013 C 
ATOM      7  C   UNL     1      67.831  95.646  11.969  1.00  0.00    -0.063 C 
ATOM      8  C   UNL     1      68.231  93.138  12.694  1.00  0.00    -0.003 C 
ATOM      9  C   UNL     1      68.673  92.421  11.374  1.00  0.00    -0.011 C 
ATOM     10  C   UNL     1      68.182  97.135  12.081  1.00  0.00    -0.006 C 
ATOM     11  C   UNL     1      67.023  95.245  10.969  1.00  0.00    -0.027 C 
ATOM     12  C   UNL     1      68.647  92.350  13.958  1.00  0.00     0.008 C 
ATOM     13  C   UNL     1      68.306  90.929  11.348  1.00  0.00     0.008 C 
ATOM     14  C   UNL     1      68.175  97.514  13.609  1.00  0.00     0.017 C 
ATOM     15  C   UNL     1      67.120  98.065  11.273  1.00  0.00    -0.020 C 
ATOM     16  C   UNL     1      67.050  95.981   9.675  1.00  0.00     0.032 C 
ATOM     17  C   UNL     1      66.742  97.494   9.813  1.00  0.00     0.006 C 
ATOM     18  C   UNL     1      67.576  99.560  11.227  1.00  0.00     0.008 C 
ATOM     19  C   UNL     1      65.781  98.086  12.100  1.00  0.00     0.012 C 
ATOM     20  C   UNL     1      67.069  98.324   8.456  1.00  0.00    -0.025 C 
ATOM     21  C   UNL     1      68.259  99.990   9.947  1.00  0.00     0.005 C 
ATOM     22  C   UNL     1      67.295  99.862   8.745  1.00  0.00     0.003 C 
ATOM     23  C   UNL     1      68.325  97.767   7.699  1.00  0.00     0.010 C 
ATOM     24  C   UNL     1      65.829  98.120   7.521  1.00  0.00     0.012 C 
ATOM     25  C   UNL     1      67.781 100.736   7.499  1.00  0.00    -0.006 C 
ATOM     26  C   UNL     1      68.788  98.595   6.491  1.00  0.00     0.033 C 
ATOM     27  C   UNL     1      69.023 100.071   6.838  1.00  0.00     0.120 C 
ATOM     28  C   UNL     1      66.633 100.945   6.462  1.00  0.00     0.014 C 
ATOM     29  C   UNL     1      68.190 102.175   7.942  1.00  0.00     0.014 C 
ENDROOT
BRANCH   1  30
ATOM     30  C   UNL     1      71.129  94.276  13.477  1.00  0.00     0.048 C 
ATOM     31  O   UNL     1      72.169  93.624  13.193  1.00  0.00    -0.550 OA
ATOM     32  O   UNL     1      70.890  94.600  14.808  1.00  0.00    -0.550 OA
ENDBRANCH   1  30
BRANCH  27  33
ATOM     33  O   UNL     1      69.385 100.775   5.674  1.00  0.00    -0.393 OA
ATOM     34  H   UNL     1      69.159 100.194   4.901  1.00  0.00     0.210 HD
ENDBRANCH  27  33
TORSDOF 2
ENDMDL
