MODEL 1
REMARK VINA RESULT:    -5.682      0.000      0.000
REMARK INTER + INTRA:          -9.644
REMARK INTER:                  -9.004
REMARK INTRA:                  -0.640
REMARK UNBOUND:                -0.640
REMARK SMILES CCCCCCCCCCCC(=O)[O-]
REMARK SMILES IDX 7 1 8 2 9 3 10 4 11 5 12 6 13 7 14 8 6 9 5 10 4 11 3 12 2 13
REMARK SMILES IDX 1 14
REMARK H PARENT
REMARK Flexibility Score: inf
ROOT
ATOM      1  C   UNL     1      -2.720  26.987  55.555  1.00  0.00     0.000 C 
ENDROOT
BRANCH   1   2
ATOM      2  C   UNL     1      -4.169  27.468  55.741  1.00  0.00     0.000 C 
BRANCH   2   3
ATOM      3  C   UNL     1      -4.261  28.862  56.384  1.00  0.00     0.000 C 
BRANCH   3   4
ATOM      4  C   UNL     1      -2.911  29.547  56.676  1.00  0.00     0.006 C 
BRANCH   4   5
ATOM      5  C   UNL     1      -2.807  30.157  58.086  1.00  0.00     0.053 C 
BRANCH   5   6
ATOM      6  C   UNL     1      -4.036  30.926  58.469  1.00  0.00     0.041 C 
ATOM      7  O   UNL     1      -4.255  32.061  57.972  1.00  0.00    -0.550 OA
ATOM      8  O   UNL     1      -4.963  30.370  59.342  1.00  0.00    -0.550 OA
ENDBRANCH   5   6
ENDBRANCH   4   5
ENDBRANCH   3   4
ENDBRANCH   2   3
ENDBRANCH   1   2
BRANCH   1   9
ATOM      9  C   UNL     1      -2.531  26.162  54.272  1.00  0.00     0.000 C 
BRANCH   9  10
ATOM     10  C   UNL     1      -3.537  26.533  53.172  1.00  0.00    -0.000 C 
BRANCH  10  11
ATOM     11  C   UNL     1      -3.021  26.102  51.791  1.00  0.00    -0.000 C 
BRANCH  11  12
ATOM     12  C   UNL     1      -1.498  25.898  51.763  1.00  0.00    -0.000 C 
BRANCH  12  13
ATOM     13  C   UNL     1      -0.824  26.627  50.591  1.00  0.00    -0.003 C 
ATOM     14  C   UNL     1      -1.810  27.544  49.875  1.00  0.00     0.004 C 
ENDBRANCH  12  13
ENDBRANCH  11  12
ENDBRANCH  10  11
ENDBRANCH   9  10
ENDBRANCH   1   9
TORSDOF 10
ENDMDL
MODEL 2
REMARK VINA RESULT:    -5.060      4.633      7.410
REMARK INTER + INTRA:          -8.657
REMARK INTER:                  -8.162
REMARK INTRA:                  -0.495
REMARK UNBOUND:                -0.640
REMARK SMILES CCCCCCCCCCCC(=O)[O-]
REMARK SMILES IDX 7 1 8 2 9 3 10 4 11 5 12 6 13 7 14 8 6 9 5 10 4 11 3 12 2 13
REMARK SMILES IDX 1 14
REMARK H PARENT
REMARK Flexibility Score: inf
ROOT
ATOM      1  C   UNL     1      -3.029  26.583  53.602  1.00  0.00     0.000 C 
ENDROOT
BRANCH   1   2
ATOM      2  C   UNL     1      -1.586  26.082  53.414  1.00  0.00     0.000 C 
BRANCH   2   3
ATOM      3  C   UNL     1      -0.743  26.189  54.696  1.00  0.00     0.000 C 
BRANCH   3   4
ATOM      4  C   UNL     1       0.628  25.486  54.647  1.00  0.00     0.006 C 
BRANCH   4   5
ATOM      5  C   UNL     1       0.765  24.454  53.512  1.00  0.00     0.053 C 
BRANCH   5   6
ATOM      6  C   UNL     1       1.834  24.823  52.528  1.00  0.00     0.041 C 
ATOM      7  O   UNL     1       1.559  24.926  51.304  1.00  0.00    -0.550 OA
ATOM      8  O   UNL     1       3.124  25.095  52.967  1.00  0.00    -0.550 OA
ENDBRANCH   5   6
ENDBRANCH   4   5
ENDBRANCH   3   4
ENDBRANCH   2   3
ENDBRANCH   1   2
BRANCH   1   9
ATOM      9  C   UNL     1      -3.500  26.492  55.062  1.00  0.00     0.000 C 
BRANCH   9  10
ATOM     10  C   UNL     1      -4.462  27.625  55.448  1.00  0.00    -0.000 C 
BRANCH  10  11
ATOM     11  C   UNL     1      -3.704  28.784  56.114  1.00  0.00    -0.000 C 
BRANCH  11  12
ATOM     12  C   UNL     1      -4.498  29.433  57.259  1.00  0.00    -0.000 C 
BRANCH  12  13
ATOM     13  C   UNL     1      -3.618  30.302  58.170  1.00  0.00    -0.003 C 
ATOM     14  C   UNL     1      -4.158  31.726  58.258  1.00  0.00     0.004 C 
ENDBRANCH  12  13
ENDBRANCH  11  12
ENDBRANCH  10  11
ENDBRANCH   9  10
ENDBRANCH   1   9
TORSDOF 10
ENDMDL
MODEL 3
REMARK VINA RESULT:    -4.990      2.968      6.384
REMARK INTER + INTRA:          -8.547
REMARK INTER:                  -8.084
REMARK INTRA:                  -0.463
REMARK UNBOUND:                -0.640
REMARK SMILES CCCCCCCCCCCC(=O)[O-]
REMARK SMILES IDX 7 1 8 2 9 3 10 4 11 5 12 6 13 7 14 8 6 9 5 10 4 11 3 12 2 13
REMARK SMILES IDX 1 14
REMARK H PARENT
REMARK Flexibility Score: inf
ROOT
ATOM      1  C   UNL     1      -3.514  26.501  55.370  1.00  0.00     0.000 C 
ENDROOT
BRANCH   1   2
ATOM      2  C   UNL     1      -3.027  26.240  53.934  1.00  0.00     0.000 C 
BRANCH   2   3
ATOM      3  C   UNL     1      -1.498  26.332  53.794  1.00  0.00     0.000 C 
BRANCH   3   4
ATOM      4  C   UNL     1      -0.690  25.435  54.753  1.00  0.00     0.006 C 
BRANCH   4   5
ATOM      5  C   UNL     1       0.627  26.065  55.244  1.00  0.00     0.053 C 
BRANCH   5   6
ATOM      6  C   UNL     1       0.449  26.855  56.505  1.00  0.00     0.041 C 
ATOM      7  O   UNL     1       1.431  27.442  57.030  1.00  0.00    -0.550 OA
ATOM      8  O   UNL     1      -0.811  26.979  57.079  1.00  0.00    -0.550 OA
ENDBRANCH   5   6
ENDBRANCH   4   5
ENDBRANCH   3   4
ENDBRANCH   2   3
ENDBRANCH   1   2
BRANCH   1   9
ATOM      9  C   UNL     1      -4.302  27.814  55.497  1.00  0.00     0.000 C 
BRANCH   9  10
ATOM     10  C   UNL     1      -3.454  28.966  56.057  1.00  0.00    -0.000 C 
BRANCH  10  11
ATOM     11  C   UNL     1      -4.164  29.643  57.239  1.00  0.00    -0.000 C 
BRANCH  11  12
ATOM     12  C   UNL     1      -3.217  30.516  58.079  1.00  0.00    -0.000 C 
BRANCH  12  13
ATOM     13  C   UNL     1      -3.948  31.272  59.199  1.00  0.00    -0.003 C 
ATOM     14  C   UNL     1      -5.093  30.440  59.766  1.00  0.00     0.004 C 
ENDBRANCH  12  13
ENDBRANCH  11  12
ENDBRANCH  10  11
ENDBRANCH   9  10
ENDBRANCH   1   9
TORSDOF 10
ENDMDL
MODEL 4
REMARK VINA RESULT:    -4.809      2.321      2.973
REMARK INTER + INTRA:          -8.260
REMARK INTER:                  -7.663
REMARK INTRA:                  -0.597
REMARK UNBOUND:                -0.640
REMARK SMILES CCCCCCCCCCCC(=O)[O-]
REMARK SMILES IDX 7 1 8 2 9 3 10 4 11 5 12 6 13 7 14 8 6 9 5 10 4 11 3 12 2 13
REMARK SMILES IDX 1 14
REMARK H PARENT
REMARK Flexibility Score: inf
ROOT
ATOM      1  C   UNL     1      -2.183  26.397  54.090  1.00  0.00     0.000 C 
ENDROOT
BRANCH   1   2
ATOM      2  C   UNL     1      -3.613  26.788  54.500  1.00  0.00     0.000 C 
BRANCH   2   3
ATOM      3  C   UNL     1      -3.719  27.211  55.975  1.00  0.00     0.000 C 
BRANCH   3   4
ATOM      4  C   UNL     1      -4.389  28.577  56.226  1.00  0.00     0.006 C 
BRANCH   4   5
ATOM      5  C   UNL     1      -3.475  29.609  56.911  1.00  0.00     0.053 C 
BRANCH   5   6
ATOM      6  C   UNL     1      -4.197  30.412  57.952  1.00  0.00     0.041 C 
ATOM      7  O   UNL     1      -4.058  31.662  57.998  1.00  0.00    -0.550 OA
ATOM      8  O   UNL     1      -5.059  29.784  58.843  1.00  0.00    -0.550 OA
ENDBRANCH   5   6
ENDBRANCH   4   5
ENDBRANCH   3   4
ENDBRANCH   2   3
ENDBRANCH   1   2
BRANCH   1   9
ATOM      9  C   UNL     1      -1.167  26.596  55.226  1.00  0.00     0.000 C 
BRANCH   9  10
ATOM     10  C   UNL     1       0.189  25.936  54.935  1.00  0.00    -0.000 C 
BRANCH  10  11
ATOM     11  C   UNL     1       0.002  24.486  54.463  1.00  0.00    -0.000 C 
BRANCH  11  12
ATOM     12  C   UNL     1       1.299  23.868  53.916  1.00  0.00    -0.000 C 
BRANCH  12  13
ATOM     13  C   UNL     1       1.714  24.467  52.563  1.00  0.00    -0.003 C 
ATOM     14  C   UNL     1       3.106  25.085  52.641  1.00  0.00     0.004 C 
ENDBRANCH  12  13
ENDBRANCH  11  12
ENDBRANCH  10  11
ENDBRANCH   9  10
ENDBRANCH   1   9
TORSDOF 10
ENDMDL
MODEL 5
REMARK VINA RESULT:    -4.793      3.105      4.929
REMARK INTER + INTRA:          -8.236
REMARK INTER:                  -7.941
REMARK INTRA:                  -0.294
REMARK UNBOUND:                -0.640
REMARK SMILES CCCCCCCCCCCC(=O)[O-]
REMARK SMILES IDX 7 1 8 2 9 3 10 4 11 5 12 6 13 7 14 8 6 9 5 10 4 11 3 12 2 13
REMARK SMILES IDX 1 14
REMARK H PARENT
REMARK Flexibility Score: inf
ROOT
ATOM      1  C   UNL     1      -3.545  30.500  57.950  1.00  0.00     0.000 C 
ENDROOT
BRANCH   1   2
ATOM      2  C   UNL     1      -4.302  31.236  59.069  1.00  0.00     0.000 C 
BRANCH   2   3
ATOM      3  C   UNL     1      -3.376  32.067  59.973  1.00  0.00     0.000 C 
BRANCH   3   4
ATOM      4  C   UNL     1      -3.788  32.137  61.457  1.00  0.00     0.006 C 
BRANCH   4   5
ATOM      5  C   UNL     1      -3.104  33.269  62.247  1.00  0.00     0.053 C 
BRANCH   5   6
ATOM      6  C   UNL     1      -1.748  32.876  62.752  1.00  0.00     0.041 C 
ATOM      7  O   UNL     1      -1.630  32.282  63.855  1.00  0.00    -0.550 OA
ATOM      8  O   UNL     1      -0.617  33.127  61.984  1.00  0.00    -0.550 OA
ENDBRANCH   5   6
ENDBRANCH   4   5
ENDBRANCH   3   4
ENDBRANCH   2   3
ENDBRANCH   1   2
BRANCH   1   9
ATOM      9  C   UNL     1      -4.426  29.476  57.217  1.00  0.00     0.000 C 
BRANCH   9  10
ATOM     10  C   UNL     1      -3.683  28.758  56.079  1.00  0.00    -0.000 C 
BRANCH  10  11
ATOM     11  C   UNL     1      -4.546  27.634  55.486  1.00  0.00    -0.000 C 
BRANCH  11  12
ATOM     12  C   UNL     1      -3.777  26.763  54.480  1.00  0.00    -0.000 C 
BRANCH  12  13
ATOM     13  C   UNL     1      -2.542  26.093  55.101  1.00  0.00    -0.003 C 
ATOM     14  C   UNL     1      -1.353  26.140  54.146  1.00  0.00     0.004 C 
ENDBRANCH  12  13
ENDBRANCH  11  12
ENDBRANCH  10  11
ENDBRANCH   9  10
ENDBRANCH   1   9
TORSDOF 10
ENDMDL
MODEL 6
REMARK VINA RESULT:    -4.757      3.898      6.120
REMARK INTER + INTRA:          -8.178
REMARK INTER:                  -7.817
REMARK INTRA:                  -0.361
REMARK UNBOUND:                -0.640
REMARK SMILES CCCCCCCCCCCC(=O)[O-]
REMARK SMILES IDX 7 1 8 2 9 3 10 4 11 5 12 6 13 7 14 8 6 9 5 10 4 11 3 12 2 13
REMARK SMILES IDX 1 14
REMARK H PARENT
REMARK Flexibility Score: inf
ROOT
ATOM      1  C   UNL     1      -3.967  31.699  58.694  1.00  0.00     0.000 C 
ENDROOT
BRANCH   1   2
ATOM      2  C   UNL     1      -3.823  31.647  60.225  1.00  0.00     0.000 C 
BRANCH   2   3
ATOM      3  C   UNL     1      -2.774  32.635  60.762  1.00  0.00     0.000 C 
BRANCH   3   4
ATOM      4  C   UNL     1      -3.086  33.247  62.142  1.00  0.00     0.006 C 
BRANCH   4   5
ATOM      5  C   UNL     1      -2.703  32.346  63.330  1.00  0.00     0.053 C 
BRANCH   5   6
ATOM      6  C   UNL     1      -1.812  33.042  64.314  1.00  0.00     0.041 C 
ATOM      7  O   UNL     1      -0.600  32.720  64.411  1.00  0.00    -0.550 OA
ATOM      8  O   UNL     1      -2.311  34.078  65.095  1.00  0.00    -0.550 OA
ENDBRANCH   5   6
ENDBRANCH   4   5
ENDBRANCH   3   4
ENDBRANCH   2   3
ENDBRANCH   1   2
BRANCH   1   9
ATOM      9  C   UNL     1      -4.113  30.303  58.067  1.00  0.00     0.000 C 
BRANCH   9  10
ATOM     10  C   UNL     1      -2.786  29.750  57.528  1.00  0.00    -0.000 C 
BRANCH  10  11
ATOM     11  C   UNL     1      -3.012  28.939  56.243  1.00  0.00    -0.000 C 
BRANCH  11  12
ATOM     12  C   UNL     1      -4.396  28.271  56.199  1.00  0.00    -0.000 C 
BRANCH  12  13
ATOM     13  C   UNL     1      -4.530  27.262  55.049  1.00  0.00    -0.003 C 
ATOM     14  C   UNL     1      -3.289  26.382  54.943  1.00  0.00     0.004 C 
ENDBRANCH  12  13
ENDBRANCH  11  12
ENDBRANCH  10  11
ENDBRANCH   9  10
ENDBRANCH   1   9
TORSDOF 10
ENDMDL
MODEL 7
REMARK VINA RESULT:    -4.729      2.027      3.150
REMARK INTER + INTRA:          -8.134
REMARK INTER:                  -7.518
REMARK INTRA:                  -0.616
REMARK UNBOUND:                -0.640
REMARK SMILES CCCCCCCCCCCC(=O)[O-]
REMARK SMILES IDX 7 1 8 2 9 3 10 4 11 5 12 6 13 7 14 8 6 9 5 10 4 11 3 12 2 13
REMARK SMILES IDX 1 14
REMARK H PARENT
REMARK Flexibility Score: inf
ROOT
ATOM      1  C   UNL     1      -0.954  26.187  54.145  1.00  0.00     0.000 C 
ENDROOT
BRANCH   1   2
ATOM      2  C   UNL     1      -0.122  26.268  55.437  1.00  0.00     0.000 C 
BRANCH   2   3
ATOM      3  C   UNL     1      -0.772  27.154  56.513  1.00  0.00     0.000 C 
BRANCH   3   4
ATOM      4  C   UNL     1      -2.313  27.127  56.552  1.00  0.00     0.006 C 
BRANCH   4   5
ATOM      5  C   UNL     1      -2.977  28.427  56.062  1.00  0.00     0.053 C 
BRANCH   5   6
ATOM      6  C   UNL     1      -4.471  28.384  56.175  1.00  0.00     0.041 C 
ATOM      7  O   UNL     1      -5.149  27.698  55.365  1.00  0.00    -0.550 OA
ATOM      8  O   UNL     1      -5.114  29.066  57.200  1.00  0.00    -0.550 OA
ENDBRANCH   5   6
ENDBRANCH   4   5
ENDBRANCH   3   4
ENDBRANCH   2   3
ENDBRANCH   1   2
BRANCH   1   9
ATOM      9  C   UNL     1      -0.534  25.013  53.245  1.00  0.00     0.000 C 
BRANCH   9  10
ATOM     10  C   UNL     1       0.137  25.472  51.942  1.00  0.00    -0.000 C 
BRANCH  10  11
ATOM     11  C   UNL     1      -0.880  25.527  50.793  1.00  0.00    -0.000 C 
BRANCH  11  12
ATOM     12  C   UNL     1      -1.310  26.961  50.447  1.00  0.00    -0.000 C 
BRANCH  12  13
ATOM     13  C   UNL     1      -2.785  27.053  50.030  1.00  0.00    -0.003 C 
ATOM     14  C   UNL     1      -3.692  26.410  51.075  1.00  0.00     0.004 C 
ENDBRANCH  12  13
ENDBRANCH  11  12
ENDBRANCH  10  11
ENDBRANCH   9  10
ENDBRANCH   1   9
TORSDOF 10
ENDMDL
MODEL 8
REMARK VINA RESULT:    -4.696      2.104      3.361
REMARK INTER + INTRA:          -8.080
REMARK INTER:                  -7.447
REMARK INTRA:                  -0.634
REMARK UNBOUND:                -0.640
REMARK SMILES CCCCCCCCCCCC(=O)[O-]
REMARK SMILES IDX 7 1 8 2 9 3 10 4 11 5 12 6 13 7 14 8 6 9 5 10 4 11 3 12 2 13
REMARK SMILES IDX 1 14
REMARK H PARENT
REMARK Flexibility Score: inf
ROOT
ATOM      1  C   UNL     1      -3.303  26.441  55.617  1.00  0.00     0.000 C 
ENDROOT
BRANCH   1   2
ATOM      2  C   UNL     1      -4.097  27.758  55.631  1.00  0.00     0.000 C 
BRANCH   2   3
ATOM      3  C   UNL     1      -3.383  28.881  56.401  1.00  0.00     0.000 C 
BRANCH   3   4
ATOM      4  C   UNL     1      -4.308  29.888  57.113  1.00  0.00     0.006 C 
BRANCH   4   5
ATOM      5  C   UNL     1      -3.907  30.191  58.569  1.00  0.00     0.053 C 
BRANCH   5   6
ATOM      6  C   UNL     1      -3.860  31.661  58.855  1.00  0.00     0.041 C 
ATOM      7  O   UNL     1      -4.383  32.481  58.056  1.00  0.00    -0.550 OA
ATOM      8  O   UNL     1      -3.275  32.126  60.028  1.00  0.00    -0.550 OA
ENDBRANCH   5   6
ENDBRANCH   4   5
ENDBRANCH   3   4
ENDBRANCH   2   3
ENDBRANCH   1   2
BRANCH   1   9
ATOM      9  C   UNL     1      -2.826  26.054  54.208  1.00  0.00     0.000 C 
BRANCH   9  10
ATOM     10  C   UNL     1      -1.336  26.353  53.980  1.00  0.00    -0.000 C 
BRANCH  10  11
ATOM     11  C   UNL     1      -0.456  25.437  54.844  1.00  0.00    -0.000 C 
BRANCH  11  12
ATOM     12  C   UNL     1       0.762  26.167  55.433  1.00  0.00    -0.000 C 
BRANCH  12  13
ATOM     13  C   UNL     1       0.390  27.085  56.608  1.00  0.00    -0.003 C 
ATOM     14  C   UNL     1       1.639  27.616  57.305  1.00  0.00     0.004 C 
ENDBRANCH  12  13
ENDBRANCH  11  12
ENDBRANCH  10  11
ENDBRANCH   9  10
ENDBRANCH   1   9
TORSDOF 10
ENDMDL
MODEL 9
REMARK VINA RESULT:    -4.644      2.034      3.135
REMARK INTER + INTRA:          -7.998
REMARK INTER:                  -7.744
REMARK INTRA:                  -0.254
REMARK UNBOUND:                -0.640
REMARK SMILES CCCCCCCCCCCC(=O)[O-]
REMARK SMILES IDX 7 1 8 2 9 3 10 4 11 5 12 6 13 7 14 8 6 9 5 10 4 11 3 12 2 13
REMARK SMILES IDX 1 14
REMARK H PARENT
REMARK Flexibility Score: inf
ROOT
ATOM      1  C   UNL     1      -3.428  26.533  53.233  1.00  0.00     0.000 C 
ENDROOT
BRANCH   1   2
ATOM      2  C   UNL     1      -2.770  26.081  54.548  1.00  0.00     0.000 C 
BRANCH   2   3
ATOM      3  C   UNL     1      -3.452  26.672  55.794  1.00  0.00     0.000 C 
BRANCH   3   4
ATOM      4  C   UNL     1      -4.488  27.779  55.519  1.00  0.00     0.006 C 
BRANCH   4   5
ATOM      5  C   UNL     1      -4.709  28.741  56.702  1.00  0.00     0.053 C 
BRANCH   5   6
ATOM      6  C   UNL     1      -3.455  29.461  57.096  1.00  0.00     0.041 C 
ATOM      7  O   UNL     1      -3.407  30.107  58.175  1.00  0.00    -0.550 OA
ATOM      8  O   UNL     1      -2.324  29.384  56.292  1.00  0.00    -0.550 OA
ENDBRANCH   5   6
ENDBRANCH   4   5
ENDBRANCH   3   4
ENDBRANCH   2   3
ENDBRANCH   1   2
BRANCH   1   9
ATOM      9  C   UNL     1      -2.557  26.233  52.003  1.00  0.00     0.000 C 
BRANCH   9  10
ATOM     10  C   UNL     1      -1.094  25.937  52.367  1.00  0.00    -0.000 C 
BRANCH  10  11
ATOM     11  C   UNL     1      -0.270  25.623  51.109  1.00  0.00    -0.000 C 
BRANCH  11  12
ATOM     12  C   UNL     1       1.163  25.172  51.435  1.00  0.00    -0.000 C 
BRANCH  12  13
ATOM     13  C   UNL     1       1.241  24.334  52.721  1.00  0.00    -0.003 C 
ATOM     14  C   UNL     1       2.203  24.959  53.726  1.00  0.00     0.004 C 
ENDBRANCH  12  13
ENDBRANCH  11  12
ENDBRANCH  10  11
ENDBRANCH   9  10
ENDBRANCH   1   9
TORSDOF 10
ENDMDL
