MODEL 1
REMARK VINA RESULT:    -4.921      0.000      0.000
REMARK INTER + INTRA:         -10.891
REMARK INTER:                  -9.237
REMARK INTRA:                  -1.654
REMARK UNBOUND:                -1.654
REMARK SMILES O=C([O-])CCCCCCCCCCCCCCC(=O)[O-]
REMARK SMILES IDX 10 1 9 2 8 3 7 4 6 5 5 6 4 7 2 8 1 9 3 10 11 11 12 12 13 13
REMARK SMILES IDX 14 14 15 15 16 16 17 17 18 18 19 19 20 20
REMARK H PARENT
REMARK Flexibility Score: inf
ROOT
ATOM      1  C   UNL     1      31.579  -9.542  16.994  1.00  0.00     0.000 C 
ENDROOT
BRANCH   1   2
ATOM      2  C   UNL     1      30.194  -8.869  16.895  1.00  0.00     0.000 C 
BRANCH   2   3
ATOM      3  C   UNL     1      29.044  -9.859  16.644  1.00  0.00     0.000 C 
BRANCH   3   4
ATOM      4  C   UNL     1      28.070  -9.381  15.560  1.00  0.00     0.000 C 
BRANCH   4   5
ATOM      5  C   UNL     1      27.760 -10.506  14.564  1.00  0.00     0.000 C 
BRANCH   5   6
ATOM      6  C   UNL     1      28.435 -11.818  14.991  1.00  0.00     0.006 C 
BRANCH   6   7
ATOM      7  C   UNL     1      27.414 -12.905  15.354  1.00  0.00     0.053 C 
BRANCH   7   8
ATOM      8  C   UNL     1      27.737 -14.211  14.696  1.00  0.00     0.041 C 
ATOM      9  O   UNL     1      28.628 -14.960  15.177  1.00  0.00    -0.550 OA
ATOM     10  O   UNL     1      27.077 -14.586  13.533  1.00  0.00    -0.550 OA
ENDBRANCH   7   8
ENDBRANCH   6   7
ENDBRANCH   5   6
ENDBRANCH   4   5
ENDBRANCH   3   4
ENDBRANCH   2   3
ENDBRANCH   1   2
BRANCH   1  11
ATOM     11  C   UNL     1      31.786 -10.605  15.899  1.00  0.00     0.000 C 
BRANCH  11  12
ATOM     12  C   UNL     1      32.457 -10.037  14.639  1.00  0.00     0.000 C 
BRANCH  12  13
ATOM     13  C   UNL     1      31.504  -9.977  13.437  1.00  0.00     0.000 C 
BRANCH  13  14
ATOM     14  C   UNL     1      30.930  -8.566  13.262  1.00  0.00     0.000 C 
BRANCH  14  15
ATOM     15  C   UNL     1      31.181  -8.040  11.843  1.00  0.00     0.000 C 
BRANCH  15  16
ATOM     16  C   UNL     1      30.740  -6.575  11.713  1.00  0.00     0.006 C 
BRANCH  16  17
ATOM     17  C   UNL     1      31.923  -5.635  11.446  1.00  0.00     0.053 C 
BRANCH  17  18
ATOM     18  C   UNL     1      32.568  -5.916  10.124  1.00  0.00     0.041 C 
ATOM     19  O   UNL     1      31.860  -6.166   9.112  1.00  0.00    -0.550 OA
ATOM     20  O   UNL     1      33.952  -5.936  10.016  1.00  0.00    -0.550 OA
ENDBRANCH  17  18
ENDBRANCH  16  17
ENDBRANCH  15  16
ENDBRANCH  14  15
ENDBRANCH  13  14
ENDBRANCH  12  13
ENDBRANCH  11  12
ENDBRANCH   1  11
TORSDOF 15
ENDMDL
MODEL 2
REMARK VINA RESULT:    -4.907      2.097      8.153
REMARK INTER + INTRA:         -10.864
REMARK INTER:                  -9.503
REMARK INTRA:                  -1.361
REMARK UNBOUND:                -1.654
REMARK SMILES O=C([O-])CCCCCCCCCCCCCCC(=O)[O-]
REMARK SMILES IDX 10 1 9 2 8 3 7 4 6 5 5 6 4 7 2 8 1 9 3 10 11 11 12 12 13 13
REMARK SMILES IDX 14 14 15 15 16 16 17 17 18 18 19 19 20 20
REMARK H PARENT
REMARK Flexibility Score: inf
ROOT
ATOM      1  C   UNL     1      31.805  -9.335  12.559  1.00  0.00     0.000 C 
ENDROOT
BRANCH   1   2
ATOM      2  C   UNL     1      31.564  -7.851  12.908  1.00  0.00     0.000 C 
BRANCH   2   3
ATOM      3  C   UNL     1      30.627  -7.132  11.922  1.00  0.00     0.000 C 
BRANCH   3   4
ATOM      4  C   UNL     1      31.383  -6.309  10.871  1.00  0.00     0.000 C 
BRANCH   4   5
ATOM      5  C   UNL     1      32.363  -5.334  11.536  1.00  0.00     0.000 C 
BRANCH   5   6
ATOM      6  C   UNL     1      33.661  -5.219  10.723  1.00  0.00     0.006 C 
BRANCH   6   7
ATOM      7  C   UNL     1      34.247  -6.592  10.369  1.00  0.00     0.053 C 
BRANCH   7   8
ATOM      8  C   UNL     1      35.347  -6.984  11.308  1.00  0.00     0.041 C 
ATOM      9  O   UNL     1      35.077  -7.545  12.402  1.00  0.00    -0.550 OA
ATOM     10  O   UNL     1      36.668  -6.699  10.988  1.00  0.00    -0.550 OA
ENDBRANCH   7   8
ENDBRANCH   6   7
ENDBRANCH   5   6
ENDBRANCH   4   5
ENDBRANCH   3   4
ENDBRANCH   2   3
ENDBRANCH   1   2
BRANCH   1  11
ATOM     11  C   UNL     1      30.493 -10.138  12.498  1.00  0.00     0.000 C 
BRANCH  11  12
ATOM     12  C   UNL     1      30.026 -10.616  13.881  1.00  0.00     0.000 C 
BRANCH  12  13
ATOM     13  C   UNL     1      29.024  -9.652  14.533  1.00  0.00     0.000 C 
BRANCH  13  14
ATOM     14  C   UNL     1      27.719 -10.374  14.888  1.00  0.00     0.000 C 
BRANCH  14  15
ATOM     15  C   UNL     1      27.307 -11.347  13.776  1.00  0.00     0.000 C 
BRANCH  15  16
ATOM     16  C   UNL     1      26.920 -12.715  14.357  1.00  0.00     0.006 C 
BRANCH  16  17
ATOM     17  C   UNL     1      27.434 -12.904  15.790  1.00  0.00     0.053 C 
BRANCH  17  18
ATOM     18  C   UNL     1      28.666 -13.755  15.831  1.00  0.00     0.041 C 
ATOM     19  O   UNL     1      28.648 -14.920  15.349  1.00  0.00    -0.550 OA
ATOM     20  O   UNL     1      29.823 -13.275  16.428  1.00  0.00    -0.550 OA
ENDBRANCH  17  18
ENDBRANCH  16  17
ENDBRANCH  15  16
ENDBRANCH  14  15
ENDBRANCH  13  14
ENDBRANCH  12  13
ENDBRANCH  11  12
ENDBRANCH   1  11
TORSDOF 15
ENDMDL
MODEL 3
REMARK VINA RESULT:    -4.860      1.935      3.102
REMARK INTER + INTRA:         -10.775
REMARK INTER:                  -9.411
REMARK INTRA:                  -1.364
REMARK UNBOUND:                -1.654
REMARK SMILES O=C([O-])CCCCCCCCCCCCCCC(=O)[O-]
REMARK SMILES IDX 10 1 9 2 8 3 7 4 6 5 5 6 4 7 2 8 1 9 3 10 11 11 12 12 13 13
REMARK SMILES IDX 14 14 15 15 16 16 17 17 18 18 19 19 20 20
REMARK H PARENT
REMARK Flexibility Score: inf
ROOT
ATOM      1  C   UNL     1      31.539  -9.347  13.242  1.00  0.00     0.000 C 
ENDROOT
BRANCH   1   2
ATOM      2  C   UNL     1      30.677  -9.015  14.478  1.00  0.00     0.000 C 
BRANCH   2   3
ATOM      3  C   UNL     1      29.238  -9.551  14.387  1.00  0.00     0.000 C 
BRANCH   3   4
ATOM      4  C   UNL     1      29.163 -10.964  13.795  1.00  0.00     0.000 C 
BRANCH   4   5
ATOM      5  C   UNL     1      27.827 -11.634  14.137  1.00  0.00     0.000 C 
BRANCH   5   6
ATOM      6  C   UNL     1      27.590 -11.643  15.655  1.00  0.00     0.006 C 
BRANCH   6   7
ATOM      7  C   UNL     1      27.507 -13.067  16.221  1.00  0.00     0.053 C 
BRANCH   7   8
ATOM      8  C   UNL     1      28.797 -13.809  16.047  1.00  0.00     0.041 C 
ATOM      9  O   UNL     1      29.873 -13.319  16.480  1.00  0.00    -0.550 OA
ATOM     10  O   UNL     1      28.815 -15.026  15.379  1.00  0.00    -0.550 OA
ENDBRANCH   7   8
ENDBRANCH   6   7
ENDBRANCH   5   6
ENDBRANCH   4   5
ENDBRANCH   3   4
ENDBRANCH   2   3
ENDBRANCH   1   2
BRANCH   1  11
ATOM     11  C   UNL     1      31.109  -8.542  12.001  1.00  0.00     0.000 C 
BRANCH  11  12
ATOM     12  C   UNL     1      30.597  -7.137  12.353  1.00  0.00     0.000 C 
BRANCH  12  13
ATOM     13  C   UNL     1      31.000  -6.082  11.313  1.00  0.00     0.000 C 
BRANCH  13  14
ATOM     14  C   UNL     1      31.422  -6.743   9.996  1.00  0.00     0.000 C 
BRANCH  14  15
ATOM     15  C   UNL     1      32.676  -6.074   9.420  1.00  0.00     0.000 C 
BRANCH  15  16
ATOM     16  C   UNL     1      33.546  -5.480  10.538  1.00  0.00     0.006 C 
BRANCH  16  17
ATOM     17  C   UNL     1      34.863  -6.246  10.717  1.00  0.00     0.053 C 
BRANCH  17  18
ATOM     18  C   UNL     1      34.685  -7.460  11.577  1.00  0.00     0.041 C 
ATOM     19  O   UNL     1      34.782  -8.612  11.076  1.00  0.00    -0.550 OA
ATOM     20  O   UNL     1      34.381  -7.319  12.924  1.00  0.00    -0.550 OA
ENDBRANCH  17  18
ENDBRANCH  16  17
ENDBRANCH  15  16
ENDBRANCH  14  15
ENDBRANCH  13  14
ENDBRANCH  12  13
ENDBRANCH  11  12
ENDBRANCH   1  11
TORSDOF 15
ENDMDL
MODEL 4
REMARK VINA RESULT:    -4.822      1.763      8.164
REMARK INTER + INTRA:         -10.704
REMARK INTER:                  -9.636
REMARK INTRA:                  -1.068
REMARK UNBOUND:                -1.654
REMARK SMILES O=C([O-])CCCCCCCCCCCCCCC(=O)[O-]
REMARK SMILES IDX 10 1 9 2 8 3 7 4 6 5 5 6 4 7 2 8 1 9 3 10 11 11 12 12 13 13
REMARK SMILES IDX 14 14 15 15 16 16 17 17 18 18 19 19 20 20
REMARK H PARENT
REMARK Flexibility Score: inf
ROOT
ATOM      1  C   UNL     1      31.098  -8.333  12.679  1.00  0.00     0.000 C 
ENDROOT
BRANCH   1   2
ATOM      2  C   UNL     1      30.562  -6.957  12.232  1.00  0.00     0.000 C 
BRANCH   2   3
ATOM      3  C   UNL     1      31.363  -6.328  11.080  1.00  0.00     0.000 C 
BRANCH   3   4
ATOM      4  C   UNL     1      32.388  -5.292  11.560  1.00  0.00     0.000 C 
BRANCH   4   5
ATOM      5  C   UNL     1      33.643  -5.310  10.679  1.00  0.00     0.000 C 
BRANCH   5   6
ATOM      6  C   UNL     1      34.733  -6.200  11.294  1.00  0.00     0.006 C 
BRANCH   6   7
ATOM      7  C   UNL     1      35.397  -7.109  10.251  1.00  0.00     0.053 C 
BRANCH   7   8
ATOM      8  C   UNL     1      34.416  -8.066   9.645  1.00  0.00     0.041 C 
ATOM      9  O   UNL     1      34.158  -8.014   8.414  1.00  0.00    -0.550 OA
ATOM     10  O   UNL     1      33.764  -8.993  10.447  1.00  0.00    -0.550 OA
ENDBRANCH   7   8
ENDBRANCH   6   7
ENDBRANCH   5   6
ENDBRANCH   4   5
ENDBRANCH   3   4
ENDBRANCH   2   3
ENDBRANCH   1   2
BRANCH   1  11
ATOM     11  C   UNL     1      30.668  -8.685  14.115  1.00  0.00     0.000 C 
BRANCH  11  12
ATOM     12  C   UNL     1      29.144  -8.806  14.266  1.00  0.00     0.000 C 
BRANCH  12  13
ATOM     13  C   UNL     1      28.723  -9.286  15.662  1.00  0.00     0.000 C 
BRANCH  13  14
ATOM     14  C   UNL     1      27.572 -10.295  15.571  1.00  0.00     0.000 C 
BRANCH  14  15
ATOM     15  C   UNL     1      27.665 -11.123  14.283  1.00  0.00     0.000 C 
BRANCH  15  16
ATOM     16  C   UNL     1      26.940 -12.468  14.440  1.00  0.00     0.006 C 
BRANCH  16  17
ATOM     17  C   UNL     1      27.212 -13.119  15.802  1.00  0.00     0.053 C 
BRANCH  17  18
ATOM     18  C   UNL     1      28.549 -13.794  15.837  1.00  0.00     0.041 C 
ATOM     19  O   UNL     1      28.700 -14.932  15.318  1.00  0.00    -0.550 OA
ATOM     20  O   UNL     1      29.621 -13.180  16.471  1.00  0.00    -0.550 OA
ENDBRANCH  17  18
ENDBRANCH  16  17
ENDBRANCH  15  16
ENDBRANCH  14  15
ENDBRANCH  13  14
ENDBRANCH  12  13
ENDBRANCH  11  12
ENDBRANCH   1  11
TORSDOF 15
ENDMDL
MODEL 5
REMARK VINA RESULT:    -4.801      2.110      3.499
REMARK INTER + INTRA:         -10.664
REMARK INTER:                  -9.534
REMARK INTRA:                  -1.130
REMARK UNBOUND:                -1.654
REMARK SMILES O=C([O-])CCCCCCCCCCCCCCC(=O)[O-]
REMARK SMILES IDX 10 1 9 2 8 3 7 4 6 5 5 6 4 7 2 8 1 9 3 10 11 11 12 12 13 13
REMARK SMILES IDX 14 14 15 15 16 16 17 17 18 18 19 19 20 20
REMARK H PARENT
REMARK Flexibility Score: inf
ROOT
ATOM      1  C   UNL     1      31.205  -8.931  12.591  1.00  0.00     0.000 C 
ENDROOT
BRANCH   1   2
ATOM      2  C   UNL     1      30.238  -9.880  13.329  1.00  0.00     0.000 C 
BRANCH   2   3
ATOM      3  C   UNL     1      29.799  -9.362  14.708  1.00  0.00     0.000 C 
BRANCH   3   4
ATOM      4  C   UNL     1      28.287  -9.486  14.940  1.00  0.00     0.000 C 
BRANCH   4   5
ATOM      5  C   UNL     1      27.799 -10.908  14.638  1.00  0.00     0.000 C 
BRANCH   5   6
ATOM      6  C   UNL     1      28.184 -11.873  15.769  1.00  0.00     0.006 C 
BRANCH   6   7
ATOM      7  C   UNL     1      27.346 -13.158  15.747  1.00  0.00     0.053 C 
BRANCH   7   8
ATOM      8  C   UNL     1      27.998 -14.230  14.928  1.00  0.00     0.041 C 
ATOM      9  O   UNL     1      28.838 -15.007  15.454  1.00  0.00    -0.550 OA
ATOM     10  O   UNL     1      27.700 -14.351  13.577  1.00  0.00    -0.550 OA
ENDBRANCH   7   8
ENDBRANCH   6   7
ENDBRANCH   5   6
ENDBRANCH   4   5
ENDBRANCH   3   4
ENDBRANCH   2   3
ENDBRANCH   1   2
BRANCH   1  11
ATOM     11  C   UNL     1      30.661  -7.493  12.513  1.00  0.00     0.000 C 
BRANCH  11  12
ATOM     12  C   UNL     1      30.988  -6.806  11.179  1.00  0.00     0.000 C 
BRANCH  12  13
ATOM     13  C   UNL     1      31.483  -5.364  11.361  1.00  0.00     0.000 C 
BRANCH  13  14
ATOM     14  C   UNL     1      33.002  -5.326  11.562  1.00  0.00     0.000 C 
BRANCH  14  15
ATOM     15  C   UNL     1      33.739  -5.626  10.251  1.00  0.00     0.000 C 
BRANCH  15  16
ATOM     16  C   UNL     1      34.940  -6.552  10.494  1.00  0.00     0.006 C 
BRANCH  16  17
ATOM     17  C   UNL     1      34.554  -7.807  11.288  1.00  0.00     0.053 C 
BRANCH  17  18
ATOM     18  C   UNL     1      35.374  -7.950  12.533  1.00  0.00     0.041 C 
ATOM     19  O   UNL     1      34.820  -8.228  13.630  1.00  0.00    -0.550 OA
ATOM     20  O   UNL     1      36.747  -7.744  12.488  1.00  0.00    -0.550 OA
ENDBRANCH  17  18
ENDBRANCH  16  17
ENDBRANCH  15  16
ENDBRANCH  14  15
ENDBRANCH  13  14
ENDBRANCH  12  13
ENDBRANCH  11  12
ENDBRANCH   1  11
TORSDOF 15
ENDMDL
MODEL 6
REMARK VINA RESULT:    -4.787      1.921      8.028
REMARK INTER + INTRA:         -10.638
REMARK INTER:                  -9.000
REMARK INTRA:                  -1.638
REMARK UNBOUND:                -1.654
REMARK SMILES O=C([O-])CCCCCCCCCCCCCCC(=O)[O-]
REMARK SMILES IDX 10 1 9 2 8 3 7 4 6 5 5 6 4 7 2 8 1 9 3 10 11 11 12 12 13 13
REMARK SMILES IDX 14 14 15 15 16 16 17 17 18 18 19 19 20 20
REMARK H PARENT
REMARK Flexibility Score: inf
ROOT
ATOM      1  C   UNL     1      31.270  -5.833  11.174  1.00  0.00     0.000 C 
ENDROOT
BRANCH   1   2
ATOM      2  C   UNL     1      32.568  -5.246  11.768  1.00  0.00     0.000 C 
BRANCH   2   3
ATOM      3  C   UNL     1      33.736  -5.200  10.770  1.00  0.00     0.000 C 
BRANCH   3   4
ATOM      4  C   UNL     1      34.808  -6.260  11.055  1.00  0.00     0.000 C 
BRANCH   4   5
ATOM      5  C   UNL     1      34.760  -7.385  10.013  1.00  0.00     0.000 C 
BRANCH   5   6
ATOM      6  C   UNL     1      33.939  -6.963   8.786  1.00  0.00     0.006 C 
BRANCH   6   7
ATOM      7  C   UNL     1      32.882  -8.009   8.407  1.00  0.00     0.053 C 
BRANCH   7   8
ATOM      8  C   UNL     1      31.717  -7.388   7.698  1.00  0.00     0.041 C 
ATOM      9  O   UNL     1      30.759  -8.105   7.305  1.00  0.00    -0.550 OA
ATOM     10  O   UNL     1      31.705  -6.023   7.443  1.00  0.00    -0.550 OA
ENDBRANCH   7   8
ENDBRANCH   6   7
ENDBRANCH   5   6
ENDBRANCH   4   5
ENDBRANCH   3   4
ENDBRANCH   2   3
ENDBRANCH   1   2
BRANCH   1  11
ATOM     11  C   UNL     1      30.632  -6.886  12.099  1.00  0.00     0.000 C 
BRANCH  11  12
ATOM     12  C   UNL     1      31.332  -8.251  12.015  1.00  0.00     0.000 C 
BRANCH  12  13
ATOM     13  C   UNL     1      30.720  -9.290  12.965  1.00  0.00     0.000 C 
BRANCH  13  14
ATOM     14  C   UNL     1      31.192  -9.061  14.406  1.00  0.00     0.000 C 
BRANCH  14  15
ATOM     15  C   UNL     1      30.007  -8.777  15.336  1.00  0.00     0.000 C 
BRANCH  15  16
ATOM     16  C   UNL     1      28.701  -9.336  14.751  1.00  0.00     0.006 C 
BRANCH  16  17
ATOM     17  C   UNL     1      27.893 -10.127  15.788  1.00  0.00     0.053 C 
BRANCH  17  18
ATOM     18  C   UNL     1      28.047 -11.605  15.602  1.00  0.00     0.041 C 
ATOM     19  O   UNL     1      27.254 -12.402  16.169  1.00  0.00    -0.550 OA
ATOM     20  O   UNL     1      29.087 -12.104  14.829  1.00  0.00    -0.550 OA
ENDBRANCH  17  18
ENDBRANCH  16  17
ENDBRANCH  15  16
ENDBRANCH  14  15
ENDBRANCH  13  14
ENDBRANCH  12  13
ENDBRANCH  11  12
ENDBRANCH   1  11
TORSDOF 15
ENDMDL
MODEL 7
REMARK VINA RESULT:    -4.772      1.613      7.941
REMARK INTER + INTRA:         -10.611
REMARK INTER:                  -9.113
REMARK INTRA:                  -1.498
REMARK UNBOUND:                -1.654
REMARK SMILES O=C([O-])CCCCCCCCCCCCCCC(=O)[O-]
REMARK SMILES IDX 10 1 9 2 8 3 7 4 6 5 5 6 4 7 2 8 1 9 3 10 11 11 12 12 13 13
REMARK SMILES IDX 14 14 15 15 16 16 17 17 18 18 19 19 20 20
REMARK H PARENT
REMARK Flexibility Score: inf
ROOT
ATOM      1  C   UNL     1      30.561  -7.032  12.093  1.00  0.00     0.000 C 
ENDROOT
BRANCH   1   2
ATOM      2  C   UNL     1      31.241  -5.836  11.393  1.00  0.00     0.000 C 
BRANCH   2   3
ATOM      3  C   UNL     1      32.708  -5.635  11.805  1.00  0.00     0.000 C 
BRANCH   3   4
ATOM      4  C   UNL     1      33.615  -5.259  10.626  1.00  0.00     0.000 C 
BRANCH   4   5
ATOM      5  C   UNL     1      34.628  -6.373  10.334  1.00  0.00     0.000 C 
BRANCH   5   6
ATOM      6  C   UNL     1      34.196  -7.202   9.115  1.00  0.00     0.006 C 
BRANCH   6   7
ATOM      7  C   UNL     1      33.463  -8.489   9.519  1.00  0.00     0.053 C 
BRANCH   7   8
ATOM      8  C   UNL     1      32.051  -8.502   9.017  1.00  0.00     0.041 C 
ATOM      9  O   UNL     1      31.599  -7.522   8.370  1.00  0.00    -0.550 OA
ATOM     10  O   UNL     1      31.226  -9.585   9.292  1.00  0.00    -0.550 OA
ENDBRANCH   7   8
ENDBRANCH   6   7
ENDBRANCH   5   6
ENDBRANCH   4   5
ENDBRANCH   3   4
ENDBRANCH   2   3
ENDBRANCH   1   2
BRANCH   1  11
ATOM     11  C   UNL     1      31.585  -8.016  12.687  1.00  0.00     0.000 C 
BRANCH  11  12
ATOM     12  C   UNL     1      30.922  -9.203  13.402  1.00  0.00     0.000 C 
BRANCH  12  13
ATOM     13  C   UNL     1      30.137  -8.778  14.651  1.00  0.00     0.000 C 
BRANCH  13  14
ATOM     14  C   UNL     1      28.802  -9.527  14.742  1.00  0.00     0.000 C 
BRANCH  14  15
ATOM     15  C   UNL     1      28.980 -11.014  14.410  1.00  0.00     0.000 C 
BRANCH  15  16
ATOM     16  C   UNL     1      28.916 -11.873  15.682  1.00  0.00     0.006 C 
BRANCH  16  17
ATOM     17  C   UNL     1      27.762 -12.883  15.643  1.00  0.00     0.053 C 
BRANCH  17  18
ATOM     18  C   UNL     1      28.135 -14.122  14.888  1.00  0.00     0.041 C 
ATOM     19  O   UNL     1      28.861 -14.999  15.427  1.00  0.00    -0.550 OA
ATOM     20  O   UNL     1      27.708 -14.293  13.578  1.00  0.00    -0.550 OA
ENDBRANCH  17  18
ENDBRANCH  16  17
ENDBRANCH  15  16
ENDBRANCH  14  15
ENDBRANCH  13  14
ENDBRANCH  12  13
ENDBRANCH  11  12
ENDBRANCH   1  11
TORSDOF 15
ENDMDL
MODEL 8
REMARK VINA RESULT:    -4.722      1.791      3.312
REMARK INTER + INTRA:         -10.518
REMARK INTER:                  -8.837
REMARK INTRA:                  -1.681
REMARK UNBOUND:                -1.654
REMARK SMILES O=C([O-])CCCCCCCCCCCCCCC(=O)[O-]
REMARK SMILES IDX 10 1 9 2 8 3 7 4 6 5 5 6 4 7 2 8 1 9 3 10 11 11 12 12 13 13
REMARK SMILES IDX 14 14 15 15 16 16 17 17 18 18 19 19 20 20
REMARK H PARENT
REMARK Flexibility Score: inf
ROOT
ATOM      1  C   UNL     1      31.338  -9.636  12.109  1.00  0.00     0.000 C 
ENDROOT
BRANCH   1   2
ATOM      2  C   UNL     1      30.411 -10.428  13.054  1.00  0.00     0.000 C 
BRANCH   2   3
ATOM      3  C   UNL     1      30.854 -10.389  14.526  1.00  0.00     0.000 C 
BRANCH   3   4
ATOM      4  C   UNL     1      29.779  -9.817  15.459  1.00  0.00     0.000 C 
BRANCH   4   5
ATOM      5  C   UNL     1      28.449  -9.633  14.718  1.00  0.00     0.000 C 
BRANCH   5   6
ATOM      6  C   UNL     1      27.422 -10.684  15.164  1.00  0.00     0.006 C 
BRANCH   6   7
ATOM      7  C   UNL     1      27.173 -11.746  14.084  1.00  0.00     0.053 C 
BRANCH   7   8
ATOM      8  C   UNL     1      27.877 -13.031  14.398  1.00  0.00     0.041 C 
ATOM      9  O   UNL     1      27.759 -14.023  13.631  1.00  0.00    -0.550 OA
ATOM     10  O   UNL     1      28.636 -13.143  15.556  1.00  0.00    -0.550 OA
ENDBRANCH   7   8
ENDBRANCH   6   7
ENDBRANCH   5   6
ENDBRANCH   4   5
ENDBRANCH   3   4
ENDBRANCH   2   3
ENDBRANCH   1   2
BRANCH   1  11
ATOM     11  C   UNL     1      31.723  -8.262  12.689  1.00  0.00     0.000 C 
BRANCH  11  12
ATOM     12  C   UNL     1      30.609  -7.217  12.528  1.00  0.00     0.000 C 
BRANCH  12  13
ATOM     13  C   UNL     1      30.737  -6.411  11.228  1.00  0.00     0.000 C 
BRANCH  13  14
ATOM     14  C   UNL     1      32.075  -5.665  11.173  1.00  0.00     0.000 C 
BRANCH  14  15
ATOM     15  C   UNL     1      32.805  -5.936   9.852  1.00  0.00     0.000 C 
BRANCH  15  16
ATOM     16  C   UNL     1      34.328  -5.881  10.042  1.00  0.00     0.006 C 
BRANCH  16  17
ATOM     17  C   UNL     1      34.750  -6.275  11.463  1.00  0.00     0.053 C 
BRANCH  17  18
ATOM     18  C   UNL     1      35.220  -7.696  11.529  1.00  0.00     0.041 C 
ATOM     19  O   UNL     1      35.446  -8.339  10.470  1.00  0.00    -0.550 OA
ATOM     20  O   UNL     1      35.377  -8.320  12.760  1.00  0.00    -0.550 OA
ENDBRANCH  17  18
ENDBRANCH  16  17
ENDBRANCH  15  16
ENDBRANCH  14  15
ENDBRANCH  13  14
ENDBRANCH  12  13
ENDBRANCH  11  12
ENDBRANCH   1  11
TORSDOF 15
ENDMDL
MODEL 9
REMARK VINA RESULT:    -4.693      2.526      7.578
REMARK INTER + INTRA:         -10.462
REMARK INTER:                  -8.918
REMARK INTRA:                  -1.545
REMARK UNBOUND:                -1.654
REMARK SMILES O=C([O-])CCCCCCCCCCCCCCC(=O)[O-]
REMARK SMILES IDX 10 1 9 2 8 3 7 4 6 5 5 6 4 7 2 8 1 9 3 10 11 11 12 12 13 13
REMARK SMILES IDX 14 14 15 15 16 16 17 17 18 18 19 19 20 20
REMARK H PARENT
REMARK Flexibility Score: inf
ROOT
ATOM      1  C   UNL     1      30.915 -10.335  13.283  1.00  0.00     0.000 C 
ENDROOT
BRANCH   1   2
ATOM      2  C   UNL     1      31.100  -9.194  12.261  1.00  0.00     0.000 C 
BRANCH   2   3
ATOM      3  C   UNL     1      30.805  -7.798  12.837  1.00  0.00     0.000 C 
BRANCH   3   4
ATOM      4  C   UNL     1      30.551  -6.745  11.750  1.00  0.00     0.000 C 
BRANCH   4   5
ATOM      5  C   UNL     1      31.775  -6.589  10.839  1.00  0.00     0.000 C 
BRANCH   5   6
ATOM      6  C   UNL     1      32.677  -5.444  11.321  1.00  0.00     0.006 C 
BRANCH   6   7
ATOM      7  C   UNL     1      34.168  -5.779  11.177  1.00  0.00     0.053 C 
BRANCH   7   8
ATOM      8  C   UNL     1      34.484  -7.141  11.715  1.00  0.00     0.041 C 
ATOM      9  O   UNL     1      34.346  -7.386  12.943  1.00  0.00    -0.550 OA
ATOM     10  O   UNL     1      34.962  -8.130  10.865  1.00  0.00    -0.550 OA
ENDBRANCH   7   8
ENDBRANCH   6   7
ENDBRANCH   5   6
ENDBRANCH   4   5
ENDBRANCH   3   4
ENDBRANCH   2   3
ENDBRANCH   1   2
BRANCH   1  11
ATOM     11  C   UNL     1      29.479 -10.889  13.281  1.00  0.00     0.000 C 
BRANCH  11  12
ATOM     12  C   UNL     1      28.569 -10.184  14.299  1.00  0.00     0.000 C 
BRANCH  12  13
ATOM     13  C   UNL     1      27.639 -11.159  15.037  1.00  0.00     0.000 C 
BRANCH  13  14
ATOM     14  C   UNL     1      27.825 -12.591  14.522  1.00  0.00     0.000 C 
BRANCH  14  15
ATOM     15  C   UNL     1      28.188 -13.545  15.667  1.00  0.00     0.000 C 
BRANCH  15  16
ATOM     16  C   UNL     1      29.092 -12.852  16.697  1.00  0.00     0.006 C 
BRANCH  16  17
ATOM     17  C   UNL     1      30.582 -13.073  16.403  1.00  0.00     0.053 C 
BRANCH  17  18
ATOM     18  C   UNL     1      31.391 -11.845  16.686  1.00  0.00     0.041 C 
ATOM     19  O   UNL     1      30.831 -10.719  16.761  1.00  0.00    -0.550 OA
ATOM     20  O   UNL     1      32.769 -11.939  16.833  1.00  0.00    -0.550 OA
ENDBRANCH  17  18
ENDBRANCH  16  17
ENDBRANCH  15  16
ENDBRANCH  14  15
ENDBRANCH  13  14
ENDBRANCH  12  13
ENDBRANCH  11  12
ENDBRANCH   1  11
TORSDOF 15
ENDMDL
