MODEL 1
REMARK VINA RESULT:    -3.881      0.000      0.000
REMARK INTER + INTRA:          -4.760
REMARK INTER:                  -4.448
REMARK INTRA:                  -0.312
REMARK UNBOUND:                -0.312
REMARK SMILES COc1ccc(C(C)=O)c(O)c1
REMARK SMILES IDX 6 1 10 2 12 3 3 4 4 5 5 6 7 7 8 8 9 9 11 10 2 12 1 13
REMARK H PARENT 11 11
REMARK Flexibility Score: inf
ROOT
ATOM      1  C   UNL     1      -2.844  83.478  -7.664  1.00  0.00     0.059 A 
ATOM      2  C   UNL     1      -3.394  84.531  -8.433  1.00  0.00     0.130 A 
ATOM      3  C   UNL     1      -3.209  85.861  -8.031  1.00  0.00     0.093 A 
ATOM      4  C   UNL     1      -2.472  86.171  -6.884  1.00  0.00     0.122 A 
ATOM      5  C   UNL     1      -1.911  85.127  -6.130  1.00  0.00     0.047 A 
ATOM      6  C   UNL     1      -2.094  83.799  -6.519  1.00  0.00     0.019 A 
ENDROOT
BRANCH   1   7
ATOM      7  C   UNL     1      -3.020  82.045  -8.028  1.00  0.00     0.163 C 
ATOM      8  C   UNL     1      -3.096  80.958  -6.999  1.00  0.00     0.093 C 
ATOM      9  O   UNL     1      -3.106  81.723  -9.244  1.00  0.00    -0.294 OA
ENDBRANCH   1   7
BRANCH   2  10
ATOM     10  O   UNL     1      -4.102  84.266  -9.606  1.00  0.00    -0.507 OA
ATOM     11  H   UNL     1      -3.772  84.583 -10.510  1.00  0.00     0.293 HD
ENDBRANCH   2  10
BRANCH   4  12
ATOM     12  O   UNL     1      -2.320  87.520  -6.533  1.00  0.00    -0.497 OA
ATOM     13  C   UNL     1      -3.401  88.422  -6.316  1.00  0.00     0.278 C 
ENDBRANCH   4  12
TORSDOF 3
ENDMDL
MODEL 2
REMARK VINA RESULT:    -3.875      9.679     10.278
REMARK INTER + INTRA:          -4.753
REMARK INTER:                  -4.418
REMARK INTRA:                  -0.336
REMARK UNBOUND:                -0.312
REMARK SMILES COc1ccc(C(C)=O)c(O)c1
REMARK SMILES IDX 6 1 10 2 12 3 3 4 4 5 5 6 7 7 8 8 9 9 11 10 2 12 1 13
REMARK H PARENT 11 11
REMARK Flexibility Score: inf
ROOT
ATOM      1  C   UNL     1     -12.871  82.999  -9.519  1.00  0.00     0.059 A 
ATOM      2  C   UNL     1     -13.632  83.791 -10.410  1.00  0.00     0.130 A 
ATOM      3  C   UNL     1     -13.574  85.190 -10.326  1.00  0.00     0.093 A 
ATOM      4  C   UNL     1     -12.760  85.821  -9.382  1.00  0.00     0.122 A 
ATOM      5  C   UNL     1     -11.990  85.035  -8.508  1.00  0.00     0.047 A 
ATOM      6  C   UNL     1     -12.045  83.642  -8.580  1.00  0.00     0.019 A 
ENDROOT
BRANCH   1   7
ATOM      7  C   UNL     1     -12.902  81.511  -9.545  1.00  0.00     0.163 C 
ATOM      8  C   UNL     1     -13.084  80.688  -8.305  1.00  0.00     0.093 C 
ATOM      9  O   UNL     1     -12.770  80.910 -10.646  1.00  0.00    -0.294 OA
ENDBRANCH   1   7
BRANCH   2  10
ATOM     10  O   UNL     1     -14.427  83.200 -11.393  1.00  0.00    -0.507 OA
ATOM     11  H   UNL     1     -15.035  83.750 -11.988  1.00  0.00     0.293 HD
ENDBRANCH   2  10
BRANCH   4  12
ATOM     12  O   UNL     1     -12.742  87.223  -9.346  1.00  0.00    -0.497 OA
ATOM     13  C   UNL     1     -12.154  88.047 -10.348  1.00  0.00     0.278 C 
ENDBRANCH   4  12
TORSDOF 3
ENDMDL
MODEL 3
REMARK VINA RESULT:    -3.830      9.543     11.116
REMARK INTER + INTRA:          -4.701
REMARK INTER:                  -4.360
REMARK INTRA:                  -0.341
REMARK UNBOUND:                -0.312
REMARK SMILES COc1ccc(C(C)=O)c(O)c1
REMARK SMILES IDX 6 1 10 2 12 3 3 4 4 5 5 6 7 7 8 8 9 9 11 10 2 12 1 13
REMARK H PARENT 11 11
REMARK Flexibility Score: inf
ROOT
ATOM      1  C   UNL     1      -3.597  90.962 -16.563  1.00  0.00     0.059 A 
ATOM      2  C   UNL     1      -4.965  90.654 -16.749  1.00  0.00     0.130 A 
ATOM      3  C   UNL     1      -5.727  90.177 -15.673  1.00  0.00     0.093 A 
ATOM      4  C   UNL     1      -5.161  90.014 -14.406  1.00  0.00     0.122 A 
ATOM      5  C   UNL     1      -3.807  90.336 -14.216  1.00  0.00     0.047 A 
ATOM      6  C   UNL     1      -3.038  90.807 -15.282  1.00  0.00     0.019 A 
ENDROOT
BRANCH   1   7
ATOM      7  C   UNL     1      -2.731  91.455 -17.668  1.00  0.00     0.163 C 
ATOM      8  C   UNL     1      -1.924  92.713 -17.557  1.00  0.00     0.093 C 
ATOM      9  O   UNL     1      -2.667  90.798 -18.742  1.00  0.00    -0.294 OA
ENDBRANCH   1   7
BRANCH   2  10
ATOM     10  O   UNL     1      -5.579  90.841 -17.988  1.00  0.00    -0.507 OA
ATOM     11  H   UNL     1      -6.266  90.188 -18.346  1.00  0.00     0.293 HD
ENDBRANCH   2  10
BRANCH   4  12
ATOM     12  O   UNL     1      -5.973  89.534 -13.368  1.00  0.00    -0.497 OA
ATOM     13  C   UNL     1      -7.328  89.125 -13.529  1.00  0.00     0.278 C 
ENDBRANCH   4  12
TORSDOF 3
ENDMDL
MODEL 4
REMARK VINA RESULT:    -3.817      1.550      2.361
REMARK INTER + INTRA:          -4.687
REMARK INTER:                  -4.381
REMARK INTRA:                  -0.306
REMARK UNBOUND:                -0.312
REMARK SMILES COc1ccc(C(C)=O)c(O)c1
REMARK SMILES IDX 6 1 10 2 12 3 3 4 4 5 5 6 7 7 8 8 9 9 11 10 2 12 1 13
REMARK H PARENT 11 11
REMARK Flexibility Score: inf
ROOT
ATOM      1  C   UNL     1      -3.683  84.437  -8.518  1.00  0.00     0.059 A 
ATOM      2  C   UNL     1      -2.680  84.530  -7.525  1.00  0.00     0.130 A 
ATOM      3  C   UNL     1      -2.489  85.734  -6.834  1.00  0.00     0.093 A 
ATOM      4  C   UNL     1      -3.287  86.850  -7.098  1.00  0.00     0.122 A 
ATOM      5  C   UNL     1      -4.296  86.755  -8.071  1.00  0.00     0.047 A 
ATOM      6  C   UNL     1      -4.490  85.561  -8.769  1.00  0.00     0.019 A 
ENDROOT
BRANCH   1   7
ATOM      7  C   UNL     1      -3.924  83.193  -9.299  1.00  0.00     0.163 C 
ATOM      8  C   UNL     1      -5.257  82.869  -9.904  1.00  0.00     0.093 C 
ATOM      9  O   UNL     1      -2.980  82.374  -9.462  1.00  0.00    -0.294 OA
ENDBRANCH   1   7
BRANCH   2  10
ATOM     10  O   UNL     1      -1.888  83.426  -7.203  1.00  0.00    -0.507 OA
ATOM     11  H   UNL     1      -2.286  82.581  -6.811  1.00  0.00     0.293 HD
ENDBRANCH   2  10
BRANCH   4  12
ATOM     12  O   UNL     1      -3.050  88.028  -6.373  1.00  0.00    -0.497 OA
ATOM     13  C   UNL     1      -3.762  89.247  -6.562  1.00  0.00     0.278 C 
ENDBRANCH   4  12
TORSDOF 3
ENDMDL
MODEL 5
REMARK VINA RESULT:    -3.793      2.429      3.573
REMARK INTER + INTRA:          -4.659
REMARK INTER:                  -4.358
REMARK INTRA:                  -0.301
REMARK UNBOUND:                -0.312
REMARK SMILES COc1ccc(C(C)=O)c(O)c1
REMARK SMILES IDX 6 1 10 2 12 3 3 4 4 5 5 6 7 7 8 8 9 9 11 10 2 12 1 13
REMARK H PARENT 11 11
REMARK Flexibility Score: inf
ROOT
ATOM      1  C   UNL     1      -3.765  83.415  -8.468  1.00  0.00     0.059 A 
ATOM      2  C   UNL     1      -3.605  84.817  -8.566  1.00  0.00     0.130 A 
ATOM      3  C   UNL     1      -4.578  85.588  -9.217  1.00  0.00     0.093 A 
ATOM      4  C   UNL     1      -5.720  84.996  -9.763  1.00  0.00     0.122 A 
ATOM      5  C   UNL     1      -5.889  83.605  -9.651  1.00  0.00     0.047 A 
ATOM      6  C   UNL     1      -4.924  82.828  -9.009  1.00  0.00     0.019 A 
ENDROOT
BRANCH   1   7
ATOM      7  C   UNL     1      -2.761  82.539  -7.805  1.00  0.00     0.163 C 
ATOM      8  C   UNL     1      -2.612  81.087  -8.144  1.00  0.00     0.093 C 
ATOM      9  O   UNL     1      -2.003  83.026  -6.923  1.00  0.00    -0.294 OA
ENDBRANCH   1   7
BRANCH   2  10
ATOM     10  O   UNL     1      -2.499  85.452  -8.000  1.00  0.00    -0.507 OA
ATOM     11  H   UNL     1      -2.492  85.744  -7.030  1.00  0.00     0.293 HD
ENDBRANCH   2  10
BRANCH   4  12
ATOM     12  O   UNL     1      -6.659  85.819 -10.402  1.00  0.00    -0.497 OA
ATOM     13  C   UNL     1      -6.553  87.236 -10.498  1.00  0.00     0.278 C 
ENDBRANCH   4  12
TORSDOF 3
ENDMDL
MODEL 6
REMARK VINA RESULT:    -3.771      2.188      2.927
REMARK INTER + INTRA:          -4.634
REMARK INTER:                  -4.292
REMARK INTRA:                  -0.342
REMARK UNBOUND:                -0.312
REMARK SMILES COc1ccc(C(C)=O)c(O)c1
REMARK SMILES IDX 6 1 10 2 12 3 3 4 4 5 5 6 7 7 8 8 9 9 11 10 2 12 1 13
REMARK H PARENT 11 11
REMARK Flexibility Score: inf
ROOT
ATOM      1  C   UNL     1      -3.874  83.391  -8.638  1.00  0.00     0.059 A 
ATOM      2  C   UNL     1      -4.855  83.469  -9.654  1.00  0.00     0.130 A 
ATOM      3  C   UNL     1      -5.455  84.699  -9.954  1.00  0.00     0.093 A 
ATOM      4  C   UNL     1      -5.090  85.864  -9.274  1.00  0.00     0.122 A 
ATOM      5  C   UNL     1      -4.103  85.792  -8.277  1.00  0.00     0.047 A 
ATOM      6  C   UNL     1      -3.502  84.571  -7.967  1.00  0.00     0.019 A 
ENDROOT
BRANCH   1   7
ATOM      7  C   UNL     1      -3.211  82.113  -8.259  1.00  0.00     0.163 C 
ATOM      8  C   UNL     1      -3.184  81.608  -6.849  1.00  0.00     0.093 C 
ATOM      9  O   UNL     1      -2.648  81.423  -9.152  1.00  0.00    -0.294 OA
ENDBRANCH   1   7
BRANCH   2  10
ATOM     10  O   UNL     1      -5.219  82.337 -10.383  1.00  0.00    -0.507 OA
ATOM     11  H   UNL     1      -5.100  81.402 -10.011  1.00  0.00     0.293 HD
ENDBRANCH   2  10
BRANCH   4  12
ATOM     12  O   UNL     1      -5.725  87.066  -9.619  1.00  0.00    -0.497 OA
ATOM     13  C   UNL     1      -6.804  87.170 -10.542  1.00  0.00     0.278 C 
ENDBRANCH   4  12
TORSDOF 3
ENDMDL
MODEL 7
REMARK VINA RESULT:    -3.728      3.195      4.254
REMARK INTER + INTRA:          -4.584
REMARK INTER:                  -4.263
REMARK INTRA:                  -0.321
REMARK UNBOUND:                -0.312
REMARK SMILES COc1ccc(C(C)=O)c(O)c1
REMARK SMILES IDX 6 1 10 2 12 3 3 4 4 5 5 6 7 7 8 8 9 9 11 10 2 12 1 13
REMARK H PARENT 11 11
REMARK Flexibility Score: inf
ROOT
ATOM      1  C   UNL     1      -4.159  82.567  -8.142  1.00  0.00     0.059 A 
ATOM      2  C   UNL     1      -4.419  82.647  -9.531  1.00  0.00     0.130 A 
ATOM      3  C   UNL     1      -5.646  83.149  -9.985  1.00  0.00     0.093 A 
ATOM      4  C   UNL     1      -6.621  83.591  -9.087  1.00  0.00     0.122 A 
ATOM      5  C   UNL     1      -6.357  83.529  -7.708  1.00  0.00     0.047 A 
ATOM      6  C   UNL     1      -5.141  83.026  -7.245  1.00  0.00     0.019 A 
ENDROOT
BRANCH   1   7
ATOM      7  C   UNL     1      -2.884  82.029  -7.596  1.00  0.00     0.163 C 
ATOM      8  C   UNL     1      -1.967  82.847  -6.738  1.00  0.00     0.093 C 
ATOM      9  O   UNL     1      -2.553  80.841  -7.859  1.00  0.00    -0.294 OA
ENDBRANCH   1   7
BRANCH   2  10
ATOM     10  O   UNL     1      -3.457  82.253 -10.462  1.00  0.00    -0.507 OA
ATOM     11  H   UNL     1      -2.903  81.414 -10.333  1.00  0.00     0.293 HD
ENDBRANCH   2  10
BRANCH   4  12
ATOM     12  O   UNL     1      -7.829  84.084  -9.601  1.00  0.00    -0.497 OA
ATOM     13  C   UNL     1      -9.118  83.720  -9.117  1.00  0.00     0.278 C 
ENDBRANCH   4  12
TORSDOF 3
ENDMDL
MODEL 8
REMARK VINA RESULT:    -3.683      2.550      5.288
REMARK INTER + INTRA:          -4.533
REMARK INTER:                  -4.194
REMARK INTRA:                  -0.340
REMARK UNBOUND:                -0.312
REMARK SMILES COc1ccc(C(C)=O)c(O)c1
REMARK SMILES IDX 6 1 10 2 12 3 3 4 4 5 5 6 7 7 8 8 9 9 11 10 2 12 1 13
REMARK H PARENT 11 11
REMARK Flexibility Score: inf
ROOT
ATOM      1  C   UNL     1      -5.252  85.520  -9.362  1.00  0.00     0.059 A 
ATOM      2  C   UNL     1      -4.023  85.387  -8.674  1.00  0.00     0.130 A 
ATOM      3  C   UNL     1      -3.401  84.133  -8.589  1.00  0.00     0.093 A 
ATOM      4  C   UNL     1      -3.967  83.006  -9.189  1.00  0.00     0.122 A 
ATOM      5  C   UNL     1      -5.179  83.140  -9.888  1.00  0.00     0.047 A 
ATOM      6  C   UNL     1      -5.809  84.382  -9.974  1.00  0.00     0.019 A 
ENDROOT
BRANCH   1   7
ATOM      7  C   UNL     1      -5.971  86.818  -9.473  1.00  0.00     0.163 C 
ATOM      8  C   UNL     1      -6.493  87.339 -10.778  1.00  0.00     0.093 C 
ATOM      9  O   UNL     1      -6.151  87.514  -8.437  1.00  0.00    -0.294 OA
ENDBRANCH   1   7
BRANCH   2  10
ATOM     10  O   UNL     1      -3.404  86.495  -8.094  1.00  0.00    -0.507 OA
ATOM     11  H   UNL     1      -3.541  86.732  -7.119  1.00  0.00     0.293 HD
ENDBRANCH   2  10
BRANCH   4  12
ATOM     12  O   UNL     1      -3.298  81.779  -9.071  1.00  0.00    -0.497 OA
ATOM     13  C   UNL     1      -2.784  81.257  -7.850  1.00  0.00     0.278 C 
ENDBRANCH   4  12
TORSDOF 3
ENDMDL
MODEL 9
REMARK VINA RESULT:    -3.655     10.063     11.512
REMARK INTER + INTRA:          -4.501
REMARK INTER:                  -4.160
REMARK INTRA:                  -0.341
REMARK UNBOUND:                -0.312
REMARK SMILES COc1ccc(C(C)=O)c(O)c1
REMARK SMILES IDX 6 1 10 2 12 3 3 4 4 5 5 6 7 7 8 8 9 9 11 10 2 12 1 13
REMARK H PARENT 11 11
REMARK Flexibility Score: inf
ROOT
ATOM      1  C   UNL     1      -4.966  90.805 -15.680  1.00  0.00     0.059 A 
ATOM      2  C   UNL     1      -3.602  90.673 -15.328  1.00  0.00     0.130 A 
ATOM      3  C   UNL     1      -2.619  91.331 -16.079  1.00  0.00     0.093 A 
ATOM      4  C   UNL     1      -2.962  92.134 -17.170  1.00  0.00     0.122 A 
ATOM      5  C   UNL     1      -4.317  92.281 -17.510  1.00  0.00     0.047 A 
ATOM      6  C   UNL     1      -5.304  91.626 -16.772  1.00  0.00     0.019 A 
ENDROOT
BRANCH   1   7
ATOM      7  C   UNL     1      -6.056  90.120 -14.934  1.00  0.00     0.163 C 
ATOM      8  C   UNL     1      -7.262  90.848 -14.423  1.00  0.00     0.093 C 
ATOM      9  O   UNL     1      -5.971  88.880 -14.719  1.00  0.00    -0.294 OA
ENDBRANCH   1   7
BRANCH   2  10
ATOM     10  O   UNL     1      -3.220  89.912 -14.222  1.00  0.00    -0.507 OA
ATOM     11  H   UNL     1      -3.489  88.940 -14.126  1.00  0.00     0.293 HD
ENDBRANCH   2  10
BRANCH   4  12
ATOM     12  O   UNL     1      -1.934  92.768 -17.883  1.00  0.00    -0.497 OA
ATOM     13  C   UNL     1      -2.130  93.536 -19.066  1.00  0.00     0.278 C 
ENDBRANCH   4  12
TORSDOF 3
ENDMDL
