MODEL 1
REMARK VINA RESULT:    -1.472      0.000      0.000
REMARK INTER + INTRA:          -5.116
REMARK INTER:                  -2.676
REMARK INTRA:                  -2.440
REMARK UNBOUND:                -2.440
REMARK SMILES CCCCCCCCCCCCCCCC(=O)[O-]
REMARK SMILES IDX 9 1 10 2 11 3 12 4 13 5 14 6 15 7 16 8 17 9 18 10 8 11 7 12
REMARK SMILES IDX 6 13 5 14 4 15 3 16 2 17 1 18
REMARK H PARENT
REMARK Flexibility Score: inf
ROOT
ATOM      1  C   UNL     1      15.377 -34.682   2.231  1.00  0.00     0.000 C 
ENDROOT
BRANCH   1   2
ATOM      2  C   UNL     1      14.914 -33.631   1.208  1.00  0.00     0.000 C 
BRANCH   2   3
ATOM      3  C   UNL     1      13.398 -33.688   0.949  1.00  0.00     0.000 C 
BRANCH   3   4
ATOM      4  C   UNL     1      13.036 -33.432  -0.521  1.00  0.00     0.000 C 
BRANCH   4   5
ATOM      5  C   UNL     1      14.140 -33.954  -1.455  1.00  0.00     0.000 C 
BRANCH   5   6
ATOM      6  C   UNL     1      13.892 -35.399  -1.918  1.00  0.00     0.006 C 
BRANCH   6   7
ATOM      7  C   UNL     1      15.097 -36.315  -1.667  1.00  0.00     0.053 C 
BRANCH   7   8
ATOM      8  C   UNL     1      14.837 -37.211  -0.499  1.00  0.00     0.041 C 
ATOM      9  O   UNL     1      15.691 -38.070  -0.157  1.00  0.00    -0.550 OA
ATOM     10  O   UNL     1      13.629 -37.131   0.184  1.00  0.00    -0.550 OA
ENDBRANCH   7   8
ENDBRANCH   6   7
ENDBRANCH   5   6
ENDBRANCH   4   5
ENDBRANCH   3   4
ENDBRANCH   2   3
ENDBRANCH   1   2
BRANCH   1  11
ATOM     11  C   UNL     1      16.748 -35.294   1.883  1.00  0.00     0.000 C 
BRANCH  11  12
ATOM     12  C   UNL     1      17.547 -34.549   0.797  1.00  0.00    -0.000 C 
BRANCH  12  13
ATOM     13  C   UNL     1      18.917 -34.055   1.290  1.00  0.00    -0.000 C 
BRANCH  13  14
ATOM     14  C   UNL     1      18.873 -32.618   1.839  1.00  0.00    -0.000 C 
BRANCH  14  15
ATOM     15  C   UNL     1      18.619 -32.500   3.355  1.00  0.00    -0.000 C 
BRANCH  15  16
ATOM     16  C   UNL     1      17.270 -31.865   3.747  1.00  0.00    -0.000 C 
BRANCH  16  17
ATOM     17  C   UNL     1      16.757 -30.787   2.778  1.00  0.00    -0.003 C 
ATOM     18  C   UNL     1      15.290 -30.427   3.008  1.00  0.00     0.004 C 
ENDBRANCH  16  17
ENDBRANCH  15  16
ENDBRANCH  14  15
ENDBRANCH  13  14
ENDBRANCH  12  13
ENDBRANCH  11  12
ENDBRANCH   1  11
TORSDOF 14
ENDMDL
MODEL 2
REMARK VINA RESULT:    -1.432      3.466      6.168
REMARK INTER + INTRA:          -5.043
REMARK INTER:                  -2.749
REMARK INTRA:                  -2.294
REMARK UNBOUND:                -2.440
REMARK SMILES CCCCCCCCCCCCCCCC(=O)[O-]
REMARK SMILES IDX 9 1 10 2 11 3 12 4 13 5 14 6 15 7 16 8 17 9 18 10 8 11 7 12
REMARK SMILES IDX 6 13 5 14 4 15 3 16 2 17 1 18
REMARK H PARENT
REMARK Flexibility Score: inf
ROOT
ATOM      1  C   UNL     1      16.887 -34.890   1.359  1.00  0.00     0.000 C 
ENDROOT
BRANCH   1   2
ATOM      2  C   UNL     1      17.495 -33.510   1.663  1.00  0.00     0.000 C 
BRANCH   2   3
ATOM      3  C   UNL     1      17.006 -32.932   3.001  1.00  0.00     0.000 C 
BRANCH   3   4
ATOM      4  C   UNL     1      16.253 -31.603   2.836  1.00  0.00     0.000 C 
BRANCH   4   5
ATOM      5  C   UNL     1      15.471 -31.254   4.112  1.00  0.00     0.000 C 
BRANCH   5   6
ATOM      6  C   UNL     1      14.454 -30.123   3.894  1.00  0.00     0.006 C 
BRANCH   6   7
ATOM      7  C   UNL     1      14.123 -29.904   2.412  1.00  0.00     0.053 C 
BRANCH   7   8
ATOM      8  C   UNL     1      13.798 -28.467   2.157  1.00  0.00     0.041 C 
ATOM      9  O   UNL     1      13.898 -27.621   3.084  1.00  0.00    -0.550 OA
ATOM     10  O   UNL     1      13.336 -28.069   0.909  1.00  0.00    -0.550 OA
ENDBRANCH   7   8
ENDBRANCH   6   7
ENDBRANCH   5   6
ENDBRANCH   4   5
ENDBRANCH   3   4
ENDBRANCH   2   3
ENDBRANCH   1   2
BRANCH   1  11
ATOM     11  C   UNL     1      16.637 -35.119  -0.144  1.00  0.00     0.000 C 
BRANCH  11  12
ATOM     12  C   UNL     1      15.189 -35.479  -0.525  1.00  0.00    -0.000 C 
BRANCH  12  13
ATOM     13  C   UNL     1      14.462 -34.345  -1.267  1.00  0.00    -0.000 C 
BRANCH  13  14
ATOM     14  C   UNL     1      13.256 -33.795  -0.485  1.00  0.00    -0.000 C 
BRANCH  14  15
ATOM     15  C   UNL     1      13.596 -33.112   0.855  1.00  0.00    -0.000 C 
BRANCH  15  16
ATOM     16  C   UNL     1      12.846 -33.666   2.083  1.00  0.00    -0.000 C 
BRANCH  16  17
ATOM     17  C   UNL     1      13.589 -34.775   2.847  1.00  0.00    -0.003 C 
ATOM     18  C   UNL     1      13.733 -34.477   4.339  1.00  0.00     0.004 C 
ENDBRANCH  16  17
ENDBRANCH  15  16
ENDBRANCH  14  15
ENDBRANCH  13  14
ENDBRANCH  12  13
ENDBRANCH  11  12
ENDBRANCH   1  11
TORSDOF 14
ENDMDL
MODEL 3
REMARK VINA RESULT:    -1.355      2.172      4.005
REMARK INTER + INTRA:          -4.904
REMARK INTER:                  -2.997
REMARK INTRA:                  -1.907
REMARK UNBOUND:                -2.440
REMARK SMILES CCCCCCCCCCCCCCCC(=O)[O-]
REMARK SMILES IDX 9 1 10 2 11 3 12 4 13 5 14 6 15 7 16 8 17 9 18 10 8 11 7 12
REMARK SMILES IDX 6 13 5 14 4 15 3 16 2 17 1 18
REMARK H PARENT
REMARK Flexibility Score: inf
ROOT
ATOM      1  C   UNL     1      18.114 -34.389   2.788  1.00  0.00     0.000 C 
ENDROOT
BRANCH   1   2
ATOM      2  C   UNL     1      18.346 -34.133   1.289  1.00  0.00     0.000 C 
BRANCH   2   3
ATOM      3  C   UNL     1      17.200 -34.671   0.415  1.00  0.00     0.000 C 
BRANCH   3   4
ATOM      4  C   UNL     1      16.274 -35.633   1.174  1.00  0.00     0.000 C 
BRANCH   4   5
ATOM      5  C   UNL     1      14.799 -35.261   0.953  1.00  0.00     0.000 C 
BRANCH   5   6
ATOM      6  C   UNL     1      14.608 -34.247  -0.187  1.00  0.00     0.006 C 
BRANCH   6   7
ATOM      7  C   UNL     1      13.329 -33.415  -0.029  1.00  0.00     0.053 C 
BRANCH   7   8
ATOM      8  C   UNL     1      12.594 -33.338  -1.329  1.00  0.00     0.041 C 
ATOM      9  O   UNL     1      12.437 -32.228  -1.903  1.00  0.00    -0.550 OA
ATOM     10  O   UNL     1      12.037 -34.484  -1.883  1.00  0.00    -0.550 OA
ENDBRANCH   7   8
ENDBRANCH   6   7
ENDBRANCH   5   6
ENDBRANCH   4   5
ENDBRANCH   3   4
ENDBRANCH   2   3
ENDBRANCH   1   2
BRANCH   1  11
ATOM     11  C   UNL     1      17.706 -33.117   3.557  1.00  0.00     0.000 C 
BRANCH  11  12
ATOM     12  C   UNL     1      16.197 -32.961   3.821  1.00  0.00    -0.000 C 
BRANCH  12  13
ATOM     13  C   UNL     1      15.481 -32.128   2.745  1.00  0.00    -0.000 C 
BRANCH  13  14
ATOM     14  C   UNL     1      15.910 -30.650   2.750  1.00  0.00    -0.000 C 
BRANCH  14  15
ATOM     15  C   UNL     1      14.818 -29.650   3.182  1.00  0.00    -0.000 C 
BRANCH  15  16
ATOM     16  C   UNL     1      14.049 -28.978   2.026  1.00  0.00    -0.000 C 
BRANCH  16  17
ATOM     17  C   UNL     1      12.820 -29.758   1.530  1.00  0.00    -0.003 C 
ATOM     18  C   UNL     1      12.125 -30.544   2.641  1.00  0.00     0.004 C 
ENDBRANCH  16  17
ENDBRANCH  15  16
ENDBRANCH  14  15
ENDBRANCH  13  14
ENDBRANCH  12  13
ENDBRANCH  11  12
ENDBRANCH   1  11
TORSDOF 14
ENDMDL
MODEL 4
REMARK VINA RESULT:    -1.339      4.778      7.494
REMARK INTER + INTRA:          -4.874
REMARK INTER:                  -2.340
REMARK INTRA:                  -2.534
REMARK UNBOUND:                -2.440
REMARK SMILES CCCCCCCCCCCCCCCC(=O)[O-]
REMARK SMILES IDX 9 1 10 2 11 3 12 4 13 5 14 6 15 7 16 8 17 9 18 10 8 11 7 12
REMARK SMILES IDX 6 13 5 14 4 15 3 16 2 17 1 18
REMARK H PARENT
REMARK Flexibility Score: inf
ROOT
ATOM      1  C   UNL     1      19.223 -30.628   4.602  1.00  0.00     0.000 C 
ENDROOT
BRANCH   1   2
ATOM      2  C   UNL     1      19.482 -32.136   4.447  1.00  0.00     0.000 C 
BRANCH   2   3
ATOM      3  C   UNL     1      20.679 -32.438   3.530  1.00  0.00     0.000 C 
BRANCH   3   4
ATOM      4  C   UNL     1      21.146 -31.208   2.737  1.00  0.00     0.000 C 
BRANCH   4   5
ATOM      5  C   UNL     1      20.796 -31.354   1.247  1.00  0.00     0.000 C 
BRANCH   5   6
ATOM      6  C   UNL     1      20.088 -30.112   0.680  1.00  0.00     0.006 C 
BRANCH   6   7
ATOM      7  C   UNL     1      20.317 -28.860   1.537  1.00  0.00     0.053 C 
BRANCH   7   8
ATOM      8  C   UNL     1      20.652 -27.689   0.669  1.00  0.00     0.041 C 
ATOM      9  O   UNL     1      21.113 -27.870  -0.488  1.00  0.00    -0.550 OA
ATOM     10  O   UNL     1      20.503 -26.397   1.157  1.00  0.00    -0.550 OA
ENDBRANCH   7   8
ENDBRANCH   6   7
ENDBRANCH   5   6
ENDBRANCH   4   5
ENDBRANCH   3   4
ENDBRANCH   2   3
ENDBRANCH   1   2
BRANCH   1  11
ATOM     11  C   UNL     1      17.780 -30.226   4.242  1.00  0.00     0.000 C 
BRANCH  11  12
ATOM     12  C   UNL     1      17.286 -30.706   2.865  1.00  0.00    -0.000 C 
BRANCH  12  13
ATOM     13  C   UNL     1      15.852 -31.260   2.900  1.00  0.00    -0.000 C 
BRANCH  13  14
ATOM     14  C   UNL     1      15.744 -32.679   2.312  1.00  0.00    -0.000 C 
BRANCH  14  15
ATOM     15  C   UNL     1      16.330 -33.801   3.193  1.00  0.00    -0.000 C 
BRANCH  15  16
ATOM     16  C   UNL     1      17.507 -34.578   2.568  1.00  0.00    -0.000 C 
BRANCH  16  17
ATOM     17  C   UNL     1      18.103 -33.939   1.303  1.00  0.00    -0.003 C 
ATOM     18  C   UNL     1      19.265 -34.743   0.720  1.00  0.00     0.004 C 
ENDBRANCH  16  17
ENDBRANCH  15  16
ENDBRANCH  14  15
ENDBRANCH  13  14
ENDBRANCH  12  13
ENDBRANCH  11  12
ENDBRANCH   1  11
TORSDOF 14
ENDMDL
MODEL 5
REMARK VINA RESULT:    -1.333      5.916      8.450
REMARK INTER + INTRA:          -4.863
REMARK INTER:                  -2.343
REMARK INTRA:                  -2.520
REMARK UNBOUND:                -2.440
REMARK SMILES CCCCCCCCCCCCCCCC(=O)[O-]
REMARK SMILES IDX 9 1 10 2 11 3 12 4 13 5 14 6 15 7 16 8 17 9 18 10 8 11 7 12
REMARK SMILES IDX 6 13 5 14 4 15 3 16 2 17 1 18
REMARK H PARENT
REMARK Flexibility Score: inf
ROOT
ATOM      1  C   UNL     1      21.618 -26.401  -2.067  1.00  0.00     0.000 C 
ENDROOT
BRANCH   1   2
ATOM      2  C   UNL     1      21.055 -27.833  -2.092  1.00  0.00     0.000 C 
BRANCH   2   3
ATOM      3  C   UNL     1      22.061 -28.871  -1.564  1.00  0.00     0.000 C 
BRANCH   3   4
ATOM      4  C   UNL     1      21.442 -29.827  -0.533  1.00  0.00     0.000 C 
BRANCH   4   5
ATOM      5  C   UNL     1      20.050 -29.339  -0.101  1.00  0.00     0.000 C 
BRANCH   5   6
ATOM      6  C   UNL     1      19.654 -29.838   1.298  1.00  0.00     0.006 C 
BRANCH   6   7
ATOM      7  C   UNL     1      19.757 -31.363   1.431  1.00  0.00     0.053 C 
BRANCH   7   8
ATOM      8  C   UNL     1      18.946 -31.841   2.593  1.00  0.00     0.041 C 
ATOM      9  O   UNL     1      17.717 -31.577   2.658  1.00  0.00    -0.550 OA
ATOM     10  O   UNL     1      19.557 -32.536   3.629  1.00  0.00    -0.550 OA
ENDBRANCH   7   8
ENDBRANCH   6   7
ENDBRANCH   5   6
ENDBRANCH   4   5
ENDBRANCH   3   4
ENDBRANCH   2   3
ENDBRANCH   1   2
BRANCH   1  11
ATOM     11  C   UNL     1      21.009 -25.537  -0.946  1.00  0.00     0.000 C 
BRANCH  11  12
ATOM     12  C   UNL     1      21.774 -25.555   0.390  1.00  0.00    -0.000 C 
BRANCH  12  13
ATOM     13  C   UNL     1      20.941 -26.120   1.552  1.00  0.00    -0.000 C 
BRANCH  13  14
ATOM     14  C   UNL     1      21.759 -27.025   2.491  1.00  0.00    -0.000 C 
BRANCH  14  15
ATOM     15  C   UNL     1      23.073 -27.572   1.897  1.00  0.00    -0.000 C 
BRANCH  15  16
ATOM     16  C   UNL     1      23.808 -28.607   2.773  1.00  0.00    -0.000 C 
BRANCH  16  17
ATOM     17  C   UNL     1      23.266 -30.042   2.669  1.00  0.00    -0.003 C 
ATOM     18  C   UNL     1      22.446 -30.458   3.890  1.00  0.00     0.004 C 
ENDBRANCH  16  17
ENDBRANCH  15  16
ENDBRANCH  14  15
ENDBRANCH  13  14
ENDBRANCH  12  13
ENDBRANCH  11  12
ENDBRANCH   1  11
TORSDOF 14
ENDMDL
MODEL 6
REMARK VINA RESULT:    -1.325      2.288      4.019
REMARK INTER + INTRA:          -4.850
REMARK INTER:                  -2.805
REMARK INTRA:                  -2.045
REMARK UNBOUND:                -2.440
REMARK SMILES CCCCCCCCCCCCCCCC(=O)[O-]
REMARK SMILES IDX 9 1 10 2 11 3 12 4 13 5 14 6 15 7 16 8 17 9 18 10 8 11 7 12
REMARK SMILES IDX 6 13 5 14 4 15 3 16 2 17 1 18
REMARK H PARENT
REMARK Flexibility Score: inf
ROOT
ATOM      1  C   UNL     1      18.790 -33.658   2.655  1.00  0.00     0.000 C 
ENDROOT
BRANCH   1   2
ATOM      2  C   UNL     1      18.103 -33.841   1.291  1.00  0.00     0.000 C 
BRANCH   2   3
ATOM      3  C   UNL     1      17.941 -35.322   0.906  1.00  0.00     0.000 C 
BRANCH   3   4
ATOM      4  C   UNL     1      16.552 -35.638   0.331  1.00  0.00     0.000 C 
BRANCH   4   5
ATOM      5  C   UNL     1      15.686 -34.370   0.263  1.00  0.00     0.000 C 
BRANCH   5   6
ATOM      6  C   UNL     1      14.221 -34.670  -0.093  1.00  0.00     0.006 C 
BRANCH   6   7
ATOM      7  C   UNL     1      13.772 -33.972  -1.383  1.00  0.00     0.053 C 
BRANCH   7   8
ATOM      8  C   UNL     1      12.705 -32.967  -1.086  1.00  0.00     0.041 C 
ATOM      9  O   UNL     1      12.293 -32.194  -1.991  1.00  0.00    -0.550 OA
ATOM     10  O   UNL     1      12.199 -32.849   0.203  1.00  0.00    -0.550 OA
ENDBRANCH   7   8
ENDBRANCH   6   7
ENDBRANCH   5   6
ENDBRANCH   4   5
ENDBRANCH   3   4
ENDBRANCH   2   3
ENDBRANCH   1   2
BRANCH   1  11
ATOM     11  C   UNL     1      19.321 -32.228   2.872  1.00  0.00     0.000 C 
BRANCH  11  12
ATOM     12  C   UNL     1      18.395 -31.099   2.381  1.00  0.00    -0.000 C 
BRANCH  12  13
ATOM     13  C   UNL     1      17.736 -30.319   3.530  1.00  0.00    -0.000 C 
BRANCH  13  14
ATOM     14  C   UNL     1      16.199 -30.388   3.496  1.00  0.00    -0.000 C 
BRANCH  14  15
ATOM     15  C   UNL     1      15.610 -31.560   2.686  1.00  0.00    -0.000 C 
BRANCH  15  16
ATOM     16  C   UNL     1      14.327 -32.184   3.271  1.00  0.00    -0.000 C 
BRANCH  16  17
ATOM     17  C   UNL     1      14.399 -33.701   3.514  1.00  0.00    -0.003 C 
ATOM     18  C   UNL     1      15.598 -34.110   4.369  1.00  0.00     0.004 C 
ENDBRANCH  16  17
ENDBRANCH  15  16
ENDBRANCH  14  15
ENDBRANCH  13  14
ENDBRANCH  12  13
ENDBRANCH  11  12
ENDBRANCH   1  11
TORSDOF 14
ENDMDL
MODEL 7
REMARK VINA RESULT:    -1.315      4.133      6.349
REMARK INTER + INTRA:          -4.831
REMARK INTER:                  -2.456
REMARK INTRA:                  -2.375
REMARK UNBOUND:                -2.440
REMARK SMILES CCCCCCCCCCCCCCCC(=O)[O-]
REMARK SMILES IDX 9 1 10 2 11 3 12 4 13 5 14 6 15 7 16 8 17 9 18 10 8 11 7 12
REMARK SMILES IDX 6 13 5 14 4 15 3 16 2 17 1 18
REMARK H PARENT
REMARK Flexibility Score: inf
ROOT
ATOM      1  C   UNL     1      16.061 -33.411   2.725  1.00  0.00     0.000 C 
ENDROOT
BRANCH   1   2
ATOM      2  C   UNL     1      16.625 -34.169   1.511  1.00  0.00     0.000 C 
BRANCH   2   3
ATOM      3  C   UNL     1      18.125 -33.902   1.294  1.00  0.00     0.000 C 
BRANCH   3   4
ATOM      4  C   UNL     1      18.858 -33.537   2.594  1.00  0.00     0.000 C 
BRANCH   4   5
ATOM      5  C   UNL     1      20.050 -32.609   2.307  1.00  0.00     0.000 C 
BRANCH   5   6
ATOM      6  C   UNL     1      19.663 -31.398   1.443  1.00  0.00     0.006 C 
BRANCH   6   7
ATOM      7  C   UNL     1      20.835 -30.431   1.223  1.00  0.00     0.053 C 
BRANCH   7   8
ATOM      8  C   UNL     1      20.328 -29.071   0.862  1.00  0.00     0.041 C 
ATOM      9  O   UNL     1      20.469 -28.110   1.662  1.00  0.00    -0.550 OA
ATOM     10  O   UNL     1      19.654 -28.876  -0.337  1.00  0.00    -0.550 OA
ENDBRANCH   7   8
ENDBRANCH   6   7
ENDBRANCH   5   6
ENDBRANCH   4   5
ENDBRANCH   3   4
ENDBRANCH   2   3
ENDBRANCH   1   2
BRANCH   1  11
ATOM     11  C   UNL     1      14.880 -32.491   2.362  1.00  0.00     0.000 C 
BRANCH  11  12
ATOM     12  C   UNL     1      15.041 -31.016   2.775  1.00  0.00    -0.000 C 
BRANCH  12  13
ATOM     13  C   UNL     1      16.508 -30.556   2.800  1.00  0.00    -0.000 C 
BRANCH  13  14
ATOM     14  C   UNL     1      16.897 -29.872   4.123  1.00  0.00    -0.000 C 
BRANCH  14  15
ATOM     15  C   UNL     1      17.368 -30.823   5.242  1.00  0.00    -0.000 C 
BRANCH  15  16
ATOM     16  C   UNL     1      18.897 -30.967   5.380  1.00  0.00    -0.000 C 
BRANCH  16  17
ATOM     17  C   UNL     1      19.704 -29.733   4.943  1.00  0.00    -0.003 C 
ATOM     18  C   UNL     1      21.201 -30.013   4.820  1.00  0.00     0.004 C 
ENDBRANCH  16  17
ENDBRANCH  15  16
ENDBRANCH  14  15
ENDBRANCH  13  14
ENDBRANCH  12  13
ENDBRANCH  11  12
ENDBRANCH   1  11
TORSDOF 14
ENDMDL
MODEL 8
REMARK VINA RESULT:    -1.295      3.096      6.405
REMARK INTER + INTRA:          -4.796
REMARK INTER:                  -2.595
REMARK INTRA:                  -2.201
REMARK UNBOUND:                -2.440
REMARK SMILES CCCCCCCCCCCCCCCC(=O)[O-]
REMARK SMILES IDX 9 1 10 2 11 3 12 4 13 5 14 6 15 7 16 8 17 9 18 10 8 11 7 12
REMARK SMILES IDX 6 13 5 14 4 15 3 16 2 17 1 18
REMARK H PARENT
REMARK Flexibility Score: inf
ROOT
ATOM      1  C   UNL     1      13.045 -32.764   2.270  1.00  0.00     0.000 C 
ENDROOT
BRANCH   1   2
ATOM      2  C   UNL     1      13.318 -34.269   2.439  1.00  0.00     0.000 C 
BRANCH   2   3
ATOM      3  C   UNL     1      14.802 -34.624   2.245  1.00  0.00     0.000 C 
BRANCH   3   4
ATOM      4  C   UNL     1      15.603 -33.493   1.584  1.00  0.00     0.000 C 
BRANCH   4   5
ATOM      5  C   UNL     1      16.907 -33.224   2.352  1.00  0.00     0.000 C 
BRANCH   5   6
ATOM      6  C   UNL     1      17.076 -31.745   2.734  1.00  0.00     0.006 C 
BRANCH   6   7
ATOM      7  C   UNL     1      16.412 -31.401   4.074  1.00  0.00     0.053 C 
BRANCH   7   8
ATOM      8  C   UNL     1      15.347 -30.370   3.879  1.00  0.00     0.041 C 
ATOM      9  O   UNL     1      15.147 -29.874   2.740  1.00  0.00    -0.550 OA
ATOM     10  O   UNL     1      14.608 -29.920   4.966  1.00  0.00    -0.550 OA
ENDBRANCH   7   8
ENDBRANCH   6   7
ENDBRANCH   5   6
ENDBRANCH   4   5
ENDBRANCH   3   4
ENDBRANCH   2   3
ENDBRANCH   1   2
BRANCH   1  11
ATOM     11  C   UNL     1      11.875 -32.471   1.311  1.00  0.00     0.000 C 
BRANCH  11  12
ATOM     12  C   UNL     1      12.248 -31.700   0.031  1.00  0.00    -0.000 C 
BRANCH  12  13
ATOM     13  C   UNL     1      12.187 -32.569  -1.235  1.00  0.00    -0.000 C 
BRANCH  13  14
ATOM     14  C   UNL     1      13.403 -33.502  -1.381  1.00  0.00    -0.000 C 
BRANCH  14  15
ATOM     15  C   UNL     1      13.110 -35.002  -1.174  1.00  0.00    -0.000 C 
BRANCH  15  16
ATOM     16  C   UNL     1      14.258 -35.954  -1.566  1.00  0.00    -0.000 C 
BRANCH  16  17
ATOM     17  C   UNL     1      15.591 -35.259  -1.890  1.00  0.00    -0.003 C 
ATOM     18  C   UNL     1      16.746 -35.748  -1.017  1.00  0.00     0.004 C 
ENDBRANCH  16  17
ENDBRANCH  15  16
ENDBRANCH  14  15
ENDBRANCH  13  14
ENDBRANCH  12  13
ENDBRANCH  11  12
ENDBRANCH   1  11
TORSDOF 14
ENDMDL
MODEL 9
REMARK VINA RESULT:    -1.282      3.568      6.336
REMARK INTER + INTRA:          -4.772
REMARK INTER:                  -2.258
REMARK INTRA:                  -2.514
REMARK UNBOUND:                -2.440
REMARK SMILES CCCCCCCCCCCCCCCC(=O)[O-]
REMARK SMILES IDX 9 1 10 2 11 3 12 4 13 5 14 6 15 7 16 8 17 9 18 10 8 11 7 12
REMARK SMILES IDX 6 13 5 14 4 15 3 16 2 17 1 18
REMARK H PARENT
REMARK Flexibility Score: inf
ROOT
ATOM      1  C   UNL     1      16.749 -34.561   0.531  1.00  0.00     0.000 C 
ENDROOT
BRANCH   1   2
ATOM      2  C   UNL     1      16.786 -34.949   2.019  1.00  0.00     0.000 C 
BRANCH   2   3
ATOM      3  C   UNL     1      15.749 -34.179   2.855  1.00  0.00     0.000 C 
BRANCH   3   4
ATOM      4  C   UNL     1      15.536 -32.741   2.359  1.00  0.00     0.000 C 
BRANCH   4   5
ATOM      5  C   UNL     1      14.077 -32.302   2.568  1.00  0.00     0.000 C 
BRANCH   5   6
ATOM      6  C   UNL     1      13.888 -30.783   2.420  1.00  0.00     0.006 C 
BRANCH   6   7
ATOM      7  C   UNL     1      15.155 -29.994   2.776  1.00  0.00     0.053 C 
BRANCH   7   8
ATOM      8  C   UNL     1      14.915 -29.139   3.979  1.00  0.00     0.041 C 
ATOM      9  O   UNL     1      15.068 -27.891   3.910  1.00  0.00    -0.550 OA
ATOM     10  O   UNL     1      14.571 -29.724   5.191  1.00  0.00    -0.550 OA
ENDBRANCH   7   8
ENDBRANCH   6   7
ENDBRANCH   5   6
ENDBRANCH   4   5
ENDBRANCH   3   4
ENDBRANCH   2   3
ENDBRANCH   1   2
BRANCH   1  11
ATOM     11  C   UNL     1      16.309 -35.721  -0.382  1.00  0.00     0.000 C 
BRANCH  11  12
ATOM     12  C   UNL     1      15.023 -35.473  -1.192  1.00  0.00    -0.000 C 
BRANCH  12  13
ATOM     13  C   UNL     1      14.364 -34.121  -0.875  1.00  0.00    -0.000 C 
BRANCH  13  14
ATOM     14  C   UNL     1      12.941 -34.268  -0.308  1.00  0.00    -0.000 C 
BRANCH  14  15
ATOM     15  C   UNL     1      12.638 -35.620   0.367  1.00  0.00    -0.000 C 
BRANCH  15  16
ATOM     16  C   UNL     1      12.432 -35.560   1.895  1.00  0.00    -0.000 C 
BRANCH  16  17
ATOM     17  C   UNL     1      13.094 -36.705   2.681  1.00  0.00    -0.003 C 
ATOM     18  C   UNL     1      14.003 -37.575   1.814  1.00  0.00     0.004 C 
ENDBRANCH  16  17
ENDBRANCH  15  16
ENDBRANCH  14  15
ENDBRANCH  13  14
ENDBRANCH  12  13
ENDBRANCH  11  12
ENDBRANCH   1  11
TORSDOF 14
ENDMDL
