MODEL 1
REMARK VINA RESULT:    -3.455      0.000      0.000
REMARK INTER + INTRA:          -5.456
REMARK INTER:                  -4.970
REMARK INTRA:                  -0.486
REMARK UNBOUND:                -0.486
REMARK SMILES CCCCCCCCCO
REMARK SMILES IDX 6 1 5 2 4 3 3 4 2 5 1 6 7 7 8 8 9 9 10 10
REMARK H PARENT 10 11
REMARK Flexibility Score: inf
ROOT
ATOM      1  C   UNL     1     174.895 178.992 188.440  1.00  0.00     0.000 C 
ENDROOT
BRANCH   1   2
ATOM      2  C   UNL     1     174.110 180.105 187.726  1.00  0.00     0.000 C 
BRANCH   2   3
ATOM      3  C   UNL     1     172.974 179.556 186.847  1.00  0.00    -0.000 C 
BRANCH   3   4
ATOM      4  C   UNL     1     171.585 179.727 187.488  1.00  0.00    -0.000 C 
BRANCH   4   5
ATOM      5  C   UNL     1     170.691 178.475 187.444  1.00  0.00    -0.003 C 
ATOM      6  C   UNL     1     171.457 177.181 187.714  1.00  0.00     0.004 C 
ENDBRANCH   4   5
ENDBRANCH   3   4
ENDBRANCH   2   3
ENDBRANCH   1   2
BRANCH   1   7
ATOM      7  C   UNL     1     175.092 177.747 187.560  1.00  0.00     0.002 C 
BRANCH   7   8
ATOM      8  C   UNL     1     176.475 177.761 186.895  1.00  0.00     0.028 C 
BRANCH   8   9
ATOM      9  C   UNL     1     176.407 177.209 185.469  1.00  0.00     0.156 C 
BRANCH   9  10
ATOM     10  O   UNL     1     177.187 176.049 185.361  1.00  0.00    -0.396 OA
ATOM     11  H   UNL     1     178.078 176.269 185.740  1.00  0.00     0.210 HD
ENDBRANCH   9  10
ENDBRANCH   8   9
ENDBRANCH   7   8
ENDBRANCH   1   7
TORSDOF 8
ENDMDL
MODEL 2
REMARK VINA RESULT:    -3.455      9.746     11.801
REMARK INTER + INTRA:          -5.456
REMARK INTER:                  -4.786
REMARK INTRA:                  -0.670
REMARK UNBOUND:                -0.486
REMARK SMILES CCCCCCCCCO
REMARK SMILES IDX 6 1 5 2 4 3 3 4 2 5 1 6 7 7 8 8 9 9 10 10
REMARK H PARENT 10 11
REMARK Flexibility Score: inf
ROOT
ATOM      1  C   UNL     1     162.411 177.490 188.317  1.00  0.00     0.000 C 
ENDROOT
BRANCH   1   2
ATOM      2  C   UNL     1     160.984 177.336 187.763  1.00  0.00     0.000 C 
BRANCH   2   3
ATOM      3  C   UNL     1     160.649 178.393 186.697  1.00  0.00    -0.000 C 
BRANCH   3   4
ATOM      4  C   UNL     1     160.534 177.799 185.281  1.00  0.00    -0.000 C 
BRANCH   4   5
ATOM      5  C   UNL     1     160.661 176.267 185.207  1.00  0.00    -0.003 C 
ATOM      6  C   UNL     1     161.869 175.804 184.393  1.00  0.00     0.004 C 
ENDBRANCH   4   5
ENDBRANCH   3   4
ENDBRANCH   2   3
ENDBRANCH   1   2
BRANCH   1   7
ATOM      7  C   UNL     1     163.320 178.316 187.394  1.00  0.00     0.002 C 
BRANCH   7   8
ATOM      8  C   UNL     1     164.376 177.427 186.726  1.00  0.00     0.028 C 
BRANCH   8   9
ATOM      9  C   UNL     1     164.758 177.964 185.345  1.00  0.00     0.156 C 
BRANCH   9  10
ATOM     10  O   UNL     1     165.947 178.702 185.423  1.00  0.00    -0.396 OA
ATOM     11  H   UNL     1     165.747 179.504 185.972  1.00  0.00     0.210 HD
ENDBRANCH   9  10
ENDBRANCH   8   9
ENDBRANCH   7   8
ENDBRANCH   1   7
TORSDOF 8
ENDMDL
MODEL 3
REMARK VINA RESULT:    -3.406      9.557     11.809
REMARK INTER + INTRA:          -5.386
REMARK INTER:                  -4.734
REMARK INTRA:                  -0.652
REMARK UNBOUND:                -0.486
REMARK SMILES CCCCCCCCCO
REMARK SMILES IDX 6 1 5 2 4 3 3 4 2 5 1 6 7 7 8 8 9 9 10 10
REMARK H PARENT 10 11
REMARK Flexibility Score: inf
ROOT
ATOM      1  C   UNL     1     163.122 175.504 187.787  1.00  0.00     0.000 C 
ENDROOT
BRANCH   1   2
ATOM      2  C   UNL     1     161.799 174.802 187.436  1.00  0.00     0.000 C 
BRANCH   2   3
ATOM      3  C   UNL     1     160.596 175.760 187.473  1.00  0.00    -0.000 C 
BRANCH   3   4
ATOM      4  C   UNL     1     160.963 177.162 187.992  1.00  0.00    -0.000 C 
BRANCH   4   5
ATOM      5  C   UNL     1     160.648 178.317 187.024  1.00  0.00    -0.003 C 
ATOM      6  C   UNL     1     160.795 177.925 185.554  1.00  0.00     0.004 C 
ENDBRANCH   4   5
ENDBRANCH   3   4
ENDBRANCH   2   3
ENDBRANCH   1   2
BRANCH   1   7
ATOM      7  C   UNL     1     164.036 175.691 186.566  1.00  0.00     0.002 C 
BRANCH   7   8
ATOM      8  C   UNL     1     165.050 176.816 186.809  1.00  0.00     0.028 C 
BRANCH   8   9
ATOM      9  C   UNL     1     164.439 178.186 186.502  1.00  0.00     0.156 C 
BRANCH   9  10
ATOM     10  O   UNL     1     165.190 178.842 185.516  1.00  0.00    -0.396 OA
ATOM     11  H   UNL     1     166.140 178.606 185.680  1.00  0.00     0.210 HD
ENDBRANCH   9  10
ENDBRANCH   8   9
ENDBRANCH   7   8
ENDBRANCH   1   7
TORSDOF 8
ENDMDL
MODEL 4
REMARK VINA RESULT:    -3.387     10.348     12.464
REMARK INTER + INTRA:          -5.358
REMARK INTER:                  -4.685
REMARK INTRA:                  -0.673
REMARK UNBOUND:                -0.486
REMARK SMILES CCCCCCCCCO
REMARK SMILES IDX 6 1 5 2 4 3 3 4 2 5 1 6 7 7 8 8 9 9 10 10
REMARK H PARENT 10 11
REMARK Flexibility Score: inf
ROOT
ATOM      1  C   UNL     1     160.306 177.911 185.092  1.00  0.00     0.000 C 
ENDROOT
BRANCH   1   2
ATOM      2  C   UNL     1     160.507 178.302 186.566  1.00  0.00     0.000 C 
BRANCH   2   3
ATOM      3  C   UNL     1     161.120 177.164 187.400  1.00  0.00    -0.000 C 
BRANCH   3   4
ATOM      4  C   UNL     1     162.404 177.586 188.136  1.00  0.00    -0.000 C 
BRANCH   4   5
ATOM      5  C   UNL     1     163.690 177.513 187.293  1.00  0.00    -0.003 C 
ATOM      6  C   UNL     1     164.195 178.884 186.848  1.00  0.00     0.004 C 
ENDBRANCH   4   5
ENDBRANCH   3   4
ENDBRANCH   2   3
ENDBRANCH   1   2
BRANCH   1   7
ATOM      7  C   UNL     1     161.182 176.722 184.669  1.00  0.00     0.002 C 
BRANCH   7   8
ATOM      8  C   UNL     1     161.892 177.010 183.340  1.00  0.00     0.028 C 
BRANCH   8   9
ATOM      9  C   UNL     1     163.376 177.314 183.560  1.00  0.00     0.156 C 
BRANCH   9  10
ATOM     10  O   UNL     1     163.665 178.629 183.169  1.00  0.00    -0.396 OA
ATOM     11  H   UNL     1     163.338 179.220 183.896  1.00  0.00     0.210 HD
ENDBRANCH   9  10
ENDBRANCH   8   9
ENDBRANCH   7   8
ENDBRANCH   1   7
TORSDOF 8
ENDMDL
MODEL 5
REMARK VINA RESULT:    -3.367      9.583     12.063
REMARK INTER + INTRA:          -5.329
REMARK INTER:                  -4.764
REMARK INTRA:                  -0.565
REMARK UNBOUND:                -0.486
REMARK SMILES CCCCCCCCCO
REMARK SMILES IDX 6 1 5 2 4 3 3 4 2 5 1 6 7 7 8 8 9 9 10 10
REMARK H PARENT 10 11
REMARK Flexibility Score: inf
ROOT
ATOM      1  C   UNL     1     161.100 177.694 185.534  1.00  0.00     0.000 C 
ENDROOT
BRANCH   1   2
ATOM      2  C   UNL     1     160.832 178.137 186.982  1.00  0.00     0.000 C 
BRANCH   2   3
ATOM      3  C   UNL     1     161.006 176.989 187.991  1.00  0.00    -0.000 C 
BRANCH   3   4
ATOM      4  C   UNL     1     160.516 175.635 187.448  1.00  0.00    -0.000 C 
BRANCH   4   5
ATOM      5  C   UNL     1     161.582 174.525 187.410  1.00  0.00    -0.003 C 
ATOM      6  C   UNL     1     162.984 175.030 187.745  1.00  0.00     0.004 C 
ENDBRANCH   4   5
ENDBRANCH   3   4
ENDBRANCH   2   3
ENDBRANCH   1   2
BRANCH   1   7
ATOM      7  C   UNL     1     162.598 177.656 185.193  1.00  0.00     0.002 C 
BRANCH   7   8
ATOM      8  C   UNL     1     163.396 178.568 186.133  1.00  0.00     0.028 C 
BRANCH   8   9
ATOM      9  C   UNL     1     164.825 178.051 186.323  1.00  0.00     0.156 C 
BRANCH   9  10
ATOM     10  O   UNL     1     165.704 178.730 185.469  1.00  0.00    -0.396 OA
ATOM     11  H   UNL     1     166.414 179.119 186.043  1.00  0.00     0.210 HD
ENDBRANCH   9  10
ENDBRANCH   8   9
ENDBRANCH   7   8
ENDBRANCH   1   7
TORSDOF 8
ENDMDL
MODEL 6
REMARK VINA RESULT:    -3.363     10.046     12.426
REMARK INTER + INTRA:          -5.324
REMARK INTER:                  -5.131
REMARK INTRA:                  -0.193
REMARK UNBOUND:                -0.486
REMARK SMILES CCCCCCCCCO
REMARK SMILES IDX 6 1 5 2 4 3 3 4 2 5 1 6 7 7 8 8 9 9 10 10
REMARK H PARENT 10 11
REMARK Flexibility Score: inf
ROOT
ATOM      1  C   UNL     1     161.926 177.660 188.267  1.00  0.00     0.000 C 
ENDROOT
BRANCH   1   2
ATOM      2  C   UNL     1     160.778 176.840 187.654  1.00  0.00     0.000 C 
BRANCH   2   3
ATOM      3  C   UNL     1     161.178 175.381 187.376  1.00  0.00    -0.000 C 
BRANCH   3   4
ATOM      4  C   UNL     1     159.990 174.406 187.476  1.00  0.00    -0.000 C 
BRANCH   4   5
ATOM      5  C   UNL     1     160.244 173.010 186.879  1.00  0.00    -0.003 C 
ATOM      6  C   UNL     1     160.737 171.996 187.911  1.00  0.00     0.004 C 
ENDBRANCH   4   5
ENDBRANCH   3   4
ENDBRANCH   2   3
ENDBRANCH   1   2
BRANCH   1   7
ATOM      7  C   UNL     1     163.283 177.364 187.608  1.00  0.00     0.002 C 
BRANCH   7   8
ATOM      8  C   UNL     1     163.794 178.587 186.836  1.00  0.00     0.028 C 
BRANCH   8   9
ATOM      9  C   UNL     1     164.389 178.179 185.486  1.00  0.00     0.156 C 
BRANCH   9  10
ATOM     10  O   UNL     1     165.712 178.630 185.383  1.00  0.00    -0.396 OA
ATOM     11  H   UNL     1     166.108 178.172 184.597  1.00  0.00     0.210 HD
ENDBRANCH   9  10
ENDBRANCH   8   9
ENDBRANCH   7   8
ENDBRANCH   1   7
TORSDOF 8
ENDMDL
MODEL 7
REMARK VINA RESULT:    -3.354     13.405     14.467
REMARK INTER + INTRA:          -5.310
REMARK INTER:                  -5.102
REMARK INTRA:                  -0.208
REMARK UNBOUND:                -0.486
REMARK SMILES CCCCCCCCCO
REMARK SMILES IDX 6 1 5 2 4 3 3 4 2 5 1 6 7 7 8 8 9 9 10 10
REMARK H PARENT 10 11
REMARK Flexibility Score: inf
ROOT
ATOM      1  C   UNL     1     161.202 175.772 187.335  1.00  0.00     0.000 C 
ENDROOT
BRANCH   1   2
ATOM      2  C   UNL     1     159.987 174.902 187.696  1.00  0.00     0.000 C 
BRANCH   2   3
ATOM      3  C   UNL     1     160.066 173.494 187.082  1.00  0.00    -0.000 C 
BRANCH   3   4
ATOM      4  C   UNL     1     161.209 172.647 187.671  1.00  0.00    -0.000 C 
BRANCH   4   5
ATOM      5  C   UNL     1     160.765 171.339 188.350  1.00  0.00    -0.003 C 
ATOM      6  C   UNL     1     160.718 170.151 187.390  1.00  0.00     0.004 C 
ENDBRANCH   4   5
ENDBRANCH   3   4
ENDBRANCH   2   3
ENDBRANCH   1   2
BRANCH   1   7
ATOM      7  C   UNL     1     161.186 177.137 188.041  1.00  0.00     0.002 C 
BRANCH   7   8
ATOM      8  C   UNL     1     160.623 178.224 187.117  1.00  0.00     0.028 C 
BRANCH   8   9
ATOM      9  C   UNL     1     160.875 177.883 185.646  1.00  0.00     0.156 C 
BRANCH   9  10
ATOM     10  O   UNL     1     159.946 178.542 184.830  1.00  0.00    -0.396 OA
ATOM     11  H   UNL     1     160.017 179.509 185.042  1.00  0.00     0.210 HD
ENDBRANCH   9  10
ENDBRANCH   8   9
ENDBRANCH   7   8
ENDBRANCH   1   7
TORSDOF 8
ENDMDL
MODEL 8
REMARK VINA RESULT:    -3.312     11.335     12.406
REMARK INTER + INTRA:          -5.251
REMARK INTER:                  -4.541
REMARK INTRA:                  -0.710
REMARK UNBOUND:                -0.486
REMARK SMILES CCCCCCCCCO
REMARK SMILES IDX 6 1 5 2 4 3 3 4 2 5 1 6 7 7 8 8 9 9 10 10
REMARK H PARENT 10 11
REMARK Flexibility Score: inf
ROOT
ATOM      1  C   UNL     1     161.197 177.818 185.509  1.00  0.00     0.000 C 
ENDROOT
BRANCH   1   2
ATOM      2  C   UNL     1     160.854 178.209 186.956  1.00  0.00     0.000 C 
BRANCH   2   3
ATOM      3  C   UNL     1     161.045 177.046 187.944  1.00  0.00    -0.000 C 
BRANCH   3   4
ATOM      4  C   UNL     1     160.616 175.688 187.358  1.00  0.00    -0.000 C 
BRANCH   4   5
ATOM      5  C   UNL     1     161.676 174.576 187.450  1.00  0.00    -0.003 C 
ATOM      6  C   UNL     1     163.072 175.105 187.777  1.00  0.00     0.004 C 
ENDBRANCH   4   5
ENDBRANCH   3   4
ENDBRANCH   2   3
ENDBRANCH   1   2
BRANCH   1   7
ATOM      7  C   UNL     1     162.706 177.869 185.223  1.00  0.00     0.002 C 
BRANCH   7   8
ATOM      8  C   UNL     1     163.113 176.771 184.232  1.00  0.00     0.028 C 
BRANCH   8   9
ATOM      9  C   UNL     1     163.935 177.347 183.076  1.00  0.00     0.156 C 
BRANCH   9  10
ATOM     10  O   UNL     1     163.618 178.699 182.883  1.00  0.00    -0.396 OA
ATOM     11  H   UNL     1     163.616 178.852 181.902  1.00  0.00     0.210 HD
ENDBRANCH   9  10
ENDBRANCH   8   9
ENDBRANCH   7   8
ENDBRANCH   1   7
TORSDOF 8
ENDMDL
