MODEL 1
REMARK VINA RESULT:    -4.732      0.000      0.000
REMARK INTER + INTRA:          -8.506
REMARK INTER:                  -7.222
REMARK INTRA:                  -1.284
REMARK UNBOUND:                -1.284
REMARK SMILES CCCCCCCCCC=CC(=O)[O-]
REMARK SMILES IDX 7 1 8 2 9 3 10 4 11 5 12 6 13 7 14 8 6 9 5 10 4 11 3 12 2 13
REMARK SMILES IDX 1 14
REMARK H PARENT
REMARK Flexibility Score: inf
ROOT
ATOM      1  C   UNL     1      18.422  -3.389 -27.903  1.00  0.00     0.000 C 
ENDROOT
BRANCH   1   2
ATOM      2  C   UNL     1      19.732  -3.397 -28.707  1.00  0.00     0.004 C 
BRANCH   2   3
ATOM      3  C   UNL     1      20.960  -3.699 -27.835  1.00  0.00     0.027 C 
BRANCH   3   4
ATOM      4  C   UNL     1      21.733  -2.447 -27.537  1.00  0.00    -0.025 C 
ATOM      5  C   UNL     1      22.945  -2.492 -26.976  1.00  0.00     0.020 C 
BRANCH   5   6
ATOM      6  C   UNL     1      23.719  -1.274 -26.691  1.00  0.00     0.064 C 
ATOM      7  O   UNL     1      23.919  -0.435 -27.609  1.00  0.00    -0.545 OA
ATOM      8  O   UNL     1      24.235  -1.033 -25.423  1.00  0.00    -0.545 OA
ENDBRANCH   5   6
ENDBRANCH   3   4
ENDBRANCH   2   3
ENDBRANCH   1   2
BRANCH   1   9
ATOM      9  C   UNL     1      17.999  -4.794 -27.447  1.00  0.00     0.000 C 
BRANCH   9  10
ATOM     10  C   UNL     1      17.663  -4.806 -25.948  1.00  0.00     0.000 C 
BRANCH  10  11
ATOM     11  C   UNL     1      18.637  -3.958 -25.113  1.00  0.00    -0.000 C 
BRANCH  11  12
ATOM     12  C   UNL     1      19.772  -4.795 -24.499  1.00  0.00    -0.000 C 
BRANCH  12  13
ATOM     13  C   UNL     1      20.941  -3.928 -24.005  1.00  0.00    -0.003 C 
ATOM     14  C   UNL     1      20.629  -2.432 -24.047  1.00  0.00     0.004 C 
ENDBRANCH  12  13
ENDBRANCH  11  12
ENDBRANCH  10  11
ENDBRANCH   9  10
ENDBRANCH   1   9
TORSDOF 9
ENDMDL
MODEL 2
REMARK VINA RESULT:    -4.713      2.635      4.618
REMARK INTER + INTRA:          -8.477
REMARK INTER:                  -7.611
REMARK INTRA:                  -0.866
REMARK UNBOUND:                -1.284
REMARK SMILES CCCCCCCCCC=CC(=O)[O-]
REMARK SMILES IDX 7 1 8 2 9 3 10 4 11 5 12 6 13 7 14 8 6 9 5 10 4 11 3 12 2 13
REMARK SMILES IDX 1 14
REMARK H PARENT
REMARK Flexibility Score: inf
ROOT
ATOM      1  C   UNL     1      22.147  -2.218 -27.052  1.00  0.00     0.000 C 
ENDROOT
BRANCH   1   2
ATOM      2  C   UNL     1      22.629  -2.115 -25.596  1.00  0.00     0.004 C 
BRANCH   2   3
ATOM      3  C   UNL     1      21.497  -2.339 -24.581  1.00  0.00     0.027 C 
BRANCH   3   4
ATOM      4  C   UNL     1      21.945  -3.229 -23.459  1.00  0.00    -0.025 C 
ATOM      5  C   UNL     1      22.855  -4.189 -23.649  1.00  0.00     0.020 C 
BRANCH   5   6
ATOM      6  C   UNL     1      23.312  -5.060 -22.556  1.00  0.00     0.064 C 
ATOM      7  O   UNL     1      24.479  -4.925 -22.101  1.00  0.00    -0.545 OA
ATOM      8  O   UNL     1      22.476  -6.030 -22.015  1.00  0.00    -0.545 OA
ENDBRANCH   5   6
ENDBRANCH   3   4
ENDBRANCH   2   3
ENDBRANCH   1   2
BRANCH   1   9
ATOM      9  C   UNL     1      21.339  -3.497 -27.318  1.00  0.00     0.000 C 
BRANCH   9  10
ATOM     10  C   UNL     1      20.440  -3.330 -28.553  1.00  0.00     0.000 C 
BRANCH  10  11
ATOM     11  C   UNL     1      18.948  -3.526 -28.234  1.00  0.00    -0.000 C 
BRANCH  11  12
ATOM     12  C   UNL     1      18.664  -3.543 -26.722  1.00  0.00    -0.000 C 
BRANCH  12  13
ATOM     13  C   UNL     1      17.711  -4.677 -26.315  1.00  0.00    -0.003 C 
ATOM     14  C   UNL     1      17.163  -5.451 -27.515  1.00  0.00     0.004 C 
ENDBRANCH  12  13
ENDBRANCH  11  12
ENDBRANCH  10  11
ENDBRANCH   9  10
ENDBRANCH   1   9
TORSDOF 9
ENDMDL
MODEL 3
REMARK VINA RESULT:    -4.713     10.651     12.955
REMARK INTER + INTRA:          -8.476
REMARK INTER:                  -8.088
REMARK INTRA:                  -0.388
REMARK UNBOUND:                -1.284
REMARK SMILES CCCCCCCCCC=CC(=O)[O-]
REMARK SMILES IDX 7 1 8 2 9 3 10 4 11 5 12 6 13 7 14 8 6 9 5 10 4 11 3 12 2 13
REMARK SMILES IDX 1 14
REMARK H PARENT
REMARK Flexibility Score: inf
ROOT
ATOM      1  C   UNL     1      26.073  -1.181 -16.036  1.00  0.00     0.000 C 
ENDROOT
BRANCH   1   2
ATOM      2  C   UNL     1      24.704  -0.859 -16.657  1.00  0.00     0.004 C 
BRANCH   2   3
ATOM      3  C   UNL     1      23.939   0.220 -15.875  1.00  0.00     0.027 C 
BRANCH   3   4
ATOM      4  C   UNL     1      22.856   0.832 -16.715  1.00  0.00    -0.025 C 
ATOM      5  C   UNL     1      21.589   0.882 -16.293  1.00  0.00     0.020 C 
BRANCH   5   6
ATOM      6  C   UNL     1      20.520   1.490 -17.100  1.00  0.00     0.064 C 
ATOM      7  O   UNL     1      19.334   1.093 -16.960  1.00  0.00    -0.545 OA
ATOM      8  O   UNL     1      20.799   2.499 -18.015  1.00  0.00    -0.545 OA
ENDBRANCH   5   6
ENDBRANCH   3   4
ENDBRANCH   2   3
ENDBRANCH   1   2
BRANCH   1   9
ATOM      9  C   UNL     1      27.053  -1.789 -17.051  1.00  0.00     0.000 C 
BRANCH   9  10
ATOM     10  C   UNL     1      28.504  -1.440 -16.686  1.00  0.00     0.000 C 
BRANCH  10  11
ATOM     11  C   UNL     1      28.615  -0.665 -15.362  1.00  0.00    -0.000 C 
BRANCH  11  12
ATOM     12  C   UNL     1      30.069  -0.522 -14.881  1.00  0.00    -0.000 C 
BRANCH  12  13
ATOM     13  C   UNL     1      30.918   0.344 -15.824  1.00  0.00    -0.003 C 
ATOM     14  C   UNL     1      32.200  -0.355 -16.278  1.00  0.00     0.004 C 
ENDBRANCH  12  13
ENDBRANCH  11  12
ENDBRANCH  10  11
ENDBRANCH   9  10
ENDBRANCH   1   9
TORSDOF 9
ENDMDL
MODEL 4
REMARK VINA RESULT:    -4.693     10.595     11.841
REMARK INTER + INTRA:          -8.446
REMARK INTER:                  -7.962
REMARK INTRA:                  -0.485
REMARK UNBOUND:                -1.284
REMARK SMILES CCCCCCCCCC=CC(=O)[O-]
REMARK SMILES IDX 7 1 8 2 9 3 10 4 11 5 12 6 13 7 14 8 6 9 5 10 4 11 3 12 2 13
REMARK SMILES IDX 1 14
REMARK H PARENT
REMARK Flexibility Score: inf
ROOT
ATOM      1  C   UNL     1      23.966   0.138 -16.008  1.00  0.00     0.000 C 
ENDROOT
BRANCH   1   2
ATOM      2  C   UNL     1      24.978  -1.000 -15.795  1.00  0.00     0.004 C 
BRANCH   2   3
ATOM      3  C   UNL     1      25.655  -1.441 -17.101  1.00  0.00     0.027 C 
BRANCH   3   4
ATOM      4  C   UNL     1      27.150  -1.354 -16.993  1.00  0.00    -0.025 C 
ATOM      5  C   UNL     1      27.759  -1.240 -15.809  1.00  0.00     0.020 C 
BRANCH   5   6
ATOM      6  C   UNL     1      29.223  -1.166 -15.688  1.00  0.00     0.064 C 
ATOM      7  O   UNL     1      29.947  -1.663 -16.590  1.00  0.00    -0.545 OA
ATOM      8  O   UNL     1      29.821  -0.556 -14.591  1.00  0.00    -0.545 OA
ENDBRANCH   5   6
ENDBRANCH   3   4
ENDBRANCH   2   3
ENDBRANCH   1   2
BRANCH   1   9
ATOM      9  C   UNL     1      23.520   0.265 -17.473  1.00  0.00     0.000 C 
BRANCH   9  10
ATOM     10  C   UNL     1      22.230   1.092 -17.582  1.00  0.00     0.000 C 
BRANCH  10  11
ATOM     11  C   UNL     1      21.440   1.140 -16.263  1.00  0.00    -0.000 C 
BRANCH  11  12
ATOM     12  C   UNL     1      19.918   1.121 -16.484  1.00  0.00    -0.000 C 
BRANCH  12  13
ATOM     13  C   UNL     1      19.150   0.639 -15.244  1.00  0.00    -0.003 C 
ATOM     14  C   UNL     1      17.638   0.590 -15.464  1.00  0.00     0.004 C 
ENDBRANCH  12  13
ENDBRANCH  11  12
ENDBRANCH  10  11
ENDBRANCH   9  10
ENDBRANCH   1   9
TORSDOF 9
ENDMDL
MODEL 5
REMARK VINA RESULT:    -4.656     10.593     13.385
REMARK INTER + INTRA:          -8.390
REMARK INTER:                  -7.262
REMARK INTRA:                  -1.128
REMARK UNBOUND:                -1.284
REMARK SMILES CCCCCCCCCC=CC(=O)[O-]
REMARK SMILES IDX 7 1 8 2 9 3 10 4 11 5 12 6 13 7 14 8 6 9 5 10 4 11 3 12 2 13
REMARK SMILES IDX 1 14
REMARK H PARENT
REMARK Flexibility Score: inf
ROOT
ATOM      1  C   UNL     1      31.547  -0.660 -16.759  1.00  0.00     0.000 C 
ENDROOT
BRANCH   1   2
ATOM      2  C   UNL     1      30.762   0.297 -15.847  1.00  0.00     0.004 C 
BRANCH   2   3
ATOM      3  C   UNL     1      29.948  -0.443 -14.774  1.00  0.00     0.027 C 
BRANCH   3   4
ATOM      4  C   UNL     1      28.862  -1.272 -15.395  1.00  0.00    -0.025 C 
ATOM      5  C   UNL     1      27.701  -0.730 -15.775  1.00  0.00     0.020 C 
BRANCH   5   6
ATOM      6  C   UNL     1      26.633  -1.528 -16.397  1.00  0.00     0.064 C 
ATOM      7  O   UNL     1      26.907  -2.290 -17.361  1.00  0.00    -0.545 OA
ATOM      8  O   UNL     1      25.323  -1.455 -15.936  1.00  0.00    -0.545 OA
ENDBRANCH   5   6
ENDBRANCH   3   4
ENDBRANCH   2   3
ENDBRANCH   1   2
BRANCH   1   9
ATOM      9  C   UNL     1      31.423  -0.295 -18.246  1.00  0.00     0.000 C 
BRANCH   9  10
ATOM     10  C   UNL     1      30.143   0.516 -18.504  1.00  0.00     0.000 C 
BRANCH  10  11
ATOM     11  C   UNL     1      29.063  -0.297 -19.238  1.00  0.00    -0.000 C 
BRANCH  11  12
ATOM     12  C   UNL     1      29.529  -1.720 -19.588  1.00  0.00    -0.000 C 
BRANCH  12  13
ATOM     13  C   UNL     1      29.095  -2.151 -20.997  1.00  0.00    -0.003 C 
ATOM     14  C   UNL     1      28.919  -3.664 -21.128  1.00  0.00     0.004 C 
ENDBRANCH  12  13
ENDBRANCH  11  12
ENDBRANCH  10  11
ENDBRANCH   9  10
ENDBRANCH   1   9
TORSDOF 9
ENDMDL
MODEL 6
REMARK VINA RESULT:    -4.654      3.627      5.203
REMARK INTER + INTRA:          -8.387
REMARK INTER:                  -7.799
REMARK INTRA:                  -0.587
REMARK UNBOUND:                -1.284
REMARK SMILES CCCCCCCCCC=CC(=O)[O-]
REMARK SMILES IDX 7 1 8 2 9 3 10 4 11 5 12 6 13 7 14 8 6 9 5 10 4 11 3 12 2 13
REMARK SMILES IDX 1 14
REMARK H PARENT
REMARK Flexibility Score: inf
ROOT
ATOM      1  C   UNL     1      21.741  -2.359 -27.217  1.00  0.00     0.000 C 
ENDROOT
BRANCH   1   2
ATOM      2  C   UNL     1      21.024  -3.624 -27.716  1.00  0.00     0.004 C 
BRANCH   2   3
ATOM      3  C   UNL     1      19.915  -3.314 -28.733  1.00  0.00     0.027 C 
BRANCH   3   4
ATOM      4  C   UNL     1      18.673  -4.104 -28.438  1.00  0.00    -0.025 C 
ATOM      5  C   UNL     1      18.571  -4.859 -27.340  1.00  0.00     0.020 C 
BRANCH   5   6
ATOM      6  C   UNL     1      17.355  -5.627 -27.032  1.00  0.00     0.064 C 
ATOM      7  O   UNL     1      16.786  -6.282 -27.944  1.00  0.00    -0.545 OA
ATOM      8  O   UNL     1      16.824  -5.643 -25.747  1.00  0.00    -0.545 OA
ENDBRANCH   5   6
ENDBRANCH   3   4
ENDBRANCH   2   3
ENDBRANCH   1   2
BRANCH   1   9
ATOM      9  C   UNL     1      23.153  -2.650 -26.686  1.00  0.00     0.000 C 
BRANCH   9  10
ATOM     10  C   UNL     1      23.102  -3.633 -25.506  1.00  0.00     0.000 C 
BRANCH  10  11
ATOM     11  C   UNL     1      22.329  -3.074 -24.299  1.00  0.00    -0.000 C 
BRANCH  11  12
ATOM     12  C   UNL     1      21.339  -4.092 -23.708  1.00  0.00    -0.000 C 
BRANCH  12  13
ATOM     13  C   UNL     1      21.776  -4.603 -22.326  1.00  0.00    -0.003 C 
ATOM     14  C   UNL     1      23.139  -5.294 -22.353  1.00  0.00     0.004 C 
ENDBRANCH  12  13
ENDBRANCH  11  12
ENDBRANCH  10  11
ENDBRANCH   9  10
ENDBRANCH   1   9
TORSDOF 9
ENDMDL
MODEL 7
REMARK VINA RESULT:    -4.654     10.351     11.193
REMARK INTER + INTRA:          -8.386
REMARK INTER:                  -7.885
REMARK INTRA:                  -0.501
REMARK UNBOUND:                -1.284
REMARK SMILES CCCCCCCCCC=CC(=O)[O-]
REMARK SMILES IDX 7 1 8 2 9 3 10 4 11 5 12 6 13 7 14 8 6 9 5 10 4 11 3 12 2 13
REMARK SMILES IDX 1 14
REMARK H PARENT
REMARK Flexibility Score: inf
ROOT
ATOM      1  C   UNL     1      20.653   2.031 -17.163  1.00  0.00     0.000 C 
ENDROOT
BRANCH   1   2
ATOM      2  C   UNL     1      21.459   0.731 -17.013  1.00  0.00     0.004 C 
BRANCH   2   3
ATOM      3  C   UNL     1      22.816   0.952 -16.326  1.00  0.00     0.027 C 
BRANCH   3   4
ATOM      4  C   UNL     1      23.848  -0.007 -16.845  1.00  0.00    -0.025 C 
ATOM      5  C   UNL     1      24.877  -0.401 -16.089  1.00  0.00     0.020 C 
BRANCH   5   6
ATOM      6  C   UNL     1      25.888  -1.350 -16.580  1.00  0.00     0.064 C 
ATOM      7  O   UNL     1      25.696  -1.954 -17.668  1.00  0.00    -0.545 OA
ATOM      8  O   UNL     1      27.053  -1.591 -15.861  1.00  0.00    -0.545 OA
ENDBRANCH   5   6
ENDBRANCH   3   4
ENDBRANCH   2   3
ENDBRANCH   1   2
BRANCH   1   9
ATOM      9  C   UNL     1      19.215   1.898 -16.638  1.00  0.00     0.000 C 
BRANCH   9  10
ATOM     10  C   UNL     1      19.152   0.918 -15.457  1.00  0.00     0.000 C 
BRANCH  10  11
ATOM     11  C   UNL     1      17.720   0.445 -15.152  1.00  0.00    -0.000 C 
BRANCH  11  12
ATOM     12  C   UNL     1      17.080  -0.303 -16.334  1.00  0.00    -0.000 C 
BRANCH  12  13
ATOM     13  C   UNL     1      15.884   0.454 -16.931  1.00  0.00    -0.003 C 
ATOM     14  C   UNL     1      14.912   0.963 -15.866  1.00  0.00     0.004 C 
ENDBRANCH  12  13
ENDBRANCH  11  12
ENDBRANCH  10  11
ENDBRANCH   9  10
ENDBRANCH   1   9
TORSDOF 9
ENDMDL
MODEL 8
REMARK VINA RESULT:    -4.529      2.444      4.090
REMARK INTER + INTRA:          -8.195
REMARK INTER:                  -7.502
REMARK INTRA:                  -0.693
REMARK UNBOUND:                -1.284
REMARK SMILES CCCCCCCCCC=CC(=O)[O-]
REMARK SMILES IDX 7 1 8 2 9 3 10 4 11 5 12 6 13 7 14 8 6 9 5 10 4 11 3 12 2 13
REMARK SMILES IDX 1 14
REMARK H PARENT
REMARK Flexibility Score: inf
ROOT
ATOM      1  C   UNL     1      21.729  -2.445 -26.844  1.00  0.00     0.000 C 
ENDROOT
BRANCH   1   2
ATOM      2  C   UNL     1      23.139  -1.974 -27.236  1.00  0.00     0.004 C 
BRANCH   2   3
ATOM      3  C   UNL     1      24.059  -1.785 -26.020  1.00  0.00     0.027 C 
BRANCH   3   4
ATOM      4  C   UNL     1      23.970  -2.957 -25.086  1.00  0.00    -0.025 C 
ATOM      5  C   UNL     1      24.883  -3.160 -24.132  1.00  0.00     0.020 C 
BRANCH   5   6
ATOM      6  C   UNL     1      24.802  -4.297 -23.202  1.00  0.00     0.064 C 
ATOM      7  O   UNL     1      25.825  -4.647 -22.558  1.00  0.00    -0.545 OA
ATOM      8  O   UNL     1      23.611  -4.992 -23.022  1.00  0.00    -0.545 OA
ENDBRANCH   5   6
ENDBRANCH   3   4
ENDBRANCH   2   3
ENDBRANCH   1   2
BRANCH   1   9
ATOM      9  C   UNL     1      21.285  -3.692 -27.624  1.00  0.00     0.000 C 
BRANCH   9  10
ATOM     10  C   UNL     1      20.176  -3.344 -28.628  1.00  0.00     0.000 C 
BRANCH  10  11
ATOM     11  C   UNL     1      18.879  -4.132 -28.378  1.00  0.00    -0.000 C 
BRANCH  11  12
ATOM     12  C   UNL     1      17.985  -3.477 -27.311  1.00  0.00    -0.000 C 
BRANCH  12  13
ATOM     13  C   UNL     1      17.715  -4.407 -26.118  1.00  0.00    -0.003 C 
ATOM     14  C   UNL     1      18.752  -4.262 -25.005  1.00  0.00     0.004 C 
ENDBRANCH  12  13
ENDBRANCH  11  12
ENDBRANCH  10  11
ENDBRANCH   9  10
ENDBRANCH   1   9
TORSDOF 9
ENDMDL
MODEL 9
REMARK VINA RESULT:    -4.522      8.513     10.165
REMARK INTER + INTRA:          -8.184
REMARK INTER:                  -7.208
REMARK INTRA:                  -0.977
REMARK UNBOUND:                -1.284
REMARK SMILES CCCCCCCCCC=CC(=O)[O-]
REMARK SMILES IDX 7 1 8 2 9 3 10 4 11 5 12 6 13 7 14 8 6 9 5 10 4 11 3 12 2 13
REMARK SMILES IDX 1 14
REMARK H PARENT
REMARK Flexibility Score: inf
ROOT
ATOM      1  C   UNL     1      20.341   0.794 -16.008  1.00  0.00     0.000 C 
ENDROOT
BRANCH   1   2
ATOM      2  C   UNL     1      20.857   2.008 -16.798  1.00  0.00     0.004 C 
BRANCH   2   3
ATOM      3  C   UNL     1      22.030   1.655 -17.726  1.00  0.00     0.027 C 
BRANCH   3   4
ATOM      4  C   UNL     1      21.673   1.893 -19.164  1.00  0.00    -0.025 C 
ATOM      5  C   UNL     1      21.166   3.059 -19.574  1.00  0.00     0.020 C 
BRANCH   5   6
ATOM      6  C   UNL     1      20.824   3.310 -20.983  1.00  0.00     0.064 C 
ATOM      7  O   UNL     1      19.891   4.108 -21.263  1.00  0.00    -0.545 OA
ATOM      8  O   UNL     1      21.515   2.680 -22.012  1.00  0.00    -0.545 OA
ENDBRANCH   5   6
ENDBRANCH   3   4
ENDBRANCH   2   3
ENDBRANCH   1   2
BRANCH   1   9
ATOM      9  C   UNL     1      19.034   1.090 -15.257  1.00  0.00     0.000 C 
BRANCH   9  10
ATOM     10  C   UNL     1      17.981   0.009 -15.543  1.00  0.00     0.000 C 
BRANCH  10  11
ATOM     11  C   UNL     1      16.579   0.593 -15.785  1.00  0.00    -0.000 C 
BRANCH  11  12
ATOM     12  C   UNL     1      16.181   0.580 -17.271  1.00  0.00    -0.000 C 
BRANCH  12  13
ATOM     13  C   UNL     1      17.298   0.034 -18.173  1.00  0.00    -0.003 C 
ATOM     14  C   UNL     1      17.967   1.121 -19.015  1.00  0.00     0.004 C 
ENDBRANCH  12  13
ENDBRANCH  11  12
ENDBRANCH  10  11
ENDBRANCH   9  10
ENDBRANCH   1   9
TORSDOF 9
ENDMDL
