MODEL 1
REMARK VINA RESULT:    -3.859      0.000      0.000
REMARK INTER + INTRA:          -8.518
REMARK INTER:                  -6.567
REMARK INTRA:                  -1.951
REMARK UNBOUND:                -1.951
REMARK SMILES CCCCCCCCCCCCCC(=O)[O-]
REMARK SMILES IDX 8 1 9 2 10 3 11 4 12 5 13 6 14 7 15 8 16 9 7 10 6 11 5 12
REMARK SMILES IDX 4 13 3 14 2 15 1 16
REMARK H PARENT
REMARK Flexibility Score: inf
ROOT
ATOM      1  C   UNL     1     -27.749 -21.524 -33.936  1.00  0.00     0.000 C 
ENDROOT
BRANCH   1   2
ATOM      2  C   UNL     1     -27.633 -19.991 -33.853  1.00  0.00     0.000 C 
BRANCH   2   3
ATOM      3  C   UNL     1     -27.300 -19.441 -32.452  1.00  0.00     0.000 C 
BRANCH   3   4
ATOM      4  C   UNL     1     -28.230 -18.317 -31.952  1.00  0.00     0.000 C 
BRANCH   4   5
ATOM      5  C   UNL     1     -28.928 -18.599 -30.606  1.00  0.00     0.006 C 
BRANCH   5   6
ATOM      6  C   UNL     1     -28.512 -19.921 -29.942  1.00  0.00     0.053 C 
BRANCH   6   7
ATOM      7  C   UNL     1     -27.720 -19.695 -28.691  1.00  0.00     0.041 C 
ATOM      8  O   UNL     1     -27.771 -20.526 -27.748  1.00  0.00    -0.550 OA
ATOM      9  O   UNL     1     -26.899 -18.579 -28.581  1.00  0.00    -0.550 OA
ENDBRANCH   6   7
ENDBRANCH   5   6
ENDBRANCH   4   5
ENDBRANCH   3   4
ENDBRANCH   2   3
ENDBRANCH   1   2
BRANCH   1  10
ATOM     10  C   UNL     1     -29.059 -22.056 -33.336  1.00  0.00     0.000 C 
BRANCH  10  11
ATOM     11  C   UNL     1     -28.793 -22.838 -32.043  1.00  0.00    -0.000 C 
BRANCH  11  12
ATOM     12  C   UNL     1     -27.347 -23.351 -31.997  1.00  0.00    -0.000 C 
BRANCH  12  13
ATOM     13  C   UNL     1     -26.561 -22.819 -30.786  1.00  0.00    -0.000 C 
BRANCH  13  14
ATOM     14  C   UNL     1     -25.201 -22.174 -31.122  1.00  0.00    -0.000 C 
BRANCH  14  15
ATOM     15  C   UNL     1     -24.589 -21.324 -29.993  1.00  0.00    -0.003 C 
ATOM     16  C   UNL     1     -24.122 -19.950 -30.470  1.00  0.00     0.004 C 
ENDBRANCH  14  15
ENDBRANCH  13  14
ENDBRANCH  12  13
ENDBRANCH  11  12
ENDBRANCH  10  11
ENDBRANCH   1  10
TORSDOF 12
ENDMDL
MODEL 2
REMARK VINA RESULT:    -3.857      1.440      3.076
REMARK INTER + INTRA:          -8.514
REMARK INTER:                  -6.167
REMARK INTRA:                  -2.347
REMARK UNBOUND:                -1.951
REMARK SMILES CCCCCCCCCCCCCC(=O)[O-]
REMARK SMILES IDX 8 1 9 2 10 3 11 4 12 5 13 6 14 7 15 8 16 9 7 10 6 11 5 12
REMARK SMILES IDX 4 13 3 14 2 15 1 16
REMARK H PARENT
REMARK Flexibility Score: inf
ROOT
ATOM      1  C   UNL     1     -27.058 -23.256 -31.429  1.00  0.00     0.000 C 
ENDROOT
BRANCH   1   2
ATOM      2  C   UNL     1     -28.168 -22.299 -31.901  1.00  0.00     0.000 C 
BRANCH   2   3
ATOM      3  C   UNL     1     -28.565 -21.212 -30.884  1.00  0.00     0.000 C 
BRANCH   3   4
ATOM      4  C   UNL     1     -28.304 -19.762 -31.339  1.00  0.00     0.000 C 
BRANCH   4   5
ATOM      5  C   UNL     1     -27.715 -18.835 -30.257  1.00  0.00     0.006 C 
BRANCH   5   6
ATOM      6  C   UNL     1     -27.665 -19.454 -28.851  1.00  0.00     0.053 C 
BRANCH   6   7
ATOM      7  C   UNL     1     -26.597 -18.833 -28.004  1.00  0.00     0.041 C 
ATOM      8  O   UNL     1     -26.587 -19.018 -26.759  1.00  0.00    -0.550 OA
ATOM      9  O   UNL     1     -25.593 -18.077 -28.596  1.00  0.00    -0.550 OA
ENDBRANCH   6   7
ENDBRANCH   5   6
ENDBRANCH   4   5
ENDBRANCH   3   4
ENDBRANCH   2   3
ENDBRANCH   1   2
BRANCH   1  10
ATOM     10  C   UNL     1     -26.329 -22.751 -30.175  1.00  0.00     0.000 C 
BRANCH  10  11
ATOM     11  C   UNL     1     -24.841 -22.514 -30.462  1.00  0.00    -0.000 C 
BRANCH  11  12
ATOM     12  C   UNL     1     -24.455 -21.052 -30.195  1.00  0.00    -0.000 C 
BRANCH  12  13
ATOM     13  C   UNL     1     -24.550 -20.168 -31.451  1.00  0.00    -0.000 C 
BRANCH  13  14
ATOM     14  C   UNL     1     -24.334 -20.907 -32.788  1.00  0.00    -0.000 C 
BRANCH  14  15
ATOM     15  C   UNL     1     -25.454 -20.711 -33.825  1.00  0.00    -0.003 C 
ATOM     16  C   UNL     1     -25.714 -21.962 -34.664  1.00  0.00     0.004 C 
ENDBRANCH  14  15
ENDBRANCH  13  14
ENDBRANCH  12  13
ENDBRANCH  11  12
ENDBRANCH  10  11
ENDBRANCH   1  10
TORSDOF 12
ENDMDL
MODEL 3
REMARK VINA RESULT:    -3.849     19.842     22.139
REMARK INTER + INTRA:          -8.500
REMARK INTER:                  -7.083
REMARK INTRA:                  -1.417
REMARK UNBOUND:                -1.951
REMARK SMILES CCCCCCCCCCCCCC(=O)[O-]
REMARK SMILES IDX 8 1 9 2 10 3 11 4 12 5 13 6 14 7 15 8 16 9 7 10 6 11 5 12
REMARK SMILES IDX 4 13 3 14 2 15 1 16
REMARK H PARENT
REMARK Flexibility Score: inf
ROOT
ATOM      1  C   UNL     1      -9.363 -35.557 -29.535  1.00  0.00     0.000 C 
ENDROOT
BRANCH   1   2
ATOM      2  C   UNL     1     -10.043 -36.812 -30.112  1.00  0.00     0.000 C 
BRANCH   2   3
ATOM      3  C   UNL     1     -11.515 -36.621 -30.527  1.00  0.00     0.000 C 
BRANCH   3   4
ATOM      4  C   UNL     1     -12.506 -36.438 -29.360  1.00  0.00     0.000 C 
BRANCH   4   5
ATOM      5  C   UNL     1     -13.255 -35.091 -29.348  1.00  0.00     0.006 C 
BRANCH   5   6
ATOM      6  C   UNL     1     -13.681 -34.614 -27.950  1.00  0.00     0.053 C 
BRANCH   6   7
ATOM      7  C   UNL     1     -15.166 -34.663 -27.770  1.00  0.00     0.041 C 
ATOM      8  O   UNL     1     -15.681 -35.480 -26.963  1.00  0.00    -0.550 OA
ATOM      9  O   UNL     1     -15.981 -33.782 -28.471  1.00  0.00    -0.550 OA
ENDBRANCH   6   7
ENDBRANCH   5   6
ENDBRANCH   4   5
ENDBRANCH   3   4
ENDBRANCH   2   3
ENDBRANCH   1   2
BRANCH   1  10
ATOM     10  C   UNL     1      -8.988 -35.709 -28.054  1.00  0.00     0.000 C 
BRANCH  10  11
ATOM     11  C   UNL     1      -9.441 -37.070 -27.508  1.00  0.00    -0.000 C 
BRANCH  11  12
ATOM     12  C   UNL     1     -10.371 -36.896 -26.299  1.00  0.00    -0.000 C 
BRANCH  12  13
ATOM     13  C   UNL     1     -10.793 -35.433 -26.074  1.00  0.00    -0.000 C 
BRANCH  13  14
ATOM     14  C   UNL     1     -11.289 -35.108 -24.651  1.00  0.00    -0.000 C 
BRANCH  14  15
ATOM     15  C   UNL     1     -10.785 -36.062 -23.553  1.00  0.00    -0.003 C 
ATOM     16  C   UNL     1     -11.915 -36.649 -22.709  1.00  0.00     0.004 C 
ENDBRANCH  14  15
ENDBRANCH  13  14
ENDBRANCH  12  13
ENDBRANCH  11  12
ENDBRANCH  10  11
ENDBRANCH   1  10
TORSDOF 12
ENDMDL
MODEL 4
REMARK VINA RESULT:    -3.765     20.378     22.725
REMARK INTER + INTRA:          -8.357
REMARK INTER:                  -6.913
REMARK INTRA:                  -1.444
REMARK UNBOUND:                -1.951
REMARK SMILES CCCCCCCCCCCCCC(=O)[O-]
REMARK SMILES IDX 8 1 9 2 10 3 11 4 12 5 13 6 14 7 15 8 16 9 7 10 6 11 5 12
REMARK SMILES IDX 4 13 3 14 2 15 1 16
REMARK H PARENT
REMARK Flexibility Score: inf
ROOT
ATOM      1  C   UNL     1      -8.920 -35.509 -28.248  1.00  0.00     0.000 C 
ENDROOT
BRANCH   1   2
ATOM      2  C   UNL     1      -9.366 -36.842 -27.620  1.00  0.00     0.000 C 
BRANCH   2   3
ATOM      3  C   UNL     1     -10.370 -36.710 -26.459  1.00  0.00     0.000 C 
BRANCH   3   4
ATOM      4  C   UNL     1     -10.595 -35.273 -25.947  1.00  0.00     0.000 C 
BRANCH   4   5
ATOM      5  C   UNL     1     -11.582 -35.148 -24.769  1.00  0.00     0.006 C 
BRANCH   5   6
ATOM      6  C   UNL     1     -12.238 -36.472 -24.348  1.00  0.00     0.053 C 
BRANCH   6   7
ATOM      7  C   UNL     1     -11.660 -37.004 -23.074  1.00  0.00     0.041 C 
ATOM      8  O   UNL     1     -10.552 -36.579 -22.654  1.00  0.00    -0.550 OA
ATOM      9  O   UNL     1     -12.361 -37.946 -22.331  1.00  0.00    -0.550 OA
ENDBRANCH   6   7
ENDBRANCH   5   6
ENDBRANCH   4   5
ENDBRANCH   3   4
ENDBRANCH   2   3
ENDBRANCH   1   2
BRANCH   1  10
ATOM     10  C   UNL     1      -9.542 -35.264 -29.631  1.00  0.00     0.000 C 
BRANCH  10  11
ATOM     11  C   UNL     1     -10.316 -36.497 -30.112  1.00  0.00    -0.000 C 
BRANCH  11  12
ATOM     12  C   UNL     1     -11.803 -36.169 -30.315  1.00  0.00    -0.000 C 
BRANCH  12  13
ATOM     13  C   UNL     1     -12.298 -35.041 -29.392  1.00  0.00    -0.000 C 
BRANCH  13  14
ATOM     14  C   UNL     1     -13.250 -35.489 -28.265  1.00  0.00    -0.000 C 
BRANCH  14  15
ATOM     15  C   UNL     1     -14.566 -34.696 -28.173  1.00  0.00    -0.003 C 
ATOM     16  C   UNL     1     -15.573 -35.323 -27.209  1.00  0.00     0.004 C 
ENDBRANCH  14  15
ENDBRANCH  13  14
ENDBRANCH  12  13
ENDBRANCH  11  12
ENDBRANCH  10  11
ENDBRANCH   1  10
TORSDOF 12
ENDMDL
MODEL 5
REMARK VINA RESULT:    -3.753     20.381     22.869
REMARK INTER + INTRA:          -8.337
REMARK INTER:                  -6.662
REMARK INTRA:                  -1.675
REMARK UNBOUND:                -1.951
REMARK SMILES CCCCCCCCCCCCCC(=O)[O-]
REMARK SMILES IDX 8 1 9 2 10 3 11 4 12 5 13 6 14 7 15 8 16 9 7 10 6 11 5 12
REMARK SMILES IDX 4 13 3 14 2 15 1 16
REMARK H PARENT
REMARK Flexibility Score: inf
ROOT
ATOM      1  C   UNL     1     -12.764 -36.800 -24.995  1.00  0.00     0.000 C 
ENDROOT
BRANCH   1   2
ATOM      2  C   UNL     1     -11.978 -38.032 -25.481  1.00  0.00     0.000 C 
BRANCH   2   3
ATOM      3  C   UNL     1     -10.465 -37.994 -25.191  1.00  0.00     0.000 C 
BRANCH   3   4
ATOM      4  C   UNL     1      -9.560 -37.967 -26.439  1.00  0.00     0.000 C 
BRANCH   4   5
ATOM      5  C   UNL     1     -10.090 -37.118 -27.611  1.00  0.00     0.006 C 
BRANCH   5   6
ATOM      6  C   UNL     1      -9.278 -35.843 -27.889  1.00  0.00     0.053 C 
BRANCH   6   7
ATOM      7  C   UNL     1      -9.174 -35.555 -29.355  1.00  0.00     0.041 C 
ATOM      8  O   UNL     1      -8.976 -36.490 -30.172  1.00  0.00    -0.550 OA
ATOM      9  O   UNL     1      -9.328 -34.255 -29.820  1.00  0.00    -0.550 OA
ENDBRANCH   6   7
ENDBRANCH   5   6
ENDBRANCH   4   5
ENDBRANCH   3   4
ENDBRANCH   2   3
ENDBRANCH   1   2
BRANCH   1  10
ATOM     10  C   UNL     1     -11.851 -35.644 -24.561  1.00  0.00     0.000 C 
BRANCH  10  11
ATOM     11  C   UNL     1     -12.095 -34.398 -25.422  1.00  0.00    -0.000 C 
BRANCH  11  12
ATOM     12  C   UNL     1     -13.074 -34.702 -26.566  1.00  0.00    -0.000 C 
BRANCH  12  13
ATOM     13  C   UNL     1     -12.582 -34.184 -27.928  1.00  0.00    -0.000 C 
BRANCH  13  14
ATOM     14  C   UNL     1     -12.902 -35.096 -29.129  1.00  0.00    -0.000 C 
BRANCH  14  15
ATOM     15  C   UNL     1     -14.393 -35.180 -29.501  1.00  0.00    -0.003 C 
ATOM     16  C   UNL     1     -14.646 -35.000 -30.997  1.00  0.00     0.004 C 
ENDBRANCH  14  15
ENDBRANCH  13  14
ENDBRANCH  12  13
ENDBRANCH  11  12
ENDBRANCH  10  11
ENDBRANCH   1  10
TORSDOF 12
ENDMDL
MODEL 6
REMARK VINA RESULT:    -3.747     20.360     22.526
REMARK INTER + INTRA:          -8.326
REMARK INTER:                  -6.329
REMARK INTRA:                  -1.996
REMARK UNBOUND:                -1.951
REMARK SMILES CCCCCCCCCCCCCC(=O)[O-]
REMARK SMILES IDX 8 1 9 2 10 3 11 4 12 5 13 6 14 7 15 8 16 9 7 10 6 11 5 12
REMARK SMILES IDX 4 13 3 14 2 15 1 16
REMARK H PARENT
REMARK Flexibility Score: inf
ROOT
ATOM      1  C   UNL     1      -9.696 -34.795 -29.820  1.00  0.00     0.000 C 
ENDROOT
BRANCH   1   2
ATOM      2  C   UNL     1      -9.231 -35.484 -28.524  1.00  0.00     0.000 C 
BRANCH   2   3
ATOM      3  C   UNL     1      -9.305 -37.023 -28.543  1.00  0.00     0.000 C 
BRANCH   3   4
ATOM      4  C   UNL     1     -10.298 -37.643 -27.539  1.00  0.00     0.000 C 
BRANCH   4   5
ATOM      5  C   UNL     1     -10.323 -36.974 -26.151  1.00  0.00     0.006 C 
BRANCH   5   6
ATOM      6  C   UNL     1     -11.724 -36.557 -25.673  1.00  0.00     0.053 C 
BRANCH   6   7
ATOM      7  C   UNL     1     -11.688 -35.295 -24.868  1.00  0.00     0.041 C 
ATOM      8  O   UNL     1     -12.381 -34.303 -25.212  1.00  0.00    -0.550 OA
ATOM      9  O   UNL     1     -10.912 -35.227 -23.717  1.00  0.00    -0.550 OA
ENDBRANCH   6   7
ENDBRANCH   5   6
ENDBRANCH   4   5
ENDBRANCH   3   4
ENDBRANCH   2   3
ENDBRANCH   1   2
BRANCH   1  10
ATOM     10  C   UNL     1     -10.796 -33.752 -29.579  1.00  0.00     0.000 C 
BRANCH  10  11
ATOM     11  C   UNL     1     -11.836 -34.270 -28.578  1.00  0.00    -0.000 C 
BRANCH  11  12
ATOM     12  C   UNL     1     -13.063 -34.839 -29.304  1.00  0.00    -0.000 C 
BRANCH  12  13
ATOM     13  C   UNL     1     -13.160 -36.372 -29.203  1.00  0.00    -0.000 C 
BRANCH  13  14
ATOM     14  C   UNL     1     -13.545 -37.090 -30.513  1.00  0.00    -0.000 C 
BRANCH  14  15
ATOM     15  C   UNL     1     -12.616 -36.804 -31.707  1.00  0.00    -0.003 C 
ATOM     16  C   UNL     1     -11.304 -37.584 -31.642  1.00  0.00     0.004 C 
ENDBRANCH  14  15
ENDBRANCH  13  14
ENDBRANCH  12  13
ENDBRANCH  11  12
ENDBRANCH  10  11
ENDBRANCH   1  10
TORSDOF 12
ENDMDL
MODEL 7
REMARK VINA RESULT:    -3.746     20.278     22.568
REMARK INTER + INTRA:          -8.324
REMARK INTER:                  -6.572
REMARK INTRA:                  -1.752
REMARK UNBOUND:                -1.951
REMARK SMILES CCCCCCCCCCCCCC(=O)[O-]
REMARK SMILES IDX 8 1 9 2 10 3 11 4 12 5 13 6 14 7 15 8 16 9 7 10 6 11 5 12
REMARK SMILES IDX 4 13 3 14 2 15 1 16
REMARK H PARENT
REMARK Flexibility Score: inf
ROOT
ATOM      1  C   UNL     1     -12.276 -34.378 -25.740  1.00  0.00     0.000 C 
ENDROOT
BRANCH   1   2
ATOM      2  C   UNL     1     -12.401 -34.010 -27.229  1.00  0.00     0.000 C 
BRANCH   2   3
ATOM      3  C   UNL     1     -13.641 -34.588 -27.939  1.00  0.00     0.000 C 
BRANCH   3   4
ATOM      4  C   UNL     1     -13.763 -36.124 -27.897  1.00  0.00     0.000 C 
BRANCH   4   5
ATOM      5  C   UNL     1     -13.698 -36.820 -29.272  1.00  0.00     0.006 C 
BRANCH   5   6
ATOM      6  C   UNL     1     -12.623 -36.259 -30.217  1.00  0.00     0.053 C 
BRANCH   6   7
ATOM      7  C   UNL     1     -12.583 -36.996 -31.519  1.00  0.00     0.041 C 
ATOM      8  O   UNL     1     -13.609 -37.589 -31.945  1.00  0.00    -0.550 OA
ATOM      9  O   UNL     1     -11.420 -37.002 -32.280  1.00  0.00    -0.550 OA
ENDBRANCH   6   7
ENDBRANCH   5   6
ENDBRANCH   4   5
ENDBRANCH   3   4
ENDBRANCH   2   3
ENDBRANCH   1   2
BRANCH   1  10
ATOM     10  C   UNL     1     -10.971 -35.120 -25.416  1.00  0.00     0.000 C 
BRANCH  10  11
ATOM     11  C   UNL     1     -11.223 -36.621 -25.230  1.00  0.00    -0.000 C 
BRANCH  11  12
ATOM     12  C   UNL     1     -10.190 -37.454 -26.003  1.00  0.00    -0.000 C 
BRANCH  12  13
ATOM     13  C   UNL     1     -10.206 -37.172 -27.516  1.00  0.00    -0.000 C 
BRANCH  13  14
ATOM     14  C   UNL     1      -8.877 -36.650 -28.097  1.00  0.00    -0.000 C 
BRANCH  14  15
ATOM     15  C   UNL     1      -8.962 -36.122 -29.541  1.00  0.00    -0.003 C 
ATOM     16  C   UNL     1      -9.371 -34.651 -29.613  1.00  0.00     0.004 C 
ENDBRANCH  14  15
ENDBRANCH  13  14
ENDBRANCH  12  13
ENDBRANCH  11  12
ENDBRANCH  10  11
ENDBRANCH   1  10
TORSDOF 12
ENDMDL
MODEL 8
REMARK VINA RESULT:    -3.717     20.723     22.961
REMARK INTER + INTRA:          -8.276
REMARK INTER:                  -6.540
REMARK INTRA:                  -1.736
REMARK UNBOUND:                -1.951
REMARK SMILES CCCCCCCCCCCCCC(=O)[O-]
REMARK SMILES IDX 8 1 9 2 10 3 11 4 12 5 13 6 14 7 15 8 16 9 7 10 6 11 5 12
REMARK SMILES IDX 4 13 3 14 2 15 1 16
REMARK H PARENT
REMARK Flexibility Score: inf
ROOT
ATOM      1  C   UNL     1     -12.610 -33.933 -26.598  1.00  0.00     0.000 C 
ENDROOT
BRANCH   1   2
ATOM      2  C   UNL     1     -11.937 -34.689 -25.437  1.00  0.00     0.000 C 
BRANCH   2   3
ATOM      3  C   UNL     1     -10.807 -35.650 -25.856  1.00  0.00     0.000 C 
BRANCH   3   4
ATOM      4  C   UNL     1     -11.094 -37.145 -25.612  1.00  0.00     0.000 C 
BRANCH   4   5
ATOM      5  C   UNL     1     -12.400 -37.441 -24.848  1.00  0.00     0.006 C 
BRANCH   5   6
ATOM      6  C   UNL     1     -12.195 -38.078 -23.464  1.00  0.00     0.053 C 
BRANCH   6   7
ATOM      7  C   UNL     1     -11.498 -37.149 -22.519  1.00  0.00     0.041 C 
ATOM      8  O   UNL     1     -12.150 -36.271 -21.896  1.00  0.00    -0.550 OA
ATOM      9  O   UNL     1     -10.131 -37.276 -22.300  1.00  0.00    -0.550 OA
ENDBRANCH   6   7
ENDBRANCH   5   6
ENDBRANCH   4   5
ENDBRANCH   3   4
ENDBRANCH   2   3
ENDBRANCH   1   2
BRANCH   1  10
ATOM     10  C   UNL     1     -13.445 -34.851 -27.502  1.00  0.00     0.000 C 
BRANCH  10  11
ATOM     11  C   UNL     1     -12.733 -35.104 -28.837  1.00  0.00    -0.000 C 
BRANCH  11  12
ATOM     12  C   UNL     1     -12.650 -36.607 -29.141  1.00  0.00    -0.000 C 
BRANCH  12  13
ATOM     13  C   UNL     1     -11.409 -36.982 -29.970  1.00  0.00    -0.000 C 
BRANCH  13  14
ATOM     14  C   UNL     1     -10.170 -37.387 -29.147  1.00  0.00    -0.000 C 
BRANCH  14  15
ATOM     15  C   UNL     1      -8.881 -36.620 -29.495  1.00  0.00    -0.003 C 
ATOM     16  C   UNL     1      -8.935 -35.148 -29.089  1.00  0.00     0.004 C 
ENDBRANCH  14  15
ENDBRANCH  13  14
ENDBRANCH  12  13
ENDBRANCH  11  12
ENDBRANCH  10  11
ENDBRANCH   1  10
TORSDOF 12
ENDMDL
