MODEL 1
REMARK VINA RESULT:     0.000      0.000      0.000
REMARK INTER + INTRA:          -0.334
REMARK INTER:                   0.000
REMARK INTRA:                  -0.334
REMARK UNBOUND:                -0.334
REMARK SMILES O=c1c(O)c(-c2ccc(O)c(O)c2)oc2cc(O)cc(O)c12
REMARK SMILES IDX 5 1 3 2 2 3 1 4 22 5 20 6 19 7 17 8 16 9 15 10 14 11 6 12
REMARK SMILES IDX 7 13 8 14 9 15 13 16 11 17 10 18 12 20 4 22 21 24 18 26
REMARK H PARENT 10 19 12 21 4 23 21 25 18 27
REMARK Flexibility Score: inf
ROOT
ATOM      1  C   UNL     1      -0.592  -4.844 -13.314  1.00  0.00     0.180 A 
ATOM      2  C   UNL     1      -0.198  -5.887 -12.454  1.00  0.00     0.208 A 
ATOM      3  C   UNL     1       0.834  -5.653 -11.532  1.00  0.00     0.238 A 
ATOM      4  O   UNL     1       1.202  -6.582 -10.764  1.00  0.00    -0.285 OA
ATOM      5  C   UNL     1       1.439  -4.380 -11.471  1.00  0.00     0.111 A 
ATOM      6  C   UNL     1       2.483  -4.060 -10.569  1.00  0.00     0.134 A 
ATOM      7  C   UNL     1       3.026  -2.768 -10.565  1.00  0.00     0.093 A 
ATOM      8  C   UNL     1       2.547  -1.790 -11.443  1.00  0.00     0.123 A 
ATOM      9  C   UNL     1       1.519  -2.101 -12.335  1.00  0.00     0.094 A 
ATOM     10  C   UNL     1       0.965  -3.383 -12.356  1.00  0.00     0.146 A 
ATOM     11  O   UNL     1      -0.009  -3.652 -13.218  1.00  0.00    -0.452 OA
ENDROOT
BRANCH   1  12
ATOM     12  C   UNL     1      -1.659  -5.019 -14.326  1.00  0.00     0.025 A 
ATOM     13  C   UNL     1      -2.970  -4.631 -14.018  1.00  0.00     0.016 A 
ATOM     14  C   UNL     1      -3.988  -4.769 -14.964  1.00  0.00     0.051 A 
ATOM     15  C   UNL     1      -3.715  -5.281 -16.237  1.00  0.00     0.157 A 
ATOM     16  C   UNL     1      -1.377  -5.513 -15.611  1.00  0.00     0.062 A 
ATOM     17  C   UNL     1      -2.390  -5.652 -16.567  1.00  0.00     0.158 A 
BRANCH  15  18
ATOM     18  O   UNL     1      -4.779  -5.400 -17.134  1.00  0.00    -0.504 OA
ATOM     19  H   UNL     1      -4.678  -5.703 -18.092  1.00  0.00     0.293 HD
ENDBRANCH  15  18
BRANCH  17  20
ATOM     20  O   UNL     1      -2.037  -6.150 -17.823  1.00  0.00    -0.504 OA
ATOM     21  H   UNL     1      -1.088  -6.344 -18.107  1.00  0.00     0.293 HD
ENDBRANCH  17  20
ENDBRANCH   1  12
BRANCH   2  22
ATOM     22  O   UNL     1      -0.848  -7.123 -12.500  1.00  0.00    -0.502 OA
ATOM     23  H   UNL     1      -0.964  -7.644 -13.361  1.00  0.00     0.293 HD
ENDBRANCH   2  22
BRANCH   6  24
ATOM     24  O   UNL     1       2.981  -5.014  -9.681  1.00  0.00    -0.507 OA
ATOM     25  H   UNL     1       3.974  -5.203  -9.602  1.00  0.00     0.293 HD
ENDBRANCH   6  24
BRANCH   8  26
ATOM     26  O   UNL     1       3.086  -0.505 -11.438  1.00  0.00    -0.508 OA
ATOM     27  H   UNL     1       3.411  -0.062 -12.290  1.00  0.00     0.293 HD
ENDBRANCH   8  26
TORSDOF 6
ENDMDL
MODEL 2
REMARK VINA RESULT:     0.000      5.354      7.945
REMARK INTER + INTRA:          -0.334
REMARK INTER:                   0.000
REMARK INTRA:                  -0.334
REMARK UNBOUND:                -0.334
REMARK SMILES O=c1c(O)c(-c2ccc(O)c(O)c2)oc2cc(O)cc(O)c12
REMARK SMILES IDX 5 1 3 2 2 3 1 4 22 5 20 6 19 7 17 8 16 9 15 10 14 11 6 12
REMARK SMILES IDX 7 13 8 14 9 15 13 16 11 17 10 18 12 20 4 22 21 24 18 26
REMARK H PARENT 10 19 12 21 4 23 21 25 18 27
REMARK Flexibility Score: inf
ROOT
ATOM      1  C   UNL     1       3.992  -4.893  -7.159  1.00  0.00     0.180 A 
ATOM      2  C   UNL     1       5.148  -5.491  -7.695  1.00  0.00     0.208 A 
ATOM      3  C   UNL     1       6.407  -5.020  -7.287  1.00  0.00     0.238 A 
ATOM      4  O   UNL     1       7.449  -5.541  -7.769  1.00  0.00    -0.285 OA
ATOM      5  C   UNL     1       6.487  -3.978  -6.340  1.00  0.00     0.111 A 
ATOM      6  C   UNL     1       7.715  -3.449  -5.874  1.00  0.00     0.134 A 
ATOM      7  C   UNL     1       7.711  -2.418  -4.923  1.00  0.00     0.093 A 
ATOM      8  C   UNL     1       6.505  -1.908  -4.430  1.00  0.00     0.123 A 
ATOM      9  C   UNL     1       5.293  -2.426  -4.887  1.00  0.00     0.094 A 
ATOM     10  C   UNL     1       5.275  -3.453  -5.835  1.00  0.00     0.146 A 
ATOM     11  O   UNL     1       4.107  -3.923  -6.256  1.00  0.00    -0.452 OA
ENDROOT
BRANCH   1  12
ATOM     12  C   UNL     1       2.630  -5.322  -7.553  1.00  0.00     0.025 A 
ATOM     13  C   UNL     1       1.946  -6.256  -6.764  1.00  0.00     0.016 A 
ATOM     14  C   UNL     1       0.654  -6.658  -7.106  1.00  0.00     0.051 A 
ATOM     15  C   UNL     1       0.014  -6.126  -8.232  1.00  0.00     0.157 A 
ATOM     16  C   UNL     1       1.983  -4.768  -8.671  1.00  0.00     0.062 A 
ATOM     17  C   UNL     1       0.686  -5.163  -9.021  1.00  0.00     0.158 A 
BRANCH  15  18
ATOM     18  O   UNL     1      -1.275  -6.576  -8.523  1.00  0.00    -0.504 OA
ATOM     19  H   UNL     1      -1.624  -6.721  -9.460  1.00  0.00     0.293 HD
ENDBRANCH  15  18
BRANCH  17  20
ATOM     20  O   UNL     1       0.105  -4.572 -10.145  1.00  0.00    -0.504 OA
ATOM     21  H   UNL     1       0.419  -3.703 -10.551  1.00  0.00     0.293 HD
ENDBRANCH  17  20
ENDBRANCH   1  12
BRANCH   2  22
ATOM     22  O   UNL     1       5.041  -6.555  -8.594  1.00  0.00    -0.502 OA
ATOM     23  H   UNL     1       4.566  -6.468  -9.485  1.00  0.00     0.293 HD
ENDBRANCH   2  22
BRANCH   6  24
ATOM     24  O   UNL     1       8.934  -3.938  -6.347  1.00  0.00    -0.507 OA
ATOM     25  H   UNL     1       9.023  -4.876  -6.721  1.00  0.00     0.293 HD
ENDBRANCH   6  24
BRANCH   8  26
ATOM     26  O   UNL     1       6.502  -0.884  -3.484  1.00  0.00    -0.508 OA
ATOM     27  H   UNL     1       5.806  -0.148  -3.502  1.00  0.00     0.293 HD
ENDBRANCH   8  26
TORSDOF 6
ENDMDL
MODEL 3
REMARK VINA RESULT:     0.000      8.595      9.631
REMARK INTER + INTRA:          -0.334
REMARK INTER:                   0.000
REMARK INTRA:                  -0.334
REMARK UNBOUND:                -0.334
REMARK SMILES O=c1c(O)c(-c2ccc(O)c(O)c2)oc2cc(O)cc(O)c12
REMARK SMILES IDX 5 1 3 2 2 3 1 4 22 5 20 6 19 7 17 8 16 9 15 10 14 11 6 12
REMARK SMILES IDX 7 13 8 14 9 15 13 16 11 17 10 18 12 20 4 22 21 24 18 26
REMARK H PARENT 10 19 12 21 4 23 21 25 18 27
REMARK Flexibility Score: inf
ROOT
ATOM      1  C   UNL     1      -5.946  -1.482  -7.912  1.00  0.00     0.180 A 
ATOM      2  C   UNL     1      -7.314  -1.161  -7.833  1.00  0.00     0.208 A 
ATOM      3  C   UNL     1      -7.696   0.036  -7.207  1.00  0.00     0.238 A 
ATOM      4  O   UNL     1      -8.919   0.328  -7.121  1.00  0.00    -0.285 OA
ATOM      5  C   UNL     1      -6.706   0.898  -6.689  1.00  0.00     0.111 A 
ATOM      6  C   UNL     1      -7.006   2.123  -6.047  1.00  0.00     0.134 A 
ATOM      7  C   UNL     1      -5.965   2.930  -5.567  1.00  0.00     0.093 A 
ATOM      8  C   UNL     1      -4.630   2.535  -5.718  1.00  0.00     0.123 A 
ATOM      9  C   UNL     1      -4.330   1.328  -6.350  1.00  0.00     0.094 A 
ATOM     10  C   UNL     1      -5.355   0.509  -6.834  1.00  0.00     0.146 A 
ATOM     11  O   UNL     1      -5.039  -0.637  -7.427  1.00  0.00    -0.452 OA
ENDROOT
BRANCH   1  12
ATOM     12  C   UNL     1      -5.465  -2.734  -8.541  1.00  0.00     0.025 A 
ATOM     13  C   UNL     1      -5.060  -2.720  -9.882  1.00  0.00     0.016 A 
ATOM     14  C   UNL     1      -4.586  -3.884 -10.489  1.00  0.00     0.051 A 
ATOM     15  C   UNL     1      -4.492  -5.079  -9.766  1.00  0.00     0.157 A 
ATOM     16  C   UNL     1      -5.351  -3.926  -7.805  1.00  0.00     0.062 A 
ATOM     17  C   UNL     1      -4.874  -5.098  -8.404  1.00  0.00     0.158 A 
BRANCH  15  18
ATOM     18  O   UNL     1      -4.016  -6.210 -10.434  1.00  0.00    -0.504 OA
ATOM     19  H   UNL     1      -3.883  -6.260 -11.433  1.00  0.00     0.293 HD
ENDBRANCH  15  18
BRANCH  17  20
ATOM     20  O   UNL     1      -4.789  -6.246  -7.613  1.00  0.00    -0.504 OA
ATOM     21  H   UNL     1      -4.989  -7.178  -7.947  1.00  0.00     0.293 HD
ENDBRANCH  17  20
ENDBRANCH   1  12
BRANCH   2  22
ATOM     22  O   UNL     1      -8.271  -2.008  -8.398  1.00  0.00    -0.502 OA
ATOM     23  H   UNL     1      -8.939  -2.524  -7.836  1.00  0.00     0.293 HD
ENDBRANCH   2  22
BRANCH   6  24
ATOM     24  O   UNL     1      -8.327   2.543  -5.882  1.00  0.00    -0.507 OA
ATOM     25  H   UNL     1      -8.556   3.418  -5.423  1.00  0.00     0.293 HD
ENDBRANCH   6  24
BRANCH   8  26
ATOM     26  O   UNL     1      -3.595   3.337  -5.242  1.00  0.00    -0.508 OA
ATOM     27  H   UNL     1      -2.788   2.940  -4.775  1.00  0.00     0.293 HD
ENDBRANCH   8  26
TORSDOF 6
ENDMDL
MODEL 4
REMARK VINA RESULT:     0.000      4.370      5.638
REMARK INTER + INTRA:          -0.334
REMARK INTER:                   0.000
REMARK INTRA:                  -0.334
REMARK UNBOUND:                -0.334
REMARK SMILES O=c1c(O)c(-c2ccc(O)c(O)c2)oc2cc(O)cc(O)c12
REMARK SMILES IDX 5 1 3 2 2 3 1 4 22 5 20 6 19 7 17 8 16 9 15 10 14 11 6 12
REMARK SMILES IDX 7 13 8 14 9 15 13 16 11 17 10 18 12 20 4 22 21 24 18 26
REMARK H PARENT 10 19 12 21 4 23 21 25 18 27
REMARK Flexibility Score: inf
ROOT
ATOM      1  C   UNL     1      -3.365  -5.328 -10.352  1.00  0.00     0.180 A 
ATOM      2  C   UNL     1      -2.297  -5.442  -9.442  1.00  0.00     0.208 A 
ATOM      3  C   UNL     1      -0.983  -5.445  -9.935  1.00  0.00     0.238 A 
ATOM      4  O   UNL     1      -0.019  -5.558  -9.130  1.00  0.00    -0.285 OA
ATOM      5  C   UNL     1      -0.758  -5.312 -11.321  1.00  0.00     0.111 A 
ATOM      6  C   UNL     1       0.535  -5.302 -11.899  1.00  0.00     0.134 A 
ATOM      7  C   UNL     1       0.675  -5.157 -13.286  1.00  0.00     0.093 A 
ATOM      8  C   UNL     1      -0.451  -5.021 -14.106  1.00  0.00     0.123 A 
ATOM      9  C   UNL     1      -1.727  -5.032 -13.541  1.00  0.00     0.094 A 
ATOM     10  C   UNL     1      -1.888  -5.177 -12.161  1.00  0.00     0.146 A 
ATOM     11  O   UNL     1      -3.115  -5.189 -11.651  1.00  0.00    -0.452 OA
ENDROOT
BRANCH   1  12
ATOM     12  C   UNL     1      -4.779  -5.336  -9.911  1.00  0.00     0.025 A 
ATOM     13  C   UNL     1      -5.442  -4.119  -9.700  1.00  0.00     0.016 A 
ATOM     14  C   UNL     1      -6.781  -4.105  -9.304  1.00  0.00     0.051 A 
ATOM     15  C   UNL     1      -7.487  -5.300  -9.126  1.00  0.00     0.157 A 
ATOM     16  C   UNL     1      -5.491  -6.538  -9.756  1.00  0.00     0.062 A 
ATOM     17  C   UNL     1      -6.834  -6.533  -9.361  1.00  0.00     0.158 A 
BRANCH  15  18
ATOM     18  O   UNL     1      -8.821  -5.216  -8.722  1.00  0.00    -0.504 OA
ATOM     19  H   UNL     1      -9.217  -4.418  -8.246  1.00  0.00     0.293 HD
ENDBRANCH  15  18
BRANCH  17  20
ATOM     20  O   UNL     1      -7.478  -7.764  -9.226  1.00  0.00    -0.504 OA
ATOM     21  H   UNL     1      -7.268  -8.576  -9.788  1.00  0.00     0.293 HD
ENDBRANCH  17  20
ENDBRANCH   1  12
BRANCH   2  22
ATOM     22  O   UNL     1      -2.545  -5.522  -8.069  1.00  0.00    -0.502 OA
ATOM     23  H   UNL     1      -2.281  -6.329  -7.515  1.00  0.00     0.293 HD
ENDBRANCH   2  22
BRANCH   6  24
ATOM     24  O   UNL     1       1.676  -5.434 -11.106  1.00  0.00    -0.507 OA
ATOM     25  H   UNL     1       1.617  -5.551 -10.101  1.00  0.00     0.293 HD
ENDBRANCH   6  24
BRANCH   8  26
ATOM     26  O   UNL     1      -0.311  -4.876 -15.485  1.00  0.00    -0.508 OA
ATOM     27  H   UNL     1      -0.158  -5.675 -16.090  1.00  0.00     0.293 HD
ENDBRANCH   8  26
TORSDOF 6
ENDMDL
MODEL 5
REMARK VINA RESULT:     0.000      9.247     11.656
REMARK INTER + INTRA:          -0.334
REMARK INTER:                   0.000
REMARK INTRA:                  -0.334
REMARK UNBOUND:                -0.334
REMARK SMILES O=c1c(O)c(-c2ccc(O)c(O)c2)oc2cc(O)cc(O)c12
REMARK SMILES IDX 5 1 3 2 2 3 1 4 22 5 20 6 19 7 17 8 16 9 15 10 14 11 6 12
REMARK SMILES IDX 7 13 8 14 9 15 13 16 11 17 10 18 12 20 4 22 21 24 18 26
REMARK H PARENT 10 19 12 21 4 23 21 25 18 27
REMARK Flexibility Score: inf
ROOT
ATOM      1  C   UNL     1      -4.250  -5.424  -4.747  1.00  0.00     0.180 A 
ATOM      2  C   UNL     1      -5.331  -5.032  -5.559  1.00  0.00     0.208 A 
ATOM      3  C   UNL     1      -6.585  -5.629  -5.353  1.00  0.00     0.238 A 
ATOM      4  O   UNL     1      -7.558  -5.295  -6.081  1.00  0.00    -0.285 OA
ATOM      5  C   UNL     1      -6.741  -6.588  -4.330  1.00  0.00     0.111 A 
ATOM      6  C   UNL     1      -7.971  -7.234  -4.055  1.00  0.00     0.134 A 
ATOM      7  C   UNL     1      -8.046  -8.170  -3.014  1.00  0.00     0.093 A 
ATOM      8  C   UNL     1      -6.918  -8.472  -2.243  1.00  0.00     0.123 A 
ATOM      9  C   UNL     1      -5.704  -7.839  -2.512  1.00  0.00     0.094 A 
ATOM     10  C   UNL     1      -5.607  -6.904  -3.546  1.00  0.00     0.146 A 
ATOM     11  O   UNL     1      -4.438  -6.320  -3.782  1.00  0.00    -0.452 OA
ENDROOT
BRANCH   1  12
ATOM     12  C   UNL     1      -2.893  -4.854  -4.915  1.00  0.00     0.025 A 
ATOM     13  C   UNL     1      -2.496  -3.773  -4.116  1.00  0.00     0.016 A 
ATOM     14  C   UNL     1      -1.215  -3.234  -4.244  1.00  0.00     0.051 A 
ATOM     15  C   UNL     1      -0.301  -3.770  -5.159  1.00  0.00     0.157 A 
ATOM     16  C   UNL     1      -1.972  -5.410  -5.819  1.00  0.00     0.062 A 
ATOM     17  C   UNL     1      -0.683  -4.877  -5.953  1.00  0.00     0.158 A 
BRANCH  15  18
ATOM     18  O   UNL     1       0.961  -3.180  -5.243  1.00  0.00    -0.504 OA
ATOM     19  H   UNL     1       1.765  -3.491  -4.718  1.00  0.00     0.293 HD
ENDBRANCH  15  18
BRANCH  17  20
ATOM     20  O   UNL     1       0.178  -5.480  -6.871  1.00  0.00    -0.504 OA
ATOM     21  H   UNL     1       0.775  -6.266  -6.655  1.00  0.00     0.293 HD
ENDBRANCH  17  20
ENDBRANCH   1  12
BRANCH   2  22
ATOM     22  O   UNL     1      -5.162  -4.044  -6.532  1.00  0.00    -0.502 OA
ATOM     23  H   UNL     1      -4.734  -3.148  -6.328  1.00  0.00     0.293 HD
ENDBRANCH   2  22
BRANCH   6  24
ATOM     24  O   UNL     1      -9.113  -6.953  -4.806  1.00  0.00    -0.507 OA
ATOM     25  H   UNL     1      -9.549  -6.038  -4.791  1.00  0.00     0.293 HD
ENDBRANCH   6  24
BRANCH   8  26
ATOM     26  O   UNL     1      -6.993  -9.402  -1.209  1.00  0.00    -0.508 OA
ATOM     27  H   UNL     1      -6.559 -10.315  -1.283  1.00  0.00     0.293 HD
ENDBRANCH   8  26
TORSDOF 6
ENDMDL
MODEL 6
REMARK VINA RESULT:     0.000      9.633     11.391
REMARK INTER + INTRA:          -0.334
REMARK INTER:                   0.000
REMARK INTRA:                  -0.334
REMARK UNBOUND:                -0.334
REMARK SMILES O=c1c(O)c(-c2ccc(O)c(O)c2)oc2cc(O)cc(O)c12
REMARK SMILES IDX 5 1 3 2 2 3 1 4 22 5 20 6 19 7 17 8 16 9 15 10 14 11 6 12
REMARK SMILES IDX 7 13 8 14 9 15 13 16 11 17 10 18 12 20 4 22 21 24 18 26
REMARK H PARENT 10 19 12 21 4 23 21 25 18 27
REMARK Flexibility Score: inf
ROOT
ATOM      1  C   UNL     1      -4.587  -3.874  -4.648  1.00  0.00     0.180 A 
ATOM      2  C   UNL     1      -5.887  -4.057  -5.156  1.00  0.00     0.208 A 
ATOM      3  C   UNL     1      -6.757  -4.936  -4.492  1.00  0.00     0.238 A 
ATOM      4  O   UNL     1      -7.920  -5.116  -4.944  1.00  0.00    -0.285 OA
ATOM      5  C   UNL     1      -6.322  -5.600  -3.326  1.00  0.00     0.111 A 
ATOM      6  C   UNL     1      -7.137  -6.499  -2.596  1.00  0.00     0.134 A 
ATOM      7  C   UNL     1      -6.633  -7.112  -1.441  1.00  0.00     0.093 A 
ATOM      8  C   UNL     1      -5.332  -6.843  -1.000  1.00  0.00     0.123 A 
ATOM      9  C   UNL     1      -4.525  -5.959  -1.717  1.00  0.00     0.094 A 
ATOM     10  C   UNL     1      -5.008  -5.338  -2.872  1.00  0.00     0.146 A 
ATOM     11  O   UNL     1      -4.216  -4.505  -3.537  1.00  0.00    -0.452 OA
ENDROOT
BRANCH   1  12
ATOM     12  C   UNL     1      -3.606  -2.978  -5.302  1.00  0.00     0.025 A 
ATOM     13  C   UNL     1      -3.465  -1.660  -4.846  1.00  0.00     0.016 A 
ATOM     14  C   UNL     1      -2.532  -0.805  -5.435  1.00  0.00     0.051 A 
ATOM     15  C   UNL     1      -1.712  -1.251  -6.478  1.00  0.00     0.157 A 
ATOM     16  C   UNL     1      -2.769  -3.437  -6.334  1.00  0.00     0.062 A 
ATOM     17  C   UNL     1      -1.828  -2.587  -6.929  1.00  0.00     0.158 A 
BRANCH  15  18
ATOM     18  O   UNL     1      -0.805  -0.344  -7.029  1.00  0.00    -0.504 OA
ATOM     19  H   UNL     1       0.152  -0.246  -6.722  1.00  0.00     0.293 HD
ENDBRANCH  15  18
BRANCH  17  20
ATOM     20  O   UNL     1      -1.031  -3.110  -7.950  1.00  0.00    -0.504 OA
ATOM     21  H   UNL     1      -0.157  -3.591  -7.793  1.00  0.00     0.293 HD
ENDBRANCH  17  20
ENDBRANCH   1  12
BRANCH   2  22
ATOM     22  O   UNL     1      -6.311  -3.350  -6.284  1.00  0.00    -0.502 OA
ATOM     23  H   UNL     1      -6.205  -2.345  -6.367  1.00  0.00     0.293 HD
ENDBRANCH   2  22
BRANCH   6  24
ATOM     24  O   UNL     1      -8.438  -6.786  -3.010  1.00  0.00    -0.507 OA
ATOM     25  H   UNL     1      -9.164  -6.078  -3.018  1.00  0.00     0.293 HD
ENDBRANCH   6  24
BRANCH   8  26
ATOM     26  O   UNL     1      -4.832  -7.452   0.149  1.00  0.00    -0.508 OA
ATOM     27  H   UNL     1      -4.122  -8.174   0.101  1.00  0.00     0.293 HD
ENDBRANCH   8  26
TORSDOF 6
ENDMDL
MODEL 7
REMARK VINA RESULT:     0.000      6.900      8.693
REMARK INTER + INTRA:          -0.334
REMARK INTER:                   0.000
REMARK INTRA:                  -0.334
REMARK UNBOUND:                -0.334
REMARK SMILES O=c1c(O)c(-c2ccc(O)c(O)c2)oc2cc(O)cc(O)c12
REMARK SMILES IDX 5 1 3 2 2 3 1 4 22 5 20 6 19 7 17 8 16 9 15 10 14 11 6 12
REMARK SMILES IDX 7 13 8 14 9 15 13 16 11 17 10 18 12 20 4 22 21 24 18 26
REMARK H PARENT 10 19 12 21 4 23 21 25 18 27
REMARK Flexibility Score: inf
ROOT
ATOM      1  C   UNL     1      -2.073  -1.302  -6.640  1.00  0.00     0.180 A 
ATOM      2  C   UNL     1      -2.452  -0.858  -5.358  1.00  0.00     0.208 A 
ATOM      3  C   UNL     1      -2.466   0.521  -5.095  1.00  0.00     0.238 A 
ATOM      4  O   UNL     1      -2.792   0.930  -3.947  1.00  0.00    -0.285 OA
ATOM      5  C   UNL     1      -2.122   1.430  -6.117  1.00  0.00     0.111 A 
ATOM      6  C   UNL     1      -2.114   2.834  -5.935  1.00  0.00     0.134 A 
ATOM      7  C   UNL     1      -1.769   3.672  -7.005  1.00  0.00     0.093 A 
ATOM      8  C   UNL     1      -1.434   3.133  -8.253  1.00  0.00     0.123 A 
ATOM      9  C   UNL     1      -1.439   1.750  -8.436  1.00  0.00     0.094 A 
ATOM     10  C   UNL     1      -1.779   0.898  -7.382  1.00  0.00     0.146 A 
ATOM     11  O   UNL     1      -1.771  -0.415  -7.584  1.00  0.00    -0.452 OA
ENDROOT
BRANCH   1  12
ATOM     12  C   UNL     1      -2.017  -2.740  -6.989  1.00  0.00     0.025 A 
ATOM     13  C   UNL     1      -3.116  -3.340  -7.617  1.00  0.00     0.016 A 
ATOM     14  C   UNL     1      -3.076  -4.690  -7.973  1.00  0.00     0.051 A 
ATOM     15  C   UNL     1      -1.934  -5.461  -7.724  1.00  0.00     0.157 A 
ATOM     16  C   UNL     1      -0.860  -3.505  -6.758  1.00  0.00     0.062 A 
ATOM     17  C   UNL     1      -0.809  -4.858  -7.114  1.00  0.00     0.158 A 
BRANCH  15  18
ATOM     18  O   UNL     1      -1.961  -6.806  -8.098  1.00  0.00    -0.504 OA
ATOM     19  H   UNL     1      -2.623  -7.478  -7.739  1.00  0.00     0.293 HD
ENDBRANCH  15  18
BRANCH  17  20
ATOM     20  O   UNL     1       0.371  -5.556  -6.853  1.00  0.00    -0.504 OA
ATOM     21  H   UNL     1       0.900  -5.471  -5.997  1.00  0.00     0.293 HD
ENDBRANCH  17  20
ENDBRANCH   1  12
BRANCH   2  22
ATOM     22  O   UNL     1      -2.835  -1.776  -4.378  1.00  0.00    -0.502 OA
ATOM     23  H   UNL     1      -2.199  -2.100  -3.658  1.00  0.00     0.293 HD
ENDBRANCH   2  22
BRANCH   6  24
ATOM     24  O   UNL     1      -2.445   3.400  -4.703  1.00  0.00    -0.507 OA
ATOM     25  H   UNL     1      -3.333   3.863  -4.550  1.00  0.00     0.293 HD
ENDBRANCH   6  24
BRANCH   8  26
ATOM     26  O   UNL     1      -1.092   3.966  -9.316  1.00  0.00    -0.508 OA
ATOM     27  H   UNL     1      -1.684   4.051 -10.135  1.00  0.00     0.293 HD
ENDBRANCH   8  26
TORSDOF 6
ENDMDL
MODEL 8
REMARK VINA RESULT:     0.000      6.673      7.640
REMARK INTER + INTRA:          -0.334
REMARK INTER:                   0.000
REMARK INTRA:                  -0.334
REMARK UNBOUND:                -0.334
REMARK SMILES O=c1c(O)c(-c2ccc(O)c(O)c2)oc2cc(O)cc(O)c12
REMARK SMILES IDX 5 1 3 2 2 3 1 4 22 5 20 6 19 7 17 8 16 9 15 10 14 11 6 12
REMARK SMILES IDX 7 13 8 14 9 15 13 16 11 17 10 18 12 20 4 22 21 24 18 26
REMARK H PARENT 10 19 12 21 4 23 21 25 18 27
REMARK Flexibility Score: inf
ROOT
ATOM      1  C   UNL     1      -2.737  -1.348  -8.247  1.00  0.00     0.180 A 
ATOM      2  C   UNL     1      -2.938  -1.513  -6.864  1.00  0.00     0.208 A 
ATOM      3  C   UNL     1      -3.124  -0.374  -6.064  1.00  0.00     0.238 A 
ATOM      4  O   UNL     1      -3.293  -0.510  -4.822  1.00  0.00    -0.285 OA
ATOM      5  C   UNL     1      -3.126   0.904  -6.661  1.00  0.00     0.111 A 
ATOM      6  C   UNL     1      -3.310   2.101  -5.927  1.00  0.00     0.134 A 
ATOM      7  C   UNL     1      -3.308   3.333  -6.596  1.00  0.00     0.093 A 
ATOM      8  C   UNL     1      -3.128   3.391  -7.983  1.00  0.00     0.123 A 
ATOM      9  C   UNL     1      -2.945   2.214  -8.709  1.00  0.00     0.094 A 
ATOM     10  C   UNL     1      -2.942   0.976  -8.061  1.00  0.00     0.146 A 
ATOM     11  O   UNL     1      -2.761  -0.127  -8.778  1.00  0.00    -0.452 OA
ENDROOT
BRANCH   1  12
ATOM     12  C   UNL     1      -2.516  -2.498  -9.154  1.00  0.00     0.025 A 
ATOM     13  C   UNL     1      -3.602  -3.045  -9.851  1.00  0.00     0.016 A 
ATOM     14  C   UNL     1      -3.412  -4.116 -10.725  1.00  0.00     0.051 A 
ATOM     15  C   UNL     1      -2.136  -4.652 -10.932  1.00  0.00     0.157 A 
ATOM     16  C   UNL     1      -1.230  -3.018  -9.376  1.00  0.00     0.062 A 
ATOM     17  C   UNL     1      -1.029  -4.091 -10.254  1.00  0.00     0.158 A 
BRANCH  15  18
ATOM     18  O   UNL     1      -2.016  -5.728 -11.814  1.00  0.00    -0.504 OA
ATOM     19  H   UNL     1      -2.483  -6.614 -11.690  1.00  0.00     0.293 HD
ENDBRANCH  15  18
BRANCH  17  20
ATOM     20  O   UNL     1       0.276  -4.557 -10.425  1.00  0.00    -0.504 OA
ATOM     21  H   UNL     1       0.665  -4.829 -11.316  1.00  0.00     0.293 HD
ENDBRANCH  17  20
ENDBRANCH   1  12
BRANCH   2  22
ATOM     22  O   UNL     1      -2.981  -2.793  -6.305  1.00  0.00    -0.502 OA
ATOM     23  H   UNL     1      -3.318  -2.964  -5.364  1.00  0.00     0.293 HD
ENDBRANCH   2  22
BRANCH   6  24
ATOM     24  O   UNL     1      -3.493   2.074  -4.544  1.00  0.00    -0.507 OA
ATOM     25  H   UNL     1      -4.401   2.237  -4.123  1.00  0.00     0.293 HD
ENDBRANCH   6  24
BRANCH   8  26
ATOM     26  O   UNL     1      -3.127   4.616  -8.647  1.00  0.00    -0.508 OA
ATOM     27  H   UNL     1      -2.344   5.256  -8.580  1.00  0.00     0.293 HD
ENDBRANCH   8  26
TORSDOF 6
ENDMDL
MODEL 9
REMARK VINA RESULT:     0.000      4.205      9.431
REMARK INTER + INTRA:          -0.334
REMARK INTER:                   0.000
REMARK INTRA:                  -0.334
REMARK UNBOUND:                -0.334
REMARK SMILES O=c1c(O)c(-c2ccc(O)c(O)c2)oc2cc(O)cc(O)c12
REMARK SMILES IDX 5 1 3 2 2 3 1 4 22 5 20 6 19 7 17 8 16 9 15 10 14 11 6 12
REMARK SMILES IDX 7 13 8 14 9 15 13 16 11 17 10 18 12 20 4 22 21 24 18 26
REMARK H PARENT 10 19 12 21 4 23 21 25 18 27
REMARK Flexibility Score: inf
ROOT
ATOM      1  C   UNL     1       5.371  -2.852  -9.436  1.00  0.00     0.180 A 
ATOM      2  C   UNL     1       6.358  -3.048 -10.421  1.00  0.00     0.208 A 
ATOM      3  C   UNL     1       5.969  -3.509 -11.688  1.00  0.00     0.238 A 
ATOM      4  O   UNL     1       6.845  -3.700 -12.575  1.00  0.00    -0.285 OA
ATOM      5  C   UNL     1       4.604  -3.746 -11.955  1.00  0.00     0.111 A 
ATOM      6  C   UNL     1       4.128  -4.207 -13.207  1.00  0.00     0.134 A 
ATOM      7  C   UNL     1       2.754  -4.409 -13.396  1.00  0.00     0.093 A 
ATOM      8  C   UNL     1       1.847  -4.158 -12.360  1.00  0.00     0.123 A 
ATOM      9  C   UNL     1       2.311  -3.705 -11.125  1.00  0.00     0.094 A 
ATOM     10  C   UNL     1       3.678  -3.498 -10.916  1.00  0.00     0.146 A 
ATOM     11  O   UNL     1       4.092  -3.070  -9.728  1.00  0.00    -0.452 OA
ENDROOT
BRANCH   1  12
ATOM     12  C   UNL     1       5.704  -2.386  -8.070  1.00  0.00     0.025 A 
ATOM     13  C   UNL     1       5.615  -1.020  -7.767  1.00  0.00     0.016 A 
ATOM     14  C   UNL     1       5.905  -0.562  -6.481  1.00  0.00     0.051 A 
ATOM     15  C   UNL     1       6.275  -1.457  -5.470  1.00  0.00     0.157 A 
ATOM     16  C   UNL     1       6.053  -3.290  -7.052  1.00  0.00     0.062 A 
ATOM     17  C   UNL     1       6.344  -2.840  -5.758  1.00  0.00     0.158 A 
BRANCH  15  18
ATOM     18  O   UNL     1       6.559  -0.933  -4.207  1.00  0.00    -0.504 OA
ATOM     19  H   UNL     1       7.336  -1.231  -3.635  1.00  0.00     0.293 HD
ENDBRANCH  15  18
BRANCH  17  20
ATOM     20  O   UNL     1       6.684  -3.794  -4.798  1.00  0.00    -0.504 OA
ATOM     21  H   UNL     1       7.536  -3.770  -4.255  1.00  0.00     0.293 HD
ENDBRANCH  17  20
ENDBRANCH   1  12
BRANCH   2  22
ATOM     22  O   UNL     1       7.697  -2.760 -10.146  1.00  0.00    -0.502 OA
ATOM     23  H   UNL     1       8.384  -2.620 -10.878  1.00  0.00     0.293 HD
ENDBRANCH   2  22
BRANCH   6  24
ATOM     24  O   UNL     1       5.008  -4.465 -14.258  1.00  0.00    -0.507 OA
ATOM     25  H   UNL     1       5.560  -5.315 -14.296  1.00  0.00     0.293 HD
ENDBRANCH   6  24
BRANCH   8  26
ATOM     26  O   UNL     1       0.481  -4.358 -12.549  1.00  0.00    -0.508 OA
ATOM     27  H   UNL     1      -0.157  -4.439 -11.766  1.00  0.00     0.293 HD
ENDBRANCH   8  26
TORSDOF 6
ENDMDL
