MODEL 1
REMARK VINA RESULT:    -3.828      0.000      0.000
REMARK INTER + INTRA:          -5.061
REMARK INTER:                  -5.395
REMARK INTRA:                   0.334
REMARK UNBOUND:                 0.334
REMARK SMILES CC1=CCC(=C(C)C)C(=O)CC(C)=CCC1
REMARK SMILES IDX 12 1 14 2 13 3 15 4 16 5 2 6 1 7 3 8 11 10 9 11 10 12 5 13
REMARK SMILES IDX 6 14 7 15 8 16 4 17
REMARK H PARENT
REMARK Flexibility Score: 60.00
ROOT
ATOM      1  C   UNL     1      15.144 -12.284 -44.124  1.00  0.00    -0.070 C 
ATOM      2  C   UNL     1      15.429 -13.489 -44.665  1.00  0.00    -0.027 C 
ATOM      3  C   UNL     1      15.889 -11.877 -42.877  1.00  0.00     0.039 C 
ENDROOT
BRANCH   2   4
ATOM      4  C   UNL     1      14.725 -14.113 -45.851  1.00  0.00     0.032 C 
BRANCH   4   5
ATOM      5  C   UNL     1      13.256 -14.509 -45.597  1.00  0.00     0.034 C 
BRANCH   5   6
ATOM      6  C   UNL     1      12.304 -13.984 -46.657  1.00  0.00    -0.077 C 
ATOM      7  C   UNL     1      12.604 -14.318 -48.098  1.00  0.00     0.039 C 
ATOM      8  C   UNL     1      11.243 -13.180 -46.400  1.00  0.00    -0.023 CG0
ATOM      9  G   UNL     1      10.743 -12.733 -45.041  1.00  0.00     0.000 G0
ENDBRANCH   5   6
ENDBRANCH   4   5
ENDBRANCH   2   4
BRANCH   1  10
ATOM     10  C   UNL     1      14.057 -11.371 -44.652  1.00  0.00     0.111 C 
BRANCH  10  11
ATOM     11  C   UNL     1      12.763 -11.558 -43.903  1.00  0.00     0.163 C 
ATOM     12  O   UNL     1      12.823 -11.884 -42.687  1.00  0.00    -0.294 OA
BRANCH  11  13
ATOM     13  C   UNL     1      11.430 -11.431 -44.563  1.00  0.00    -0.002 C 
ATOM     14  C   UNL     1      10.809 -10.216 -44.659  1.00  0.00    -0.069 C 
ATOM     15  C   UNL     1       9.395 -10.078 -45.177  1.00  0.00     0.039 C 
ATOM     16  C   UNL     1      11.512  -8.942 -44.245  1.00  0.00     0.039 C 
BRANCH  13  17
ATOM     17  C   UNL     1      10.761 -12.714 -45.031  1.00  0.00     0.066 CG0
ATOM     18  G   UNL     1      11.245 -13.149 -46.400  1.00  0.00     0.000 G0
ENDBRANCH  13  17
ENDBRANCH  11  13
ENDBRANCH  10  11
ENDBRANCH   1  10
TORSDOF 0
ENDMDL
MODEL 2
REMARK VINA RESULT:    -3.752     12.100     13.371
REMARK INTER + INTRA:          -4.953
REMARK INTER:                  -5.352
REMARK INTRA:                   0.400
REMARK UNBOUND:                 0.334
REMARK SMILES CC1=CCC(=C(C)C)C(=O)CC(C)=CCC1
REMARK SMILES IDX 12 1 14 2 13 3 15 4 16 5 2 6 1 7 3 8 11 10 9 11 10 12 5 13
REMARK SMILES IDX 6 14 7 15 8 16 4 17
REMARK H PARENT
REMARK Flexibility Score: 60.00
ROOT
ATOM      1  C   UNL     1       8.648 -21.211 -35.907  1.00  0.00    -0.070 C 
ATOM      2  C   UNL     1       8.215 -22.487 -35.792  1.00  0.00    -0.027 C 
ATOM      3  C   UNL     1       7.626 -20.145 -36.213  1.00  0.00     0.039 C 
ENDROOT
BRANCH   2   4
ATOM      4  C   UNL     1       9.094 -23.702 -35.585  1.00  0.00     0.032 C 
BRANCH   4   5
ATOM      5  C   UNL     1       9.076 -24.719 -36.744  1.00  0.00     0.034 C 
BRANCH   5   6
ATOM      6  C   UNL     1       9.272 -24.077 -38.106  1.00  0.00    -0.077 C 
ATOM      7  C   UNL     1       8.133 -24.159 -39.091  1.00  0.00     0.039 C 
ATOM      8  C   UNL     1      10.426 -23.496 -38.516  1.00  0.00    -0.023 CG0
ATOM      9  G   UNL     1      11.685 -23.284 -37.699  1.00  0.00     0.000 G0
ENDBRANCH   5   6
ENDBRANCH   4   5
ENDBRANCH   2   4
BRANCH   1  10
ATOM     10  C   UNL     1      10.109 -20.819 -35.836  1.00  0.00     0.111 C 
BRANCH  10  11
ATOM     11  C   UNL     1      10.779 -20.929 -37.181  1.00  0.00     0.163 C 
ATOM     12  O   UNL     1      10.274 -20.299 -38.149  1.00  0.00    -0.294 OA
BRANCH  11  13
ATOM     13  C   UNL     1      11.971 -21.798 -37.414  1.00  0.00    -0.002 C 
ATOM     14  C   UNL     1      13.231 -21.266 -37.432  1.00  0.00    -0.069 C 
ATOM     15  C   UNL     1      14.441 -22.088 -37.820  1.00  0.00     0.039 C 
ATOM     16  C   UNL     1      13.477 -19.820 -37.064  1.00  0.00     0.039 C 
BRANCH  13  17
ATOM     17  C   UNL     1      11.713 -23.264 -37.720  1.00  0.00     0.066 CG0
ATOM     18  G   UNL     1      10.430 -23.473 -38.500  1.00  0.00     0.000 G0
ENDBRANCH  13  17
ENDBRANCH  11  13
ENDBRANCH  10  11
ENDBRANCH   1  10
TORSDOF 0
ENDMDL
MODEL 3
REMARK VINA RESULT:    -3.706     10.708     12.013
REMARK INTER + INTRA:          -4.888
REMARK INTER:                  -5.041
REMARK INTRA:                   0.153
REMARK UNBOUND:                 0.334
REMARK SMILES CC1=CCC(=C(C)C)C(=O)CC(C)=CCC1
REMARK SMILES IDX 12 1 14 2 13 3 15 4 16 5 2 6 1 7 3 8 11 10 9 11 10 12 5 13
REMARK SMILES IDX 6 14 7 15 8 16 4 17
REMARK H PARENT
REMARK Flexibility Score: 60.00
ROOT
ATOM      1  C   UNL     1       9.120 -21.965 -35.579  1.00  0.00    -0.070 C 
ATOM      2  C   UNL     1       7.847 -21.558 -35.783  1.00  0.00    -0.027 C 
ATOM      3  C   UNL     1       9.335 -23.306 -34.924  1.00  0.00     0.039 C 
ENDROOT
BRANCH   2   4
ATOM      4  C   UNL     1       7.428 -20.212 -36.334  1.00  0.00     0.032 C 
BRANCH   4   5
ATOM      5  C   UNL     1       7.570 -20.064 -37.862  1.00  0.00     0.034 C 
BRANCH   5   6
ATOM      6  C   UNL     1       8.343 -18.823 -38.273  1.00  0.00    -0.077 C 
ATOM      7  C   UNL     1       7.702 -17.482 -38.020  1.00  0.00     0.039 C 
ATOM      8  C   UNL     1       9.538 -18.845 -38.912  1.00  0.00    -0.023 CG0
ATOM      9  G   UNL     1      10.372 -20.065 -39.252  1.00  0.00     0.000 G0
ENDBRANCH   5   6
ENDBRANCH   4   5
ENDBRANCH   2   4
BRANCH   1  10
ATOM     10  C   UNL     1      10.328 -21.104 -35.887  1.00  0.00     0.111 C 
BRANCH  10  11
ATOM     11  C   UNL     1      10.952 -21.476 -37.206  1.00  0.00     0.163 C 
ATOM     12  O   UNL     1      11.162 -22.697 -37.441  1.00  0.00    -0.294 OA
BRANCH  11  13
ATOM     13  C   UNL     1      11.383 -20.453 -38.205  1.00  0.00    -0.002 C 
ATOM     14  C   UNL     1      12.602 -19.842 -38.099  1.00  0.00    -0.069 C 
ATOM     15  C   UNL     1      13.003 -18.693 -38.998  1.00  0.00     0.039 C 
ATOM     16  C   UNL     1      13.615 -20.287 -37.066  1.00  0.00     0.039 C 
BRANCH  13  17
ATOM     17  C   UNL     1      10.379 -20.060 -39.276  1.00  0.00     0.066 CG0
ATOM     18  G   UNL     1       9.566 -18.842 -38.885  1.00  0.00     0.000 G0
ENDBRANCH  13  17
ENDBRANCH  11  13
ENDBRANCH  10  11
ENDBRANCH   1  10
TORSDOF 0
ENDMDL
MODEL 4
REMARK VINA RESULT:    -3.689      2.176      5.036
REMARK INTER + INTRA:          -4.865
REMARK INTER:                  -5.058
REMARK INTRA:                   0.193
REMARK UNBOUND:                 0.334
REMARK SMILES CC1=CCC(=C(C)C)C(=O)CC(C)=CCC1
REMARK SMILES IDX 12 1 14 2 13 3 15 4 16 5 2 6 1 7 3 8 11 10 9 11 10 12 5 13
REMARK SMILES IDX 6 14 7 15 8 16 4 17
REMARK H PARENT
REMARK Flexibility Score: 60.00
ROOT
ATOM      1  C   UNL     1       9.672 -10.839 -45.397  1.00  0.00    -0.070 C 
ATOM      2  C   UNL     1      10.387  -9.990 -44.626  1.00  0.00    -0.027 C 
ATOM      3  C   UNL     1       8.200 -10.560 -45.576  1.00  0.00     0.039 C 
ENDROOT
BRANCH   2   4
ATOM      4  C   UNL     1      11.844 -10.153 -44.251  1.00  0.00     0.032 C 
BRANCH   4   5
ATOM      5  C   UNL     1      12.112 -11.170 -43.123  1.00  0.00     0.034 C 
BRANCH   5   6
ATOM      6  C   UNL     1      13.143 -12.220 -43.498  1.00  0.00    -0.077 C 
ATOM      7  C   UNL     1      14.565 -11.763 -43.710  1.00  0.00     0.039 C 
ATOM      8  C   UNL     1      12.856 -13.526 -43.722  1.00  0.00    -0.023 CG0
ATOM      9  G   UNL     1      11.514 -14.209 -43.554  1.00  0.00     0.000 G0
ENDBRANCH   5   6
ENDBRANCH   4   5
ENDBRANCH   2   4
BRANCH   1  10
ATOM     10  C   UNL     1      10.253 -12.098 -46.008  1.00  0.00     0.111 C 
BRANCH  10  11
ATOM     11  C   UNL     1       9.808 -13.331 -45.266  1.00  0.00     0.163 C 
ATOM     12  O   UNL     1       8.595 -13.419 -44.933  1.00  0.00    -0.294 OA
BRANCH  11  13
ATOM     13  C   UNL     1      10.759 -14.409 -44.862  1.00  0.00    -0.002 C 
ATOM     14  C   UNL     1      10.882 -15.549 -45.608  1.00  0.00    -0.069 C 
ATOM     15  C   UNL     1      11.715 -16.724 -45.145  1.00  0.00     0.039 C 
ATOM     16  C   UNL     1      10.183 -15.691 -46.943  1.00  0.00     0.039 C 
BRANCH  13  17
ATOM     17  C   UNL     1      11.503 -14.225 -43.549  1.00  0.00     0.066 CG0
ATOM     18  G   UNL     1      12.840 -13.536 -43.736  1.00  0.00     0.000 G0
ENDBRANCH  13  17
ENDBRANCH  11  13
ENDBRANCH  10  11
ENDBRANCH   1  10
TORSDOF 0
ENDMDL
MODEL 5
REMARK VINA RESULT:    -3.639     12.122     13.714
REMARK INTER + INTRA:          -4.794
REMARK INTER:                  -5.389
REMARK INTRA:                   0.596
REMARK UNBOUND:                 0.334
REMARK SMILES CC1=CCC(=C(C)C)C(=O)CC(C)=CCC1
REMARK SMILES IDX 12 1 14 2 13 3 15 4 16 5 2 6 1 7 3 8 11 10 9 11 10 12 5 13
REMARK SMILES IDX 6 14 7 15 8 16 4 17
REMARK H PARENT
REMARK Flexibility Score: 60.00
ROOT
ATOM      1  C   UNL     1       9.595 -24.398 -36.996  1.00  0.00    -0.070 C 
ATOM      2  C   UNL     1       9.004 -23.657 -36.033  1.00  0.00    -0.027 C 
ATOM      3  C   UNL     1       8.711 -25.251 -37.871  1.00  0.00     0.039 C 
ENDROOT
BRANCH   2   4
ATOM      4  C   UNL     1       9.724 -22.818 -34.999  1.00  0.00     0.032 C 
BRANCH   4   5
ATOM      5  C   UNL     1       9.611 -21.294 -35.209  1.00  0.00     0.034 C 
BRANCH   5   6
ATOM      6  C   UNL     1       9.536 -20.897 -36.673  1.00  0.00    -0.077 C 
ATOM      7  C   UNL     1       8.180 -20.552 -37.237  1.00  0.00     0.039 C 
ATOM      8  C   UNL     1      10.594 -20.898 -37.520  1.00  0.00    -0.023 CG0
ATOM      9  G   UNL     1      12.041 -21.189 -37.175  1.00  0.00     0.000 G0
ENDBRANCH   5   6
ENDBRANCH   4   5
ENDBRANCH   2   4
BRANCH   1  10
ATOM     10  C   UNL     1      11.097 -24.485 -37.176  1.00  0.00     0.111 C 
BRANCH  10  11
ATOM     11  C   UNL     1      11.591 -23.499 -38.201  1.00  0.00     0.163 C 
ATOM     12  O   UNL     1      11.190 -23.627 -39.389  1.00  0.00    -0.294 OA
BRANCH  11  13
ATOM     13  C   UNL     1      12.578 -22.428 -37.873  1.00  0.00    -0.002 C 
ATOM     14  C   UNL     1      13.911 -22.605 -38.121  1.00  0.00    -0.069 C 
ATOM     15  C   UNL     1      14.952 -21.609 -37.658  1.00  0.00     0.039 C 
ATOM     16  C   UNL     1      14.414 -23.817 -38.876  1.00  0.00     0.039 C 
BRANCH  13  17
ATOM     17  C   UNL     1      12.050 -21.187 -37.171  1.00  0.00     0.066 CG0
ATOM     18  G   UNL     1      10.602 -20.903 -37.515  1.00  0.00     0.000 G0
ENDBRANCH  13  17
ENDBRANCH  11  13
ENDBRANCH  10  11
ENDBRANCH   1  10
TORSDOF 0
ENDMDL
MODEL 6
REMARK VINA RESULT:    -3.556      1.887      4.586
REMARK INTER + INTRA:          -4.676
REMARK INTER:                  -5.014
REMARK INTRA:                   0.338
REMARK UNBOUND:                 0.334
REMARK SMILES CC1=CCC(=C(C)C)C(=O)CC(C)=CCC1
REMARK SMILES IDX 12 1 14 2 13 3 15 4 16 5 2 6 1 7 3 8 11 10 9 11 10 12 5 13
REMARK SMILES IDX 6 14 7 15 8 16 4 17
REMARK H PARENT
REMARK Flexibility Score: 60.00
ROOT
ATOM      1  C   UNL     1      10.332  -9.868 -44.415  1.00  0.00    -0.070 C 
ATOM      2  C   UNL     1       9.181  -9.662 -45.093  1.00  0.00    -0.027 C 
ATOM      3  C   UNL     1      11.328  -8.737 -44.355  1.00  0.00     0.039 C 
ENDROOT
BRANCH   2   4
ATOM      4  C   UNL     1       8.108 -10.699 -45.346  1.00  0.00     0.032 C 
BRANCH   4   5
ATOM      5  C   UNL     1       8.194 -11.399 -46.718  1.00  0.00     0.034 C 
BRANCH   5   6
ATOM      6  C   UNL     1       8.351 -12.906 -46.610  1.00  0.00    -0.077 C 
ATOM      7  C   UNL     1       7.097 -13.735 -46.491  1.00  0.00     0.039 C 
ATOM      8  C   UNL     1       9.544 -13.546 -46.545  1.00  0.00    -0.023 CG0
ATOM      9  G   UNL     1      10.922 -12.927 -46.662  1.00  0.00     0.000 G0
ENDBRANCH   5   6
ENDBRANCH   4   5
ENDBRANCH   2   4
BRANCH   1  10
ATOM     10  C   UNL     1      10.706 -11.200 -43.796  1.00  0.00     0.111 C 
BRANCH  10  11
ATOM     11  C   UNL     1      11.863 -11.841 -44.517  1.00  0.00     0.163 C 
ATOM     12  O   UNL     1      12.987 -11.274 -44.457  1.00  0.00    -0.294 OA
BRANCH  11  13
ATOM     13  C   UNL     1      11.708 -13.077 -45.340  1.00  0.00    -0.002 C 
ATOM     14  C   UNL     1      12.314 -14.246 -44.967  1.00  0.00    -0.069 C 
ATOM     15  C   UNL     1      12.308 -15.470 -45.856  1.00  0.00     0.039 C 
ATOM     16  C   UNL     1      13.026 -14.370 -43.638  1.00  0.00     0.039 C 
BRANCH  13  17
ATOM     17  C   UNL     1      10.935 -12.953 -46.643  1.00  0.00     0.066 CG0
ATOM     18  G   UNL     1       9.542 -13.540 -46.545  1.00  0.00     0.000 G0
ENDBRANCH  13  17
ENDBRANCH  11  13
ENDBRANCH  10  11
ENDBRANCH   1  10
TORSDOF 0
ENDMDL
MODEL 7
REMARK VINA RESULT:    -3.546     11.819     13.051
REMARK INTER + INTRA:          -4.663
REMARK INTER:                  -5.080
REMARK INTRA:                   0.417
REMARK UNBOUND:                 0.334
REMARK SMILES CC1=CCC(=C(C)C)C(=O)CC(C)=CCC1
REMARK SMILES IDX 12 1 14 2 13 3 15 4 16 5 2 6 1 7 3 8 11 10 9 11 10 12 5 13
REMARK SMILES IDX 6 14 7 15 8 16 4 17
REMARK H PARENT
REMARK Flexibility Score: 60.00
ROOT
ATOM      1  C   UNL     1       7.250 -21.311 -36.773  1.00  0.00    -0.070 C 
ATOM      2  C   UNL     1       7.517 -22.273 -35.862  1.00  0.00    -0.027 C 
ATOM      3  C   UNL     1       5.993 -21.450 -37.595  1.00  0.00     0.039 C 
ENDROOT
BRANCH   2   4
ATOM      4  C   UNL     1       8.769 -22.363 -35.015  1.00  0.00     0.032 C 
BRANCH   4   5
ATOM      5  C   UNL     1       9.632 -23.616 -35.265  1.00  0.00     0.034 C 
BRANCH   5   6
ATOM      6  C   UNL     1       9.958 -23.834 -36.732  1.00  0.00    -0.077 C 
ATOM      7  C   UNL     1       9.458 -25.100 -37.382  1.00  0.00     0.039 C 
ATOM      8  C   UNL     1      10.724 -22.999 -37.476  1.00  0.00    -0.023 CG0
ATOM      9  G   UNL     1      11.315 -21.671 -37.045  1.00  0.00     0.000 G0
ENDBRANCH   5   6
ENDBRANCH   4   5
ENDBRANCH   2   4
BRANCH   1  10
ATOM     10  C   UNL     1       8.190 -20.162 -37.071  1.00  0.00     0.111 C 
BRANCH  10  11
ATOM     11  C   UNL     1       9.231 -20.546 -38.089  1.00  0.00     0.163 C 
ATOM     12  O   UNL     1       8.838 -20.984 -39.204  1.00  0.00    -0.294 OA
BRANCH  11  13
ATOM     13  C   UNL     1      10.695 -20.484 -37.802  1.00  0.00    -0.002 C 
ATOM     14  C   UNL     1      11.455 -19.444 -38.263  1.00  0.00    -0.069 C 
ATOM     15  C   UNL     1      12.962 -19.431 -38.126  1.00  0.00     0.039 C 
ATOM     16  C   UNL     1      10.821 -18.250 -38.941  1.00  0.00     0.039 C 
BRANCH  13  17
ATOM     17  C   UNL     1      11.310 -21.662 -37.064  1.00  0.00     0.066 CG0
ATOM     18  G   UNL     1      10.701 -22.986 -37.482  1.00  0.00     0.000 G0
ENDBRANCH  13  17
ENDBRANCH  11  13
ENDBRANCH  10  11
ENDBRANCH   1  10
TORSDOF 0
ENDMDL
MODEL 8
REMARK VINA RESULT:    -3.385      2.060      3.534
REMARK INTER + INTRA:          -4.436
REMARK INTER:                  -4.956
REMARK INTRA:                   0.520
REMARK UNBOUND:                 0.334
REMARK SMILES CC1=CCC(=C(C)C)C(=O)CC(C)=CCC1
REMARK SMILES IDX 12 1 14 2 13 3 15 4 16 5 2 6 1 7 3 8 11 10 9 11 10 12 5 13
REMARK SMILES IDX 6 14 7 15 8 16 4 17
REMARK H PARENT
REMARK Flexibility Score: 60.00
ROOT
ATOM      1  C   UNL     1      11.692 -10.462 -44.235  1.00  0.00    -0.070 C 
ATOM      2  C   UNL     1      12.755 -11.185 -43.820  1.00  0.00    -0.027 C 
ATOM      3  C   UNL     1      11.937  -9.045 -44.690  1.00  0.00     0.039 C 
ENDROOT
BRANCH   2   4
ATOM      4  C   UNL     1      12.700 -12.582 -43.239  1.00  0.00     0.032 C 
BRANCH   4   5
ATOM      5  C   UNL     1      13.565 -13.625 -43.976  1.00  0.00     0.034 C 
BRANCH   5   6
ATOM      6  C   UNL     1      13.165 -13.813 -45.429  1.00  0.00    -0.077 C 
ATOM      7  C   UNL     1      14.244 -13.686 -46.476  1.00  0.00     0.039 C 
ATOM      8  C   UNL     1      11.893 -14.019 -45.850  1.00  0.00    -0.023 CG0
ATOM      9  G   UNL     1      10.661 -14.198 -44.985  1.00  0.00     0.000 G0
ENDBRANCH   5   6
ENDBRANCH   4   5
ENDBRANCH   2   4
BRANCH   1  10
ATOM     10  C   UNL     1      10.266 -10.970 -44.178  1.00  0.00     0.111 C 
BRANCH  10  11
ATOM     11  C   UNL     1       9.922 -11.798 -45.388  1.00  0.00     0.163 C 
ATOM     12  O   UNL     1       9.900 -11.226 -46.511  1.00  0.00    -0.294 OA
BRANCH  11  13
ATOM     13  C   UNL     1       9.549 -13.241 -45.293  1.00  0.00    -0.002 C 
ATOM     14  C   UNL     1       8.244 -13.634 -45.406  1.00  0.00    -0.069 C 
ATOM     15  C   UNL     1       7.815 -15.064 -45.159  1.00  0.00     0.039 C 
ATOM     16  C   UNL     1       7.158 -12.651 -45.785  1.00  0.00     0.039 C 
BRANCH  13  17
ATOM     17  C   UNL     1      10.661 -14.227 -44.974  1.00  0.00     0.066 CG0
ATOM     18  G   UNL     1      11.884 -14.017 -45.844  1.00  0.00     0.000 G0
ENDBRANCH  13  17
ENDBRANCH  11  13
ENDBRANCH  10  11
ENDBRANCH   1  10
TORSDOF 0
ENDMDL
MODEL 9
REMARK VINA RESULT:    -3.198     10.893     12.212
REMARK INTER + INTRA:          -4.172
REMARK INTER:                  -4.352
REMARK INTRA:                   0.181
REMARK UNBOUND:                 0.334
REMARK SMILES CC1=CCC(=C(C)C)C(=O)CC(C)=CCC1
REMARK SMILES IDX 12 1 14 2 13 3 15 4 16 5 2 6 1 7 3 8 11 10 9 11 10 12 5 13
REMARK SMILES IDX 6 14 7 15 8 16 4 17
REMARK H PARENT
REMARK Flexibility Score: 60.00
ROOT
ATOM      1  C   UNL     1       8.723 -22.639 -36.115  1.00  0.00    -0.070 C 
ATOM      2  C   UNL     1       7.454 -22.297 -35.800  1.00  0.00    -0.027 C 
ATOM      3  C   UNL     1       9.626 -23.101 -34.998  1.00  0.00     0.039 C 
ENDROOT
BRANCH   2   4
ATOM      4  C   UNL     1       6.432 -21.721 -36.758  1.00  0.00     0.032 C 
BRANCH   4   5
ATOM      5  C   UNL     1       6.519 -20.194 -36.958  1.00  0.00     0.034 C 
BRANCH   5   6
ATOM      6  C   UNL     1       6.588 -19.787 -38.419  1.00  0.00    -0.077 C 
ATOM      7  C   UNL     1       5.338 -19.938 -39.249  1.00  0.00     0.039 C 
ATOM      8  C   UNL     1       7.715 -19.361 -39.041  1.00  0.00    -0.023 CG0
ATOM      9  G   UNL     1       9.071 -19.116 -38.410  1.00  0.00     0.000 G0
ENDBRANCH   5   6
ENDBRANCH   4   5
ENDBRANCH   2   4
BRANCH   1  10
ATOM     10  C   UNL     1       9.304 -22.493 -37.506  1.00  0.00     0.111 C 
BRANCH  10  11
ATOM     11  C   UNL     1      10.204 -21.291 -37.609  1.00  0.00     0.163 C 
ATOM     12  O   UNL     1      11.084 -21.130 -36.721  1.00  0.00    -0.294 OA
BRANCH  11  13
ATOM     13  C   UNL     1      10.049 -20.262 -38.681  1.00  0.00    -0.002 C 
ATOM     14  C   UNL     1      10.816 -20.310 -39.812  1.00  0.00    -0.069 C 
ATOM     15  C   UNL     1      10.796 -19.201 -40.841  1.00  0.00     0.039 C 
ATOM     16  C   UNL     1      11.731 -21.483 -40.090  1.00  0.00     0.039 C 
BRANCH  13  17
ATOM     17  C   UNL     1       9.079 -19.123 -38.416  1.00  0.00     0.066 CG0
ATOM     18  G   UNL     1       7.715 -19.373 -39.027  1.00  0.00     0.000 G0
ENDBRANCH  13  17
ENDBRANCH  11  13
ENDBRANCH  10  11
ENDBRANCH   1  10
TORSDOF 0
ENDMDL
