MODEL 1
REMARK VINA RESULT:    -3.591      0.000      0.000
REMARK INTER + INTRA:          -4.860
REMARK INTER:                  -4.850
REMARK INTRA:                  -0.010
REMARK UNBOUND:                -0.010
REMARK SMILES C=C1CCC=C(C)CC[C@@H]2[C@H]1CC2(C)C
REMARK SMILES IDX 11 1 12 2 13 3 10 4 14 5 15 6 9 7 8 8 6 9 7 10 5 11 2 13
REMARK SMILES IDX 1 14 3 15 4 16
REMARK H PARENT
REMARK Flexibility Score: 70.00
ROOT
ATOM      1  C   UNL     1      59.141  44.996  42.876  1.00  0.00     0.018 C 
ATOM      2  C   UNL     1      60.249  44.503  41.946  1.00  0.00     0.015 C 
ATOM      3  C   UNL     1      59.779  43.050  42.147  1.00  0.00    -0.031 C 
ATOM      4  C   UNL     1      58.577  43.560  42.995  1.00  0.00     0.002 C 
ATOM      5  C   UNL     1      60.772  42.231  42.993  1.00  0.00     0.011 C 
ATOM      6  C   UNL     1      59.477  42.337  40.812  1.00  0.00     0.011 C 
ENDROOT
BRANCH   4   7
ATOM      7  C   UNL     1      57.172  43.218  42.451  1.00  0.00     0.009 C 
BRANCH   7   8
ATOM      8  C   UNL     1      56.049  43.371  43.491  1.00  0.00     0.030 C 
BRANCH   8   9
ATOM      9  C   UNL     1      55.069  44.421  43.014  1.00  0.00    -0.077 C 
ATOM     10  C   UNL     1      53.858  43.984  42.233  1.00  0.00     0.039 C 
ATOM     11  C   UNL     1      55.312  45.746  43.142  1.00  0.00    -0.028 CG0
ATOM     12  G   UNL     1      56.408  46.350  43.988  1.00  0.00     0.000 G0
ENDBRANCH   8   9
ENDBRANCH   7   8
ENDBRANCH   4   7
BRANCH   1  13
ATOM     13  C   UNL     1      58.331  46.177  42.335  1.00  0.00    -0.074 C 
ATOM     14  C   UNL     1      58.229  46.304  40.998  1.00  0.00     0.008 C 
BRANCH  13  15
ATOM     15  C   UNL     1      57.504  47.117  43.195  1.00  0.00     0.035 C 
BRANCH  15  16
ATOM     16  C   UNL     1      56.406  46.363  43.988  1.00  0.00     0.032 CG0
ATOM     17  G   UNL     1      55.312  45.753  43.145  1.00  0.00     0.000 G0
ENDBRANCH  15  16
ENDBRANCH  13  15
ENDBRANCH   1  13
TORSDOF 0
ENDMDL
MODEL 2
REMARK VINA RESULT:    -2.768     19.882     21.793
REMARK INTER + INTRA:          -3.749
REMARK INTER:                  -3.750
REMARK INTRA:                   0.002
REMARK UNBOUND:                -0.010
REMARK SMILES C=C1CCC=C(C)CC[C@@H]2[C@H]1CC2(C)C
REMARK SMILES IDX 11 1 12 2 13 3 10 4 14 5 15 6 9 7 8 8 6 9 7 10 5 11 2 13
REMARK SMILES IDX 1 14 3 15 4 16
REMARK H PARENT
REMARK Flexibility Score: 70.00
ROOT
ATOM      1  C   UNL     1      50.467  31.096  29.536  1.00  0.00     0.018 C 
ATOM      2  C   UNL     1      49.813  31.796  30.729  1.00  0.00     0.015 C 
ATOM      3  C   UNL     1      49.909  33.146  29.995  1.00  0.00    -0.031 C 
ATOM      4  C   UNL     1      50.460  32.419  28.733  1.00  0.00     0.002 C 
ATOM      5  C   UNL     1      50.961  34.077  30.627  1.00  0.00     0.011 C 
ATOM      6  C   UNL     1      48.543  33.857  29.886  1.00  0.00     0.011 C 
ENDROOT
BRANCH   4   7
ATOM      7  C   UNL     1      49.614  32.556  27.449  1.00  0.00     0.009 C 
BRANCH   7   8
ATOM      8  C   UNL     1      50.429  32.425  26.151  1.00  0.00     0.030 C 
BRANCH   8   9
ATOM      9  C   UNL     1      49.916  31.241  25.359  1.00  0.00    -0.077 C 
ATOM     10  C   UNL     1      49.049  31.494  24.154  1.00  0.00     0.039 C 
ATOM     11  C   UNL     1      50.092  29.965  25.773  1.00  0.00    -0.028 CG0
ATOM     12  G   UNL     1      51.020  29.532  26.883  1.00  0.00     0.000 G0
ENDBRANCH   8   9
ENDBRANCH   7   8
ENDBRANCH   4   7
BRANCH   1  13
ATOM     13  C   UNL     1      49.752  29.825  29.072  1.00  0.00    -0.074 C 
ATOM     14  C   UNL     1      48.470  29.656  29.449  1.00  0.00     0.008 C 
BRANCH  13  15
ATOM     15  C   UNL     1      50.332  28.825  28.085  1.00  0.00     0.035 C 
BRANCH  15  16
ATOM     16  C   UNL     1      51.024  29.526  26.888  1.00  0.00     0.032 CG0
ATOM     17  G   UNL     1      50.097  29.962  25.779  1.00  0.00     0.000 G0
ENDBRANCH  15  16
ENDBRANCH  13  15
ENDBRANCH   1  13
TORSDOF 0
ENDMDL
MODEL 3
REMARK VINA RESULT:    -2.741     21.605     23.045
REMARK INTER + INTRA:          -3.713
REMARK INTER:                  -3.680
REMARK INTRA:                  -0.033
REMARK UNBOUND:                -0.010
REMARK SMILES C=C1CCC=C(C)CC[C@@H]2[C@H]1CC2(C)C
REMARK SMILES IDX 11 1 12 2 13 3 10 4 14 5 15 6 9 7 8 8 6 9 7 10 5 11 2 13
REMARK SMILES IDX 1 14 3 15 4 16
REMARK H PARENT
REMARK Flexibility Score: 70.00
ROOT
ATOM      1  C   UNL     1      54.968  30.203  26.365  1.00  0.00     0.018 C 
ATOM      2  C   UNL     1      56.329  30.065  25.681  1.00  0.00     0.015 C 
ATOM      3  C   UNL     1      56.252  28.534  25.824  1.00  0.00    -0.031 C 
ATOM      4  C   UNL     1      54.814  28.664  26.408  1.00  0.00     0.002 C 
ATOM      5  C   UNL     1      57.249  27.998  26.868  1.00  0.00     0.011 C 
ATOM      6  C   UNL     1      56.425  27.805  24.474  1.00  0.00     0.011 C 
ENDROOT
BRANCH   4   7
ATOM      7  C   UNL     1      53.694  27.962  25.610  1.00  0.00     0.009 C 
BRANCH   7   8
ATOM      8  C   UNL     1      52.401  27.745  26.415  1.00  0.00     0.030 C 
BRANCH   8   9
ATOM      9  C   UNL     1      51.267  28.492  25.745  1.00  0.00    -0.077 C 
ATOM     10  C   UNL     1      50.389  27.755  24.768  1.00  0.00     0.039 C 
ATOM     11  C   UNL     1      51.100  29.827  25.885  1.00  0.00    -0.028 CG0
ATOM     12  G   UNL     1      51.812  30.689  26.901  1.00  0.00     0.000 G0
ENDBRANCH   8   9
ENDBRANCH   7   8
ENDBRANCH   4   7
BRANCH   1  13
ATOM     13  C   UNL     1      53.983  31.129  25.647  1.00  0.00    -0.074 C 
ATOM     14  C   UNL     1      54.118  31.271  24.314  1.00  0.00     0.008 C 
BRANCH  13  15
ATOM     15  C   UNL     1      52.770  31.766  26.302  1.00  0.00     0.035 C 
BRANCH  15  16
ATOM     16  C   UNL     1      51.810  30.705  26.900  1.00  0.00     0.032 CG0
ATOM     17  G   UNL     1      51.101  29.839  25.886  1.00  0.00     0.000 G0
ENDBRANCH  15  16
ENDBRANCH  13  15
ENDBRANCH   1  13
TORSDOF 0
ENDMDL
MODEL 4
REMARK VINA RESULT:    -2.606     19.604     21.513
REMARK INTER + INTRA:          -3.529
REMARK INTER:                  -3.462
REMARK INTRA:                  -0.067
REMARK UNBOUND:                -0.010
REMARK SMILES C=C1CCC=C(C)CC[C@@H]2[C@H]1CC2(C)C
REMARK SMILES IDX 11 1 12 2 13 3 10 4 14 5 15 6 9 7 8 8 6 9 7 10 5 11 2 13
REMARK SMILES IDX 1 14 3 15 4 16
REMARK H PARENT
REMARK Flexibility Score: 70.00
ROOT
ATOM      1  C   UNL     1      48.919  32.816  28.379  1.00  0.00     0.018 C 
ATOM      2  C   UNL     1      48.968  33.323  29.821  1.00  0.00     0.015 C 
ATOM      3  C   UNL     1      49.240  31.892  30.320  1.00  0.00    -0.031 C 
ATOM      4  C   UNL     1      49.314  31.395  28.847  1.00  0.00     0.002 C 
ATOM      5  C   UNL     1      48.032  31.298  31.068  1.00  0.00     0.011 C 
ATOM      6  C   UNL     1      50.517  31.802  31.184  1.00  0.00     0.011 C 
ENDROOT
BRANCH   4   7
ATOM      7  C   UNL     1      50.656  30.767  28.411  1.00  0.00     0.009 C 
BRANCH   7   8
ATOM      8  C   UNL     1      50.537  29.825  27.201  1.00  0.00     0.030 C 
BRANCH   8   9
ATOM      9  C   UNL     1      51.379  30.367  26.065  1.00  0.00    -0.077 C 
ATOM     10  C   UNL     1      52.748  29.784  25.833  1.00  0.00     0.039 C 
ATOM     11  C   UNL     1      51.004  31.446  25.340  1.00  0.00    -0.028 CG0
ATOM     12  G   UNL     1      49.631  32.074  25.365  1.00  0.00     0.000 G0
ENDBRANCH   8   9
ENDBRANCH   7   8
ENDBRANCH   4   7
BRANCH   1  13
ATOM     13  C   UNL     1      49.746  33.636  27.386  1.00  0.00    -0.074 C 
ATOM     14  C   UNL     1      50.770  34.362  27.875  1.00  0.00     0.008 C 
BRANCH  13  15
ATOM     15  C   UNL     1      49.596  33.561  25.876  1.00  0.00     0.035 C 
BRANCH  15  16
ATOM     16  C   UNL     1      49.628  32.099  25.362  1.00  0.00     0.032 CG0
ATOM     17  G   UNL     1      50.994  31.455  25.346  1.00  0.00     0.000 G0
ENDBRANCH  15  16
ENDBRANCH  13  15
ENDBRANCH   1  13
TORSDOF 0
ENDMDL
MODEL 5
REMARK VINA RESULT:    -2.302     19.974     21.870
REMARK INTER + INTRA:          -3.119
REMARK INTER:                  -3.173
REMARK INTRA:                   0.053
REMARK UNBOUND:                -0.010
REMARK SMILES C=C1CCC=C(C)CC[C@@H]2[C@H]1CC2(C)C
REMARK SMILES IDX 11 1 12 2 13 3 10 4 14 5 15 6 9 7 8 8 6 9 7 10 5 11 2 13
REMARK SMILES IDX 1 14 3 15 4 16
REMARK H PARENT
REMARK Flexibility Score: 70.00
ROOT
ATOM      1  C   UNL     1      49.737  32.939  27.472  1.00  0.00     0.018 C 
ATOM      2  C   UNL     1      50.141  34.023  28.473  1.00  0.00     0.015 C 
ATOM      3  C   UNL     1      49.589  33.169  29.629  1.00  0.00    -0.031 C 
ATOM      4  C   UNL     1      49.289  32.014  28.628  1.00  0.00     0.002 C 
ATOM      5  C   UNL     1      48.298  33.762  30.224  1.00  0.00     0.011 C 
ATOM      6  C   UNL     1      50.638  32.921  30.733  1.00  0.00     0.011 C 
ENDROOT
BRANCH   4   7
ATOM      7  C   UNL     1      50.019  30.680  28.897  1.00  0.00     0.009 C 
BRANCH   7   8
ATOM      8  C   UNL     1      49.449  29.490  28.107  1.00  0.00     0.030 C 
BRANCH   8   9
ATOM      9  C   UNL     1      50.520  28.942  27.189  1.00  0.00    -0.077 C 
ATOM     10  C   UNL     1      51.435  27.861  27.702  1.00  0.00     0.039 C 
ATOM     11  C   UNL     1      50.777  29.484  25.976  1.00  0.00    -0.028 CG0
ATOM     12  G   UNL     1      49.895  30.486  25.268  1.00  0.00     0.000 G0
ENDBRANCH   8   9
ENDBRANCH   7   8
ENDBRANCH   4   7
BRANCH   1  13
ATOM     13  C   UNL     1      50.826  32.563  26.464  1.00  0.00    -0.074 C 
ATOM     14  C   UNL     1      52.109  32.685  26.857  1.00  0.00     0.008 C 
BRANCH  13  15
ATOM     15  C   UNL     1      50.562  31.908  25.119  1.00  0.00     0.035 C 
BRANCH  15  16
ATOM     16  C   UNL     1      49.905  30.512  25.272  1.00  0.00     0.032 CG0
ATOM     17  G   UNL     1      50.753  29.480  25.976  1.00  0.00     0.000 G0
ENDBRANCH  15  16
ENDBRANCH  13  15
ENDBRANCH   1  13
TORSDOF 0
ENDMDL
MODEL 6
REMARK VINA RESULT:    -2.283     19.387     21.245
REMARK INTER + INTRA:          -3.094
REMARK INTER:                  -3.046
REMARK INTRA:                  -0.048
REMARK UNBOUND:                -0.010
REMARK SMILES C=C1CCC=C(C)CC[C@@H]2[C@H]1CC2(C)C
REMARK SMILES IDX 11 1 12 2 13 3 10 4 14 5 15 6 9 7 8 8 6 9 7 10 5 11 2 13
REMARK SMILES IDX 1 14 3 15 4 16
REMARK H PARENT
REMARK Flexibility Score: 70.00
ROOT
ATOM      1  C   UNL     1      49.736  30.523  26.828  1.00  0.00     0.018 C 
ATOM      2  C   UNL     1      50.697  29.695  25.975  1.00  0.00     0.015 C 
ATOM      3  C   UNL     1      51.419  30.981  25.530  1.00  0.00    -0.031 C 
ATOM      4  C   UNL     1      50.521  31.813  26.493  1.00  0.00     0.002 C 
ATOM      5  C   UNL     1      51.145  31.319  24.053  1.00  0.00     0.011 C 
ATOM      6  C   UNL     1      52.936  30.933  25.810  1.00  0.00     0.011 C 
ENDROOT
BRANCH   4   7
ATOM      7  C   UNL     1      51.261  32.595  27.601  1.00  0.00     0.009 C 
BRANCH   7   8
ATOM      8  C   UNL     1      50.478  33.808  28.132  1.00  0.00     0.030 C 
BRANCH   8   9
ATOM      9  C   UNL     1      50.194  33.610  29.606  1.00  0.00    -0.077 C 
ATOM     10  C   UNL     1      51.060  34.317  30.614  1.00  0.00     0.039 C 
ATOM     11  C   UNL     1      49.283  32.715  30.051  1.00  0.00    -0.028 CG0
ATOM     12  G   UNL     1      48.262  32.012  29.188  1.00  0.00     0.000 G0
ENDBRANCH   8   9
ENDBRANCH   7   8
ENDBRANCH   4   7
BRANCH   1  13
ATOM     13  C   UNL     1      49.538  30.003  28.254  1.00  0.00    -0.074 C 
ATOM     14  C   UNL     1      50.500  29.213  28.769  1.00  0.00     0.008 C 
BRANCH  13  15
ATOM     15  C   UNL     1      48.420  30.445  29.182  1.00  0.00     0.035 C 
BRANCH  15  16
ATOM     16  C   UNL     1      48.261  31.987  29.205  1.00  0.00     0.032 CG0
ATOM     17  G   UNL     1      49.272  32.723  30.051  1.00  0.00     0.000 G0
ENDBRANCH  15  16
ENDBRANCH  13  15
ENDBRANCH   1  13
TORSDOF 0
ENDMDL
MODEL 7
REMARK VINA RESULT:    -2.275     19.933     21.787
REMARK INTER + INTRA:          -3.082
REMARK INTER:                  -3.035
REMARK INTRA:                  -0.047
REMARK UNBOUND:                -0.010
REMARK SMILES C=C1CCC=C(C)CC[C@@H]2[C@H]1CC2(C)C
REMARK SMILES IDX 11 1 12 2 13 3 10 4 14 5 15 6 9 7 8 8 6 9 7 10 5 11 2 13
REMARK SMILES IDX 1 14 3 15 4 16
REMARK H PARENT
REMARK Flexibility Score: 70.00
ROOT
ATOM      1  C   UNL     1      50.230  30.757  28.364  1.00  0.00     0.018 C 
ATOM      2  C   UNL     1      49.641  30.240  29.676  1.00  0.00     0.015 C 
ATOM      3  C   UNL     1      49.569  31.680  30.217  1.00  0.00    -0.031 C 
ATOM      4  C   UNL     1      50.053  32.219  28.839  1.00  0.00     0.002 C 
ATOM      5  C   UNL     1      50.605  31.935  31.329  1.00  0.00     0.011 C 
ATOM      6  C   UNL     1      48.151  32.063  30.691  1.00  0.00     0.011 C 
ENDROOT
BRANCH   4   7
ATOM      7  C   UNL     1      49.083  33.173  28.108  1.00  0.00     0.009 C 
BRANCH   7   8
ATOM      8  C   UNL     1      49.769  34.088  27.080  1.00  0.00     0.030 C 
BRANCH   8   9
ATOM      9  C   UNL     1      49.196  33.812  25.706  1.00  0.00    -0.077 C 
ATOM     10  C   UNL     1      48.144  34.739  25.158  1.00  0.00     0.039 C 
ATOM     11  C   UNL     1      49.492  32.689  25.013  1.00  0.00    -0.028 CG0
ATOM     12  G   UNL     1      50.599  31.721  25.360  1.00  0.00     0.000 G0
ENDBRANCH   8   9
ENDBRANCH   7   8
ENDBRANCH   4   7
BRANCH   1  13
ATOM     13  C   UNL     1      49.570  30.195  27.102  1.00  0.00    -0.074 C 
ATOM     14  C   UNL     1      48.310  29.731  27.211  1.00  0.00     0.008 C 
BRANCH  13  15
ATOM     15  C   UNL     1      50.172  30.274  25.709  1.00  0.00     0.035 C 
BRANCH  15  16
ATOM     16  C   UNL     1      50.615  31.716  25.350  1.00  0.00     0.032 CG0
ATOM     17  G   UNL     1      49.490  32.668  25.020  1.00  0.00     0.000 G0
ENDBRANCH  15  16
ENDBRANCH  13  15
ENDBRANCH   1  13
TORSDOF 0
ENDMDL
MODEL 8
REMARK VINA RESULT:    -2.015     19.987     21.833
REMARK INTER + INTRA:          -2.732
REMARK INTER:                  -3.515
REMARK INTRA:                   0.783
REMARK UNBOUND:                -0.010
REMARK SMILES C=C1CCC=C(C)CC[C@@H]2[C@H]1CC2(C)C
REMARK SMILES IDX 11 1 12 2 13 3 10 4 14 5 15 6 9 7 8 8 6 9 7 10 5 11 2 13
REMARK SMILES IDX 1 14 3 15 4 16
REMARK H PARENT
REMARK Flexibility Score: 70.00
ROOT
ATOM      1  C   UNL     1      50.479  31.449  28.887  1.00  0.00     0.018 C 
ATOM      2  C   UNL     1      49.971  31.751  30.297  1.00  0.00     0.015 C 
ATOM      3  C   UNL     1      49.824  33.240  29.931  1.00  0.00    -0.031 C 
ATOM      4  C   UNL     1      50.222  32.914  28.461  1.00  0.00     0.002 C 
ATOM      5  C   UNL     1      50.878  34.118  30.630  1.00  0.00     0.011 C 
ATOM      6  C   UNL     1      48.400  33.775  30.197  1.00  0.00     0.011 C 
ENDROOT
BRANCH   4   7
ATOM      7  C   UNL     1      49.166  33.247  27.384  1.00  0.00     0.009 C 
BRANCH   7   8
ATOM      8  C   UNL     1      49.763  33.528  25.995  1.00  0.00     0.030 C 
BRANCH   8   9
ATOM      9  C   UNL     1      48.872  32.914  24.937  1.00  0.00    -0.077 C 
ATOM     10  C   UNL     1      48.178  33.821  23.955  1.00  0.00     0.039 C 
ATOM     11  C   UNL     1      48.566  31.596  24.927  1.00  0.00    -0.028 CG0
ATOM     12  G   UNL     1      49.253  30.539  25.758  1.00  0.00     0.000 G0
ENDBRANCH   8   9
ENDBRANCH   7   8
ENDBRANCH   4   7
BRANCH   1  13
ATOM     13  C   UNL     1      49.814  30.246  28.213  1.00  0.00    -0.074 C 
ATOM     14  C   UNL     1      50.133  29.020  28.669  1.00  0.00     0.008 C 
BRANCH  13  15
ATOM     15  C   UNL     1      48.701  30.346  27.184  1.00  0.00     0.035 C 
BRANCH  15  16
ATOM     16  C   UNL     1      49.253  30.527  25.747  1.00  0.00     0.032 CG0
ATOM     17  G   UNL     1      48.560  31.585  24.923  1.00  0.00     0.000 G0
ENDBRANCH  15  16
ENDBRANCH  13  15
ENDBRANCH   1  13
TORSDOF 0
ENDMDL
MODEL 9
REMARK VINA RESULT:    -1.840     19.800     21.670
REMARK INTER + INTRA:          -2.495
REMARK INTER:                  -3.141
REMARK INTRA:                   0.645
REMARK UNBOUND:                -0.010
REMARK SMILES C=C1CCC=C(C)CC[C@@H]2[C@H]1CC2(C)C
REMARK SMILES IDX 11 1 12 2 13 3 10 4 14 5 15 6 9 7 8 8 6 9 7 10 5 11 2 13
REMARK SMILES IDX 1 14 3 15 4 16
REMARK H PARENT
REMARK Flexibility Score: 70.00
ROOT
ATOM      1  C   UNL     1      50.337  32.437  29.485  1.00  0.00     0.018 C 
ATOM      2  C   UNL     1      49.899  33.891  29.305  1.00  0.00     0.015 C 
ATOM      3  C   UNL     1      50.758  33.998  28.032  1.00  0.00    -0.031 C 
ATOM      4  C   UNL     1      51.107  32.485  28.144  1.00  0.00     0.002 C 
ATOM      5  C   UNL     1      51.996  34.890  28.240  1.00  0.00     0.011 C 
ATOM      6  C   UNL     1      49.943  34.468  26.807  1.00  0.00     0.011 C 
ENDROOT
BRANCH   4   7
ATOM      7  C   UNL     1      50.673  31.600  26.954  1.00  0.00     0.009 C 
BRANCH   7   8
ATOM      8  C   UNL     1      51.256  30.178  26.993  1.00  0.00     0.030 C 
BRANCH   8   9
ATOM      9  C   UNL     1      50.237  29.207  26.434  1.00  0.00    -0.077 C 
ATOM     10  C   UNL     1      50.451  28.645  25.053  1.00  0.00     0.039 C 
ATOM     11  C   UNL     1      49.075  28.935  27.070  1.00  0.00    -0.028 CG0
ATOM     12  G   UNL     1      48.754  29.320  28.495  1.00  0.00     0.000 G0
ENDBRANCH   8   9
ENDBRANCH   7   8
ENDBRANCH   4   7
BRANCH   1  13
ATOM     13  C   UNL     1      49.195  31.457  29.767  1.00  0.00    -0.074 C 
ATOM     14  C   UNL     1      48.822  31.286  31.050  1.00  0.00     0.008 C 
BRANCH  13  15
ATOM     15  C   UNL     1      48.350  30.792  28.694  1.00  0.00     0.035 C 
BRANCH  15  16
ATOM     16  C   UNL     1      48.736  29.305  28.490  1.00  0.00     0.032 CG0
ATOM     17  G   UNL     1      49.066  28.918  27.068  1.00  0.00     0.000 G0
ENDBRANCH  15  16
ENDBRANCH  13  15
ENDBRANCH   1  13
TORSDOF 0
ENDMDL
