MODEL 1
REMARK VINA RESULT:    -3.706      0.000      0.000
REMARK INTER + INTRA:          -8.948
REMARK INTER:                  -6.522
REMARK INTRA:                  -2.426
REMARK UNBOUND:                -2.426
REMARK SMILES CCCCCCCCCCCCCCC(=O)[O-]
REMARK SMILES IDX 9 1 10 2 11 3 12 4 13 5 14 6 15 7 16 8 17 9 8 10 7 11 6 12
REMARK SMILES IDX 5 13 4 14 3 15 2 16 1 17
REMARK H PARENT
REMARK Flexibility Score: inf
ROOT
ATOM      1  C   UNL     1     176.483 177.057 179.385  1.00  0.00     0.000 C 
ENDROOT
BRANCH   1   2
ATOM      2  C   UNL     1     174.979 177.368 179.490  1.00  0.00     0.000 C 
BRANCH   2   3
ATOM      3  C   UNL     1     174.096 176.125 179.290  1.00  0.00     0.000 C 
BRANCH   3   4
ATOM      4  C   UNL     1     172.989 176.012 180.351  1.00  0.00     0.000 C 
BRANCH   4   5
ATOM      5  C   UNL     1     172.888 177.266 181.239  1.00  0.00     0.006 C 
BRANCH   5   6
ATOM      6  C   UNL     1     172.132 176.989 182.544  1.00  0.00     0.053 C 
BRANCH   6   7
ATOM      7  C   UNL     1     170.648 177.047 182.349  1.00  0.00     0.041 C 
ATOM      8  O   UNL     1     170.162 177.648 181.356  1.00  0.00    -0.550 OA
ATOM      9  O   UNL     1     169.803 176.404 183.245  1.00  0.00    -0.550 OA
ENDBRANCH   6   7
ENDBRANCH   5   6
ENDBRANCH   4   5
ENDBRANCH   3   4
ENDBRANCH   2   3
ENDBRANCH   1   2
BRANCH   1  10
ATOM     10  C   UNL     1     177.141 176.558 180.688  1.00  0.00     0.000 C 
BRANCH  10  11
ATOM     11  C   UNL     1     176.935 177.470 181.915  1.00  0.00    -0.000 C 
BRANCH  11  12
ATOM     12  C   UNL     1     176.194 176.812 183.096  1.00  0.00    -0.000 C 
BRANCH  12  13
ATOM     13  C   UNL     1     176.268 175.273 183.132  1.00  0.00    -0.000 C 
BRANCH  13  14
ATOM     14  C   UNL     1     174.908 174.554 183.032  1.00  0.00    -0.000 C 
BRANCH  14  15
ATOM     15  C   UNL     1     174.852 173.403 182.008  1.00  0.00    -0.000 C 
BRANCH  15  16
ATOM     16  C   UNL     1     176.160 173.159 181.235  1.00  0.00    -0.003 C 
ATOM     17  C   UNL     1     175.930 172.891 179.748  1.00  0.00     0.004 C 
ENDBRANCH  15  16
ENDBRANCH  14  15
ENDBRANCH  13  14
ENDBRANCH  12  13
ENDBRANCH  11  12
ENDBRANCH  10  11
ENDBRANCH   1  10
TORSDOF 13
ENDMDL
MODEL 2
REMARK VINA RESULT:    -3.695      1.300      2.995
REMARK INTER + INTRA:          -8.930
REMARK INTER:                  -6.922
REMARK INTRA:                  -2.008
REMARK UNBOUND:                -2.426
REMARK SMILES CCCCCCCCCCCCCCC(=O)[O-]
REMARK SMILES IDX 9 1 10 2 11 3 12 4 13 5 14 6 15 7 16 8 17 9 8 10 7 11 6 12
REMARK SMILES IDX 5 13 4 14 3 15 2 16 1 17
REMARK H PARENT
REMARK Flexibility Score: inf
ROOT
ATOM      1  C   UNL     1     173.796 174.798 182.483  1.00  0.00     0.000 C 
ENDROOT
BRANCH   1   2
ATOM      2  C   UNL     1     173.174 175.262 181.153  1.00  0.00     0.000 C 
BRANCH   2   3
ATOM      3  C   UNL     1     172.809 176.756 181.154  1.00  0.00     0.000 C 
BRANCH   3   4
ATOM      4  C   UNL     1     172.643 177.321 182.575  1.00  0.00     0.000 C 
BRANCH   4   5
ATOM      5  C   UNL     1     171.230 177.872 182.834  1.00  0.00     0.006 C 
BRANCH   5   6
ATOM      6  C   UNL     1     170.170 176.763 182.846  1.00  0.00     0.053 C 
BRANCH   6   7
ATOM      7  C   UNL     1     169.122 176.985 181.799  1.00  0.00     0.041 C 
ATOM      8  O   UNL     1     169.378 177.685 180.784  1.00  0.00    -0.550 OA
ATOM      9  O   UNL     1     167.874 176.390 181.928  1.00  0.00    -0.550 OA
ENDBRANCH   6   7
ENDBRANCH   5   6
ENDBRANCH   4   5
ENDBRANCH   3   4
ENDBRANCH   2   3
ENDBRANCH   1   2
BRANCH   1  10
ATOM     10  C   UNL     1     175.243 174.274 182.382  1.00  0.00     0.000 C 
BRANCH  10  11
ATOM     11  C   UNL     1     176.295 175.112 183.137  1.00  0.00    -0.000 C 
BRANCH  11  12
ATOM     12  C   UNL     1     175.988 176.621 183.217  1.00  0.00    -0.000 C 
BRANCH  12  13
ATOM     13  C   UNL     1     177.076 177.538 182.626  1.00  0.00    -0.000 C 
BRANCH  13  14
ATOM     14  C   UNL     1     177.329 177.359 181.116  1.00  0.00    -0.000 C 
BRANCH  14  15
ATOM     15  C   UNL     1     176.086 177.529 180.220  1.00  0.00    -0.000 C 
BRANCH  15  16
ATOM     16  C   UNL     1     176.125 176.737 178.901  1.00  0.00    -0.003 C 
ATOM     17  C   UNL     1     176.504 175.270 179.100  1.00  0.00     0.004 C 
ENDBRANCH  15  16
ENDBRANCH  14  15
ENDBRANCH  13  14
ENDBRANCH  12  13
ENDBRANCH  11  12
ENDBRANCH  10  11
ENDBRANCH   1  10
TORSDOF 13
ENDMDL
MODEL 3
REMARK VINA RESULT:    -3.681      2.738      5.435
REMARK INTER + INTRA:          -8.904
REMARK INTER:                  -7.355
REMARK INTRA:                  -1.549
REMARK UNBOUND:                -2.426
REMARK SMILES CCCCCCCCCCCCCCC(=O)[O-]
REMARK SMILES IDX 9 1 10 2 11 3 12 4 13 5 14 6 15 7 16 8 17 9 8 10 7 11 6 12
REMARK SMILES IDX 5 13 4 14 3 15 2 16 1 17
REMARK H PARENT
REMARK Flexibility Score: inf
ROOT
ATOM      1  C   UNL     1     174.709 175.470 182.621  1.00  0.00     0.000 C 
ENDROOT
BRANCH   1   2
ATOM      2  C   UNL     1     176.233 175.629 182.774  1.00  0.00     0.000 C 
BRANCH   2   3
ATOM      3  C   UNL     1     176.641 177.026 183.271  1.00  0.00     0.000 C 
BRANCH   3   4
ATOM      4  C   UNL     1     177.339 177.857 182.182  1.00  0.00     0.000 C 
BRANCH   4   5
ATOM      5  C   UNL     1     177.333 177.163 180.809  1.00  0.00     0.006 C 
BRANCH   5   6
ATOM      6  C   UNL     1     176.295 177.772 179.858  1.00  0.00     0.053 C 
BRANCH   6   7
ATOM      7  C   UNL     1     175.978 176.851 178.720  1.00  0.00     0.041 C 
ATOM      8  O   UNL     1     174.796 176.749 178.297  1.00  0.00    -0.550 OA
ATOM      9  O   UNL     1     176.994 176.132 178.103  1.00  0.00    -0.550 OA
ENDBRANCH   6   7
ENDBRANCH   5   6
ENDBRANCH   4   5
ENDBRANCH   3   4
ENDBRANCH   2   3
ENDBRANCH   1   2
BRANCH   1  10
ATOM     10  C   UNL     1     173.914 176.790 182.574  1.00  0.00     0.000 C 
BRANCH  10  11
ATOM     11  C   UNL     1     172.907 176.906 181.412  1.00  0.00    -0.000 C 
BRANCH  11  12
ATOM     12  C   UNL     1     171.651 177.745 181.721  1.00  0.00    -0.000 C 
BRANCH  12  13
ATOM     13  C   UNL     1     171.154 177.657 183.177  1.00  0.00    -0.000 C 
BRANCH  13  14
ATOM     14  C   UNL     1     169.809 176.927 183.363  1.00  0.00    -0.000 C 
BRANCH  14  15
ATOM     15  C   UNL     1     169.823 175.429 183.000  1.00  0.00    -0.000 C 
BRANCH  15  16
ATOM     16  C   UNL     1     170.402 174.505 184.086  1.00  0.00    -0.003 C 
ATOM     17  C   UNL     1     171.683 173.797 183.644  1.00  0.00     0.004 C 
ENDBRANCH  15  16
ENDBRANCH  14  15
ENDBRANCH  13  14
ENDBRANCH  12  13
ENDBRANCH  11  12
ENDBRANCH  10  11
ENDBRANCH   1  10
TORSDOF 13
ENDMDL
MODEL 4
REMARK VINA RESULT:    -3.675      1.210      2.306
REMARK INTER + INTRA:          -8.893
REMARK INTER:                  -7.068
REMARK INTRA:                  -1.826
REMARK UNBOUND:                -2.426
REMARK SMILES CCCCCCCCCCCCCCC(=O)[O-]
REMARK SMILES IDX 9 1 10 2 11 3 12 4 13 5 14 6 15 7 16 8 17 9 8 10 7 11 6 12
REMARK SMILES IDX 5 13 4 14 3 15 2 16 1 17
REMARK H PARENT
REMARK Flexibility Score: inf
ROOT
ATOM      1  C   UNL     1     174.466 176.478 179.731  1.00  0.00     0.000 C 
ENDROOT
BRANCH   1   2
ATOM      2  C   UNL     1     173.129 176.865 180.388  1.00  0.00     0.000 C 
BRANCH   2   3
ATOM      3  C   UNL     1     173.293 177.344 181.840  1.00  0.00     0.000 C 
BRANCH   3   4
ATOM      4  C   UNL     1     171.956 177.758 182.478  1.00  0.00     0.000 C 
BRANCH   4   5
ATOM      5  C   UNL     1     171.017 176.563 182.718  1.00  0.00     0.006 C 
BRANCH   5   6
ATOM      6  C   UNL     1     169.585 177.008 183.040  1.00  0.00     0.053 C 
BRANCH   6   7
ATOM      7  C   UNL     1     168.709 176.980 181.825  1.00  0.00     0.041 C 
ATOM      8  O   UNL     1     168.943 177.748 180.856  1.00  0.00    -0.550 OA
ATOM      9  O   UNL     1     167.655 176.078 181.749  1.00  0.00    -0.550 OA
ENDBRANCH   6   7
ENDBRANCH   5   6
ENDBRANCH   4   5
ENDBRANCH   3   4
ENDBRANCH   2   3
ENDBRANCH   1   2
BRANCH   1  10
ATOM     10  C   UNL     1     175.538 177.587 179.725  1.00  0.00     0.000 C 
BRANCH  10  11
ATOM     11  C   UNL     1     176.893 177.188 180.343  1.00  0.00    -0.000 C 
BRANCH  11  12
ATOM     12  C   UNL     1     177.000 177.401 181.866  1.00  0.00    -0.000 C 
BRANCH  12  13
ATOM     13  C   UNL     1     176.667 176.163 182.721  1.00  0.00    -0.000 C 
BRANCH  13  14
ATOM     14  C   UNL     1     176.939 174.808 182.038  1.00  0.00    -0.000 C 
BRANCH  14  15
ATOM     15  C   UNL     1     175.788 173.787 182.130  1.00  0.00    -0.000 C 
BRANCH  15  16
ATOM     16  C   UNL     1     174.548 174.276 182.900  1.00  0.00    -0.003 C 
ATOM     17  C   UNL     1     173.255 173.611 182.430  1.00  0.00     0.004 C 
ENDBRANCH  15  16
ENDBRANCH  14  15
ENDBRANCH  13  14
ENDBRANCH  12  13
ENDBRANCH  11  12
ENDBRANCH  10  11
ENDBRANCH   1  10
TORSDOF 13
ENDMDL
MODEL 5
REMARK VINA RESULT:    -3.671      3.329      4.937
REMARK INTER + INTRA:          -8.887
REMARK INTER:                  -6.865
REMARK INTRA:                  -2.022
REMARK UNBOUND:                -2.426
REMARK SMILES CCCCCCCCCCCCCCC(=O)[O-]
REMARK SMILES IDX 9 1 10 2 11 3 12 4 13 5 14 6 15 7 16 8 17 9 8 10 7 11 6 12
REMARK SMILES IDX 5 13 4 14 3 15 2 16 1 17
REMARK H PARENT
REMARK Flexibility Score: inf
ROOT
ATOM      1  C   UNL     1     175.112 177.576 179.177  1.00  0.00     0.000 C 
ENDROOT
BRANCH   1   2
ATOM      2  C   UNL     1     174.182 176.404 178.815  1.00  0.00     0.000 C 
BRANCH   2   3
ATOM      3  C   UNL     1     174.934 175.213 178.198  1.00  0.00     0.000 C 
BRANCH   3   4
ATOM      4  C   UNL     1     174.769 173.923 179.019  1.00  0.00     0.000 C 
BRANCH   4   5
ATOM      5  C   UNL     1     176.038 173.557 179.810  1.00  0.00     0.006 C 
BRANCH   5   6
ATOM      6  C   UNL     1     175.919 172.187 180.491  1.00  0.00     0.053 C 
BRANCH   6   7
ATOM      7  C   UNL     1     177.057 171.934 181.430  1.00  0.00     0.041 C 
ATOM      8  O   UNL     1     177.891 172.845 181.677  1.00  0.00    -0.550 OA
ATOM      9  O   UNL     1     177.177 170.702 182.062  1.00  0.00    -0.550 OA
ENDBRANCH   6   7
ENDBRANCH   5   6
ENDBRANCH   4   5
ENDBRANCH   3   4
ENDBRANCH   2   3
ENDBRANCH   1   2
BRANCH   1  10
ATOM     10  C   UNL     1     176.596 177.200 179.370  1.00  0.00     0.000 C 
BRANCH  10  11
ATOM     11  C   UNL     1     177.370 178.084 180.367  1.00  0.00    -0.000 C 
BRANCH  11  12
ATOM     12  C   UNL     1     177.111 177.767 181.853  1.00  0.00    -0.000 C 
BRANCH  12  13
ATOM     13  C   UNL     1     177.003 176.267 182.188  1.00  0.00    -0.000 C 
BRANCH  13  14
ATOM     14  C   UNL     1     175.626 175.813 182.709  1.00  0.00    -0.000 C 
BRANCH  14  15
ATOM     15  C   UNL     1     174.554 176.919 182.775  1.00  0.00    -0.000 C 
BRANCH  15  16
ATOM     16  C   UNL     1     173.137 176.473 182.372  1.00  0.00    -0.003 C 
ATOM     17  C   UNL     1     172.133 177.625 182.357  1.00  0.00     0.004 C 
ENDBRANCH  15  16
ENDBRANCH  14  15
ENDBRANCH  13  14
ENDBRANCH  12  13
ENDBRANCH  11  12
ENDBRANCH  10  11
ENDBRANCH   1  10
TORSDOF 13
ENDMDL
MODEL 6
REMARK VINA RESULT:    -3.641      1.331      2.877
REMARK INTER + INTRA:          -8.834
REMARK INTER:                  -6.883
REMARK INTRA:                  -1.951
REMARK UNBOUND:                -2.426
REMARK SMILES CCCCCCCCCCCCCCC(=O)[O-]
REMARK SMILES IDX 9 1 10 2 11 3 12 4 13 5 14 6 15 7 16 8 17 9 8 10 7 11 6 12
REMARK SMILES IDX 5 13 4 14 3 15 2 16 1 17
REMARK H PARENT
REMARK Flexibility Score: inf
ROOT
ATOM      1  C   UNL     1     177.263 177.802 181.502  1.00  0.00     0.000 C 
ENDROOT
BRANCH   1   2
ATOM      2  C   UNL     1     176.971 176.568 182.375  1.00  0.00     0.000 C 
BRANCH   2   3
ATOM      3  C   UNL     1     175.697 176.723 183.222  1.00  0.00     0.000 C 
BRANCH   3   4
ATOM      4  C   UNL     1     174.478 176.037 182.582  1.00  0.00     0.000 C 
BRANCH   4   5
ATOM      5  C   UNL     1     173.296 177.001 182.373  1.00  0.00     0.006 C 
BRANCH   5   6
ATOM      6  C   UNL     1     172.149 176.347 181.592  1.00  0.00     0.053 C 
BRANCH   6   7
ATOM      7  C   UNL     1     171.398 177.347 180.769  1.00  0.00     0.041 C 
ATOM      8  O   UNL     1     170.276 177.770 181.152  1.00  0.00    -0.550 OA
ATOM      9  O   UNL     1     171.954 177.841 179.595  1.00  0.00    -0.550 OA
ENDBRANCH   6   7
ENDBRANCH   5   6
ENDBRANCH   4   5
ENDBRANCH   3   4
ENDBRANCH   2   3
ENDBRANCH   1   2
BRANCH   1  10
ATOM     10  C   UNL     1     177.081 177.590 179.985  1.00  0.00     0.000 C 
BRANCH  10  11
ATOM     11  C   UNL     1     175.627 177.694 179.482  1.00  0.00    -0.000 C 
BRANCH  11  12
ATOM     12  C   UNL     1     175.027 176.376 178.954  1.00  0.00    -0.000 C 
BRANCH  12  13
ATOM     13  C   UNL     1     175.932 175.140 179.115  1.00  0.00    -0.000 C 
BRANCH  13  14
ATOM     14  C   UNL     1     175.265 173.927 179.793  1.00  0.00    -0.000 C 
BRANCH  14  15
ATOM     15  C   UNL     1     176.173 172.693 179.965  1.00  0.00    -0.000 C 
BRANCH  15  16
ATOM     16  C   UNL     1     176.633 172.423 181.409  1.00  0.00    -0.003 C 
ATOM     17  C   UNL     1     177.785 173.328 181.845  1.00  0.00     0.004 C 
ENDBRANCH  15  16
ENDBRANCH  14  15
ENDBRANCH  13  14
ENDBRANCH  12  13
ENDBRANCH  11  12
ENDBRANCH  10  11
ENDBRANCH   1  10
TORSDOF 13
ENDMDL
MODEL 7
REMARK VINA RESULT:    -3.624      3.207      5.489
REMARK INTER + INTRA:          -8.804
REMARK INTER:                  -6.842
REMARK INTRA:                  -1.962
REMARK UNBOUND:                -2.426
REMARK SMILES CCCCCCCCCCCCCCC(=O)[O-]
REMARK SMILES IDX 9 1 10 2 11 3 12 4 13 5 14 6 15 7 16 8 17 9 8 10 7 11 6 12
REMARK SMILES IDX 5 13 4 14 3 15 2 16 1 17
REMARK H PARENT
REMARK Flexibility Score: inf
ROOT
ATOM      1  C   UNL     1     177.098 177.357 182.532  1.00  0.00     0.000 C 
ENDROOT
BRANCH   1   2
ATOM      2  C   UNL     1     175.838 176.714 183.138  1.00  0.00     0.000 C 
BRANCH   2   3
ATOM      3  C   UNL     1     176.033 175.229 183.486  1.00  0.00     0.000 C 
BRANCH   3   4
ATOM      4  C   UNL     1     174.838 174.362 183.058  1.00  0.00     0.000 C 
BRANCH   4   5
ATOM      5  C   UNL     1     175.128 173.533 181.794  1.00  0.00     0.006 C 
BRANCH   5   6
ATOM      6  C   UNL     1     176.575 173.023 181.757  1.00  0.00     0.053 C 
BRANCH   6   7
ATOM      7  C   UNL     1     176.665 171.654 181.155  1.00  0.00     0.041 C 
ATOM      8  O   UNL     1     176.251 171.448 179.984  1.00  0.00    -0.550 OA
ATOM      9  O   UNL     1     177.240 170.614 181.876  1.00  0.00    -0.550 OA
ENDBRANCH   6   7
ENDBRANCH   5   6
ENDBRANCH   4   5
ENDBRANCH   3   4
ENDBRANCH   2   3
ENDBRANCH   1   2
BRANCH   1  10
ATOM     10  C   UNL     1     177.025 177.641 181.017  1.00  0.00     0.000 C 
BRANCH  10  11
ATOM     11  C   UNL     1     176.746 176.408 180.134  1.00  0.00    -0.000 C 
BRANCH  11  12
ATOM     12  C   UNL     1     175.765 176.652 178.970  1.00  0.00    -0.000 C 
BRANCH  12  13
ATOM     13  C   UNL     1     174.456 177.364 179.361  1.00  0.00    -0.000 C 
BRANCH  13  14
ATOM     14  C   UNL     1     173.516 176.546 180.268  1.00  0.00    -0.000 C 
BRANCH  14  15
ATOM     15  C   UNL     1     172.763 177.365 181.336  1.00  0.00    -0.000 C 
BRANCH  15  16
ATOM     16  C   UNL     1     172.083 176.527 182.434  1.00  0.00    -0.003 C 
ATOM     17  C   UNL     1     170.647 176.968 182.716  1.00  0.00     0.004 C 
ENDBRANCH  15  16
ENDBRANCH  14  15
ENDBRANCH  13  14
ENDBRANCH  12  13
ENDBRANCH  11  12
ENDBRANCH  10  11
ENDBRANCH   1  10
TORSDOF 13
ENDMDL
MODEL 8
REMARK VINA RESULT:    -3.619      1.738      3.538
REMARK INTER + INTRA:          -8.796
REMARK INTER:                  -7.008
REMARK INTRA:                  -1.788
REMARK UNBOUND:                -2.426
REMARK SMILES CCCCCCCCCCCCCCC(=O)[O-]
REMARK SMILES IDX 9 1 10 2 11 3 12 4 13 5 14 6 15 7 16 8 17 9 8 10 7 11 6 12
REMARK SMILES IDX 5 13 4 14 3 15 2 16 1 17
REMARK H PARENT
REMARK Flexibility Score: inf
ROOT
ATOM      1  C   UNL     1     173.181 175.701 181.723  1.00  0.00     0.000 C 
ENDROOT
BRANCH   1   2
ATOM      2  C   UNL     1     173.342 176.992 182.546  1.00  0.00     0.000 C 
BRANCH   2   3
ATOM      3  C   UNL     1     172.111 177.911 182.461  1.00  0.00     0.000 C 
BRANCH   3   4
ATOM      4  C   UNL     1     170.940 177.258 181.709  1.00  0.00     0.000 C 
BRANCH   4   5
ATOM      5  C   UNL     1     169.723 176.999 182.615  1.00  0.00     0.006 C 
BRANCH   5   6
ATOM      6  C   UNL     1     169.999 175.905 183.654  1.00  0.00     0.053 C 
BRANCH   6   7
ATOM      7  C   UNL     1     169.791 174.535 183.086  1.00  0.00     0.041 C 
ATOM      8  O   UNL     1     170.715 173.681 183.133  1.00  0.00    -0.550 OA
ATOM      9  O   UNL     1     168.563 174.189 182.536  1.00  0.00    -0.550 OA
ENDBRANCH   6   7
ENDBRANCH   5   6
ENDBRANCH   4   5
ENDBRANCH   3   4
ENDBRANCH   2   3
ENDBRANCH   1   2
BRANCH   1  10
ATOM     10  C   UNL     1     174.246 174.617 181.990  1.00  0.00     0.000 C 
BRANCH  10  11
ATOM     11  C   UNL     1     175.119 174.852 183.239  1.00  0.00    -0.000 C 
BRANCH  11  12
ATOM     12  C   UNL     1     176.577 175.255 182.946  1.00  0.00    -0.000 C 
BRANCH  12  13
ATOM     13  C   UNL     1     176.852 176.771 182.983  1.00  0.00    -0.000 C 
BRANCH  13  14
ATOM     14  C   UNL     1     176.976 177.444 181.602  1.00  0.00    -0.000 C 
BRANCH  14  15
ATOM     15  C   UNL     1     177.000 176.476 180.402  1.00  0.00    -0.000 C 
BRANCH  15  16
ATOM     16  C   UNL     1     176.483 177.071 179.080  1.00  0.00    -0.003 C 
ATOM     17  C   UNL     1     175.026 177.525 179.161  1.00  0.00     0.004 C 
ENDBRANCH  15  16
ENDBRANCH  14  15
ENDBRANCH  13  14
ENDBRANCH  12  13
ENDBRANCH  11  12
ENDBRANCH  10  11
ENDBRANCH   1  10
TORSDOF 13
ENDMDL
MODEL 9
REMARK VINA RESULT:    -3.610      2.076      4.788
REMARK INTER + INTRA:          -8.779
REMARK INTER:                  -7.049
REMARK INTRA:                  -1.730
REMARK UNBOUND:                -2.426
REMARK SMILES CCCCCCCCCCCCCCC(=O)[O-]
REMARK SMILES IDX 9 1 10 2 11 3 12 4 13 5 14 6 15 7 16 8 17 9 8 10 7 11 6 12
REMARK SMILES IDX 5 13 4 14 3 15 2 16 1 17
REMARK H PARENT
REMARK Flexibility Score: inf
ROOT
ATOM      1  C   UNL     1     176.622 174.172 182.189  1.00  0.00     0.000 C 
ENDROOT
BRANCH   1   2
ATOM      2  C   UNL     1     177.010 175.086 181.013  1.00  0.00     0.000 C 
BRANCH   2   3
ATOM      3  C   UNL     1     177.028 176.576 181.394  1.00  0.00     0.000 C 
BRANCH   3   4
ATOM      4  C   UNL     1     176.938 177.499 180.167  1.00  0.00     0.000 C 
BRANCH   4   5
ATOM      5  C   UNL     1     176.021 176.936 179.066  1.00  0.00     0.006 C 
BRANCH   5   6
ATOM      6  C   UNL     1     174.597 177.498 179.159  1.00  0.00     0.053 C 
BRANCH   6   7
ATOM      7  C   UNL     1     173.668 176.816 178.202  1.00  0.00     0.041 C 
ATOM      8  O   UNL     1     173.845 176.922 176.960  1.00  0.00    -0.550 OA
ATOM      9  O   UNL     1     172.627 176.032 178.684  1.00  0.00    -0.550 OA
ENDBRANCH   6   7
ENDBRANCH   5   6
ENDBRANCH   4   5
ENDBRANCH   3   4
ENDBRANCH   2   3
ENDBRANCH   1   2
BRANCH   1  10
ATOM     10  C   UNL     1     175.621 174.783 183.191  1.00  0.00     0.000 C 
BRANCH  10  11
ATOM     11  C   UNL     1     174.136 174.497 182.888  1.00  0.00    -0.000 C 
BRANCH  11  12
ATOM     12  C   UNL     1     173.406 175.613 182.113  1.00  0.00    -0.000 C 
BRANCH  12  13
ATOM     13  C   UNL     1     173.635 177.037 182.656  1.00  0.00    -0.000 C 
BRANCH  13  14
ATOM     14  C   UNL     1     172.381 177.934 182.680  1.00  0.00    -0.000 C 
BRANCH  14  15
ATOM     15  C   UNL     1     171.115 177.304 182.065  1.00  0.00    -0.000 C 
BRANCH  15  16
ATOM     16  C   UNL     1     169.993 176.992 183.072  1.00  0.00    -0.003 C 
ATOM     17  C   UNL     1     170.089 175.582 183.652  1.00  0.00     0.004 C 
ENDBRANCH  15  16
ENDBRANCH  14  15
ENDBRANCH  13  14
ENDBRANCH  12  13
ENDBRANCH  11  12
ENDBRANCH  10  11
ENDBRANCH   1  10
TORSDOF 13
ENDMDL
