MODEL 1
REMARK VINA RESULT:    -5.416      0.000      0.000
REMARK INTER + INTRA:          -6.990
REMARK INTER:                  -6.525
REMARK INTRA:                  -0.466
REMARK UNBOUND:                -0.466
REMARK SMILES CCCCc1oc(O)c2ccccc12
REMARK SMILES IDX 4 1 5 2 7 3 6 4 9 5 14 6 10 7 13 8 11 9 12 10 8 11 3 13 2 14
REMARK SMILES IDX 1 15
REMARK H PARENT 8 12
REMARK Flexibility Score: inf
ROOT
ATOM      1  C   UNL     1       9.525 -13.351  -5.167  1.00  0.00     0.076 C 
ENDROOT
BRANCH   1   2
ATOM      2  C   UNL     1       8.185 -13.966  -5.427  1.00  0.00     0.116 A 
ATOM      3  C   UNL     1       6.678 -15.202  -6.323  1.00  0.00     0.290 A 
ATOM      4  O   UNL     1       7.946 -14.843  -6.387  1.00  0.00    -0.430 OA
ATOM      5  C   UNL     1       6.061 -14.544  -5.284  1.00  0.00     0.066 A 
ATOM      6  C   UNL     1       7.021 -13.757  -4.708  1.00  0.00     0.027 A 
ATOM      7  C   UNL     1       4.752 -14.586  -4.807  1.00  0.00     0.016 A 
ATOM      8  C   UNL     1       6.742 -12.950  -3.605  1.00  0.00     0.012 A 
ATOM      9  C   UNL     1       4.439 -13.780  -3.695  1.00  0.00     0.001 A 
ATOM     10  C   UNL     1       5.429 -12.967  -3.097  1.00  0.00     0.001 A 
BRANCH   3  11
ATOM     11  O   UNL     1       6.075 -16.113  -7.182  1.00  0.00    -0.480 OA
ATOM     12  H   UNL     1       6.392 -16.202  -8.139  1.00  0.00     0.297 HD
ENDBRANCH   3  11
ENDBRANCH   1   2
BRANCH   1  13
ATOM     13  C   UNL     1      10.594 -14.436  -5.013  1.00  0.00     0.008 C 
BRANCH  13  14
ATOM     14  C   UNL     1      10.242 -15.396  -3.871  1.00  0.00    -0.003 C 
ATOM     15  C   UNL     1      10.149 -14.656  -2.540  1.00  0.00     0.004 C 
ENDBRANCH  13  14
ENDBRANCH   1  13
TORSDOF 4
ENDMDL
MODEL 2
REMARK VINA RESULT:    -5.265      1.351      4.336
REMARK INTER + INTRA:          -6.808
REMARK INTER:                  -6.449
REMARK INTRA:                  -0.359
REMARK UNBOUND:                -0.466
REMARK SMILES CCCCc1oc(O)c2ccccc12
REMARK SMILES IDX 4 1 5 2 7 3 6 4 9 5 14 6 10 7 13 8 11 9 12 10 8 11 3 13 2 14
REMARK SMILES IDX 1 15
REMARK H PARENT 8 12
REMARK Flexibility Score: inf
ROOT
ATOM      1  C   UNL     1       5.660 -13.063  -4.779  1.00  0.00     0.076 C 
ENDROOT
BRANCH   1   2
ATOM      2  C   UNL     1       6.689 -14.137  -4.943  1.00  0.00     0.116 A 
ATOM      3  C   UNL     1       7.680 -15.872  -5.723  1.00  0.00     0.290 A 
ATOM      4  O   UNL     1       6.600 -15.120  -5.822  1.00  0.00    -0.430 OA
ATOM      5  C   UNL     1       8.511 -15.366  -4.751  1.00  0.00     0.066 A 
ATOM      6  C   UNL     1       7.883 -14.256  -4.253  1.00  0.00     0.027 A 
ATOM      7  C   UNL     1       9.754 -15.786  -4.283  1.00  0.00     0.016 A 
ATOM      8  C   UNL     1       8.456 -13.480  -3.245  1.00  0.00     0.012 A 
ATOM      9  C   UNL     1      10.357 -15.025  -3.264  1.00  0.00     0.001 A 
ATOM     10  C   UNL     1       9.711 -13.877  -2.748  1.00  0.00     0.001 A 
BRANCH   3  11
ATOM     11  O   UNL     1       7.926 -17.000  -6.497  1.00  0.00    -0.480 OA
ATOM     12  H   UNL     1       8.165 -16.907  -7.477  1.00  0.00     0.297 HD
ENDBRANCH   3  11
ENDBRANCH   1   2
BRANCH   1  13
ATOM     13  C   UNL     1       4.675 -13.428  -3.663  1.00  0.00     0.008 C 
BRANCH  13  14
ATOM     14  C   UNL     1       3.608 -14.403  -4.171  1.00  0.00    -0.003 C 
ATOM     15  C   UNL     1       3.068 -13.969  -5.531  1.00  0.00     0.004 C 
ENDBRANCH  13  14
ENDBRANCH   1  13
TORSDOF 4
ENDMDL
MODEL 3
REMARK VINA RESULT:    -5.249     10.224     11.611
REMARK INTER + INTRA:          -6.789
REMARK INTER:                  -6.379
REMARK INTRA:                  -0.410
REMARK UNBOUND:                -0.466
REMARK SMILES CCCCc1oc(O)c2ccccc12
REMARK SMILES IDX 4 1 5 2 7 3 6 4 9 5 14 6 10 7 13 8 11 9 12 10 8 11 3 13 2 14
REMARK SMILES IDX 1 15
REMARK H PARENT 8 12
REMARK Flexibility Score: inf
ROOT
ATOM      1  C   UNL     1       2.007 -24.259   0.611  1.00  0.00     0.076 C 
ENDROOT
BRANCH   1   2
ATOM      2  C   UNL     1       2.663 -23.415  -0.437  1.00  0.00     0.116 A 
ATOM      3  C   UNL     1       4.124 -22.170  -1.394  1.00  0.00     0.290 A 
ATOM      4  O   UNL     1       3.823 -22.801  -0.275  1.00  0.00    -0.430 OA
ATOM      5  C   UNL     1       3.134 -22.377  -2.326  1.00  0.00     0.066 A 
ATOM      6  C   UNL     1       2.201 -23.175  -1.719  1.00  0.00     0.027 A 
ATOM      7  C   UNL     1       2.991 -21.939  -3.641  1.00  0.00     0.016 A 
ATOM      8  C   UNL     1       1.052 -23.596  -2.388  1.00  0.00     0.012 A 
ATOM      9  C   UNL     1       1.840 -22.346  -4.342  1.00  0.00     0.001 A 
ATOM     10  C   UNL     1       0.875 -23.171  -3.718  1.00  0.00     0.001 A 
BRANCH   3  11
ATOM     11  O   UNL     1       5.277 -21.417  -1.586  1.00  0.00    -0.480 OA
ATOM     12  H   UNL     1       6.187 -21.816  -1.396  1.00  0.00     0.297 HD
ENDBRANCH   3  11
ENDBRANCH   1   2
BRANCH   1  13
ATOM     13  C   UNL     1       2.628 -25.658   0.641  1.00  0.00     0.008 C 
BRANCH  13  14
ATOM     14  C   UNL     1       1.743 -26.668  -0.097  1.00  0.00    -0.003 C 
ATOM     15  C   UNL     1       2.586 -27.715  -0.820  1.00  0.00     0.004 C 
ENDBRANCH  13  14
ENDBRANCH   1  13
TORSDOF 4
ENDMDL
MODEL 4
REMARK VINA RESULT:    -5.075      1.969      4.786
REMARK INTER + INTRA:          -6.579
REMARK INTER:                  -6.132
REMARK INTRA:                  -0.447
REMARK UNBOUND:                -0.466
REMARK SMILES CCCCc1oc(O)c2ccccc12
REMARK SMILES IDX 4 1 5 2 7 3 6 4 9 5 14 6 10 7 13 8 11 9 12 10 8 11 3 13 2 14
REMARK SMILES IDX 1 15
REMARK H PARENT 8 12
REMARK Flexibility Score: inf
ROOT
ATOM      1  C   UNL     1       6.050 -14.320  -3.792  1.00  0.00     0.076 C 
ENDROOT
BRANCH   1   2
ATOM      2  C   UNL     1       7.345 -14.720  -4.429  1.00  0.00     0.116 A 
ATOM      3  C   UNL     1       9.340 -15.481  -4.625  1.00  0.00     0.290 A 
ATOM      4  O   UNL     1       8.377 -15.210  -3.765  1.00  0.00    -0.430 OA
ATOM      5  C   UNL     1       8.930 -15.163  -5.899  1.00  0.00     0.066 A 
ATOM      6  C   UNL     1       7.654 -14.680  -5.777  1.00  0.00     0.027 A 
ATOM      7  C   UNL     1       9.567 -15.269  -7.133  1.00  0.00     0.016 A 
ATOM      8  C   UNL     1       6.919 -14.266  -6.889  1.00  0.00     0.012 A 
ATOM      9  C   UNL     1       8.851 -14.857  -8.273  1.00  0.00     0.001 A 
ATOM     10  C   UNL     1       7.534 -14.359  -8.152  1.00  0.00     0.001 A 
BRANCH   3  11
ATOM     11  O   UNL     1      10.578 -16.011  -4.278  1.00  0.00    -0.480 OA
ATOM     12  H   UNL     1      11.021 -15.749  -3.407  1.00  0.00     0.297 HD
ENDBRANCH   3  11
ENDBRANCH   1   2
BRANCH   1  13
ATOM     13  C   UNL     1       5.026 -15.454  -3.900  1.00  0.00     0.008 C 
BRANCH  13  14
ATOM     14  C   UNL     1       3.617 -14.900  -4.137  1.00  0.00    -0.003 C 
ATOM     15  C   UNL     1       3.486 -14.310  -5.538  1.00  0.00     0.004 C 
ENDBRANCH  13  14
ENDBRANCH   1  13
TORSDOF 4
ENDMDL
MODEL 5
REMARK VINA RESULT:    -4.984      2.526      3.976
REMARK INTER + INTRA:          -6.469
REMARK INTER:                  -5.946
REMARK INTRA:                  -0.523
REMARK UNBOUND:                -0.466
REMARK SMILES CCCCc1oc(O)c2ccccc12
REMARK SMILES IDX 4 1 5 2 7 3 6 4 9 5 14 6 10 7 13 8 11 9 12 10 8 11 3 13 2 14
REMARK SMILES IDX 1 15
REMARK H PARENT 8 12
REMARK Flexibility Score: inf
ROOT
ATOM      1  C   UNL     1      11.006 -14.770  -6.800  1.00  0.00     0.076 C 
ENDROOT
BRANCH   1   2
ATOM      2  C   UNL     1      10.204 -14.636  -5.543  1.00  0.00     0.116 A 
ATOM      3  C   UNL     1       9.739 -14.252  -3.485  1.00  0.00     0.290 A 
ATOM      4  O   UNL     1      10.717 -14.310  -4.369  1.00  0.00    -0.430 OA
ATOM      5  C   UNL     1       8.542 -14.546  -4.095  1.00  0.00     0.066 A 
ATOM      6  C   UNL     1       8.835 -14.788  -5.410  1.00  0.00     0.027 A 
ATOM      7  C   UNL     1       7.240 -14.608  -3.603  1.00  0.00     0.016 A 
ATOM      8  C   UNL     1       7.841 -15.110  -6.335  1.00  0.00     0.012 A 
ATOM      9  C   UNL     1       6.215 -14.933  -4.512  1.00  0.00     0.001 A 
ATOM     10  C   UNL     1       6.514 -15.182  -5.871  1.00  0.00     0.001 A 
BRANCH   3  11
ATOM     11  O   UNL     1       9.912 -13.937  -2.141  1.00  0.00    -0.480 OA
ATOM     12  H   UNL     1      10.750 -13.464  -1.830  1.00  0.00     0.297 HD
ENDBRANCH   3  11
ENDBRANCH   1   2
BRANCH   1  13
ATOM     13  C   UNL     1      10.940 -13.478  -7.620  1.00  0.00     0.008 C 
BRANCH  13  14
ATOM     14  C   UNL     1      10.184 -13.700  -8.935  1.00  0.00    -0.003 C 
ATOM     15  C   UNL     1      10.141 -15.180  -9.301  1.00  0.00     0.004 C 
ENDBRANCH  13  14
ENDBRANCH   1  13
TORSDOF 4
ENDMDL
MODEL 6
REMARK VINA RESULT:    -4.872      2.223      4.464
REMARK INTER + INTRA:          -6.335
REMARK INTER:                  -5.898
REMARK INTRA:                  -0.437
REMARK UNBOUND:                -0.466
REMARK SMILES CCCCc1oc(O)c2ccccc12
REMARK SMILES IDX 4 1 5 2 7 3 6 4 9 5 14 6 10 7 13 8 11 9 12 10 8 11 3 13 2 14
REMARK SMILES IDX 1 15
REMARK H PARENT 8 12
REMARK Flexibility Score: inf
ROOT
ATOM      1  C   UNL     1       7.092 -15.376  -7.597  1.00  0.00     0.076 C 
ENDROOT
BRANCH   1   2
ATOM      2  C   UNL     1       7.239 -15.097  -6.133  1.00  0.00     0.116 A 
ATOM      3  C   UNL     1       6.704 -14.815  -4.076  1.00  0.00     0.290 A 
ATOM      4  O   UNL     1       6.228 -15.057  -5.282  1.00  0.00    -0.430 OA
ATOM      5  C   UNL     1       8.074 -14.695  -4.131  1.00  0.00     0.066 A 
ATOM      6  C   UNL     1       8.418 -14.878  -5.444  1.00  0.00     0.027 A 
ATOM      7  C   UNL     1       9.025 -14.452  -3.142  1.00  0.00     0.016 A 
ATOM      8  C   UNL     1       9.748 -14.833  -5.865  1.00  0.00     0.012 A 
ATOM      9  C   UNL     1      10.375 -14.399  -3.537  1.00  0.00     0.001 A 
ATOM     10  C   UNL     1      10.734 -14.588  -4.892  1.00  0.00     0.001 A 
BRANCH   3  11
ATOM     11  O   UNL     1       5.924 -14.704  -2.930  1.00  0.00    -0.480 OA
ATOM     12  H   UNL     1       5.962 -13.867  -2.363  1.00  0.00     0.297 HD
ENDBRANCH   3  11
ENDBRANCH   1   2
BRANCH   1  13
ATOM     13  C   UNL     1       7.199 -14.079  -8.404  1.00  0.00     0.008 C 
BRANCH  13  14
ATOM     14  C   UNL     1       7.916 -14.320  -9.738  1.00  0.00    -0.003 C 
ATOM     15  C   UNL     1       9.375 -14.707  -9.516  1.00  0.00     0.004 C 
ENDBRANCH  13  14
ENDBRANCH   1  13
TORSDOF 4
ENDMDL
MODEL 7
REMARK VINA RESULT:    -4.768      2.655      4.548
REMARK INTER + INTRA:          -6.210
REMARK INTER:                  -5.804
REMARK INTRA:                  -0.406
REMARK UNBOUND:                -0.466
REMARK SMILES CCCCc1oc(O)c2ccccc12
REMARK SMILES IDX 4 1 5 2 7 3 6 4 9 5 14 6 10 7 13 8 11 9 12 10 8 11 3 13 2 14
REMARK SMILES IDX 1 15
REMARK H PARENT 8 12
REMARK Flexibility Score: inf
ROOT
ATOM      1  C   UNL     1       8.576 -15.884  -5.167  1.00  0.00     0.076 C 
ENDROOT
BRANCH   1   2
ATOM      2  C   UNL     1       8.442 -15.394  -6.575  1.00  0.00     0.116 A 
ATOM      3  C   UNL     1       7.525 -14.811  -8.424  1.00  0.00     0.290 A 
ATOM      4  O   UNL     1       7.293 -15.301  -7.221  1.00  0.00    -0.430 OA
ATOM      5  C   UNL     1       8.870 -14.568  -8.576  1.00  0.00     0.066 A 
ATOM      6  C   UNL     1       9.458 -14.936  -7.395  1.00  0.00     0.027 A 
ATOM      7  C   UNL     1       9.606 -14.051  -9.640  1.00  0.00     0.016 A 
ATOM      8  C   UNL     1      10.833 -14.812  -7.192  1.00  0.00     0.012 A 
ATOM      9  C   UNL     1      10.997 -13.917  -9.466  1.00  0.00     0.001 A 
ATOM     10  C   UNL     1      11.607 -14.295  -8.248  1.00  0.00     0.001 A 
BRANCH   3  11
ATOM     11  O   UNL     1       6.544 -14.578  -9.381  1.00  0.00    -0.480 OA
ATOM     12  H   UNL     1       6.530 -15.112 -10.240  1.00  0.00     0.297 HD
ENDBRANCH   3  11
ENDBRANCH   1   2
BRANCH   1  13
ATOM     13  C   UNL     1       8.275 -14.757  -4.175  1.00  0.00     0.008 C 
BRANCH  13  14
ATOM     14  C   UNL     1       9.565 -14.062  -3.725  1.00  0.00    -0.003 C 
ATOM     15  C   UNL     1      10.188 -14.779  -2.530  1.00  0.00     0.004 C 
ENDBRANCH  13  14
ENDBRANCH   1  13
TORSDOF 4
ENDMDL
MODEL 8
REMARK VINA RESULT:    -4.561      2.049      4.907
REMARK INTER + INTRA:          -5.960
REMARK INTER:                  -5.464
REMARK INTRA:                  -0.497
REMARK UNBOUND:                -0.466
REMARK SMILES CCCCc1oc(O)c2ccccc12
REMARK SMILES IDX 4 1 5 2 7 3 6 4 9 5 14 6 10 7 13 8 11 9 12 10 8 11 3 13 2 14
REMARK SMILES IDX 1 15
REMARK H PARENT 8 12
REMARK Flexibility Score: inf
ROOT
ATOM      1  C   UNL     1       6.141 -12.875  -4.309  1.00  0.00     0.076 C 
ENDROOT
BRANCH   1   2
ATOM      2  C   UNL     1       7.539 -13.370  -4.106  1.00  0.00     0.116 A 
ATOM      3  C   UNL     1       9.336 -13.966  -3.098  1.00  0.00     0.290 A 
ATOM      4  O   UNL     1       8.124 -13.475  -2.925  1.00  0.00    -0.430 OA
ATOM      5  C   UNL     1       9.557 -14.198  -4.436  1.00  0.00     0.066 A 
ATOM      6  C   UNL     1       8.410 -13.821  -5.082  1.00  0.00     0.027 A 
ATOM      7  C   UNL     1      10.658 -14.710  -5.120  1.00  0.00     0.016 A 
ATOM      8  C   UNL     1       8.279 -13.931  -6.467  1.00  0.00     0.012 A 
ATOM      9  C   UNL     1      10.557 -14.831  -6.519  1.00  0.00     0.001 A 
ATOM     10  C   UNL     1       9.373 -14.444  -7.188  1.00  0.00     0.001 A 
BRANCH   3  11
ATOM     11  O   UNL     1      10.239 -14.211  -2.071  1.00  0.00    -0.480 OA
ATOM     12  H   UNL     1      10.953 -14.921  -2.175  1.00  0.00     0.297 HD
ENDBRANCH   3  11
ENDBRANCH   1   2
BRANCH   1  13
ATOM     13  C   UNL     1       5.161 -13.655  -3.426  1.00  0.00     0.008 C 
BRANCH  13  14
ATOM     14  C   UNL     1       5.012 -15.099  -3.916  1.00  0.00    -0.003 C 
ATOM     15  C   UNL     1       4.555 -15.143  -5.371  1.00  0.00     0.004 C 
ENDBRANCH  13  14
ENDBRANCH   1  13
TORSDOF 4
ENDMDL
