MODEL 1
REMARK VINA RESULT:    -2.584      0.000      0.000
REMARK INTER + INTRA:          -6.542
REMARK INTER:                  -5.001
REMARK INTRA:                  -1.541
REMARK UNBOUND:                -1.541
REMARK SMILES CCCCCCCCCCCCCCCCCC(=O)[O-]
REMARK SMILES IDX 10 1 11 2 12 3 13 4 14 5 15 6 16 7 17 8 18 9 19 10 20 11
REMARK SMILES IDX 9 12 8 13 7 14 6 15 5 16 4 17 3 18 2 19 1 20
REMARK H PARENT
REMARK Flexibility Score: inf
ROOT
ATOM      1  C   UNL     1      -6.101 -22.538  18.496  1.00  0.00     0.000 C 
ENDROOT
BRANCH   1   2
ATOM      2  C   UNL     1      -7.074 -23.124  19.533  1.00  0.00     0.000 C 
BRANCH   2   3
ATOM      3  C   UNL     1      -8.546 -22.976  19.114  1.00  0.00     0.000 C 
BRANCH   3   4
ATOM      4  C   UNL     1      -9.520 -23.125  20.296  1.00  0.00     0.000 C 
BRANCH   4   5
ATOM      5  C   UNL     1      -8.878 -22.748  21.640  1.00  0.00     0.000 C 
BRANCH   5   6
ATOM      6  C   UNL     1      -9.793 -21.866  22.507  1.00  0.00     0.000 C 
BRANCH   6   7
ATOM      7  C   UNL     1      -9.209 -20.464  22.744  1.00  0.00     0.006 C 
BRANCH   7   8
ATOM      8  C   UNL     1     -10.249 -19.352  22.554  1.00  0.00     0.053 C 
BRANCH   8   9
ATOM      9  C   UNL     1      -9.582 -18.080  22.137  1.00  0.00     0.041 C 
ATOM     10  O   UNL     1      -8.724 -17.541  22.884  1.00  0.00    -0.550 OA
ATOM     11  O   UNL     1      -9.941 -17.464  20.945  1.00  0.00    -0.550 OA
ENDBRANCH   8   9
ENDBRANCH   7   8
ENDBRANCH   6   7
ENDBRANCH   5   6
ENDBRANCH   4   5
ENDBRANCH   3   4
ENDBRANCH   2   3
ENDBRANCH   1   2
BRANCH   1  12
ATOM     12  C   UNL     1      -6.644 -22.614  17.056  1.00  0.00     0.000 C 
BRANCH  12  13
ATOM     13  C   UNL     1      -5.987 -21.645  16.055  1.00  0.00    -0.000 C 
BRANCH  13  14
ATOM     14  C   UNL     1      -7.001 -21.004  15.091  1.00  0.00    -0.000 C 
BRANCH  14  15
ATOM     15  C   UNL     1      -8.462 -21.226  15.522  1.00  0.00    -0.000 C 
BRANCH  15  16
ATOM     16  C   UNL     1      -9.516 -20.472  14.684  1.00  0.00    -0.000 C 
BRANCH  16  17
ATOM     17  C   UNL     1     -10.896 -20.316  15.356  1.00  0.00    -0.000 C 
BRANCH  17  18
ATOM     18  C   UNL     1     -11.007 -20.937  16.762  1.00  0.00    -0.000 C 
BRANCH  18  19
ATOM     19  C   UNL     1     -11.026 -19.881  17.878  1.00  0.00    -0.003 C 
ATOM     20  C   UNL     1      -9.875 -20.097  18.858  1.00  0.00     0.004 C 
ENDBRANCH  18  19
ENDBRANCH  17  18
ENDBRANCH  16  17
ENDBRANCH  15  16
ENDBRANCH  14  15
ENDBRANCH  13  14
ENDBRANCH  12  13
ENDBRANCH   1  12
TORSDOF 16
ENDMDL
MODEL 2
REMARK VINA RESULT:    -2.101      1.916      5.960
REMARK INTER + INTRA:          -5.607
REMARK INTER:                  -4.327
REMARK INTRA:                  -1.280
REMARK UNBOUND:                -1.541
REMARK SMILES CCCCCCCCCCCCCCCCCC(=O)[O-]
REMARK SMILES IDX 10 1 11 2 12 3 13 4 14 5 15 6 16 7 17 8 18 9 19 10 20 11
REMARK SMILES IDX 9 12 8 13 7 14 6 15 5 16 4 17 3 18 2 19 1 20
REMARK H PARENT
REMARK Flexibility Score: inf
ROOT
ATOM      1  C   UNL     1      -6.986 -22.291  18.852  1.00  0.00     0.000 C 
ENDROOT
BRANCH   1   2
ATOM      2  C   UNL     1      -6.857 -22.822  17.415  1.00  0.00     0.000 C 
BRANCH   2   3
ATOM      3  C   UNL     1      -6.694 -21.697  16.380  1.00  0.00     0.000 C 
BRANCH   3   4
ATOM      4  C   UNL     1      -7.712 -21.795  15.229  1.00  0.00     0.000 C 
BRANCH   4   5
ATOM      5  C   UNL     1      -8.421 -20.460  14.954  1.00  0.00     0.000 C 
BRANCH   5   6
ATOM      6  C   UNL     1      -9.688 -20.629  14.096  1.00  0.00     0.000 C 
BRANCH   6   7
ATOM      7  C   UNL     1     -10.967 -20.231  14.850  1.00  0.00     0.006 C 
BRANCH   7   8
ATOM      8  C   UNL     1     -10.688 -19.783  16.290  1.00  0.00     0.053 C 
BRANCH   8   9
ATOM      9  C   UNL     1     -10.979 -20.894  17.248  1.00  0.00     0.041 C 
ATOM     10  O   UNL     1     -11.058 -20.661  18.483  1.00  0.00    -0.550 OA
ATOM     11  O   UNL     1     -11.119 -22.195  16.783  1.00  0.00    -0.550 OA
ENDBRANCH   8   9
ENDBRANCH   7   8
ENDBRANCH   6   7
ENDBRANCH   5   6
ENDBRANCH   4   5
ENDBRANCH   3   4
ENDBRANCH   2   3
ENDBRANCH   1   2
BRANCH   1  12
ATOM     12  C   UNL     1      -7.953 -23.125  19.714  1.00  0.00     0.000 C 
BRANCH  12  13
ATOM     13  C   UNL     1      -8.938 -22.309  20.571  1.00  0.00    -0.000 C 
BRANCH  13  14
ATOM     14  C   UNL     1      -8.460 -22.127  22.022  1.00  0.00    -0.000 C 
BRANCH  14  15
ATOM     15  C   UNL     1      -9.574 -21.632  22.963  1.00  0.00    -0.000 C 
BRANCH  15  16
ATOM     16  C   UNL     1     -10.804 -21.021  22.260  1.00  0.00    -0.000 C 
BRANCH  16  17
ATOM     17  C   UNL     1     -10.841 -19.478  22.229  1.00  0.00    -0.000 C 
BRANCH  17  18
ATOM     18  C   UNL     1     -10.022 -18.833  21.095  1.00  0.00    -0.000 C 
BRANCH  18  19
ATOM     19  C   UNL     1      -9.244 -17.591  21.556  1.00  0.00    -0.003 C 
ATOM     20  C   UNL     1      -9.002 -17.622  23.063  1.00  0.00     0.004 C 
ENDBRANCH  18  19
ENDBRANCH  17  18
ENDBRANCH  16  17
ENDBRANCH  15  16
ENDBRANCH  14  15
ENDBRANCH  13  14
ENDBRANCH  12  13
ENDBRANCH   1  12
TORSDOF 16
ENDMDL
MODEL 3
REMARK VINA RESULT:    -2.026      3.871      6.351
REMARK INTER + INTRA:          -5.461
REMARK INTER:                  -4.509
REMARK INTRA:                  -0.952
REMARK UNBOUND:                -1.541
REMARK SMILES CCCCCCCCCCCCCCCCCC(=O)[O-]
REMARK SMILES IDX 10 1 11 2 12 3 13 4 14 5 15 6 16 7 17 8 18 9 19 10 20 11
REMARK SMILES IDX 9 12 8 13 7 14 6 15 5 16 4 17 3 18 2 19 1 20
REMARK H PARENT
REMARK Flexibility Score: inf
ROOT
ATOM      1  C   UNL     1      -5.850 -22.904  18.078  1.00  0.00     0.000 C 
ENDROOT
BRANCH   1   2
ATOM      2  C   UNL     1      -7.251 -22.968  18.709  1.00  0.00     0.000 C 
BRANCH   2   3
ATOM      3  C   UNL     1      -8.185 -21.863  18.190  1.00  0.00     0.000 C 
BRANCH   3   4
ATOM      4  C   UNL     1      -9.402 -21.634  19.105  1.00  0.00     0.000 C 
BRANCH   4   5
ATOM      5  C   UNL     1      -9.461 -22.635  20.269  1.00  0.00     0.000 C 
BRANCH   5   6
ATOM      6  C   UNL     1      -9.820 -21.966  21.608  1.00  0.00     0.000 C 
BRANCH   6   7
ATOM      7  C   UNL     1     -10.624 -20.669  21.422  1.00  0.00     0.006 C 
BRANCH   7   8
ATOM      8  C   UNL     1     -10.120 -19.529  22.315  1.00  0.00     0.053 C 
BRANCH   8   9
ATOM      9  C   UNL     1      -9.691 -18.363  21.483  1.00  0.00     0.041 C 
ATOM     10  O   UNL     1      -9.954 -18.334  20.252  1.00  0.00    -0.550 OA
ATOM     11  O   UNL     1      -8.962 -17.329  22.055  1.00  0.00    -0.550 OA
ENDBRANCH   8   9
ENDBRANCH   7   8
ENDBRANCH   6   7
ENDBRANCH   5   6
ENDBRANCH   4   5
ENDBRANCH   3   4
ENDBRANCH   2   3
ENDBRANCH   1   2
BRANCH   1  12
ATOM     12  C   UNL     1      -5.766 -21.901  16.911  1.00  0.00     0.000 C 
BRANCH  12  13
ATOM     13  C   UNL     1      -4.561 -22.089  15.970  1.00  0.00    -0.000 C 
BRANCH  13  14
ATOM     14  C   UNL     1      -3.550 -23.124  16.493  1.00  0.00    -0.000 C 
BRANCH  14  15
ATOM     15  C   UNL     1      -2.180 -23.031  15.795  1.00  0.00    -0.000 C 
BRANCH  15  16
ATOM     16  C   UNL     1      -1.402 -21.723  16.050  1.00  0.00    -0.000 C 
BRANCH  16  17
ATOM     17  C   UNL     1       0.131 -21.881  16.136  1.00  0.00    -0.000 C 
BRANCH  17  18
ATOM     18  C   UNL     1       0.716 -23.011  15.268  1.00  0.00    -0.000 C 
BRANCH  18  19
ATOM     19  C   UNL     1       1.974 -22.579  14.498  1.00  0.00    -0.003 C 
ATOM     20  C   UNL     1       3.223 -22.713  15.365  1.00  0.00     0.004 C 
ENDBRANCH  18  19
ENDBRANCH  17  18
ENDBRANCH  16  17
ENDBRANCH  15  16
ENDBRANCH  14  15
ENDBRANCH  13  14
ENDBRANCH  12  13
ENDBRANCH   1  12
TORSDOF 16
ENDMDL
MODEL 4
REMARK VINA RESULT:    -1.639      2.152      5.181
REMARK INTER + INTRA:          -4.714
REMARK INTER:                  -4.180
REMARK INTRA:                  -0.534
REMARK UNBOUND:                -1.541
REMARK SMILES CCCCCCCCCCCCCCCCCC(=O)[O-]
REMARK SMILES IDX 10 1 11 2 12 3 13 4 14 5 15 6 16 7 17 8 18 9 19 10 20 11
REMARK SMILES IDX 9 12 8 13 7 14 6 15 5 16 4 17 3 18 2 19 1 20
REMARK H PARENT
REMARK Flexibility Score: inf
ROOT
ATOM      1  C   UNL     1      -9.998 -20.840  18.173  1.00  0.00     0.000 C 
ENDROOT
BRANCH   1   2
ATOM      2  C   UNL     1     -11.124 -20.158  18.969  1.00  0.00     0.000 C 
BRANCH   2   3
ATOM      3  C   UNL     1     -10.976 -18.628  19.008  1.00  0.00     0.000 C 
BRANCH   3   4
ATOM      4  C   UNL     1     -10.976 -18.067  20.442  1.00  0.00     0.000 C 
BRANCH   4   5
ATOM      5  C   UNL     1      -9.566 -18.006  21.050  1.00  0.00     0.000 C 
BRANCH   5   6
ATOM      6  C   UNL     1      -9.586 -17.716  22.562  1.00  0.00     0.000 C 
BRANCH   6   7
ATOM      7  C   UNL     1     -10.444 -18.722  23.344  1.00  0.00     0.006 C 
BRANCH   7   8
ATOM      8  C   UNL     1     -10.699 -20.015  22.561  1.00  0.00     0.053 C 
BRANCH   8   9
ATOM      9  C   UNL     1      -9.823 -21.116  23.071  1.00  0.00     0.041 C 
ATOM     10  O   UNL     1     -10.323 -22.077  23.712  1.00  0.00    -0.550 OA
ATOM     11  O   UNL     1      -8.449 -21.057  22.878  1.00  0.00    -0.550 OA
ENDBRANCH   8   9
ENDBRANCH   7   8
ENDBRANCH   6   7
ENDBRANCH   5   6
ENDBRANCH   4   5
ENDBRANCH   3   4
ENDBRANCH   2   3
ENDBRANCH   1   2
BRANCH   1  12
ATOM     12  C   UNL     1      -9.886 -22.348  18.468  1.00  0.00     0.000 C 
BRANCH  12  13
ATOM     13  C   UNL     1      -9.137 -22.710  19.763  1.00  0.00    -0.000 C 
BRANCH  13  14
ATOM     14  C   UNL     1      -7.666 -23.090  19.516  1.00  0.00    -0.000 C 
BRANCH  14  15
ATOM     15  C   UNL     1      -7.298 -23.121  18.021  1.00  0.00    -0.000 C 
BRANCH  15  16
ATOM     16  C   UNL     1      -6.025 -22.334  17.642  1.00  0.00    -0.000 C 
BRANCH  16  17
ATOM     17  C   UNL     1      -5.455 -22.649  16.243  1.00  0.00    -0.000 C 
BRANCH  17  18
ATOM     18  C   UNL     1      -3.974 -23.071  16.227  1.00  0.00    -0.000 C 
BRANCH  18  19
ATOM     19  C   UNL     1      -3.024 -21.898  15.938  1.00  0.00    -0.003 C 
ATOM     20  C   UNL     1      -1.565 -22.343  16.012  1.00  0.00     0.004 C 
ENDBRANCH  18  19
ENDBRANCH  17  18
ENDBRANCH  16  17
ENDBRANCH  15  16
ENDBRANCH  14  15
ENDBRANCH  13  14
ENDBRANCH  12  13
ENDBRANCH   1  12
TORSDOF 16
ENDMDL
MODEL 5
REMARK VINA RESULT:    -1.585     11.807     14.682
REMARK INTER + INTRA:          -4.608
REMARK INTER:                  -3.595
REMARK INTRA:                  -1.013
REMARK UNBOUND:                -1.541
REMARK SMILES CCCCCCCCCCCCCCCCCC(=O)[O-]
REMARK SMILES IDX 10 1 11 2 12 3 13 4 14 5 15 6 16 7 17 8 18 9 19 10 20 11
REMARK SMILES IDX 9 12 8 13 7 14 6 15 5 16 4 17 3 18 2 19 1 20
REMARK H PARENT
REMARK Flexibility Score: inf
ROOT
ATOM      1  C   UNL     1       4.426 -21.595  16.966  1.00  0.00     0.000 C 
ENDROOT
BRANCH   1   2
ATOM      2  C   UNL     1       5.890 -21.731  17.417  1.00  0.00     0.000 C 
BRANCH   2   3
ATOM      3  C   UNL     1       6.885 -21.240  16.353  1.00  0.00     0.000 C 
BRANCH   3   4
ATOM      4  C   UNL     1       7.981 -22.274  16.041  1.00  0.00     0.000 C 
BRANCH   4   5
ATOM      5  C   UNL     1       7.714 -23.041  14.737  1.00  0.00     0.000 C 
BRANCH   5   6
ATOM      6  C   UNL     1       8.931 -23.049  13.795  1.00  0.00     0.000 C 
BRANCH   6   7
ATOM      7  C   UNL     1       8.634 -22.381  12.443  1.00  0.00     0.006 C 
BRANCH   7   8
ATOM      8  C   UNL     1       7.453 -21.404  12.515  1.00  0.00     0.053 C 
BRANCH   8   9
ATOM      9  C   UNL     1       7.946 -19.992  12.558  1.00  0.00     0.041 C 
ATOM     10  O   UNL     1       7.872 -19.264  11.532  1.00  0.00    -0.550 OA
ATOM     11  O   UNL     1       8.528 -19.493  13.715  1.00  0.00    -0.550 OA
ENDBRANCH   8   9
ENDBRANCH   7   8
ENDBRANCH   6   7
ENDBRANCH   5   6
ENDBRANCH   4   5
ENDBRANCH   3   4
ENDBRANCH   2   3
ENDBRANCH   1   2
BRANCH   1  12
ATOM     12  C   UNL     1       4.143 -22.306  15.628  1.00  0.00     0.000 C 
BRANCH  12  13
ATOM     13  C   UNL     1       2.748 -22.946  15.507  1.00  0.00    -0.000 C 
BRANCH  13  14
ATOM     14  C   UNL     1       1.607 -21.925  15.653  1.00  0.00    -0.000 C 
BRANCH  14  15
ATOM     15  C   UNL     1       0.211 -22.570  15.569  1.00  0.00    -0.000 C 
BRANCH  15  16
ATOM     16  C   UNL     1      -0.908 -21.814  16.316  1.00  0.00    -0.000 C 
BRANCH  16  17
ATOM     17  C   UNL     1      -2.259 -21.744  15.574  1.00  0.00    -0.000 C 
BRANCH  17  18
ATOM     18  C   UNL     1      -3.318 -22.752  16.060  1.00  0.00    -0.000 C 
BRANCH  18  19
ATOM     19  C   UNL     1      -4.689 -22.103  16.304  1.00  0.00    -0.003 C 
ATOM     20  C   UNL     1      -5.444 -22.818  17.422  1.00  0.00     0.004 C 
ENDBRANCH  18  19
ENDBRANCH  17  18
ENDBRANCH  16  17
ENDBRANCH  15  16
ENDBRANCH  14  15
ENDBRANCH  13  14
ENDBRANCH  12  13
ENDBRANCH   1  12
TORSDOF 16
ENDMDL
MODEL 6
REMARK VINA RESULT:    -1.438      9.659     12.286
REMARK INTER + INTRA:          -4.324
REMARK INTER:                  -3.971
REMARK INTRA:                  -0.353
REMARK UNBOUND:                -1.541
REMARK SMILES CCCCCCCCCCCCCCCCCC(=O)[O-]
REMARK SMILES IDX 10 1 11 2 12 3 13 4 14 5 15 6 16 7 17 8 18 9 19 10 20 11
REMARK SMILES IDX 9 12 8 13 7 14 6 15 5 16 4 17 3 18 2 19 1 20
REMARK H PARENT
REMARK Flexibility Score: inf
ROOT
ATOM      1  C   UNL     1      -0.499 -22.440  16.042  1.00  0.00     0.000 C 
ENDROOT
BRANCH   1   2
ATOM      2  C   UNL     1       0.528 -22.965  15.025  1.00  0.00     0.000 C 
BRANCH   2   3
ATOM      3  C   UNL     1       1.856 -22.193  15.073  1.00  0.00     0.000 C 
BRANCH   3   4
ATOM      4  C   UNL     1       3.085 -23.119  15.028  1.00  0.00     0.000 C 
BRANCH   4   5
ATOM      5  C   UNL     1       3.896 -22.961  13.732  1.00  0.00     0.000 C 
BRANCH   5   6
ATOM      6  C   UNL     1       5.409 -23.124  13.957  1.00  0.00     0.000 C 
BRANCH   6   7
ATOM      7  C   UNL     1       6.237 -22.094  13.172  1.00  0.00     0.006 C 
BRANCH   7   8
ATOM      8  C   UNL     1       7.522 -21.689  13.904  1.00  0.00     0.053 C 
BRANCH   8   9
ATOM      9  C   UNL     1       8.166 -20.523  13.222  1.00  0.00     0.041 C 
ATOM     10  O   UNL     1       7.871 -20.245  12.030  1.00  0.00    -0.550 OA
ATOM     11  O   UNL     1       9.124 -19.770  13.888  1.00  0.00    -0.550 OA
ENDBRANCH   8   9
ENDBRANCH   7   8
ENDBRANCH   6   7
ENDBRANCH   5   6
ENDBRANCH   4   5
ENDBRANCH   3   4
ENDBRANCH   2   3
ENDBRANCH   1   2
BRANCH   1  12
ATOM     12  C   UNL     1      -1.873 -23.124  15.913  1.00  0.00     0.000 C 
BRANCH  12  13
ATOM     13  C   UNL     1      -3.088 -22.203  16.132  1.00  0.00    -0.000 C 
BRANCH  13  14
ATOM     14  C   UNL     1      -4.361 -22.976  16.520  1.00  0.00    -0.000 C 
BRANCH  14  15
ATOM     15  C   UNL     1      -5.622 -22.092  16.518  1.00  0.00    -0.000 C 
BRANCH  15  16
ATOM     16  C   UNL     1      -6.960 -22.856  16.429  1.00  0.00    -0.000 C 
BRANCH  16  17
ATOM     17  C   UNL     1      -8.163 -22.150  17.089  1.00  0.00    -0.000 C 
BRANCH  17  18
ATOM     18  C   UNL     1      -8.258 -22.324  18.616  1.00  0.00    -0.000 C 
BRANCH  18  19
ATOM     19  C   UNL     1      -9.355 -21.452  19.247  1.00  0.00    -0.003 C 
ATOM     20  C   UNL     1      -9.649 -21.890  20.680  1.00  0.00     0.004 C 
ENDBRANCH  18  19
ENDBRANCH  17  18
ENDBRANCH  16  17
ENDBRANCH  15  16
ENDBRANCH  14  15
ENDBRANCH  13  14
ENDBRANCH  12  13
ENDBRANCH   1  12
TORSDOF 16
ENDMDL
MODEL 7
REMARK VINA RESULT:    -1.230      8.115     11.028
REMARK INTER + INTRA:          -3.921
REMARK INTER:                  -3.410
REMARK INTRA:                  -0.511
REMARK UNBOUND:                -1.541
REMARK SMILES CCCCCCCCCCCCCCCCCC(=O)[O-]
REMARK SMILES IDX 10 1 11 2 12 3 13 4 14 5 15 6 16 7 17 8 18 9 19 10 20 11
REMARK SMILES IDX 9 12 8 13 7 14 6 15 5 16 4 17 3 18 2 19 1 20
REMARK H PARENT
REMARK Flexibility Score: inf
ROOT
ATOM      1  C   UNL     1      -0.453 -22.213  15.366  1.00  0.00     0.000 C 
ENDROOT
BRANCH   1   2
ATOM      2  C   UNL     1      -1.676 -22.902  15.995  1.00  0.00     0.000 C 
BRANCH   2   3
ATOM      3  C   UNL     1      -2.971 -22.095  15.807  1.00  0.00     0.000 C 
BRANCH   3   4
ATOM      4  C   UNL     1      -4.199 -22.788  16.425  1.00  0.00     0.000 C 
BRANCH   4   5
ATOM      5  C   UNL     1      -5.460 -21.913  16.368  1.00  0.00     0.000 C 
BRANCH   5   6
ATOM      6  C   UNL     1      -6.739 -22.695  16.715  1.00  0.00     0.000 C 
BRANCH   6   7
ATOM      7  C   UNL     1      -7.228 -22.421  18.146  1.00  0.00     0.006 C 
BRANCH   7   8
ATOM      8  C   UNL     1      -8.661 -22.912  18.385  1.00  0.00     0.053 C 
BRANCH   8   9
ATOM      9  C   UNL     1      -9.641 -21.815  18.113  1.00  0.00     0.041 C 
ATOM     10  O   UNL     1      -9.605 -20.753  18.788  1.00  0.00    -0.550 OA
ATOM     11  O   UNL     1     -10.624 -21.984  17.147  1.00  0.00    -0.550 OA
ENDBRANCH   8   9
ENDBRANCH   7   8
ENDBRANCH   6   7
ENDBRANCH   5   6
ENDBRANCH   4   5
ENDBRANCH   3   4
ENDBRANCH   2   3
ENDBRANCH   1   2
BRANCH   1  12
ATOM     12  C   UNL     1       0.806 -23.101  15.378  1.00  0.00     0.000 C 
BRANCH  12  13
ATOM     13  C   UNL     1       2.054 -22.479  14.724  1.00  0.00    -0.000 C 
BRANCH  13  14
ATOM     14  C   UNL     1       2.367 -23.079  13.342  1.00  0.00    -0.000 C 
BRANCH  14  15
ATOM     15  C   UNL     1       3.876 -23.125  13.037  1.00  0.00    -0.000 C 
BRANCH  15  16
ATOM     16  C   UNL     1       4.797 -22.765  14.221  1.00  0.00    -0.000 C 
BRANCH  16  17
ATOM     17  C   UNL     1       6.297 -22.652  13.873  1.00  0.00    -0.000 C 
BRANCH  17  18
ATOM     18  C   UNL     1       6.600 -21.949  12.536  1.00  0.00    -0.000 C 
BRANCH  18  19
ATOM     19  C   UNL     1       7.947 -22.377  11.932  1.00  0.00    -0.003 C 
ATOM     20  C   UNL     1       8.184 -21.700  10.584  1.00  0.00     0.004 C 
ENDBRANCH  18  19
ENDBRANCH  17  18
ENDBRANCH  16  17
ENDBRANCH  15  16
ENDBRANCH  14  15
ENDBRANCH  13  14
ENDBRANCH  12  13
ENDBRANCH   1  12
TORSDOF 16
ENDMDL
MODEL 8
REMARK VINA RESULT:    -0.890      4.662      7.294
REMARK INTER + INTRA:          -3.264
REMARK INTER:                  -2.983
REMARK INTRA:                  -0.281
REMARK UNBOUND:                -1.541
REMARK SMILES CCCCCCCCCCCCCCCCCC(=O)[O-]
REMARK SMILES IDX 10 1 11 2 12 3 13 4 14 5 15 6 16 7 17 8 18 9 19 10 20 11
REMARK SMILES IDX 9 12 8 13 7 14 6 15 5 16 4 17 3 18 2 19 1 20
REMARK H PARENT
REMARK Flexibility Score: inf
ROOT
ATOM      1  C   UNL     1      -5.300 -22.768  17.221  1.00  0.00     0.000 C 
ENDROOT
BRANCH   1   2
ATOM      2  C   UNL     1      -6.779 -23.125  17.442  1.00  0.00     0.000 C 
BRANCH   2   3
ATOM      3  C   UNL     1      -7.522 -22.074  18.283  1.00  0.00     0.000 C 
BRANCH   3   4
ATOM      4  C   UNL     1      -8.710 -21.444  17.535  1.00  0.00     0.000 C 
BRANCH   4   5
ATOM      5  C   UNL     1     -10.015 -21.504  18.344  1.00  0.00     0.000 C 
BRANCH   5   6
ATOM      6  C   UNL     1     -10.095 -22.748  19.247  1.00  0.00     0.000 C 
BRANCH   6   7
ATOM      7  C   UNL     1      -9.474 -22.511  20.633  1.00  0.00     0.006 C 
BRANCH   7   8
ATOM      8  C   UNL     1     -10.497 -22.008  21.659  1.00  0.00     0.053 C 
BRANCH   8   9
ATOM      9  C   UNL     1      -9.874 -20.990  22.562  1.00  0.00     0.041 C 
ATOM     10  O   UNL     1     -10.435 -19.878  22.745  1.00  0.00    -0.550 OA
ATOM     11  O   UNL     1      -8.651 -21.251  23.165  1.00  0.00    -0.550 OA
ENDBRANCH   8   9
ENDBRANCH   7   8
ENDBRANCH   6   7
ENDBRANCH   5   6
ENDBRANCH   4   5
ENDBRANCH   3   4
ENDBRANCH   2   3
ENDBRANCH   1   2
BRANCH   1  12
ATOM     12  C   UNL     1      -5.109 -21.577  16.262  1.00  0.00     0.000 C 
BRANCH  12  13
ATOM     13  C   UNL     1      -3.865 -21.656  15.357  1.00  0.00    -0.000 C 
BRANCH  13  14
ATOM     14  C   UNL     1      -2.707 -22.440  15.999  1.00  0.00    -0.000 C 
BRANCH  14  15
ATOM     15  C   UNL     1      -1.360 -21.701  15.906  1.00  0.00    -0.000 C 
BRANCH  15  16
ATOM     16  C   UNL     1      -0.111 -22.584  16.115  1.00  0.00    -0.000 C 
BRANCH  16  17
ATOM     17  C   UNL     1       0.730 -22.837  14.846  1.00  0.00    -0.000 C 
BRANCH  17  18
ATOM     18  C   UNL     1       2.255 -22.801  15.062  1.00  0.00    -0.000 C 
BRANCH  18  19
ATOM     19  C   UNL     1       3.043 -22.793  13.743  1.00  0.00    -0.003 C 
ATOM     20  C   UNL     1       4.518 -23.104  13.982  1.00  0.00     0.004 C 
ENDBRANCH  18  19
ENDBRANCH  17  18
ENDBRANCH  16  17
ENDBRANCH  15  16
ENDBRANCH  14  15
ENDBRANCH  13  14
ENDBRANCH  12  13
ENDBRANCH   1  12
TORSDOF 16
ENDMDL
