MODEL 1
REMARK VINA RESULT:    -3.158      0.000      0.000
REMARK INTER + INTRA:          -3.150
REMARK INTER:                  -3.897
REMARK INTRA:                   0.747
REMARK UNBOUND:                 0.747
REMARK SMILES CC1=CC=CC(C)(C)CC1=O
REMARK SMILES IDX 1 1 2 2 3 3 10 4 11 5 9 6 4 8 5 9 6 10 7 11 8 12
REMARK H PARENT
REMARK Flexibility Score: 80.00
ROOT
ATOM      1  C   UNL     1      20.611  24.481  26.487  1.00  0.00     0.048 C 
ATOM      2  C   UNL     1      19.762  25.204  27.505  1.00  0.00    -0.008 C 
ATOM      3  C   UNL     1      18.433  24.960  27.497  1.00  0.00     0.007 C 
ENDROOT
BRANCH   2   4
ATOM      4  C   UNL     1      20.446  26.185  28.382  1.00  0.00     0.159 C 
ATOM      5  O   UNL     1      21.629  26.527  28.106  1.00  0.00    -0.295 OA
BRANCH   4   6
ATOM      6  C   UNL     1      19.813  26.790  29.597  1.00  0.00     0.091 CG0
ATOM      7  G   UNL     1      18.523  27.580  29.284  1.00  0.00     0.000 G0
ENDBRANCH   4   6
ENDBRANCH   2   4
BRANCH   3   8
ATOM      8  C   UNL     1      17.357  25.528  28.342  1.00  0.00    -0.003 C 
ATOM      9  C   UNL     1      17.369  26.638  29.092  1.00  0.00    -0.020 C 
BRANCH   9  10
ATOM     10  C   UNL     1      18.533  27.582  29.278  1.00  0.00    -0.010 CG0
ATOM     11  C   UNL     1      18.680  28.491  28.036  1.00  0.00     0.016 C 
ATOM     12  C   UNL     1      18.235  28.486  30.496  1.00  0.00     0.016 C 
ATOM     13  G   UNL     1      19.815  26.775  29.581  1.00  0.00     0.000 G0
ENDBRANCH   9  10
ENDBRANCH   3   8
TORSDOF 0
ENDMDL
MODEL 2
REMARK VINA RESULT:    -3.006      1.861      3.241
REMARK INTER + INTRA:          -2.962
REMARK INTER:                  -3.704
REMARK INTRA:                   0.741
REMARK UNBOUND:                 0.747
REMARK SMILES CC1=CC=CC(C)(C)CC1=O
REMARK SMILES IDX 1 1 2 2 3 3 10 4 11 5 9 6 4 8 5 9 6 10 7 11 8 12
REMARK H PARENT
REMARK Flexibility Score: 80.00
ROOT
ATOM      1  C   UNL     1      16.181  24.865  28.034  1.00  0.00     0.048 C 
ATOM      2  C   UNL     1      17.631  25.197  27.774  1.00  0.00    -0.008 C 
ATOM      3  C   UNL     1      18.377  24.276  27.125  1.00  0.00     0.007 C 
ENDROOT
BRANCH   2   4
ATOM      4  C   UNL     1      18.140  26.479  28.321  1.00  0.00     0.159 C 
ATOM      5  O   UNL     1      17.413  27.130  29.122  1.00  0.00    -0.295 OA
BRANCH   4   6
ATOM      6  C   UNL     1      19.473  27.059  27.963  1.00  0.00     0.091 CG0
ATOM      7  G   UNL     1      20.657  26.130  28.315  1.00  0.00     0.000 G0
ENDBRANCH   4   6
ENDBRANCH   2   4
BRANCH   3   8
ATOM      8  C   UNL     1      19.812  24.304  26.755  1.00  0.00    -0.003 C 
ATOM      9  C   UNL     1      20.796  25.068  27.247  1.00  0.00    -0.020 C 
BRANCH   9  10
ATOM     10  C   UNL     1      20.660  26.134  28.308  1.00  0.00    -0.010 CG0
ATOM     11  C   UNL     1      20.544  25.479  29.704  1.00  0.00     0.016 C 
ATOM     12  C   UNL     1      21.940  27.000  28.293  1.00  0.00     0.016 C 
ATOM     13  G   UNL     1      19.458  27.047  27.977  1.00  0.00     0.000 G0
ENDBRANCH   9  10
ENDBRANCH   3   8
TORSDOF 0
ENDMDL
MODEL 3
REMARK VINA RESULT:    -2.991      5.511      6.586
REMARK INTER + INTRA:          -2.944
REMARK INTER:                  -3.695
REMARK INTRA:                   0.751
REMARK UNBOUND:                 0.747
REMARK SMILES CC1=CC=CC(C)(C)CC1=O
REMARK SMILES IDX 1 1 2 2 3 3 10 4 11 5 9 6 4 8 5 9 6 10 7 11 8 12
REMARK H PARENT
REMARK Flexibility Score: 80.00
ROOT
ATOM      1  C   UNL     1      14.942  30.434  29.462  1.00  0.00     0.048 C 
ATOM      2  C   UNL     1      16.040  31.417  29.792  1.00  0.00    -0.008 C 
ATOM      3  C   UNL     1      16.167  32.502  28.998  1.00  0.00     0.007 C 
ENDROOT
BRANCH   2   4
ATOM      4  C   UNL     1      16.942  31.070  30.918  1.00  0.00     0.159 C 
ATOM      5  O   UNL     1      16.894  29.904  31.398  1.00  0.00    -0.295 OA
BRANCH   4   6
ATOM      6  C   UNL     1      17.905  32.037  31.533  1.00  0.00     0.091 CG0
ATOM      7  G   UNL     1      18.936  32.595  30.525  1.00  0.00     0.000 G0
ENDBRANCH   4   6
ENDBRANCH   2   4
BRANCH   3   8
ATOM      8  C   UNL     1      17.149  33.611  29.053  1.00  0.00    -0.003 C 
ATOM      9  C   UNL     1      18.332  33.660  29.679  1.00  0.00    -0.020 C 
BRANCH   9  10
ATOM     10  C   UNL     1      18.947  32.571  30.524  1.00  0.00    -0.010 CG0
ATOM     11  C   UNL     1      19.528  31.461  29.617  1.00  0.00     0.016 C 
ATOM     12  C   UNL     1      20.112  33.183  31.333  1.00  0.00     0.016 C 
ATOM     13  G   UNL     1      17.898  32.034  31.524  1.00  0.00     0.000 G0
ENDBRANCH   9  10
ENDBRANCH   3   8
TORSDOF 0
ENDMDL
MODEL 4
REMARK VINA RESULT:    -2.972      1.666      2.151
REMARK INTER + INTRA:          -2.920
REMARK INTER:                  -3.670
REMARK INTRA:                   0.750
REMARK UNBOUND:                 0.747
REMARK SMILES CC1=CC=CC(C)(C)CC1=O
REMARK SMILES IDX 1 1 2 2 3 3 10 4 11 5 9 6 4 8 5 9 6 10 7 11 8 12
REMARK H PARENT
REMARK Flexibility Score: 80.00
ROOT
ATOM      1  C   UNL     1      19.714  24.595  27.014  1.00  0.00     0.048 C 
ATOM      2  C   UNL     1      19.732  25.784  27.944  1.00  0.00    -0.008 C 
ATOM      3  C   UNL     1      18.835  26.769  27.718  1.00  0.00     0.007 C 
ENDROOT
BRANCH   2   4
ATOM      4  C   UNL     1      20.788  25.811  28.987  1.00  0.00     0.159 C 
ATOM      5  O   UNL     1      21.723  24.966  28.927  1.00  0.00    -0.295 OA
BRANCH   4   6
ATOM      6  C   UNL     1      20.801  26.785  30.124  1.00  0.00     0.091 CG0
ATOM      7  G   UNL     1      20.843  28.259  29.665  1.00  0.00     0.000 G0
ENDBRANCH   4   6
ENDBRANCH   2   4
BRANCH   3   8
ATOM      8  C   UNL     1      18.630  28.051  28.433  1.00  0.00    -0.003 C 
ATOM      9  C   UNL     1      19.466  28.706  29.248  1.00  0.00    -0.020 C 
BRANCH   9  10
ATOM     10  C   UNL     1      20.847  28.260  29.664  1.00  0.00    -0.010 CG0
ATOM     11  C   UNL     1      21.852  28.508  28.515  1.00  0.00     0.016 C 
ATOM     12  C   UNL     1      21.290  29.113  30.874  1.00  0.00     0.016 C 
ATOM     13  G   UNL     1      20.805  26.781  30.108  1.00  0.00     0.000 G0
ENDBRANCH   9  10
ENDBRANCH   3   8
TORSDOF 0
ENDMDL
MODEL 5
REMARK VINA RESULT:    -2.965      9.637     10.712
REMARK INTER + INTRA:          -2.911
REMARK INTER:                  -3.658
REMARK INTRA:                   0.747
REMARK UNBOUND:                 0.747
REMARK SMILES CC1=CC=CC(C)(C)CC1=O
REMARK SMILES IDX 1 1 2 2 3 3 10 4 11 5 9 6 4 8 5 9 6 10 7 11 8 12
REMARK H PARENT
REMARK Flexibility Score: 80.00
ROOT
ATOM      1  C   UNL     1      27.747  29.658  27.538  1.00  0.00     0.048 C 
ATOM      2  C   UNL     1      28.141  30.658  28.599  1.00  0.00    -0.008 C 
ATOM      3  C   UNL     1      29.454  30.949  28.728  1.00  0.00     0.007 C 
ENDROOT
BRANCH   2   4
ATOM      4  C   UNL     1      27.058  31.184  29.467  1.00  0.00     0.159 C 
ATOM      5  O   UNL     1      25.921  30.638  29.420  1.00  0.00    -0.295 OA
BRANCH   4   6
ATOM      6  C   UNL     1      27.235  32.345  30.396  1.00  0.00     0.091 CG0
ATOM      7  G   UNL     1      28.332  32.114  31.459  1.00  0.00     0.000 G0
ENDBRANCH   4   6
ENDBRANCH   2   4
BRANCH   3   8
ATOM      8  C   UNL     1      30.138  31.856  29.680  1.00  0.00    -0.003 C 
ATOM      9  C   UNL     1      29.691  32.356  30.839  1.00  0.00    -0.020 C 
BRANCH   9  10
ATOM     10  C   UNL     1      28.330  32.125  31.451  1.00  0.00    -0.010 CG0
ATOM     11  C   UNL     1      28.272  30.722  32.098  1.00  0.00     0.016 C 
ATOM     12  C   UNL     1      28.115  33.172  32.567  1.00  0.00     0.016 C 
ATOM     13  G   UNL     1      27.236  32.332  30.380  1.00  0.00     0.000 G0
ENDBRANCH   9  10
ENDBRANCH   3   8
TORSDOF 0
ENDMDL
MODEL 6
REMARK VINA RESULT:    -2.920      4.560      6.053
REMARK INTER + INTRA:          -2.855
REMARK INTER:                  -3.606
REMARK INTRA:                   0.750
REMARK UNBOUND:                 0.747
REMARK SMILES CC1=CC=CC(C)(C)CC1=O
REMARK SMILES IDX 1 1 2 2 3 3 10 4 11 5 9 6 4 8 5 9 6 10 7 11 8 12
REMARK H PARENT
REMARK Flexibility Score: 80.00
ROOT
ATOM      1  C   UNL     1      19.754  33.774  29.379  1.00  0.00     0.048 C 
ATOM      2  C   UNL     1      18.531  32.889  29.392  1.00  0.00    -0.008 C 
ATOM      3  C   UNL     1      17.323  33.490  29.317  1.00  0.00     0.007 C 
ENDROOT
BRANCH   2   4
ATOM      4  C   UNL     1      18.752  31.432  29.565  1.00  0.00     0.159 C 
ATOM      5  O   UNL     1      19.904  31.024  29.878  1.00  0.00    -0.295 OA
BRANCH   4   6
ATOM      6  C   UNL     1      17.679  30.405  29.373  1.00  0.00     0.091 CG0
ATOM      7  G   UNL     1      16.468  30.605  30.312  1.00  0.00     0.000 G0
ENDBRANCH   4   6
ENDBRANCH   2   4
BRANCH   3   8
ATOM      8  C   UNL     1      15.964  32.899  29.334  1.00  0.00    -0.003 C 
ATOM      9  C   UNL     1      15.574  31.690  29.759  1.00  0.00    -0.020 C 
BRANCH   9  10
ATOM     10  C   UNL     1      16.464  30.603  30.310  1.00  0.00    -0.010 CG0
ATOM     11  C   UNL     1      16.865  30.936  31.767  1.00  0.00     0.016 C 
ATOM     12  C   UNL     1      15.663  29.282  30.328  1.00  0.00     0.016 C 
ATOM     13  G   UNL     1      17.687  30.412  29.385  1.00  0.00     0.000 G0
ENDBRANCH   9  10
ENDBRANCH   3   8
TORSDOF 0
ENDMDL
MODEL 7
REMARK VINA RESULT:    -2.888      1.602      2.393
REMARK INTER + INTRA:          -2.816
REMARK INTER:                  -3.558
REMARK INTRA:                   0.742
REMARK UNBOUND:                 0.747
REMARK SMILES CC1=CC=CC(C)(C)CC1=O
REMARK SMILES IDX 1 1 2 2 3 3 10 4 11 5 9 6 4 8 5 9 6 10 7 11 8 12
REMARK H PARENT
REMARK Flexibility Score: 80.00
ROOT
ATOM      1  C   UNL     1      23.092  27.775  27.845  1.00  0.00     0.048 C 
ATOM      2  C   UNL     1      21.771  27.186  28.279  1.00  0.00    -0.008 C 
ATOM      3  C   UNL     1      21.528  25.895  27.965  1.00  0.00     0.007 C 
ENDROOT
BRANCH   2   4
ATOM      4  C   UNL     1      20.812  28.099  28.950  1.00  0.00     0.159 C 
ATOM      5  O   UNL     1      21.048  29.338  28.947  1.00  0.00    -0.295 OA
BRANCH   4   6
ATOM      6  C   UNL     1      19.576  27.628  29.651  1.00  0.00     0.091 CG0
ATOM      7  G   UNL     1      18.602  26.866  28.724  1.00  0.00     0.000 G0
ENDBRANCH   4   6
ENDBRANCH   2   4
BRANCH   3   8
ATOM      8  C   UNL     1      20.331  25.061  28.229  1.00  0.00    -0.003 C 
ATOM      9  C   UNL     1      19.087  25.445  28.541  1.00  0.00    -0.020 C 
BRANCH   9  10
ATOM     10  C   UNL     1      18.606  26.864  28.730  1.00  0.00    -0.010 CG0
ATOM     11  C   UNL     1      18.408  27.543  27.355  1.00  0.00     0.016 C 
ATOM     12  C   UNL     1      17.235  26.821  29.441  1.00  0.00     0.016 C 
ATOM     13  G   UNL     1      19.595  27.631  29.636  1.00  0.00     0.000 G0
ENDBRANCH   9  10
ENDBRANCH   3   8
TORSDOF 0
ENDMDL
MODEL 8
REMARK VINA RESULT:    -2.744      1.940      3.140
REMARK INTER + INTRA:          -2.638
REMARK INTER:                  -3.396
REMARK INTRA:                   0.758
REMARK UNBOUND:                 0.747
REMARK SMILES CC1=CC=CC(C)(C)CC1=O
REMARK SMILES IDX 1 1 2 2 3 3 10 4 11 5 9 6 4 8 5 9 6 10 7 11 8 12
REMARK H PARENT
REMARK Flexibility Score: 80.00
ROOT
ATOM      1  C   UNL     1      21.464  25.393  28.634  1.00  0.00     0.048 C 
ATOM      2  C   UNL     1      20.959  26.815  28.680  1.00  0.00    -0.008 C 
ATOM      3  C   UNL     1      21.853  27.788  28.963  1.00  0.00     0.007 C 
ENDROOT
BRANCH   2   4
ATOM      4  C   UNL     1      19.503  27.022  28.486  1.00  0.00     0.159 C 
ATOM      5  O   UNL     1      18.740  26.016  28.484  1.00  0.00    -0.295 OA
BRANCH   4   6
ATOM      6  C   UNL     1      18.880  28.368  28.277  1.00  0.00     0.091 CG0
ATOM      7  G   UNL     1      19.132  29.345  29.447  1.00  0.00     0.000 G0
ENDBRANCH   4   6
ENDBRANCH   2   4
BRANCH   3   8
ATOM      8  C   UNL     1      21.656  29.250  29.102  1.00  0.00    -0.003 C 
ATOM      9  C   UNL     1      20.524  29.932  29.317  1.00  0.00    -0.020 C 
BRANCH   9  10
ATOM     10  C   UNL     1      19.136  29.351  29.444  1.00  0.00    -0.010 CG0
ATOM     11  C   UNL     1      18.962  28.697  30.835  1.00  0.00     0.016 C 
ATOM     12  C   UNL     1      18.115  30.505  29.330  1.00  0.00     0.016 C 
ATOM     13  G   UNL     1      18.877  28.363  28.285  1.00  0.00     0.000 G0
ENDBRANCH   9  10
ENDBRANCH   3   8
TORSDOF 0
ENDMDL
MODEL 9
REMARK VINA RESULT:    -2.694      3.255      4.353
REMARK INTER + INTRA:          -2.577
REMARK INTER:                  -3.330
REMARK INTRA:                   0.754
REMARK UNBOUND:                 0.747
REMARK SMILES CC1=CC=CC(C)(C)CC1=O
REMARK SMILES IDX 1 1 2 2 3 3 10 4 11 5 9 6 4 8 5 9 6 10 7 11 8 12
REMARK H PARENT
REMARK Flexibility Score: 80.00
ROOT
ATOM      1  C   UNL     1      18.177  23.066  26.449  1.00  0.00     0.048 C 
ATOM      2  C   UNL     1      17.373  24.154  27.121  1.00  0.00    -0.008 C 
ATOM      3  C   UNL     1      18.053  25.137  27.751  1.00  0.00     0.007 C 
ENDROOT
BRANCH   2   4
ATOM      4  C   UNL     1      15.896  24.013  27.101  1.00  0.00     0.159 C 
ATOM      5  O   UNL     1      15.394  22.927  26.699  1.00  0.00    -0.295 OA
BRANCH   4   6
ATOM      6  C   UNL     1      14.956  25.100  27.521  1.00  0.00     0.091 CG0
ATOM      7  G   UNL     1      15.164  25.554  28.983  1.00  0.00     0.000 G0
ENDBRANCH   4   6
ENDBRANCH   2   4
BRANCH   3   8
ATOM      8  C   UNL     1      17.550  26.306  28.509  1.00  0.00    -0.003 C 
ATOM      9  C   UNL     1      16.340  26.506  29.049  1.00  0.00    -0.020 C 
BRANCH   9  10
ATOM     10  C   UNL     1      15.161  25.565  28.982  1.00  0.00    -0.010 CG0
ATOM     11  C   UNL     1      15.367  24.388  29.965  1.00  0.00     0.016 C 
ATOM     12  C   UNL     1      13.898  26.337  29.422  1.00  0.00     0.016 C 
ATOM     13  G   UNL     1      14.954  25.093  27.525  1.00  0.00     0.000 G0
ENDBRANCH   9  10
ENDBRANCH   3   8
TORSDOF 0
ENDMDL
