MODEL 1
REMARK VINA RESULT:    -6.100      0.000      0.000
REMARK INTER + INTRA:          -7.295
REMARK INTER:                  -7.170
REMARK INTRA:                  -0.126
REMARK UNBOUND:                -0.126
REMARK SMILES O=C([O-])C=Cc1ccc(O)c(O)c1
REMARK SMILES IDX 6 1 13 2 7 3 11 4 8 5 9 6 5 7 4 8 2 9 1 10 3 11 12 12 10 14
REMARK H PARENT 12 13 10 15
REMARK Flexibility Score: inf
ROOT
ATOM      1  C   UNL     1     -32.900  -3.582 -17.864  1.00  0.00    -0.022 A 
ATOM      2  C   UNL     1     -33.393  -3.027 -19.062  1.00  0.00     0.058 A 
ATOM      3  C   UNL     1     -31.523  -3.514 -17.601  1.00  0.00     0.012 A 
ATOM      4  C   UNL     1     -32.516  -2.439 -19.986  1.00  0.00     0.157 A 
ATOM      5  C   UNL     1     -30.650  -2.931 -18.523  1.00  0.00     0.051 A 
ATOM      6  C   UNL     1     -31.144  -2.394 -19.718  1.00  0.00     0.157 A 
ENDROOT
BRANCH   1   7
ATOM      7  C   UNL     1     -33.787  -4.204 -16.848  1.00  0.00     0.010 C 
ATOM      8  C   UNL     1     -34.284  -5.444 -16.953  1.00  0.00     0.025 C 
BRANCH   8   9
ATOM      9  C   UNL     1     -35.150  -6.025 -15.914  1.00  0.00     0.064 C 
ATOM     10  O   UNL     1     -36.059  -6.830 -16.243  1.00  0.00    -0.545 OA
ATOM     11  O   UNL     1     -34.981  -5.696 -14.574  1.00  0.00    -0.545 OA
ENDBRANCH   8   9
ENDBRANCH   1   7
BRANCH   4  12
ATOM     12  O   UNL     1     -33.005  -1.893 -21.173  1.00  0.00    -0.504 OA
ATOM     13  H   UNL     1     -32.471  -1.932 -22.034  1.00  0.00     0.293 HD
ENDBRANCH   4  12
BRANCH   6  14
ATOM     14  O   UNL     1     -30.276  -1.813 -20.642  1.00  0.00    -0.504 OA
ATOM     15  H   UNL     1     -29.298  -2.071 -20.686  1.00  0.00     0.293 HD
ENDBRANCH   6  14
TORSDOF 4
ENDMDL
MODEL 2
REMARK VINA RESULT:    -5.698      4.313      8.767
REMARK INTER + INTRA:          -6.823
REMARK INTER:                  -6.698
REMARK INTRA:                  -0.125
REMARK UNBOUND:                -0.126
REMARK SMILES O=C([O-])C=Cc1ccc(O)c(O)c1
REMARK SMILES IDX 6 1 13 2 7 3 11 4 8 5 9 6 5 7 4 8 2 9 1 10 3 11 12 12 10 14
REMARK H PARENT 12 13 10 15
REMARK Flexibility Score: inf
ROOT
ATOM      1  C   UNL     1     -37.196  -7.258 -13.749  1.00  0.00    -0.022 A 
ATOM      2  C   UNL     1     -38.492  -6.705 -13.755  1.00  0.00     0.058 A 
ATOM      3  C   UNL     1     -37.050  -8.642 -13.560  1.00  0.00     0.012 A 
ATOM      4  C   UNL     1     -39.615  -7.522 -13.550  1.00  0.00     0.157 A 
ATOM      5  C   UNL     1     -38.167  -9.454 -13.355  1.00  0.00     0.051 A 
ATOM      6  C   UNL     1     -39.452  -8.897 -13.347  1.00  0.00     0.157 A 
ENDROOT
BRANCH   1   7
ATOM      7  C   UNL     1     -35.978  -6.440 -13.973  1.00  0.00     0.010 C 
ATOM      8  C   UNL     1     -35.584  -6.005 -15.178  1.00  0.00     0.025 C 
BRANCH   8   9
ATOM      9  C   UNL     1     -34.375  -5.184 -15.351  1.00  0.00     0.064 C 
ATOM     10  O   UNL     1     -34.176  -4.203 -14.589  1.00  0.00    -0.545 OA
ATOM     11  O   UNL     1     -33.449  -5.472 -16.348  1.00  0.00    -0.545 OA
ENDBRANCH   8   9
ENDBRANCH   1   7
BRANCH   4  12
ATOM     12  O   UNL     1     -40.896  -6.973 -13.553  1.00  0.00    -0.504 OA
ATOM     13  H   UNL     1     -41.667  -7.427 -14.031  1.00  0.00     0.293 HD
ENDBRANCH   4  12
BRANCH   6  14
ATOM     14  O   UNL     1     -40.570  -9.703 -13.140  1.00  0.00    -0.504 OA
ATOM     15  H   UNL     1     -41.510  -9.327 -13.184  1.00  0.00     0.293 HD
ENDBRANCH   6  14
TORSDOF 4
ENDMDL
MODEL 3
REMARK VINA RESULT:    -5.679      3.243      7.829
REMARK INTER + INTRA:          -6.800
REMARK INTER:                  -6.674
REMARK INTRA:                  -0.126
REMARK UNBOUND:                -0.126
REMARK SMILES O=C([O-])C=Cc1ccc(O)c(O)c1
REMARK SMILES IDX 6 1 13 2 7 3 11 4 8 5 9 6 5 7 4 8 2 9 1 10 3 11 12 12 10 14
REMARK H PARENT 12 13 10 15
REMARK Flexibility Score: inf
ROOT
ATOM      1  C   UNL     1     -36.428  -6.815 -15.068  1.00  0.00    -0.022 A 
ATOM      2  C   UNL     1     -37.557  -7.384 -15.692  1.00  0.00     0.058 A 
ATOM      3  C   UNL     1     -36.050  -7.280 -13.798  1.00  0.00     0.012 A 
ATOM      4  C   UNL     1     -38.302  -8.380 -15.044  1.00  0.00     0.157 A 
ATOM      5  C   UNL     1     -36.793  -8.271 -13.152  1.00  0.00     0.051 A 
ATOM      6  C   UNL     1     -37.923  -8.821 -13.771  1.00  0.00     0.157 A 
ENDROOT
BRANCH   1   7
ATOM      7  C   UNL     1     -35.599  -5.769 -15.717  1.00  0.00     0.010 C 
ATOM      8  C   UNL     1     -34.716  -6.018 -16.693  1.00  0.00     0.025 C 
BRANCH   8   9
ATOM      9  C   UNL     1     -33.924  -4.946 -17.317  1.00  0.00     0.064 C 
ATOM     10  O   UNL     1     -33.174  -4.232 -16.603  1.00  0.00    -0.545 OA
ATOM     11  O   UNL     1     -33.994  -4.706 -18.685  1.00  0.00    -0.545 OA
ENDBRANCH   8   9
ENDBRANCH   1   7
BRANCH   4  12
ATOM     12  O   UNL     1     -39.420  -8.939 -15.661  1.00  0.00    -0.504 OA
ATOM     13  H   UNL     1     -40.015  -8.394 -16.276  1.00  0.00     0.293 HD
ENDBRANCH   4  12
BRANCH   6  14
ATOM     14  O   UNL     1     -38.669  -9.808 -13.129  1.00  0.00    -0.504 OA
ATOM     15  H   UNL     1     -39.681  -9.767 -13.092  1.00  0.00     0.293 HD
ENDBRANCH   6  14
TORSDOF 4
ENDMDL
MODEL 4
REMARK VINA RESULT:    -5.575      3.612      4.519
REMARK INTER + INTRA:          -6.678
REMARK INTER:                  -6.556
REMARK INTRA:                  -0.123
REMARK UNBOUND:                -0.126
REMARK SMILES O=C([O-])C=Cc1ccc(O)c(O)c1
REMARK SMILES IDX 6 1 13 2 7 3 11 4 8 5 9 6 5 7 4 8 2 9 1 10 3 11 12 12 10 14
REMARK H PARENT 12 13 10 15
REMARK Flexibility Score: inf
ROOT
ATOM      1  C   UNL     1     -31.538  -4.997 -17.064  1.00  0.00    -0.022 A 
ATOM      2  C   UNL     1     -32.795  -5.586 -17.306  1.00  0.00     0.058 A 
ATOM      3  C   UNL     1     -31.324  -3.668 -17.464  1.00  0.00     0.012 A 
ATOM      4  C   UNL     1     -33.806  -4.864 -17.958  1.00  0.00     0.157 A 
ATOM      5  C   UNL     1     -32.330  -2.950 -18.115  1.00  0.00     0.051 A 
ATOM      6  C   UNL     1     -33.572  -3.546 -18.367  1.00  0.00     0.157 A 
ENDROOT
BRANCH   1   7
ATOM      7  C   UNL     1     -30.441  -5.714 -16.367  1.00  0.00     0.010 C 
ATOM      8  C   UNL     1     -30.116  -6.991 -16.606  1.00  0.00     0.025 C 
BRANCH   8   9
ATOM      9  C   UNL     1     -29.011  -7.659 -15.900  1.00  0.00     0.064 C 
ATOM     10  O   UNL     1     -28.130  -8.267 -16.560  1.00  0.00    -0.545 OA
ATOM     11  O   UNL     1     -28.926  -7.631 -14.512  1.00  0.00    -0.545 OA
ENDBRANCH   8   9
ENDBRANCH   1   7
BRANCH   4  12
ATOM     12  O   UNL     1     -35.047  -5.450 -18.200  1.00  0.00    -0.504 OA
ATOM     13  H   UNL     1     -35.215  -6.433 -18.017  1.00  0.00     0.293 HD
ENDBRANCH   4  12
BRANCH   6  14
ATOM     14  O   UNL     1     -34.578  -2.834 -19.018  1.00  0.00    -0.504 OA
ATOM     15  H   UNL     1     -35.496  -3.234 -19.170  1.00  0.00     0.293 HD
ENDBRANCH   6  14
TORSDOF 4
ENDMDL
MODEL 5
REMARK VINA RESULT:    -5.410      3.737      5.113
REMARK INTER + INTRA:          -6.485
REMARK INTER:                  -6.347
REMARK INTRA:                  -0.138
REMARK UNBOUND:                -0.126
REMARK SMILES O=C([O-])C=Cc1ccc(O)c(O)c1
REMARK SMILES IDX 6 1 13 2 7 3 11 4 8 5 9 6 5 7 4 8 2 9 1 10 3 11 12 12 10 14
REMARK H PARENT 12 13 10 15
REMARK Flexibility Score: inf
ROOT
ATOM      1  C   UNL     1     -35.922  -6.219 -15.143  1.00  0.00    -0.022 A 
ATOM      2  C   UNL     1     -35.217  -6.385 -16.353  1.00  0.00     0.058 A 
ATOM      3  C   UNL     1     -35.484  -5.244 -14.233  1.00  0.00     0.012 A 
ATOM      4  C   UNL     1     -34.084  -5.605 -16.629  1.00  0.00     0.157 A 
ATOM      5  C   UNL     1     -34.355  -4.469 -14.508  1.00  0.00     0.051 A 
ATOM      6  C   UNL     1     -33.650  -4.649 -15.704  1.00  0.00     0.157 A 
ENDROOT
BRANCH   1   7
ATOM      7  C   UNL     1     -37.133  -7.009 -14.810  1.00  0.00     0.010 C 
ATOM      8  C   UNL     1     -37.310  -7.641 -13.642  1.00  0.00     0.025 C 
BRANCH   8   9
ATOM      9  C   UNL     1     -38.535  -8.404 -13.348  1.00  0.00     0.064 C 
ATOM     10  O   UNL     1     -38.484  -9.659 -13.286  1.00  0.00    -0.545 OA
ATOM     11  O   UNL     1     -39.749  -7.759 -13.142  1.00  0.00    -0.545 OA
ENDBRANCH   8   9
ENDBRANCH   1   7
BRANCH   4  12
ATOM     12  O   UNL     1     -33.387  -5.773 -17.825  1.00  0.00    -0.504 OA
ATOM     13  H   UNL     1     -33.538  -6.581 -18.418  1.00  0.00     0.293 HD
ENDBRANCH   4  12
BRANCH   6  14
ATOM     14  O   UNL     1     -32.521  -3.880 -15.982  1.00  0.00    -0.504 OA
ATOM     15  H   UNL     1     -32.287  -3.064 -15.430  1.00  0.00     0.293 HD
ENDBRANCH   6  14
TORSDOF 4
ENDMDL
MODEL 6
REMARK VINA RESULT:    -5.353      1.213      1.783
REMARK INTER + INTRA:          -6.417
REMARK INTER:                  -6.291
REMARK INTRA:                  -0.126
REMARK UNBOUND:                -0.126
REMARK SMILES O=C([O-])C=Cc1ccc(O)c(O)c1
REMARK SMILES IDX 6 1 13 2 7 3 11 4 8 5 9 6 5 7 4 8 2 9 1 10 3 11 12 12 10 14
REMARK H PARENT 12 13 10 15
REMARK Flexibility Score: inf
ROOT
ATOM      1  C   UNL     1     -33.470  -4.502 -16.741  1.00  0.00    -0.022 A 
ATOM      2  C   UNL     1     -34.025  -3.884 -17.880  1.00  0.00     0.058 A 
ATOM      3  C   UNL     1     -32.106  -4.316 -16.467  1.00  0.00     0.012 A 
ATOM      4  C   UNL     1     -33.221  -3.118 -18.737  1.00  0.00     0.157 A 
ATOM      5  C   UNL     1     -31.305  -3.555 -17.322  1.00  0.00     0.051 A 
ATOM      6  C   UNL     1     -31.859  -2.957 -18.460  1.00  0.00     0.157 A 
ENDROOT
BRANCH   1   7
ATOM      7  C   UNL     1     -34.281  -5.311 -15.797  1.00  0.00     0.010 C 
ATOM      8  C   UNL     1     -35.267  -6.134 -16.179  1.00  0.00     0.025 C 
BRANCH   8   9
ATOM      9  C   UNL     1     -36.037  -6.928 -15.208  1.00  0.00     0.064 C 
ATOM     10  O   UNL     1     -35.817  -6.787 -13.977  1.00  0.00    -0.545 OA
ATOM     11  O   UNL     1     -37.002  -7.836 -15.628  1.00  0.00    -0.545 OA
ENDBRANCH   8   9
ENDBRANCH   1   7
BRANCH   4  12
ATOM     12  O   UNL     1     -33.771  -2.511 -19.865  1.00  0.00    -0.504 OA
ATOM     13  H   UNL     1     -34.744  -2.227 -19.894  1.00  0.00     0.293 HD
ENDBRANCH   4  12
BRANCH   6  14
ATOM     14  O   UNL     1     -31.063  -2.198 -19.317  1.00  0.00    -0.504 OA
ATOM     15  H   UNL     1     -30.631  -2.605 -20.137  1.00  0.00     0.293 HD
ENDBRANCH   6  14
TORSDOF 4
ENDMDL
MODEL 7
REMARK VINA RESULT:    -5.341      2.069      3.117
REMARK INTER + INTRA:          -6.403
REMARK INTER:                  -6.276
REMARK INTRA:                  -0.127
REMARK UNBOUND:                -0.126
REMARK SMILES O=C([O-])C=Cc1ccc(O)c(O)c1
REMARK SMILES IDX 6 1 13 2 7 3 11 4 8 5 9 6 5 7 4 8 2 9 1 10 3 11 12 12 10 14
REMARK H PARENT 12 13 10 15
REMARK Flexibility Score: inf
ROOT
ATOM      1  C   UNL     1     -34.865  -4.971 -16.599  1.00  0.00    -0.022 A 
ATOM      2  C   UNL     1     -35.820  -4.395 -17.460  1.00  0.00     0.058 A 
ATOM      3  C   UNL     1     -33.506  -4.679 -16.803  1.00  0.00     0.012 A 
ATOM      4  C   UNL     1     -35.417  -3.564 -18.517  1.00  0.00     0.157 A 
ATOM      5  C   UNL     1     -33.105  -3.854 -17.856  1.00  0.00     0.051 A 
ATOM      6  C   UNL     1     -34.058  -3.297 -18.717  1.00  0.00     0.157 A 
ENDROOT
BRANCH   1   7
ATOM      7  C   UNL     1     -35.240  -5.845 -15.460  1.00  0.00     0.010 C 
ATOM      8  C   UNL     1     -36.045  -6.911 -15.574  1.00  0.00     0.025 C 
BRANCH   8   9
ATOM      9  C   UNL     1     -36.380  -7.758 -14.419  1.00  0.00     0.064 C 
ATOM     10  O   UNL     1     -36.126  -7.352 -13.256  1.00  0.00    -0.545 OA
ATOM     11  O   UNL     1     -36.972  -9.005 -14.591  1.00  0.00    -0.545 OA
ENDBRANCH   8   9
ENDBRANCH   1   7
BRANCH   4  12
ATOM     12  O   UNL     1     -36.364  -2.997 -19.369  1.00  0.00    -0.504 OA
ATOM     13  H   UNL     1     -37.295  -2.760 -19.045  1.00  0.00     0.293 HD
ENDBRANCH   4  12
BRANCH   6  14
ATOM     14  O   UNL     1     -33.663  -2.474 -19.771  1.00  0.00    -0.504 OA
ATOM     15  H   UNL     1     -33.952  -2.658 -20.724  1.00  0.00     0.293 HD
ENDBRANCH   6  14
TORSDOF 4
ENDMDL
MODEL 8
REMARK VINA RESULT:    -5.284      7.285      9.470
REMARK INTER + INTRA:          -6.336
REMARK INTER:                  -6.212
REMARK INTRA:                  -0.124
REMARK UNBOUND:                -0.126
REMARK SMILES O=C([O-])C=Cc1ccc(O)c(O)c1
REMARK SMILES IDX 6 1 13 2 7 3 11 4 8 5 9 6 5 7 4 8 2 9 1 10 3 11 12 12 10 14
REMARK H PARENT 12 13 10 15
REMARK Flexibility Score: inf
ROOT
ATOM      1  C   UNL     1     -38.389  -6.308 -13.350  1.00  0.00    -0.022 A 
ATOM      2  C   UNL     1     -39.793  -6.427 -13.323  1.00  0.00     0.058 A 
ATOM      3  C   UNL     1     -37.611  -7.475 -13.395  1.00  0.00     0.012 A 
ATOM      4  C   UNL     1     -40.400  -7.692 -13.317  1.00  0.00     0.157 A 
ATOM      5  C   UNL     1     -38.215  -8.735 -13.386  1.00  0.00     0.051 A 
ATOM      6  C   UNL     1     -39.610  -8.847 -13.344  1.00  0.00     0.157 A 
ENDROOT
BRANCH   1   7
ATOM      7  C   UNL     1     -37.700  -4.993 -13.371  1.00  0.00     0.010 C 
ATOM      8  C   UNL     1     -37.808  -4.080 -12.397  1.00  0.00     0.025 C 
BRANCH   8   9
ATOM      9  C   UNL     1     -37.095  -2.794 -12.453  1.00  0.00     0.064 C 
ATOM     10  O   UNL     1     -36.453  -2.395 -11.448  1.00  0.00    -0.545 OA
ATOM     11  O   UNL     1     -37.122  -2.009 -13.601  1.00  0.00    -0.545 OA
ENDBRANCH   8   9
ENDBRANCH   1   7
BRANCH   4  12
ATOM     12  O   UNL     1     -41.789  -7.808 -13.287  1.00  0.00    -0.504 OA
ATOM     13  H   UNL     1     -42.319  -8.049 -14.117  1.00  0.00     0.293 HD
ENDBRANCH   4  12
BRANCH   6  14
ATOM     14  O   UNL     1     -40.218 -10.102 -13.333  1.00  0.00    -0.504 OA
ATOM     15  H   UNL     1     -39.673 -10.954 -13.284  1.00  0.00     0.293 HD
ENDBRANCH   6  14
TORSDOF 4
ENDMDL
MODEL 9
REMARK VINA RESULT:    -5.253      2.331      3.487
REMARK INTER + INTRA:          -6.300
REMARK INTER:                  -6.150
REMARK INTRA:                  -0.150
REMARK UNBOUND:                -0.126
REMARK SMILES O=C([O-])C=Cc1ccc(O)c(O)c1
REMARK SMILES IDX 6 1 13 2 7 3 11 4 8 5 9 6 5 7 4 8 2 9 1 10 3 11 12 12 10 14
REMARK H PARENT 12 13 10 15
REMARK Flexibility Score: inf
ROOT
ATOM      1  C   UNL     1     -34.938  -5.356 -16.703  1.00  0.00    -0.022 A 
ATOM      2  C   UNL     1     -33.785  -4.554 -16.589  1.00  0.00     0.058 A 
ATOM      3  C   UNL     1     -35.734  -5.239 -17.854  1.00  0.00     0.012 A 
ATOM      4  C   UNL     1     -33.453  -3.637 -17.598  1.00  0.00     0.157 A 
ATOM      5  C   UNL     1     -35.404  -4.324 -18.858  1.00  0.00     0.051 A 
ATOM      6  C   UNL     1     -34.265  -3.519 -18.731  1.00  0.00     0.157 A 
ENDROOT
BRANCH   1   7
ATOM      7  C   UNL     1     -35.326  -6.349 -15.671  1.00  0.00     0.010 C 
ATOM      8  C   UNL     1     -36.509  -6.978 -15.650  1.00  0.00     0.025 C 
BRANCH   8   9
ATOM      9  C   UNL     1     -36.846  -7.967 -14.613  1.00  0.00     0.064 C 
ATOM     10  O   UNL     1     -36.386  -9.135 -14.697  1.00  0.00    -0.545 OA
ATOM     11  O   UNL     1     -37.668  -7.632 -13.543  1.00  0.00    -0.545 OA
ENDBRANCH   8   9
ENDBRANCH   1   7
BRANCH   4  12
ATOM     12  O   UNL     1     -32.313  -2.842 -17.481  1.00  0.00    -0.504 OA
ATOM     13  H   UNL     1     -32.377  -1.846 -17.304  1.00  0.00     0.293 HD
ENDBRANCH   4  12
BRANCH   6  14
ATOM     14  O   UNL     1     -33.933  -2.604 -19.729  1.00  0.00    -0.504 OA
ATOM     15  H   UNL     1     -34.499  -1.783 -19.904  1.00  0.00     0.293 HD
ENDBRANCH   6  14
TORSDOF 4
ENDMDL
