MODEL 1
REMARK VINA RESULT:     6.210      0.000      0.000
REMARK INTER + INTRA:          13.343
REMARK INTER:                  14.196
REMARK INTRA:                  -0.853
REMARK UNBOUND:                -0.853
REMARK SMILES CCCCCCCCCCCCCCCCCCCCCCCC(=O)[O-]
REMARK SMILES IDX 13 1 14 2 15 3 16 4 17 5 18 6 19 7 20 8 21 9 22 10 23 11
REMARK SMILES IDX 24 12 25 13 26 14 12 15 11 16 10 17 9 18 8 19 7 20 6 21 5 22
REMARK SMILES IDX 4 23 3 24 2 25 1 26
REMARK H PARENT
REMARK Flexibility Score: inf
ROOT
ATOM      1  C   UNL     1      -7.566  15.076 -14.486  1.00  0.00     0.000 C 
ENDROOT
BRANCH   1   2
ATOM      2  C   UNL     1      -8.103  13.645 -14.642  1.00  0.00     0.000 C 
BRANCH   2   3
ATOM      3  C   UNL     1      -7.046  12.571 -14.327  1.00  0.00     0.000 C 
BRANCH   3   4
ATOM      4  C   UNL     1      -6.465  12.705 -12.912  1.00  0.00     0.000 C 
BRANCH   4   5
ATOM      5  C   UNL     1      -7.519  13.101 -11.860  1.00  0.00     0.000 C 
BRANCH   5   6
ATOM      6  C   UNL     1      -6.889  13.829 -10.655  1.00  0.00     0.000 C 
BRANCH   6   7
ATOM      7  C   UNL     1      -7.412  13.334  -9.294  1.00  0.00     0.000 C 
BRANCH   7   8
ATOM      8  C   UNL     1      -6.381  13.477  -8.165  1.00  0.00     0.000 C 
BRANCH   8   9
ATOM      9  C   UNL     1      -6.486  12.321  -7.165  1.00  0.00     0.000 C 
BRANCH   9  10
ATOM     10  C   UNL     1      -6.778  12.847  -5.752  1.00  0.00     0.006 C 
BRANCH  10  11
ATOM     11  C   UNL     1      -7.399  11.773  -4.850  1.00  0.00     0.053 C 
BRANCH  11  12
ATOM     12  C   UNL     1      -8.750  11.349  -5.339  1.00  0.00     0.041 C 
ATOM     13  O   UNL     1      -8.975  10.141  -5.610  1.00  0.00    -0.550 OA
ATOM     14  O   UNL     1      -9.765  12.287  -5.487  1.00  0.00    -0.550 OA
ENDBRANCH  11  12
ENDBRANCH  10  11
ENDBRANCH   9  10
ENDBRANCH   8   9
ENDBRANCH   7   8
ENDBRANCH   6   7
ENDBRANCH   5   6
ENDBRANCH   4   5
ENDBRANCH   3   4
ENDBRANCH   2   3
ENDBRANCH   1   2
BRANCH   1  15
ATOM     15  C   UNL     1      -6.153  15.278 -15.071  1.00  0.00     0.000 C 
BRANCH  15  16
ATOM     16  C   UNL     1      -5.748  16.762 -15.122  1.00  0.00     0.000 C 
BRANCH  16  17
ATOM     17  C   UNL     1      -4.876  17.177 -13.918  1.00  0.00     0.000 C 
BRANCH  17  18
ATOM     18  C   UNL     1      -4.905  18.688 -13.625  1.00  0.00    -0.000 C 
BRANCH  18  19
ATOM     19  C   UNL     1      -4.915  19.589 -14.871  1.00  0.00    -0.000 C 
BRANCH  19  20
ATOM     20  C   UNL     1      -5.436  21.005 -14.572  1.00  0.00    -0.000 C 
BRANCH  20  21
ATOM     21  C   UNL     1      -6.959  21.121 -14.746  1.00  0.00    -0.000 C 
BRANCH  21  22
ATOM     22  C   UNL     1      -7.636  19.746 -14.892  1.00  0.00    -0.000 C 
BRANCH  22  23
ATOM     23  C   UNL     1      -8.807  19.546 -13.912  1.00  0.00    -0.000 C 
BRANCH  23  24
ATOM     24  C   UNL     1      -9.075  18.085 -13.504  1.00  0.00    -0.000 C 
BRANCH  24  25
ATOM     25  C   UNL     1      -8.645  17.774 -12.063  1.00  0.00    -0.003 C 
ATOM     26  C   UNL     1      -8.263  16.306 -11.909  1.00  0.00     0.004 C 
ENDBRANCH  24  25
ENDBRANCH  23  24
ENDBRANCH  22  23
ENDBRANCH  21  22
ENDBRANCH  20  21
ENDBRANCH  19  20
ENDBRANCH  18  19
ENDBRANCH  17  18
ENDBRANCH  16  17
ENDBRANCH  15  16
ENDBRANCH   1  15
TORSDOF 22
ENDMDL
MODEL 2
REMARK VINA RESULT:     8.262      2.325      8.009
REMARK INTER + INTRA:          18.035
REMARK INTER:                  19.556
REMARK INTRA:                  -1.521
REMARK UNBOUND:                -0.853
REMARK SMILES CCCCCCCCCCCCCCCCCCCCCCCC(=O)[O-]
REMARK SMILES IDX 13 1 14 2 15 3 16 4 17 5 18 6 19 7 20 8 21 9 22 10 23 11
REMARK SMILES IDX 24 12 25 13 26 14 12 15 11 16 10 17 9 18 8 19 7 20 6 21 5 22
REMARK SMILES IDX 4 23 3 24 2 25 1 26
REMARK H PARENT
REMARK Flexibility Score: inf
ROOT
ATOM      1  C   UNL     1      -7.099  14.936 -15.124  1.00  0.00     0.000 C 
ENDROOT
BRANCH   1   2
ATOM      2  C   UNL     1      -5.804  15.603 -14.634  1.00  0.00     0.000 C 
BRANCH   2   3
ATOM      3  C   UNL     1      -5.667  17.063 -15.106  1.00  0.00     0.000 C 
BRANCH   3   4
ATOM      4  C   UNL     1      -4.917  17.946 -14.099  1.00  0.00     0.000 C 
BRANCH   4   5
ATOM      5  C   UNL     1      -4.875  19.430 -14.509  1.00  0.00     0.000 C 
BRANCH   5   6
ATOM      6  C   UNL     1      -4.938  20.371 -13.288  1.00  0.00     0.000 C 
BRANCH   6   7
ATOM      7  C   UNL     1      -6.275  21.125 -13.160  1.00  0.00     0.000 C 
BRANCH   7   8
ATOM      8  C   UNL     1      -7.102  21.106 -14.452  1.00  0.00     0.000 C 
BRANCH   8   9
ATOM      9  C   UNL     1      -8.280  20.130 -14.347  1.00  0.00     0.000 C 
BRANCH   9  10
ATOM     10  C   UNL     1      -8.138  19.237 -13.105  1.00  0.00     0.006 C 
BRANCH  10  11
ATOM     11  C   UNL     1      -8.696  17.828 -13.339  1.00  0.00     0.053 C 
BRANCH  11  12
ATOM     12  C   UNL     1      -8.223  16.862 -12.295  1.00  0.00     0.041 C 
ATOM     13  O   UNL     1      -7.023  16.872 -11.920  1.00  0.00    -0.550 OA
ATOM     14  O   UNL     1      -9.113  15.956 -11.730  1.00  0.00    -0.550 OA
ENDBRANCH  11  12
ENDBRANCH  10  11
ENDBRANCH   9  10
ENDBRANCH   8   9
ENDBRANCH   7   8
ENDBRANCH   6   7
ENDBRANCH   5   6
ENDBRANCH   4   5
ENDBRANCH   3   4
ENDBRANCH   2   3
ENDBRANCH   1   2
BRANCH   1  15
ATOM     15  C   UNL     1      -7.211  13.444 -14.748  1.00  0.00     0.000 C 
BRANCH  15  16
ATOM     16  C   UNL     1      -5.840  12.748 -14.701  1.00  0.00     0.000 C 
BRANCH  16  17
ATOM     17  C   UNL     1      -5.331  12.542 -13.259  1.00  0.00     0.000 C 
BRANCH  17  18
ATOM     18  C   UNL     1      -6.386  11.944 -12.310  1.00  0.00    -0.000 C 
BRANCH  18  19
ATOM     19  C   UNL     1      -7.244  12.978 -11.563  1.00  0.00    -0.000 C 
BRANCH  19  20
ATOM     20  C   UNL     1      -7.245  12.756 -10.041  1.00  0.00    -0.000 C 
BRANCH  20  21
ATOM     21  C   UNL     1      -5.999  13.347  -9.359  1.00  0.00    -0.000 C 
BRANCH  21  22
ATOM     22  C   UNL     1      -6.251  13.690  -7.880  1.00  0.00    -0.000 C 
BRANCH  22  23
ATOM     23  C   UNL     1      -6.527  12.447  -7.013  1.00  0.00    -0.000 C 
BRANCH  23  24
ATOM     24  C   UNL     1      -6.585  12.707  -5.496  1.00  0.00    -0.000 C 
BRANCH  24  25
ATOM     25  C   UNL     1      -7.611  11.823  -4.773  1.00  0.00    -0.003 C 
ATOM     26  C   UNL     1      -8.715  11.372  -5.725  1.00  0.00     0.004 C 
ENDBRANCH  24  25
ENDBRANCH  23  24
ENDBRANCH  22  23
ENDBRANCH  21  22
ENDBRANCH  20  21
ENDBRANCH  19  20
ENDBRANCH  18  19
ENDBRANCH  17  18
ENDBRANCH  16  17
ENDBRANCH  15  16
ENDBRANCH   1  15
TORSDOF 22
ENDMDL
MODEL 3
REMARK VINA RESULT:     8.418      2.146      4.027
REMARK INTER + INTRA:          18.392
REMARK INTER:                  19.051
REMARK INTRA:                  -0.659
REMARK UNBOUND:                -0.853
REMARK SMILES CCCCCCCCCCCCCCCCCCCCCCCC(=O)[O-]
REMARK SMILES IDX 13 1 14 2 15 3 16 4 17 5 18 6 19 7 20 8 21 9 22 10 23 11
REMARK SMILES IDX 24 12 25 13 26 14 12 15 11 16 10 17 9 18 8 19 7 20 6 21 5 22
REMARK SMILES IDX 4 23 3 24 2 25 1 26
REMARK H PARENT
REMARK Flexibility Score: inf
ROOT
ATOM      1  C   UNL     1      -7.629  15.146 -11.375  1.00  0.00     0.000 C 
ENDROOT
BRANCH   1   2
ATOM      2  C   UNL     1      -9.123  15.473 -11.217  1.00  0.00     0.000 C 
BRANCH   2   3
ATOM      3  C   UNL     1      -9.808  14.632 -10.125  1.00  0.00     0.000 C 
BRANCH   3   4
ATOM      4  C   UNL     1     -11.103  15.273  -9.605  1.00  0.00     0.000 C 
BRANCH   4   5
ATOM      5  C   UNL     1     -11.289  15.112  -8.084  1.00  0.00     0.000 C 
BRANCH   5   6
ATOM      6  C   UNL     1     -11.585  13.651  -7.688  1.00  0.00     0.000 C 
BRANCH   6   7
ATOM      7  C   UNL     1     -10.319  12.794  -7.504  1.00  0.00     0.000 C 
BRANCH   7   8
ATOM      8  C   UNL     1     -10.024  12.464  -6.034  1.00  0.00     0.000 C 
BRANCH   8   9
ATOM      9  C   UNL     1      -9.830  10.958  -5.829  1.00  0.00     0.000 C 
BRANCH   9  10
ATOM     10  C   UNL     1      -8.390  10.648  -5.395  1.00  0.00     0.006 C 
BRANCH  10  11
ATOM     11  C   UNL     1      -7.367  11.557  -6.087  1.00  0.00     0.053 C 
BRANCH  11  12
ATOM     12  C   UNL     1      -6.898  12.657  -5.185  1.00  0.00     0.041 C 
ATOM     13  O   UNL     1      -6.879  12.489  -3.938  1.00  0.00    -0.550 OA
ATOM     14  O   UNL     1      -6.473  13.867  -5.722  1.00  0.00    -0.550 OA
ENDBRANCH  11  12
ENDBRANCH  10  11
ENDBRANCH   9  10
ENDBRANCH   8   9
ENDBRANCH   7   8
ENDBRANCH   6   7
ENDBRANCH   5   6
ENDBRANCH   4   5
ENDBRANCH   3   4
ENDBRANCH   2   3
ENDBRANCH   1   2
BRANCH   1  15
ATOM     15  C   UNL     1      -7.351  13.682 -11.770  1.00  0.00     0.000 C 
BRANCH  15  16
ATOM     16  C   UNL     1      -6.628  13.568 -13.123  1.00  0.00     0.000 C 
BRANCH  16  17
ATOM     17  C   UNL     1      -7.140  14.596 -14.154  1.00  0.00     0.000 C 
BRANCH  17  18
ATOM     18  C   UNL     1      -6.319  15.898 -14.191  1.00  0.00    -0.000 C 
BRANCH  18  19
ATOM     19  C   UNL     1      -6.907  17.008 -15.078  1.00  0.00    -0.000 C 
BRANCH  19  20
ATOM     20  C   UNL     1      -8.267  17.515 -14.566  1.00  0.00    -0.000 C 
BRANCH  20  21
ATOM     21  C   UNL     1      -8.123  18.564 -13.452  1.00  0.00    -0.000 C 
BRANCH  21  22
ATOM     22  C   UNL     1      -7.903  19.982 -14.010  1.00  0.00    -0.000 C 
BRANCH  22  23
ATOM     23  C   UNL     1      -7.237  20.931 -12.995  1.00  0.00    -0.000 C 
BRANCH  23  24
ATOM     24  C   UNL     1      -5.708  21.052 -13.119  1.00  0.00    -0.000 C 
BRANCH  24  25
ATOM     25  C   UNL     1      -5.213  20.962 -14.571  1.00  0.00    -0.003 C 
ATOM     26  C   UNL     1      -4.876  19.523 -14.947  1.00  0.00     0.004 C 
ENDBRANCH  24  25
ENDBRANCH  23  24
ENDBRANCH  22  23
ENDBRANCH  21  22
ENDBRANCH  20  21
ENDBRANCH  19  20
ENDBRANCH  18  19
ENDBRANCH  17  18
ENDBRANCH  16  17
ENDBRANCH  15  16
ENDBRANCH   1  15
TORSDOF 22
ENDMDL
MODEL 4
REMARK VINA RESULT:     8.661      3.695      9.876
REMARK INTER + INTRA:          18.946
REMARK INTER:                  20.555
REMARK INTRA:                  -1.608
REMARK UNBOUND:                -0.853
REMARK SMILES CCCCCCCCCCCCCCCCCCCCCCCC(=O)[O-]
REMARK SMILES IDX 13 1 14 2 15 3 16 4 17 5 18 6 19 7 20 8 21 9 22 10 23 11
REMARK SMILES IDX 24 12 25 13 26 14 12 15 11 16 10 17 9 18 8 19 7 20 6 21 5 22
REMARK SMILES IDX 4 23 3 24 2 25 1 26
REMARK H PARENT
REMARK Flexibility Score: inf
ROOT
ATOM      1  C   UNL     1      -9.681  15.648 -10.299  1.00  0.00     0.000 C 
ENDROOT
BRANCH   1   2
ATOM      2  C   UNL     1      -9.398  15.953 -11.778  1.00  0.00     0.000 C 
BRANCH   2   3
ATOM      3  C   UNL     1      -7.902  15.868 -12.132  1.00  0.00     0.000 C 
BRANCH   3   4
ATOM      4  C   UNL     1      -7.384  14.424 -12.183  1.00  0.00     0.000 C 
BRANCH   4   5
ATOM      5  C   UNL     1      -7.404  13.824 -13.603  1.00  0.00     0.000 C 
BRANCH   5   6
ATOM      6  C   UNL     1      -7.254  14.908 -14.691  1.00  0.00     0.000 C 
BRANCH   6   7
ATOM      7  C   UNL     1      -5.790  15.230 -15.042  1.00  0.00     0.000 C 
BRANCH   7   8
ATOM      8  C   UNL     1      -5.370  16.648 -14.630  1.00  0.00     0.000 C 
BRANCH   8   9
ATOM      9  C   UNL     1      -6.376  17.693 -15.125  1.00  0.00     0.000 C 
BRANCH   9  10
ATOM     10  C   UNL     1      -5.821  19.113 -14.942  1.00  0.00     0.006 C 
BRANCH  10  11
ATOM     11  C   UNL     1      -6.908  20.110 -14.521  1.00  0.00     0.053 C 
BRANCH  11  12
ATOM     12  C   UNL     1      -7.205  20.025 -13.055  1.00  0.00     0.041 C 
ATOM     13  O   UNL     1      -6.439  20.572 -12.221  1.00  0.00    -0.550 OA
ATOM     14  O   UNL     1      -8.335  19.348 -12.610  1.00  0.00    -0.550 OA
ENDBRANCH  11  12
ENDBRANCH  10  11
ENDBRANCH   9  10
ENDBRANCH   8   9
ENDBRANCH   7   8
ENDBRANCH   6   7
ENDBRANCH   5   6
ENDBRANCH   4   5
ENDBRANCH   3   4
ENDBRANCH   2   3
ENDBRANCH   1   2
BRANCH   1  15
ATOM     15  C   UNL     1     -11.105  15.119 -10.033  1.00  0.00     0.000 C 
BRANCH  15  16
ATOM     16  C   UNL     1     -11.628  15.518  -8.642  1.00  0.00     0.000 C 
BRANCH  16  17
ATOM     17  C   UNL     1     -12.100  14.302  -7.817  1.00  0.00     0.000 C 
BRANCH  17  18
ATOM     18  C   UNL     1     -10.988  13.275  -7.536  1.00  0.00    -0.000 C 
BRANCH  18  19
ATOM     19  C   UNL     1     -10.520  13.214  -6.073  1.00  0.00    -0.000 C 
BRANCH  19  20
ATOM     20  C   UNL     1     -10.122  11.792  -5.639  1.00  0.00    -0.000 C 
BRANCH  20  21
ATOM     21  C   UNL     1      -8.829  11.309  -6.316  1.00  0.00    -0.000 C 
BRANCH  21  22
ATOM     22  C   UNL     1      -7.784  10.819  -5.297  1.00  0.00    -0.000 C 
BRANCH  22  23
ATOM     23  C   UNL     1      -6.775  11.912  -4.898  1.00  0.00    -0.000 C 
BRANCH  23  24
ATOM     24  C   UNL     1      -6.215  11.794  -3.469  1.00  0.00    -0.000 C 
BRANCH  24  25
ATOM     25  C   UNL     1      -6.822  10.625  -2.679  1.00  0.00    -0.003 C 
ATOM     26  C   UNL     1      -7.114  11.030  -1.238  1.00  0.00     0.004 C 
ENDBRANCH  24  25
ENDBRANCH  23  24
ENDBRANCH  22  23
ENDBRANCH  21  22
ENDBRANCH  20  21
ENDBRANCH  19  20
ENDBRANCH  18  19
ENDBRANCH  17  18
ENDBRANCH  16  17
ENDBRANCH  15  16
ENDBRANCH   1  15
TORSDOF 22
ENDMDL
MODEL 5
REMARK VINA RESULT:     8.744      2.175      4.196
REMARK INTER + INTRA:          19.137
REMARK INTER:                  20.722
REMARK INTRA:                  -1.585
REMARK UNBOUND:                -0.853
REMARK SMILES CCCCCCCCCCCCCCCCCCCCCCCC(=O)[O-]
REMARK SMILES IDX 13 1 14 2 15 3 16 4 17 5 18 6 19 7 20 8 21 9 22 10 23 11
REMARK SMILES IDX 24 12 25 13 26 14 12 15 11 16 10 17 9 18 8 19 7 20 6 21 5 22
REMARK SMILES IDX 4 23 3 24 2 25 1 26
REMARK H PARENT
REMARK Flexibility Score: inf
ROOT
ATOM      1  C   UNL     1      -9.091  15.972 -11.100  1.00  0.00     0.000 C 
ENDROOT
BRANCH   1   2
ATOM      2  C   UNL     1     -10.475  15.417 -10.727  1.00  0.00     0.000 C 
BRANCH   2   3
ATOM      3  C   UNL     1     -10.448  14.547  -9.457  1.00  0.00     0.000 C 
BRANCH   3   4
ATOM      4  C   UNL     1     -11.693  14.740  -8.578  1.00  0.00     0.000 C 
BRANCH   4   5
ATOM      5  C   UNL     1     -11.710  13.818  -7.344  1.00  0.00     0.000 C 
BRANCH   5   6
ATOM      6  C   UNL     1     -10.390  13.037  -7.186  1.00  0.00     0.000 C 
BRANCH   6   7
ATOM      7  C   UNL     1     -10.141  12.530  -5.753  1.00  0.00     0.000 C 
BRANCH   7   8
ATOM      8  C   UNL     1      -9.561  11.110  -5.710  1.00  0.00     0.000 C 
BRANCH   8   9
ATOM      9  C   UNL     1      -8.750  10.877  -4.430  1.00  0.00     0.000 C 
BRANCH   9  10
ATOM     10  C   UNL     1      -7.253  11.106  -4.684  1.00  0.00     0.006 C 
BRANCH  10  11
ATOM     11  C   UNL     1      -6.904  12.596  -4.787  1.00  0.00     0.053 C 
BRANCH  11  12
ATOM     12  C   UNL     1      -6.182  12.912  -6.061  1.00  0.00     0.041 C 
ATOM     13  O   UNL     1      -5.675  11.988  -6.748  1.00  0.00    -0.550 OA
ATOM     14  O   UNL     1      -6.075  14.229  -6.495  1.00  0.00    -0.550 OA
ENDBRANCH  11  12
ENDBRANCH  10  11
ENDBRANCH   9  10
ENDBRANCH   8   9
ENDBRANCH   7   8
ENDBRANCH   6   7
ENDBRANCH   5   6
ENDBRANCH   4   5
ENDBRANCH   3   4
ENDBRANCH   2   3
ENDBRANCH   1   2
BRANCH   1  15
ATOM     15  C   UNL     1      -9.116  16.964 -12.281  1.00  0.00     0.000 C 
BRANCH  15  16
ATOM     16  C   UNL     1      -8.020  18.038 -12.167  1.00  0.00     0.000 C 
BRANCH  16  17
ATOM     17  C   UNL     1      -8.433  19.375 -12.817  1.00  0.00     0.000 C 
BRANCH  17  18
ATOM     18  C   UNL     1      -7.387  19.938 -13.795  1.00  0.00    -0.000 C 
BRANCH  18  19
ATOM     19  C   UNL     1      -6.040  20.313 -13.156  1.00  0.00    -0.000 C 
BRANCH  19  20
ATOM     20  C   UNL     1      -4.875  19.459 -13.687  1.00  0.00    -0.000 C 
BRANCH  20  21
ATOM     21  C   UNL     1      -5.158  18.881 -15.083  1.00  0.00    -0.000 C 
BRANCH  21  22
ATOM     22  C   UNL     1      -4.996  17.350 -15.124  1.00  0.00    -0.000 C 
BRANCH  22  23
ATOM     23  C   UNL     1      -5.799  16.631 -14.024  1.00  0.00    -0.000 C 
BRANCH  23  24
ATOM     24  C   UNL     1      -6.718  15.500 -14.519  1.00  0.00    -0.000 C 
BRANCH  24  25
ATOM     25  C   UNL     1      -6.298  14.114 -14.006  1.00  0.00    -0.003 C 
ATOM     26  C   UNL     1      -7.433  13.107 -14.155  1.00  0.00     0.004 C 
ENDBRANCH  24  25
ENDBRANCH  23  24
ENDBRANCH  22  23
ENDBRANCH  21  22
ENDBRANCH  20  21
ENDBRANCH  19  20
ENDBRANCH  18  19
ENDBRANCH  17  18
ENDBRANCH  16  17
ENDBRANCH  15  16
ENDBRANCH   1  15
TORSDOF 22
ENDMDL
MODEL 6
REMARK VINA RESULT:     8.795      2.308      2.702
REMARK INTER + INTRA:          19.255
REMARK INTER:                  18.700
REMARK INTRA:                   0.554
REMARK UNBOUND:                -0.853
REMARK SMILES CCCCCCCCCCCCCCCCCCCCCCCC(=O)[O-]
REMARK SMILES IDX 13 1 14 2 15 3 16 4 17 5 18 6 19 7 20 8 21 9 22 10 23 11
REMARK SMILES IDX 24 12 25 13 26 14 12 15 11 16 10 17 9 18 8 19 7 20 6 21 5 22
REMARK SMILES IDX 4 23 3 24 2 25 1 26
REMARK H PARENT
REMARK Flexibility Score: inf
ROOT
ATOM      1  C   UNL     1      -8.132  14.758 -14.785  1.00  0.00     0.000 C 
ENDROOT
BRANCH   1   2
ATOM      2  C   UNL     1      -8.560  13.289 -14.935  1.00  0.00     0.000 C 
BRANCH   2   3
ATOM      3  C   UNL     1      -7.403  12.301 -14.698  1.00  0.00     0.000 C 
BRANCH   3   4
ATOM      4  C   UNL     1      -6.502  12.711 -13.523  1.00  0.00     0.000 C 
BRANCH   4   5
ATOM      5  C   UNL     1      -7.171  13.722 -12.573  1.00  0.00     0.000 C 
BRANCH   5   6
ATOM      6  C   UNL     1      -6.950  13.356 -11.090  1.00  0.00     0.000 C 
BRANCH   6   7
ATOM      7  C   UNL     1      -8.127  13.749 -10.178  1.00  0.00     0.000 C 
BRANCH   7   8
ATOM      8  C   UNL     1      -8.302  12.802  -8.982  1.00  0.00     0.000 C 
BRANCH   8   9
ATOM      9  C   UNL     1      -9.784  12.541  -8.690  1.00  0.00     0.000 C 
BRANCH   9  10
ATOM     10  C   UNL     1     -10.258  13.371  -7.488  1.00  0.00     0.006 C 
BRANCH  10  11
ATOM     11  C   UNL     1     -11.750  13.715  -7.574  1.00  0.00     0.053 C 
BRANCH  11  12
ATOM     12  C   UNL     1     -11.970  15.150  -7.947  1.00  0.00     0.041 C 
ATOM     13  O   UNL     1     -12.810  15.846  -7.320  1.00  0.00    -0.550 OA
ATOM     14  O   UNL     1     -11.241  15.721  -8.984  1.00  0.00    -0.550 OA
ENDBRANCH  11  12
ENDBRANCH  10  11
ENDBRANCH   9  10
ENDBRANCH   8   9
ENDBRANCH   7   8
ENDBRANCH   6   7
ENDBRANCH   5   6
ENDBRANCH   4   5
ENDBRANCH   3   4
ENDBRANCH   2   3
ENDBRANCH   1   2
BRANCH   1  15
ATOM     15  C   UNL     1      -6.638  15.004 -15.079  1.00  0.00     0.000 C 
BRANCH  15  16
ATOM     16  C   UNL     1      -6.289  16.502 -15.124  1.00  0.00     0.000 C 
BRANCH  16  17
ATOM     17  C   UNL     1      -5.161  16.875 -14.139  1.00  0.00     0.000 C 
BRANCH  17  18
ATOM     18  C   UNL     1      -4.875  18.386 -14.069  1.00  0.00    -0.000 C 
BRANCH  18  19
ATOM     19  C   UNL     1      -5.642  19.238 -15.094  1.00  0.00    -0.000 C 
BRANCH  19  20
ATOM     20  C   UNL     1      -6.219  20.525 -14.480  1.00  0.00    -0.000 C 
BRANCH  20  21
ATOM     21  C   UNL     1      -7.715  20.704 -14.783  1.00  0.00    -0.000 C 
BRANCH  21  22
ATOM     22  C   UNL     1      -8.556  19.510 -14.294  1.00  0.00    -0.000 C 
BRANCH  22  23
ATOM     23  C   UNL     1      -8.441  19.275 -12.776  1.00  0.00    -0.000 C 
BRANCH  23  24
ATOM     24  C   UNL     1      -7.645  18.023 -12.366  1.00  0.00    -0.000 C 
BRANCH  24  25
ATOM     25  C   UNL     1      -8.542  16.863 -11.908  1.00  0.00    -0.003 C 
ATOM     26  C   UNL     1      -9.767  16.729 -12.807  1.00  0.00     0.004 C 
ENDBRANCH  24  25
ENDBRANCH  23  24
ENDBRANCH  22  23
ENDBRANCH  21  22
ENDBRANCH  20  21
ENDBRANCH  19  20
ENDBRANCH  18  19
ENDBRANCH  17  18
ENDBRANCH  16  17
ENDBRANCH  15  16
ENDBRANCH   1  15
TORSDOF 22
ENDMDL
