MODEL 1
REMARK VINA RESULT:    -3.645      0.000      0.000
REMARK INTER + INTRA:          -5.515
REMARK INTER:                  -4.924
REMARK INTRA:                  -0.591
REMARK UNBOUND:                -0.591
REMARK SMILES CCCCCCC=CC(=O)[O-]
REMARK SMILES IDX 5 1 6 2 7 3 8 4 9 5 10 6 11 7 4 8 3 9 2 10 1 11
REMARK H PARENT
REMARK Flexibility Score: inf
ROOT
ATOM      1  C   UNL     1      14.693  -1.997   0.760  1.00  0.00     0.004 C 
ENDROOT
BRANCH   1   2
ATOM      2  C   UNL     1      14.108  -2.812  -0.407  1.00  0.00     0.027 C 
BRANCH   2   3
ATOM      3  C   UNL     1      15.110  -3.058  -1.501  1.00  0.00    -0.025 C 
ATOM      4  C   UNL     1      16.284  -3.647  -1.255  1.00  0.00     0.020 C 
BRANCH   4   5
ATOM      5  C   UNL     1      17.269  -3.898  -2.316  1.00  0.00     0.064 C 
ATOM      6  O   UNL     1      17.809  -5.031  -2.409  1.00  0.00    -0.545 OA
ATOM      7  O   UNL     1      17.617  -2.901  -3.221  1.00  0.00    -0.545 OA
ENDBRANCH   4   5
ENDBRANCH   2   3
ENDBRANCH   1   2
BRANCH   1   8
ATOM      8  C   UNL     1      14.971  -2.820   2.032  1.00  0.00     0.000 C 
BRANCH   8   9
ATOM      9  C   UNL     1      13.875  -3.860   2.319  1.00  0.00    -0.000 C 
BRANCH   9  10
ATOM     10  C   UNL     1      14.439  -5.281   2.478  1.00  0.00    -0.003 C 
ATOM     11  C   UNL     1      14.547  -6.029   1.150  1.00  0.00     0.004 C 
ENDBRANCH   9  10
ENDBRANCH   8   9
ENDBRANCH   1   8
TORSDOF 6
ENDMDL
MODEL 2
REMARK VINA RESULT:    -3.632      1.991      3.099
REMARK INTER + INTRA:          -5.496
REMARK INTER:                  -5.242
REMARK INTRA:                  -0.255
REMARK UNBOUND:                -0.591
REMARK SMILES CCCCCCC=CC(=O)[O-]
REMARK SMILES IDX 5 1 6 2 7 3 8 4 9 5 10 6 11 7 4 8 3 9 2 10 1 11
REMARK H PARENT
REMARK Flexibility Score: inf
ROOT
ATOM      1  C   UNL     1      14.204  -3.825   2.627  1.00  0.00     0.004 C 
ENDROOT
BRANCH   1   2
ATOM      2  C   UNL     1      14.672  -4.868   1.596  1.00  0.00     0.027 C 
BRANCH   2   3
ATOM      3  C   UNL     1      15.558  -4.276   0.535  1.00  0.00    -0.025 C 
ATOM      4  C   UNL     1      15.990  -5.003  -0.501  1.00  0.00     0.020 C 
BRANCH   4   5
ATOM      5  C   UNL     1      16.852  -4.434  -1.547  1.00  0.00     0.064 C 
ATOM      6  O   UNL     1      17.581  -5.196  -2.234  1.00  0.00    -0.545 OA
ATOM      7  O   UNL     1      16.877  -3.065  -1.789  1.00  0.00    -0.545 OA
ENDBRANCH   4   5
ENDBRANCH   2   3
ENDBRANCH   1   2
BRANCH   1   8
ATOM      8  C   UNL     1      14.840  -2.432   2.456  1.00  0.00     0.000 C 
BRANCH   8   9
ATOM      9  C   UNL     1      14.041  -1.323   3.161  1.00  0.00    -0.000 C 
BRANCH   9  10
ATOM     10  C   UNL     1      14.070  -1.460   4.691  1.00  0.00    -0.003 C 
ATOM     11  C   UNL     1      14.793  -0.301   5.377  1.00  0.00     0.004 C 
ENDBRANCH   9  10
ENDBRANCH   8   9
ENDBRANCH   1   8
TORSDOF 6
ENDMDL
MODEL 3
REMARK VINA RESULT:    -3.594      1.084      2.414
REMARK INTER + INTRA:          -5.446
REMARK INTER:                  -4.778
REMARK INTRA:                  -0.668
REMARK UNBOUND:                -0.591
REMARK SMILES CCCCCCC=CC(=O)[O-]
REMARK SMILES IDX 5 1 6 2 7 3 8 4 9 5 10 6 11 7 4 8 3 9 2 10 1 11
REMARK H PARENT
REMARK Flexibility Score: inf
ROOT
ATOM      1  C   UNL     1      15.013  -5.529   0.662  1.00  0.00     0.004 C 
ENDROOT
BRANCH   1   2
ATOM      2  C   UNL     1      14.527  -5.685  -0.790  1.00  0.00     0.027 C 
BRANCH   2   3
ATOM      3  C   UNL     1      15.388  -4.939  -1.772  1.00  0.00    -0.025 C 
ATOM      4  C   UNL     1      16.665  -4.647  -1.502  1.00  0.00     0.020 C 
BRANCH   4   5
ATOM      5  C   UNL     1      17.518  -3.923  -2.456  1.00  0.00     0.064 C 
ATOM      6  O   UNL     1      18.364  -4.558  -3.139  1.00  0.00    -0.545 OA
ATOM      7  O   UNL     1      17.406  -2.547  -2.616  1.00  0.00    -0.545 OA
ENDBRANCH   4   5
ENDBRANCH   2   3
ENDBRANCH   1   2
BRANCH   1   8
ATOM      8  C   UNL     1      14.194  -4.531   1.503  1.00  0.00     0.000 C 
BRANCH   8   9
ATOM      9  C   UNL     1      15.037  -3.347   2.006  1.00  0.00    -0.000 C 
BRANCH   9  10
ATOM     10  C   UNL     1      14.515  -1.995   1.497  1.00  0.00    -0.003 C 
ATOM     11  C   UNL     1      14.687  -1.822  -0.012  1.00  0.00     0.004 C 
ENDBRANCH   9  10
ENDBRANCH   8   9
ENDBRANCH   1   8
TORSDOF 6
ENDMDL
MODEL 4
REMARK VINA RESULT:    -3.562      2.888      4.945
REMARK INTER + INTRA:          -5.403
REMARK INTER:                  -4.700
REMARK INTRA:                  -0.703
REMARK UNBOUND:                -0.591
REMARK SMILES CCCCCCC=CC(=O)[O-]
REMARK SMILES IDX 5 1 6 2 7 3 8 4 9 5 10 6 11 7 4 8 3 9 2 10 1 11
REMARK H PARENT
REMARK Flexibility Score: inf
ROOT
ATOM      1  C   UNL     1      17.491  -3.936  -1.994  1.00  0.00     0.004 C 
ENDROOT
BRANCH   1   2
ATOM      2  C   UNL     1      16.281  -3.057  -1.627  1.00  0.00     0.027 C 
BRANCH   2   3
ATOM      3  C   UNL     1      15.495  -3.609  -0.470  1.00  0.00    -0.025 C 
ATOM      4  C   UNL     1      15.639  -4.875  -0.066  1.00  0.00     0.020 C 
BRANCH   4   5
ATOM      5  C   UNL     1      14.880  -5.424   1.066  1.00  0.00     0.064 C 
ATOM      6  O   UNL     1      14.848  -6.669   1.249  1.00  0.00    -0.545 OA
ATOM      7  O   UNL     1      14.194  -4.588   1.941  1.00  0.00    -0.545 OA
ENDBRANCH   4   5
ENDBRANCH   2   3
ENDBRANCH   1   2
BRANCH   1   8
ATOM      8  C   UNL     1      17.425  -4.550  -3.406  1.00  0.00     0.000 C 
BRANCH   8   9
ATOM      9  C   UNL     1      17.160  -6.064  -3.383  1.00  0.00    -0.000 C 
BRANCH   9  10
ATOM     10  C   UNL     1      15.661  -6.400  -3.427  1.00  0.00    -0.003 C 
ATOM     11  C   UNL     1      14.838  -5.346  -4.167  1.00  0.00     0.004 C 
ENDBRANCH   9  10
ENDBRANCH   8   9
ENDBRANCH   1   8
TORSDOF 6
ENDMDL
MODEL 5
REMARK VINA RESULT:    -3.511      3.702      4.920
REMARK INTER + INTRA:          -5.334
REMARK INTER:                  -4.592
REMARK INTRA:                  -0.741
REMARK UNBOUND:                -0.591
REMARK SMILES CCCCCCC=CC(=O)[O-]
REMARK SMILES IDX 5 1 6 2 7 3 8 4 9 5 10 6 11 7 4 8 3 9 2 10 1 11
REMARK H PARENT
REMARK Flexibility Score: inf
ROOT
ATOM      1  C   UNL     1      17.040  -5.244  -2.519  1.00  0.00     0.004 C 
ENDROOT
BRANCH   1   2
ATOM      2  C   UNL     1      17.037  -3.929  -1.720  1.00  0.00     0.027 C 
BRANCH   2   3
ATOM      3  C   UNL     1      17.258  -2.722  -2.589  1.00  0.00    -0.025 C 
ATOM      4  C   UNL     1      17.783  -2.829  -3.814  1.00  0.00     0.020 C 
BRANCH   4   5
ATOM      5  C   UNL     1      18.000  -1.657  -4.675  1.00  0.00     0.064 C 
ATOM      6  O   UNL     1      19.100  -1.048  -4.631  1.00  0.00    -0.545 OA
ATOM      7  O   UNL     1      17.005  -1.208  -5.537  1.00  0.00    -0.545 OA
ENDBRANCH   4   5
ENDBRANCH   2   3
ENDBRANCH   1   2
BRANCH   1   8
ATOM      8  C   UNL     1      15.654  -5.898  -2.672  1.00  0.00     0.000 C 
BRANCH   8   9
ATOM      9  C   UNL     1      15.026  -5.645  -4.053  1.00  0.00    -0.000 C 
BRANCH   9  10
ATOM     10  C   UNL     1      14.216  -4.340  -4.101  1.00  0.00    -0.003 C 
ATOM     11  C   UNL     1      14.426  -3.559  -5.398  1.00  0.00     0.004 C 
ENDBRANCH   9  10
ENDBRANCH   8   9
ENDBRANCH   1   8
TORSDOF 6
ENDMDL
MODEL 6
REMARK VINA RESULT:    -3.498     13.516     15.296
REMARK INTER + INTRA:          -5.316
REMARK INTER:                  -4.602
REMARK INTRA:                  -0.714
REMARK UNBOUND:                -0.591
REMARK SMILES CCCCCCC=CC(=O)[O-]
REMARK SMILES IDX 5 1 6 2 7 3 8 4 9 5 10 6 11 7 4 8 3 9 2 10 1 11
REMARK H PARENT
REMARK Flexibility Score: inf
ROOT
ATOM      1  C   UNL     1      31.927  -0.946  -0.388  1.00  0.00     0.004 C 
ENDROOT
BRANCH   1   2
ATOM      2  C   UNL     1      31.087   0.260   0.072  1.00  0.00     0.027 C 
BRANCH   2   3
ATOM      3  C   UNL     1      29.696  -0.129   0.489  1.00  0.00    -0.025 C 
ATOM      4  C   UNL     1      28.935  -0.925  -0.268  1.00  0.00     0.020 C 
BRANCH   4   5
ATOM      5  C   UNL     1      27.576  -1.316   0.132  1.00  0.00     0.064 C 
ATOM      6  O   UNL     1      26.597  -0.991  -0.590  1.00  0.00    -0.545 OA
ATOM      7  O   UNL     1      27.352  -2.040   1.298  1.00  0.00    -0.545 OA
ENDBRANCH   4   5
ENDBRANCH   2   3
ENDBRANCH   1   2
BRANCH   1   8
ATOM      8  C   UNL     1      32.971  -1.422   0.640  1.00  0.00     0.000 C 
BRANCH   8   9
ATOM      9  C   UNL     1      32.862  -2.925   0.944  1.00  0.00    -0.000 C 
BRANCH   9  10
ATOM     10  C   UNL     1      31.512  -3.517   0.511  1.00  0.00    -0.003 C 
ATOM     11  C   UNL     1      30.523  -3.648   1.669  1.00  0.00     0.004 C 
ENDBRANCH   9  10
ENDBRANCH   8   9
ENDBRANCH   1   8
TORSDOF 6
ENDMDL
MODEL 7
REMARK VINA RESULT:    -3.478     14.176     16.147
REMARK INTER + INTRA:          -5.288
REMARK INTER:                  -4.664
REMARK INTRA:                  -0.624
REMARK UNBOUND:                -0.591
REMARK SMILES CCCCCCC=CC(=O)[O-]
REMARK SMILES IDX 5 1 6 2 7 3 8 4 9 5 10 6 11 7 4 8 3 9 2 10 1 11
REMARK H PARENT
REMARK Flexibility Score: inf
ROOT
ATOM      1  C   UNL     1      32.455  -3.874   1.589  1.00  0.00     0.004 C 
ENDROOT
BRANCH   1   2
ATOM      2  C   UNL     1      31.098  -4.191   0.936  1.00  0.00     0.027 C 
BRANCH   2   3
ATOM      3  C   UNL     1      30.036  -3.188   1.291  1.00  0.00    -0.025 C 
ATOM      4  C   UNL     1      29.425  -2.454   0.356  1.00  0.00     0.020 C 
BRANCH   4   5
ATOM      5  C   UNL     1      28.382  -1.474   0.691  1.00  0.00     0.064 C 
ATOM      6  O   UNL     1      28.625  -0.244   0.577  1.00  0.00    -0.545 OA
ATOM      7  O   UNL     1      27.130  -1.884   1.134  1.00  0.00    -0.545 OA
ENDBRANCH   4   5
ENDBRANCH   2   3
ENDBRANCH   1   2
BRANCH   1   8
ATOM      8  C   UNL     1      33.456  -3.161   0.659  1.00  0.00     0.000 C 
BRANCH   8   9
ATOM      9  C   UNL     1      33.297  -1.632   0.678  1.00  0.00    -0.000 C 
BRANCH   9  10
ATOM     10  C   UNL     1      33.192  -1.034  -0.734  1.00  0.00    -0.003 C 
ATOM     11  C   UNL     1      31.968  -0.135  -0.908  1.00  0.00     0.004 C 
ENDBRANCH   9  10
ENDBRANCH   8   9
ENDBRANCH   1   8
TORSDOF 6
ENDMDL
MODEL 8
REMARK VINA RESULT:    -3.418      3.084      6.121
REMARK INTER + INTRA:          -5.208
REMARK INTER:                  -4.893
REMARK INTRA:                  -0.315
REMARK UNBOUND:                -0.591
REMARK SMILES CCCCCCC=CC(=O)[O-]
REMARK SMILES IDX 5 1 6 2 7 3 8 4 9 5 10 6 11 7 4 8 3 9 2 10 1 11
REMARK H PARENT
REMARK Flexibility Score: inf
ROOT
ATOM      1  C   UNL     1      17.987  -3.560  -3.473  1.00  0.00     0.004 C 
ENDROOT
BRANCH   1   2
ATOM      2  C   UNL     1      17.681  -5.022  -3.100  1.00  0.00     0.027 C 
BRANCH   2   3
ATOM      3  C   UNL     1      16.612  -5.139  -2.049  1.00  0.00    -0.025 C 
ATOM      4  C   UNL     1      16.786  -4.651  -0.816  1.00  0.00     0.020 C 
BRANCH   4   5
ATOM      5  C   UNL     1      15.746  -4.755   0.218  1.00  0.00     0.064 C 
ATOM      6  O   UNL     1      15.339  -5.891   0.577  1.00  0.00    -0.545 OA
ATOM      7  O   UNL     1      15.204  -3.618   0.806  1.00  0.00    -0.545 OA
ENDBRANCH   4   5
ENDBRANCH   2   3
ENDBRANCH   1   2
BRANCH   1   8
ATOM      8  C   UNL     1      16.816  -2.816  -4.143  1.00  0.00     0.000 C 
BRANCH   8   9
ATOM      9  C   UNL     1      17.282  -1.647  -5.026  1.00  0.00    -0.000 C 
BRANCH   9  10
ATOM     10  C   UNL     1      18.797  -1.672  -5.284  1.00  0.00    -0.003 C 
ATOM     11  C   UNL     1      19.456  -0.308  -5.082  1.00  0.00     0.004 C 
ENDBRANCH   9  10
ENDBRANCH   8   9
ENDBRANCH   1   8
TORSDOF 6
ENDMDL
MODEL 9
REMARK VINA RESULT:    -2.636      1.104      1.613
REMARK INTER + INTRA:          -4.151
REMARK INTER:                  -3.801
REMARK INTRA:                  -0.350
REMARK UNBOUND:                -0.591
REMARK SMILES CCCCCCC=CC(=O)[O-]
REMARK SMILES IDX 5 1 6 2 7 3 8 4 9 5 10 6 11 7 4 8 3 9 2 10 1 11
REMARK H PARENT
REMARK Flexibility Score: inf
ROOT
ATOM      1  C   UNL     1      14.998  -2.260  -0.349  1.00  0.00     0.004 C 
ENDROOT
BRANCH   1   2
ATOM      2  C   UNL     1      14.501  -3.159  -1.495  1.00  0.00     0.027 C 
BRANCH   2   3
ATOM      3  C   UNL     1      15.519  -3.316  -2.591  1.00  0.00    -0.025 C 
ATOM      4  C   UNL     1      16.829  -3.362  -2.328  1.00  0.00     0.020 C 
BRANCH   4   5
ATOM      5  C   UNL     1      17.832  -3.520  -3.390  1.00  0.00     0.064 C 
ATOM      6  O   UNL     1      18.450  -4.611  -3.505  1.00  0.00    -0.545 OA
ATOM      7  O   UNL     1      18.112  -2.482  -4.273  1.00  0.00    -0.545 OA
ENDBRANCH   4   5
ENDBRANCH   2   3
ENDBRANCH   1   2
BRANCH   1   8
ATOM      8  C   UNL     1      13.875  -1.616   0.486  1.00  0.00     0.000 C 
BRANCH   8   9
ATOM      9  C   UNL     1      13.955  -1.987   1.976  1.00  0.00    -0.000 C 
BRANCH   9  10
ATOM     10  C   UNL     1      14.935  -3.140   2.244  1.00  0.00    -0.003 C 
ATOM     11  C   UNL     1      14.230  -4.472   2.493  1.00  0.00     0.004 C 
ENDBRANCH   9  10
ENDBRANCH   8   9
ENDBRANCH   1   8
TORSDOF 6
ENDMDL
