MODEL 1
REMARK VINA RESULT:    -3.994      0.000      0.000
REMARK INTER + INTRA:          -5.970
REMARK INTER:                  -5.628
REMARK INTRA:                  -0.342
REMARK UNBOUND:                -0.342
REMARK SMILES CCCCCCCCC(=O)[O-]
REMARK SMILES IDX 6 1 7 2 8 3 9 4 10 5 11 6 5 7 4 8 3 9 2 10 1 11
REMARK H PARENT
REMARK Flexibility Score: inf
ROOT
ATOM      1  C   UNL     1       7.465 -21.002  22.915  1.00  0.00     0.000 C 
ENDROOT
BRANCH   1   2
ATOM      2  C   UNL     1       6.332 -20.382  23.745  1.00  0.00     0.006 C 
BRANCH   2   3
ATOM      3  C   UNL     1       6.596 -18.907  24.077  1.00  0.00     0.053 C 
BRANCH   3   4
ATOM      4  C   UNL     1       7.023 -18.725  25.500  1.00  0.00     0.041 C 
ATOM      5  O   UNL     1       6.833 -19.643  26.341  1.00  0.00    -0.550 OA
ATOM      6  O   UNL     1       7.660 -17.554  25.892  1.00  0.00    -0.550 OA
ENDBRANCH   3   4
ENDBRANCH   2   3
ENDBRANCH   1   2
BRANCH   1   7
ATOM      7  C   UNL     1       7.077 -21.089  21.434  1.00  0.00     0.000 C 
BRANCH   7   8
ATOM      8  C   UNL     1       7.407 -22.472  20.858  1.00  0.00    -0.000 C 
BRANCH   8   9
ATOM      9  C   UNL     1       8.518 -23.154  21.668  1.00  0.00    -0.000 C 
BRANCH   9  10
ATOM     10  C   UNL     1       9.919 -22.868  21.107  1.00  0.00    -0.003 C 
ATOM     11  C   UNL     1      10.989 -22.799  22.196  1.00  0.00     0.004 C 
ENDBRANCH   9  10
ENDBRANCH   8   9
ENDBRANCH   7   8
ENDBRANCH   1   7
TORSDOF 7
ENDMDL
MODEL 2
REMARK VINA RESULT:    -3.946      2.730      4.246
REMARK INTER + INTRA:          -5.903
REMARK INTER:                  -5.329
REMARK INTRA:                  -0.574
REMARK UNBOUND:                -0.342
REMARK SMILES CCCCCCCCC(=O)[O-]
REMARK SMILES IDX 6 1 7 2 8 3 9 4 10 5 11 6 5 7 4 8 3 9 2 10 1 11
REMARK H PARENT
REMARK Flexibility Score: inf
ROOT
ATOM      1  C   UNL     1       8.344 -17.739  22.659  1.00  0.00     0.000 C 
ENDROOT
BRANCH   1   2
ATOM      2  C   UNL     1       7.283 -16.710  23.075  1.00  0.00     0.006 C 
BRANCH   2   3
ATOM      3  C   UNL     1       7.892 -15.331  23.359  1.00  0.00     0.053 C 
BRANCH   3   4
ATOM      4  C   UNL     1       9.012 -15.411  24.350  1.00  0.00     0.041 C 
ATOM      5  O   UNL     1       8.782 -15.751  25.540  1.00  0.00    -0.550 OA
ATOM      6  O   UNL     1      10.315 -15.143  23.951  1.00  0.00    -0.550 OA
ENDBRANCH   3   4
ENDBRANCH   2   3
ENDBRANCH   1   2
BRANCH   1   7
ATOM      7  C   UNL     1       7.705 -18.911  21.901  1.00  0.00     0.000 C 
BRANCH   7   8
ATOM      8  C   UNL     1       7.741 -20.194  22.740  1.00  0.00    -0.000 C 
BRANCH   8   9
ATOM      9  C   UNL     1       6.490 -20.310  23.621  1.00  0.00    -0.000 C 
BRANCH   9  10
ATOM     10  C   UNL     1       6.829 -20.483  25.110  1.00  0.00    -0.003 C 
ATOM     11  C   UNL     1       6.941 -19.151  25.850  1.00  0.00     0.004 C 
ENDBRANCH   9  10
ENDBRANCH   8   9
ENDBRANCH   7   8
ENDBRANCH   1   7
TORSDOF 7
ENDMDL
MODEL 3
REMARK VINA RESULT:    -3.895      2.091      3.063
REMARK INTER + INTRA:          -5.830
REMARK INTER:                  -5.594
REMARK INTRA:                  -0.236
REMARK UNBOUND:                -0.342
REMARK SMILES CCCCCCCCC(=O)[O-]
REMARK SMILES IDX 6 1 7 2 8 3 9 4 10 5 11 6 5 7 4 8 3 9 2 10 1 11
REMARK H PARENT
REMARK Flexibility Score: inf
ROOT
ATOM      1  C   UNL     1       7.478 -18.682  23.230  1.00  0.00     0.000 C 
ENDROOT
BRANCH   1   2
ATOM      2  C   UNL     1       7.190 -17.451  24.102  1.00  0.00     0.006 C 
BRANCH   2   3
ATOM      3  C   UNL     1       7.854 -16.182  23.551  1.00  0.00     0.053 C 
BRANCH   3   4
ATOM      4  C   UNL     1       8.921 -15.670  24.468  1.00  0.00     0.041 C 
ATOM      5  O   UNL     1       8.820 -15.833  25.712  1.00  0.00    -0.550 OA
ATOM      6  O   UNL     1      10.045 -15.042  23.946  1.00  0.00    -0.550 OA
ENDBRANCH   3   4
ENDBRANCH   2   3
ENDBRANCH   1   2
BRANCH   1   7
ATOM      7  C   UNL     1       6.584 -19.861  23.633  1.00  0.00     0.000 C 
BRANCH   7   8
ATOM      8  C   UNL     1       7.111 -21.178  23.049  1.00  0.00    -0.000 C 
BRANCH   8   9
ATOM      9  C   UNL     1       7.020 -21.175  21.517  1.00  0.00    -0.000 C 
BRANCH   9  10
ATOM     10  C   UNL     1       7.552 -22.473  20.890  1.00  0.00    -0.003 C 
ATOM     11  C   UNL     1       8.800 -23.002  21.595  1.00  0.00     0.004 C 
ENDBRANCH   9  10
ENDBRANCH   8   9
ENDBRANCH   7   8
ENDBRANCH   1   7
TORSDOF 7
ENDMDL
MODEL 4
REMARK VINA RESULT:    -3.882      1.266      1.428
REMARK INTER + INTRA:          -5.812
REMARK INTER:                  -5.252
REMARK INTRA:                  -0.560
REMARK UNBOUND:                -0.342
REMARK SMILES CCCCCCCCC(=O)[O-]
REMARK SMILES IDX 6 1 7 2 8 3 9 4 10 5 11 6 5 7 4 8 3 9 2 10 1 11
REMARK H PARENT
REMARK Flexibility Score: inf
ROOT
ATOM      1  C   UNL     1       7.023 -21.087  22.812  1.00  0.00     0.000 C 
ENDROOT
BRANCH   1   2
ATOM      2  C   UNL     1       7.924 -20.155  23.636  1.00  0.00     0.006 C 
BRANCH   2   3
ATOM      3  C   UNL     1       7.998 -18.743  23.040  1.00  0.00     0.053 C 
BRANCH   3   4
ATOM      4  C   UNL     1       7.124 -17.780  23.782  1.00  0.00     0.041 C 
ATOM      5  O   UNL     1       6.305 -18.200  24.641  1.00  0.00    -0.550 OA
ATOM      6  O   UNL     1       7.236 -16.415  23.548  1.00  0.00    -0.550 OA
ENDBRANCH   3   4
ENDBRANCH   2   3
ENDBRANCH   1   2
BRANCH   1   7
ATOM      7  C   UNL     1       7.451 -21.103  21.339  1.00  0.00     0.000 C 
BRANCH   7   8
ATOM      8  C   UNL     1       7.479 -22.534  20.789  1.00  0.00    -0.000 C 
BRANCH   8   9
ATOM      9  C   UNL     1       8.704 -23.299  21.309  1.00  0.00    -0.000 C 
BRANCH   9  10
ATOM     10  C   UNL     1      10.018 -22.536  21.082  1.00  0.00    -0.003 C 
ATOM     11  C   UNL     1      11.017 -22.725  22.222  1.00  0.00     0.004 C 
ENDBRANCH   9  10
ENDBRANCH   8   9
ENDBRANCH   7   8
ENDBRANCH   1   7
TORSDOF 7
ENDMDL
MODEL 5
REMARK VINA RESULT:    -3.880      3.479      5.331
REMARK INTER + INTRA:          -5.810
REMARK INTER:                  -5.091
REMARK INTRA:                  -0.719
REMARK UNBOUND:                -0.342
REMARK SMILES CCCCCCCCC(=O)[O-]
REMARK SMILES IDX 6 1 7 2 8 3 9 4 10 5 11 6 5 7 4 8 3 9 2 10 1 11
REMARK H PARENT
REMARK Flexibility Score: inf
ROOT
ATOM      1  C   UNL     1       7.285 -16.399  22.768  1.00  0.00     0.000 C 
ENDROOT
BRANCH   1   2
ATOM      2  C   UNL     1       6.942 -17.323  23.945  1.00  0.00     0.006 C 
BRANCH   2   3
ATOM      3  C   UNL     1       7.557 -18.719  23.784  1.00  0.00     0.053 C 
BRANCH   3   4
ATOM      4  C   UNL     1       7.060 -19.670  24.829  1.00  0.00     0.041 C 
ATOM      5  O   UNL     1       6.627 -20.805  24.499  1.00  0.00    -0.550 OA
ATOM      6  O   UNL     1       7.105 -19.315  26.171  1.00  0.00    -0.550 OA
ENDBRANCH   3   4
ENDBRANCH   2   3
ENDBRANCH   1   2
BRANCH   1   7
ATOM      7  C   UNL     1       7.869 -15.070  23.265  1.00  0.00     0.000 C 
BRANCH   7   8
ATOM      8  C   UNL     1       8.825 -15.295  24.443  1.00  0.00    -0.000 C 
BRANCH   8   9
ATOM      9  C   UNL     1      10.257 -15.541  23.950  1.00  0.00    -0.000 C 
BRANCH   9  10
ATOM     10  C   UNL     1      10.928 -16.731  24.652  1.00  0.00    -0.003 C 
ATOM     11  C   UNL     1      10.225 -17.124  25.951  1.00  0.00     0.004 C 
ENDBRANCH   9  10
ENDBRANCH   8   9
ENDBRANCH   7   8
ENDBRANCH   1   7
TORSDOF 7
ENDMDL
MODEL 6
REMARK VINA RESULT:    -3.875      2.552      3.951
REMARK INTER + INTRA:          -5.803
REMARK INTER:                  -5.276
REMARK INTRA:                  -0.526
REMARK UNBOUND:                -0.342
REMARK SMILES CCCCCCCCC(=O)[O-]
REMARK SMILES IDX 6 1 7 2 8 3 9 4 10 5 11 6 5 7 4 8 3 9 2 10 1 11
REMARK H PARENT
REMARK Flexibility Score: inf
ROOT
ATOM      1  C   UNL     1       7.769 -17.593  22.217  1.00  0.00     0.000 C 
ENDROOT
BRANCH   1   2
ATOM      2  C   UNL     1       7.143 -16.667  23.269  1.00  0.00     0.006 C 
BRANCH   2   3
ATOM      3  C   UNL     1       7.893 -15.333  23.387  1.00  0.00     0.053 C 
BRANCH   3   4
ATOM      4  C   UNL     1       9.013 -15.409  24.378  1.00  0.00     0.041 C 
ATOM      5  O   UNL     1      10.181 -15.081  24.041  1.00  0.00    -0.550 OA
ATOM      6  O   UNL     1       8.761 -15.811  25.683  1.00  0.00    -0.550 OA
ENDBRANCH   3   4
ENDBRANCH   2   3
ENDBRANCH   1   2
BRANCH   1   7
ATOM      7  C   UNL     1       8.549 -18.733  22.883  1.00  0.00     0.000 C 
BRANCH   7   8
ATOM      8  C   UNL     1       7.743 -19.358  24.029  1.00  0.00    -0.000 C 
BRANCH   8   9
ATOM      9  C   UNL     1       6.837 -20.484  23.513  1.00  0.00    -0.000 C 
BRANCH   9  10
ATOM     10  C   UNL     1       7.569 -21.445  22.564  1.00  0.00    -0.003 C 
ATOM     11  C   UNL     1       6.881 -21.573  21.206  1.00  0.00     0.004 C 
ENDBRANCH   9  10
ENDBRANCH   8   9
ENDBRANCH   7   8
ENDBRANCH   1   7
TORSDOF 7
ENDMDL
MODEL 7
REMARK VINA RESULT:    -3.872      3.337      5.699
REMARK INTER + INTRA:          -5.798
REMARK INTER:                  -5.382
REMARK INTRA:                  -0.416
REMARK UNBOUND:                -0.342
REMARK SMILES CCCCCCCCC(=O)[O-]
REMARK SMILES IDX 6 1 7 2 8 3 9 4 10 5 11 6 5 7 4 8 3 9 2 10 1 11
REMARK H PARENT
REMARK Flexibility Score: inf
ROOT
ATOM      1  C   UNL     1       6.698 -20.787  23.946  1.00  0.00     0.000 C 
ENDROOT
BRANCH   1   2
ATOM      2  C   UNL     1       7.750 -20.796  22.827  1.00  0.00     0.006 C 
BRANCH   2   3
ATOM      3  C   UNL     1       7.141 -21.135  21.460  1.00  0.00     0.053 C 
BRANCH   3   4
ATOM      4  C   UNL     1       7.870 -22.258  20.790  1.00  0.00     0.041 C 
ATOM      5  O   UNL     1       8.088 -23.332  21.410  1.00  0.00    -0.550 OA
ATOM      6  O   UNL     1       8.279 -22.132  19.468  1.00  0.00    -0.550 OA
ENDBRANCH   3   4
ENDBRANCH   2   3
ENDBRANCH   1   2
BRANCH   1   7
ATOM      7  C   UNL     1       6.965 -19.652  24.942  1.00  0.00     0.000 C 
BRANCH   7   8
ATOM      8  C   UNL     1       6.441 -18.314  24.407  1.00  0.00    -0.000 C 
BRANCH   8   9
ATOM      9  C   UNL     1       7.586 -17.309  24.224  1.00  0.00    -0.000 C 
BRANCH   9  10
ATOM     10  C   UNL     1       7.667 -16.759  22.791  1.00  0.00    -0.003 C 
ATOM     11  C   UNL     1       6.873 -15.466  22.608  1.00  0.00     0.004 C 
ENDBRANCH   9  10
ENDBRANCH   8   9
ENDBRANCH   7   8
ENDBRANCH   1   7
TORSDOF 7
ENDMDL
MODEL 8
REMARK VINA RESULT:    -3.771      4.762      6.133
REMARK INTER + INTRA:          -5.655
REMARK INTER:                  -5.219
REMARK INTRA:                  -0.436
REMARK UNBOUND:                -0.342
REMARK SMILES CCCCCCCCC(=O)[O-]
REMARK SMILES IDX 6 1 7 2 8 3 9 4 10 5 11 6 5 7 4 8 3 9 2 10 1 11
REMARK H PARENT
REMARK Flexibility Score: inf
ROOT
ATOM      1  C   UNL     1       7.901 -17.590  22.314  1.00  0.00     0.000 C 
ENDROOT
BRANCH   1   2
ATOM      2  C   UNL     1       7.159 -16.583  23.204  1.00  0.00     0.006 C 
BRANCH   2   3
ATOM      3  C   UNL     1       7.898 -15.242  23.305  1.00  0.00     0.053 C 
BRANCH   3   4
ATOM      4  C   UNL     1       9.047 -15.311  24.263  1.00  0.00     0.041 C 
ATOM      5  O   UNL     1       8.857 -15.663  25.457  1.00  0.00    -0.550 OA
ATOM      6  O   UNL     1      10.334 -15.019  23.829  1.00  0.00    -0.550 OA
ENDBRANCH   3   4
ENDBRANCH   2   3
ENDBRANCH   1   2
BRANCH   1   7
ATOM      7  C   UNL     1       8.339 -16.939  20.996  1.00  0.00     0.000 C 
BRANCH   7   8
ATOM      8  C   UNL     1       7.178 -16.888  19.994  1.00  0.00    -0.000 C 
BRANCH   8   9
ATOM      9  C   UNL     1       6.768 -15.438  19.702  1.00  0.00    -0.000 C 
BRANCH   9  10
ATOM     10  C   UNL     1       7.346 -14.916  18.378  1.00  0.00    -0.003 C 
ATOM     11  C   UNL     1       6.394 -13.968  17.650  1.00  0.00     0.004 C 
ENDBRANCH   9  10
ENDBRANCH   8   9
ENDBRANCH   7   8
ENDBRANCH   1   7
TORSDOF 7
ENDMDL
MODEL 9
REMARK VINA RESULT:    -3.629      3.226      5.462
REMARK INTER + INTRA:          -5.455
REMARK INTER:                  -5.052
REMARK INTRA:                  -0.404
REMARK UNBOUND:                -0.342
REMARK SMILES CCCCCCCCC(=O)[O-]
REMARK SMILES IDX 6 1 7 2 8 3 9 4 10 5 11 6 5 7 4 8 3 9 2 10 1 11
REMARK H PARENT
REMARK Flexibility Score: inf
ROOT
ATOM      1  C   UNL     1       7.581 -20.604  22.209  1.00  0.00     0.000 C 
ENDROOT
BRANCH   1   2
ATOM      2  C   UNL     1       7.373 -21.787  21.254  1.00  0.00     0.006 C 
BRANCH   2   3
ATOM      3  C   UNL     1       8.279 -22.977  21.597  1.00  0.00     0.053 C 
BRANCH   3   4
ATOM      4  C   UNL     1       9.725 -22.655  21.382  1.00  0.00     0.041 C 
ATOM      5  O   UNL     1      10.587 -23.011  22.228  1.00  0.00    -0.550 OA
ATOM      6  O   UNL     1      10.126 -21.990  20.230  1.00  0.00    -0.550 OA
ENDBRANCH   3   4
ENDBRANCH   2   3
ENDBRANCH   1   2
BRANCH   1   7
ATOM      7  C   UNL     1       6.660 -20.715  23.431  1.00  0.00     0.000 C 
BRANCH   7   8
ATOM      8  C   UNL     1       6.784 -19.478  24.329  1.00  0.00    -0.000 C 
BRANCH   8   9
ATOM      9  C   UNL     1       7.766 -18.460  23.731  1.00  0.00    -0.000 C 
BRANCH   9  10
ATOM     10  C   UNL     1       7.141 -17.067  23.559  1.00  0.00    -0.003 C 
ATOM     11  C   UNL     1       7.530 -16.404  22.239  1.00  0.00     0.004 C 
ENDBRANCH   9  10
ENDBRANCH   8   9
ENDBRANCH   7   8
ENDBRANCH   1   7
TORSDOF 7
ENDMDL
