MODEL 1
REMARK VINA RESULT:    -2.905      0.000      0.000
REMARK INTER + INTRA:          -3.174
REMARK INTER:                  -3.160
REMARK INTRA:                  -0.014
REMARK UNBOUND:                -0.014
REMARK SMILES OCc1ccco1
REMARK SMILES IDX 2 1 3 2 5 3 6 4 4 5 7 6 1 7
REMARK H PARENT 1 8
REMARK Flexibility Score: inf
ROOT
ATOM      1  C   UNL     1      12.652  25.424  82.547  1.00  0.00     0.231 C 
ENDROOT
BRANCH   1   2
ATOM      2  C   UNL     1      12.176  26.803  82.879  1.00  0.00     0.129 A 
ATOM      3  C   UNL     1      11.032  28.489  83.699  1.00  0.00     0.042 A 
ATOM      4  C   UNL     1      12.029  28.930  82.851  1.00  0.00     0.195 A 
ATOM      5  C   UNL     1      11.124  27.113  83.716  1.00  0.00     0.048 A 
ATOM      6  O   UNL     1      12.691  27.900  82.375  1.00  0.00    -0.467 OA
ENDBRANCH   1   2
BRANCH   1   7
ATOM      7  O   UNL     1      12.749  24.656  83.713  1.00  0.00    -0.388 OA
ATOM      8  H   UNL     1      12.311  23.787  83.519  1.00  0.00     0.211 HD
ENDBRANCH   1   7
TORSDOF 2
ENDMDL
MODEL 2
REMARK VINA RESULT:    -2.818     19.896     20.803
REMARK INTER + INTRA:          -3.079
REMARK INTER:                  -3.063
REMARK INTRA:                  -0.016
REMARK UNBOUND:                -0.014
REMARK SMILES OCc1ccco1
REMARK SMILES IDX 2 1 3 2 5 3 6 4 4 5 7 6 1 7
REMARK H PARENT 1 8
REMARK Flexibility Score: inf
ROOT
ATOM      1  C   UNL     1       6.732  15.433  68.035  1.00  0.00     0.231 C 
ENDROOT
BRANCH   1   2
ATOM      2  C   UNL     1       7.522  14.164  68.041  1.00  0.00     0.129 A 
ATOM      3  C   UNL     1       8.086  12.041  68.086  1.00  0.00     0.042 A 
ATOM      4  C   UNL     1       9.203  12.853  68.098  1.00  0.00     0.195 A 
ATOM      5  C   UNL     1       6.998  12.887  68.053  1.00  0.00     0.048 A 
ATOM      6  O   UNL     1       8.833  14.113  68.073  1.00  0.00    -0.467 OA
ENDBRANCH   1   2
BRANCH   1   7
ATOM      7  O   UNL     1       5.402  15.168  67.686  1.00  0.00    -0.388 OA
ATOM      8  H   UNL     1       5.087  14.446  68.290  1.00  0.00     0.211 HD
ENDBRANCH   1   7
TORSDOF 2
ENDMDL
MODEL 3
REMARK VINA RESULT:    -2.792     13.368     13.912
REMARK INTER + INTRA:          -3.050
REMARK INTER:                  -3.032
REMARK INTRA:                  -0.018
REMARK UNBOUND:                -0.014
REMARK SMILES OCc1ccco1
REMARK SMILES IDX 2 1 3 2 5 3 6 4 4 5 7 6 1 7
REMARK H PARENT 1 8
REMARK Flexibility Score: inf
ROOT
ATOM      1  C   UNL     1       3.914  25.284  73.064  1.00  0.00     0.231 C 
ENDROOT
BRANCH   1   2
ATOM      2  C   UNL     1       4.706  24.224  72.368  1.00  0.00     0.129 A 
ATOM      3  C   UNL     1       6.146  22.623  71.934  1.00  0.00     0.042 A 
ATOM      4  C   UNL     1       5.458  22.995  70.796  1.00  0.00     0.195 A 
ATOM      5  C   UNL     1       5.663  23.418  72.951  1.00  0.00     0.048 A 
ATOM      6  O   UNL     1       4.609  23.955  71.087  1.00  0.00    -0.467 OA
ENDBRANCH   1   2
BRANCH   1   7
ATOM      7  O   UNL     1       2.603  25.303  72.573  1.00  0.00    -0.388 OA
ATOM      8  H   UNL     1       2.639  25.736  71.681  1.00  0.00     0.211 HD
ENDBRANCH   1   7
TORSDOF 2
ENDMDL
MODEL 4
REMARK VINA RESULT:    -2.671     14.462     14.905
REMARK INTER + INTRA:          -2.918
REMARK INTER:                  -2.899
REMARK INTRA:                  -0.019
REMARK UNBOUND:                -0.014
REMARK SMILES OCc1ccco1
REMARK SMILES IDX 2 1 3 2 5 3 6 4 4 5 7 6 1 7
REMARK H PARENT 1 8
REMARK Flexibility Score: inf
ROOT
ATOM      1  C   UNL     1       4.226  23.089  69.237  1.00  0.00     0.231 C 
ENDROOT
BRANCH   1   2
ATOM      2  C   UNL     1       4.649  23.372  70.643  1.00  0.00     0.129 A 
ATOM      3  C   UNL     1       5.613  23.241  72.613  1.00  0.00     0.042 A 
ATOM      4  C   UNL     1       4.728  24.300  72.561  1.00  0.00     0.195 A 
ATOM      5  C   UNL     1       5.562  22.638  71.374  1.00  0.00     0.048 A 
ATOM      6  O   UNL     1       4.166  24.349  71.375  1.00  0.00    -0.467 OA
ENDBRANCH   1   2
BRANCH   1   7
ATOM      7  O   UNL     1       2.842  23.254  69.110  1.00  0.00    -0.388 OA
ATOM      8  H   UNL     1       2.679  24.228  69.014  1.00  0.00     0.211 HD
ENDBRANCH   1   7
TORSDOF 2
ENDMDL
MODEL 5
REMARK VINA RESULT:    -2.662      1.693      3.244
REMARK INTER + INTRA:          -2.909
REMARK INTER:                  -2.888
REMARK INTRA:                  -0.021
REMARK UNBOUND:                -0.014
REMARK SMILES OCc1ccco1
REMARK SMILES IDX 2 1 3 2 5 3 6 4 4 5 7 6 1 7
REMARK H PARENT 1 8
REMARK Flexibility Score: inf
ROOT
ATOM      1  C   UNL     1      11.409  26.937  83.742  1.00  0.00     0.231 C 
ENDROOT
BRANCH   1   2
ATOM      2  C   UNL     1      12.209  26.111  82.786  1.00  0.00     0.129 A 
ATOM      3  C   UNL     1      13.527  24.575  81.931  1.00  0.00     0.042 A 
ATOM      4  C   UNL     1      13.130  25.482  80.969  1.00  0.00     0.195 A 
ATOM      5  C   UNL     1      12.935  24.981  83.108  1.00  0.00     0.048 A 
ATOM      6  O   UNL     1      12.348  26.388  81.510  1.00  0.00    -0.467 OA
ENDBRANCH   1   2
BRANCH   1   7
ATOM      7  O   UNL     1      10.659  27.889  83.041  1.00  0.00    -0.388 OA
ATOM      8  H   UNL     1      11.260  28.661  82.878  1.00  0.00     0.211 HD
ENDBRANCH   1   7
TORSDOF 2
ENDMDL
MODEL 6
REMARK VINA RESULT:    -2.639      2.676      4.717
REMARK INTER + INTRA:          -2.884
REMARK INTER:                  -2.868
REMARK INTRA:                  -0.016
REMARK UNBOUND:                -0.014
REMARK SMILES OCc1ccco1
REMARK SMILES IDX 2 1 3 2 5 3 6 4 4 5 7 6 1 7
REMARK H PARENT 1 8
REMARK Flexibility Score: inf
ROOT
ATOM      1  C   UNL     1      12.640  25.270  82.424  1.00  0.00     0.231 C 
ENDROOT
BRANCH   1   2
ATOM      2  C   UNL     1      13.301  24.255  81.547  1.00  0.00     0.129 A 
ATOM      3  C   UNL     1      13.653  22.656  80.083  1.00  0.00     0.042 A 
ATOM      4  C   UNL     1      14.828  23.030  80.703  1.00  0.00     0.195 A 
ATOM      5  C   UNL     1      12.663  23.445  80.629  1.00  0.00     0.048 A 
ATOM      6  O   UNL     1      14.585  23.983  81.574  1.00  0.00    -0.467 OA
ENDBRANCH   1   2
BRANCH   1   7
ATOM      7  O   UNL     1      12.622  24.820  83.750  1.00  0.00    -0.388 OA
ATOM      8  H   UNL     1      13.562  24.828  84.066  1.00  0.00     0.211 HD
ENDBRANCH   1   7
TORSDOF 2
ENDMDL
MODEL 7
REMARK VINA RESULT:    -2.576     12.786     13.242
REMARK INTER + INTRA:          -2.816
REMARK INTER:                  -2.802
REMARK INTRA:                  -0.014
REMARK UNBOUND:                -0.014
REMARK SMILES OCc1ccco1
REMARK SMILES IDX 2 1 3 2 5 3 6 4 4 5 7 6 1 7
REMARK H PARENT 1 8
REMARK Flexibility Score: inf
ROOT
ATOM      1  C   UNL     1       8.488  21.946  71.162  1.00  0.00     0.231 C 
ENDROOT
BRANCH   1   2
ATOM      2  C   UNL     1       7.221  22.532  71.696  1.00  0.00     0.129 A 
ATOM      3  C   UNL     1       5.710  23.406  73.030  1.00  0.00     0.042 A 
ATOM      4  C   UNL     1       5.191  23.179  71.771  1.00  0.00     0.195 A 
ATOM      5  C   UNL     1       7.023  22.985  72.985  1.00  0.00     0.048 A 
ATOM      6  O   UNL     1       6.115  22.655  70.999  1.00  0.00    -0.467 OA
ENDBRANCH   1   2
BRANCH   1   7
ATOM      7  O   UNL     1       8.611  20.613  71.573  1.00  0.00    -0.388 OA
ATOM      8  H   UNL     1       8.903  20.096  70.778  1.00  0.00     0.211 HD
ENDBRANCH   1   7
TORSDOF 2
ENDMDL
MODEL 8
REMARK VINA RESULT:    -2.568      5.105      5.950
REMARK INTER + INTRA:          -2.807
REMARK INTER:                  -2.791
REMARK INTRA:                  -0.016
REMARK UNBOUND:                -0.014
REMARK SMILES OCc1ccco1
REMARK SMILES IDX 2 1 3 2 5 3 6 4 4 5 7 6 1 7
REMARK H PARENT 1 8
REMARK Flexibility Score: inf
ROOT
ATOM      1  C   UNL     1      15.184  23.734  81.036  1.00  0.00     0.231 C 
ENDROOT
BRANCH   1   2
ATOM      2  C   UNL     1      14.049  22.942  80.471  1.00  0.00     0.129 A 
ATOM      3  C   UNL     1      12.037  22.192  80.005  1.00  0.00     0.042 A 
ATOM      4  C   UNL     1      13.008  21.412  79.411  1.00  0.00     0.195 A 
ATOM      5  C   UNL     1      12.708  23.181  80.694  1.00  0.00     0.048 A 
ATOM      6  O   UNL     1      14.198  21.883  79.710  1.00  0.00    -0.467 OA
ENDBRANCH   1   2
BRANCH   1   7
ATOM      7  O   UNL     1      15.888  22.965  81.970  1.00  0.00    -0.388 OA
ATOM      8  H   UNL     1      15.230  22.351  82.388  1.00  0.00     0.211 HD
ENDBRANCH   1   7
TORSDOF 2
ENDMDL
MODEL 9
REMARK VINA RESULT:    -2.525     18.207     18.350
REMARK INTER + INTRA:          -2.760
REMARK INTER:                  -2.747
REMARK INTRA:                  -0.014
REMARK UNBOUND:                -0.014
REMARK SMILES OCc1ccco1
REMARK SMILES IDX 2 1 3 2 5 3 6 4 4 5 7 6 1 7
REMARK H PARENT 1 8
REMARK Flexibility Score: inf
ROOT
ATOM      1  C   UNL     1      -2.670  23.982  70.956  1.00  0.00     0.231 C 
ENDROOT
BRANCH   1   2
ATOM      2  C   UNL     1      -1.554  24.977  70.930  1.00  0.00     0.129 A 
ATOM      3  C   UNL     1       0.287  26.081  71.396  1.00  0.00     0.042 A 
ATOM      4  C   UNL     1      -0.419  26.696  70.381  1.00  0.00     0.195 A 
ATOM      5  C   UNL     1      -0.447  24.970  71.754  1.00  0.00     0.048 A 
ATOM      6  O   UNL     1      -1.513  26.016  70.128  1.00  0.00    -0.467 OA
ENDBRANCH   1   2
BRANCH   1   7
ATOM      7  O   UNL     1      -2.523  23.069  69.904  1.00  0.00    -0.388 OA
ATOM      8  H   UNL     1      -2.394  22.177  70.318  1.00  0.00     0.211 HD
ENDBRANCH   1   7
TORSDOF 2
ENDMDL
