MODEL 1
REMARK VINA RESULT:    -3.699      0.000      0.000
REMARK INTER + INTRA:          -4.234
REMARK INTER:                  -4.131
REMARK INTRA:                  -0.103
REMARK UNBOUND:                -0.103
REMARK SMILES CCc1ccc(O)cc1O
REMARK SMILES IDX 3 1 9 2 8 3 6 4 5 5 4 6 2 7 1 8 10 9 7 11
REMARK H PARENT 10 10 7 12
REMARK Flexibility Score: inf
ROOT
ATOM      1  C   UNL     1      12.271   5.234  18.173  1.00  0.00    -0.006 A 
ATOM      2  C   UNL     1      12.885   5.258  16.904  1.00  0.00     0.122 A 
ATOM      3  C   UNL     1      13.957   4.395  16.631  1.00  0.00     0.092 A 
ATOM      4  C   UNL     1      14.411   3.500  17.608  1.00  0.00     0.119 A 
ATOM      5  C   UNL     1      13.793   3.465  18.860  1.00  0.00     0.047 A 
ATOM      6  C   UNL     1      12.726   4.323  19.140  1.00  0.00     0.011 A 
ENDROOT
BRANCH   1   7
ATOM      7  C   UNL     1      11.098   6.129  18.484  1.00  0.00     0.036 C 
ATOM      8  C   UNL     1      11.536   7.324  19.323  1.00  0.00     0.009 C 
ENDBRANCH   1   7
BRANCH   2   9
ATOM      9  O   UNL     1      12.430   6.136  15.921  1.00  0.00    -0.508 OA
ATOM     10  H   UNL     1      11.593   5.944  15.383  1.00  0.00     0.293 HD
ENDBRANCH   2   9
BRANCH   4  11
ATOM     11  O   UNL     1      15.474   2.639  17.343  1.00  0.00    -0.508 OA
ATOM     12  H   UNL     1      15.804   2.480  16.398  1.00  0.00     0.293 HD
ENDBRANCH   4  11
TORSDOF 3
ENDMDL
MODEL 2
REMARK VINA RESULT:    -3.686      1.699      2.314
REMARK INTER + INTRA:          -4.219
REMARK INTER:                  -4.134
REMARK INTRA:                  -0.085
REMARK UNBOUND:                -0.103
REMARK SMILES CCc1ccc(O)cc1O
REMARK SMILES IDX 3 1 9 2 8 3 6 4 5 5 4 6 2 7 1 8 10 9 7 11
REMARK H PARENT 10 10 7 12
REMARK Flexibility Score: inf
ROOT
ATOM      1  C   UNL     1      12.269   5.793  17.863  1.00  0.00    -0.006 A 
ATOM      2  C   UNL     1      12.779   4.635  18.484  1.00  0.00     0.122 A 
ATOM      3  C   UNL     1      13.738   3.854  17.823  1.00  0.00     0.092 A 
ATOM      4  C   UNL     1      14.202   4.225  16.555  1.00  0.00     0.119 A 
ATOM      5  C   UNL     1      13.707   5.381  15.946  1.00  0.00     0.047 A 
ATOM      6  C   UNL     1      12.751   6.164  16.597  1.00  0.00     0.011 A 
ENDROOT
BRANCH   1   7
ATOM      7  C   UNL     1      11.260   6.669  18.563  1.00  0.00     0.036 C 
ATOM      8  C   UNL     1      10.876   7.858  17.689  1.00  0.00     0.009 C 
ENDBRANCH   1   7
BRANCH   2   9
ATOM      9  O   UNL     1      12.333   4.266  19.753  1.00  0.00    -0.508 OA
ATOM     10  H   UNL     1      12.837   4.532  20.591  1.00  0.00     0.293 HD
ENDBRANCH   2   9
BRANCH   4  11
ATOM     11  O   UNL     1      15.155   3.453  15.894  1.00  0.00    -0.508 OA
ATOM     12  H   UNL     1      14.981   3.074  14.970  1.00  0.00     0.293 HD
ENDBRANCH   4  11
TORSDOF 3
ENDMDL
MODEL 3
REMARK VINA RESULT:    -3.665      1.990      2.971
REMARK INTER + INTRA:          -4.197
REMARK INTER:                  -4.099
REMARK INTRA:                  -0.098
REMARK UNBOUND:                -0.103
REMARK SMILES CCc1ccc(O)cc1O
REMARK SMILES IDX 3 1 9 2 8 3 6 4 5 5 4 6 2 7 1 8 10 9 7 11
REMARK H PARENT 10 10 7 12
REMARK Flexibility Score: inf
ROOT
ATOM      1  C   UNL     1      13.532   3.796  19.998  1.00  0.00    -0.006 A 
ATOM      2  C   UNL     1      12.761   4.400  18.984  1.00  0.00     0.122 A 
ATOM      3  C   UNL     1      13.154   4.279  17.643  1.00  0.00     0.092 A 
ATOM      4  C   UNL     1      14.301   3.550  17.305  1.00  0.00     0.119 A 
ATOM      5  C   UNL     1      15.057   2.938  18.308  1.00  0.00     0.047 A 
ATOM      6  C   UNL     1      14.673   3.056  19.646  1.00  0.00     0.011 A 
ENDROOT
BRANCH   1   7
ATOM      7  C   UNL     1      13.117   3.884  21.446  1.00  0.00     0.036 C 
ATOM      8  C   UNL     1      12.862   2.495  22.021  1.00  0.00     0.009 C 
ENDBRANCH   1   7
BRANCH   2   9
ATOM      9  O   UNL     1      11.610   5.116  19.311  1.00  0.00    -0.508 OA
ATOM     10  H   UNL     1      11.659   6.032  19.745  1.00  0.00     0.293 HD
ENDBRANCH   2   9
BRANCH   4  11
ATOM     11  O   UNL     1      14.696   3.425  15.975  1.00  0.00    -0.508 OA
ATOM     12  H   UNL     1      14.365   4.065  15.261  1.00  0.00     0.293 HD
ENDBRANCH   4  11
TORSDOF 3
ENDMDL
MODEL 4
REMARK VINA RESULT:    -3.650      1.114      3.646
REMARK INTER + INTRA:          -4.180
REMARK INTER:                  -4.095
REMARK INTRA:                  -0.085
REMARK UNBOUND:                -0.103
REMARK SMILES CCc1ccc(O)cc1O
REMARK SMILES IDX 3 1 9 2 8 3 6 4 5 5 4 6 2 7 1 8 10 9 7 11
REMARK H PARENT 10 10 7 12
REMARK Flexibility Score: inf
ROOT
ATOM      1  C   UNL     1      14.036   3.409  19.156  1.00  0.00    -0.006 A 
ATOM      2  C   UNL     1      14.516   3.282  17.836  1.00  0.00     0.122 A 
ATOM      3  C   UNL     1      13.920   4.021  16.803  1.00  0.00     0.092 A 
ATOM      4  C   UNL     1      12.860   4.893  17.077  1.00  0.00     0.119 A 
ATOM      5  C   UNL     1      12.394   5.030  18.388  1.00  0.00     0.047 A 
ATOM      6  C   UNL     1      12.981   4.297  19.422  1.00  0.00     0.011 A 
ENDROOT
BRANCH   1   7
ATOM      7  C   UNL     1      14.677   2.650  20.291  1.00  0.00     0.036 C 
ATOM      8  C   UNL     1      13.680   2.421  21.421  1.00  0.00     0.009 C 
ENDBRANCH   1   7
BRANCH   2   9
ATOM      9  O   UNL     1      15.581   2.426  17.556  1.00  0.00    -0.508 OA
ATOM     10  H   UNL     1      15.429   1.470  17.256  1.00  0.00     0.293 HD
ENDBRANCH   2   9
BRANCH   4  11
ATOM     11  O   UNL     1      12.264   5.630  16.056  1.00  0.00    -0.508 OA
ATOM     12  H   UNL     1      12.559   5.533  15.091  1.00  0.00     0.293 HD
ENDBRANCH   4  11
TORSDOF 3
ENDMDL
MODEL 5
REMARK VINA RESULT:    -3.615      2.321      3.076
REMARK INTER + INTRA:          -4.141
REMARK INTER:                  -4.055
REMARK INTRA:                  -0.085
REMARK UNBOUND:                -0.103
REMARK SMILES CCc1ccc(O)cc1O
REMARK SMILES IDX 3 1 9 2 8 3 6 4 5 5 4 6 2 7 1 8 10 9 7 11
REMARK H PARENT 10 10 7 12
REMARK Flexibility Score: inf
ROOT
ATOM      1  C   UNL     1      11.319   7.250  17.571  1.00  0.00    -0.006 A 
ATOM      2  C   UNL     1      11.290   5.899  17.168  1.00  0.00     0.122 A 
ATOM      3  C   UNL     1      11.661   4.894  18.074  1.00  0.00     0.092 A 
ATOM      4  C   UNL     1      12.047   5.223  19.379  1.00  0.00     0.119 A 
ATOM      5  C   UNL     1      12.061   6.562  19.782  1.00  0.00     0.047 A 
ATOM      6  C   UNL     1      11.695   7.568  18.886  1.00  0.00     0.011 A 
ENDROOT
BRANCH   1   7
ATOM      7  C   UNL     1      10.896   8.349  16.627  1.00  0.00     0.036 C 
ATOM      8  C   UNL     1      11.190   9.719  17.227  1.00  0.00     0.009 C 
ENDBRANCH   1   7
BRANCH   2   9
ATOM      9  O   UNL     1      10.893   5.560  15.875  1.00  0.00    -0.508 OA
ATOM     10  H   UNL     1      10.928   4.603  15.543  1.00  0.00     0.293 HD
ENDBRANCH   2   9
BRANCH   4  11
ATOM     11  O   UNL     1      12.416   4.230  20.283  1.00  0.00    -0.508 OA
ATOM     12  H   UNL     1      12.352   3.247  20.045  1.00  0.00     0.293 HD
ENDBRANCH   4  11
TORSDOF 3
ENDMDL
MODEL 6
REMARK VINA RESULT:    -3.562      2.106      4.592
REMARK INTER + INTRA:          -4.081
REMARK INTER:                  -3.996
REMARK INTRA:                  -0.085
REMARK UNBOUND:                -0.103
REMARK SMILES CCc1ccc(O)cc1O
REMARK SMILES IDX 3 1 9 2 8 3 6 4 5 5 4 6 2 7 1 8 10 9 7 11
REMARK H PARENT 10 10 7 12
REMARK Flexibility Score: inf
ROOT
ATOM      1  C   UNL     1      15.870   4.759  16.571  1.00  0.00    -0.006 A 
ATOM      2  C   UNL     1      14.956   3.786  17.025  1.00  0.00     0.122 A 
ATOM      3  C   UNL     1      13.581   4.065  17.018  1.00  0.00     0.092 A 
ATOM      4  C   UNL     1      13.111   5.299  16.552  1.00  0.00     0.119 A 
ATOM      5  C   UNL     1      14.016   6.257  16.089  1.00  0.00     0.047 A 
ATOM      6  C   UNL     1      15.387   5.988  16.093  1.00  0.00     0.011 A 
ENDROOT
BRANCH   1   7
ATOM      7  C   UNL     1      17.351   4.475  16.538  1.00  0.00     0.036 C 
ATOM      8  C   UNL     1      18.148   5.769  16.425  1.00  0.00     0.009 C 
ENDBRANCH   1   7
BRANCH   2   9
ATOM      9  O   UNL     1      15.414   2.549  17.478  1.00  0.00    -0.508 OA
ATOM     10  H   UNL     1      15.026   2.110  18.305  1.00  0.00     0.293 HD
ENDBRANCH   2   9
BRANCH   4  11
ATOM     11  O   UNL     1      11.747   5.582  16.543  1.00  0.00    -0.508 OA
ATOM     12  H   UNL     1      11.402   6.531  16.623  1.00  0.00     0.293 HD
ENDBRANCH   4  11
TORSDOF 3
ENDMDL
MODEL 7
REMARK VINA RESULT:    -3.526      2.472      4.603
REMARK INTER + INTRA:          -4.041
REMARK INTER:                  -3.956
REMARK INTRA:                  -0.085
REMARK UNBOUND:                -0.103
REMARK SMILES CCc1ccc(O)cc1O
REMARK SMILES IDX 3 1 9 2 8 3 6 4 5 5 4 6 2 7 1 8 10 9 7 11
REMARK H PARENT 10 10 7 12
REMARK Flexibility Score: inf
ROOT
ATOM      1  C   UNL     1      11.719   5.668  17.670  1.00  0.00    -0.006 A 
ATOM      2  C   UNL     1      11.592   6.706  18.615  1.00  0.00     0.122 A 
ATOM      3  C   UNL     1      11.358   8.020  18.181  1.00  0.00     0.092 A 
ATOM      4  C   UNL     1      11.236   8.303  16.815  1.00  0.00     0.119 A 
ATOM      5  C   UNL     1      11.348   7.270  15.879  1.00  0.00     0.047 A 
ATOM      6  C   UNL     1      11.582   5.961  16.303  1.00  0.00     0.011 A 
ENDROOT
BRANCH   1   7
ATOM      7  C   UNL     1      11.940   4.242  18.110  1.00  0.00     0.036 C 
ATOM      8  C   UNL     1      13.427   3.954  18.286  1.00  0.00     0.009 C 
ENDBRANCH   1   7
BRANCH   2   9
ATOM      9  O   UNL     1      11.697   6.431  19.978  1.00  0.00    -0.508 OA
ATOM     10  H   UNL     1      12.531   6.666  20.504  1.00  0.00     0.293 HD
ENDBRANCH   2   9
BRANCH   4  11
ATOM     11  O   UNL     1      11.004   9.604  16.377  1.00  0.00    -0.508 OA
ATOM     12  H   UNL     1      10.543   9.792  15.494  1.00  0.00     0.293 HD
ENDBRANCH   4  11
TORSDOF 3
ENDMDL
MODEL 8
REMARK VINA RESULT:    -3.485      1.874      3.541
REMARK INTER + INTRA:          -3.995
REMARK INTER:                  -3.906
REMARK INTRA:                  -0.089
REMARK UNBOUND:                -0.103
REMARK SMILES CCc1ccc(O)cc1O
REMARK SMILES IDX 3 1 9 2 8 3 6 4 5 5 4 6 2 7 1 8 10 9 7 11
REMARK H PARENT 10 10 7 12
REMARK Flexibility Score: inf
ROOT
ATOM      1  C   UNL     1      12.296   5.650  19.871  1.00  0.00    -0.006 A 
ATOM      2  C   UNL     1      12.659   4.588  19.017  1.00  0.00     0.122 A 
ATOM      3  C   UNL     1      12.181   4.558  17.699  1.00  0.00     0.092 A 
ATOM      4  C   UNL     1      11.354   5.583  17.222  1.00  0.00     0.119 A 
ATOM      5  C   UNL     1      11.007   6.643  18.064  1.00  0.00     0.047 A 
ATOM      6  C   UNL     1      11.478   6.680  19.378  1.00  0.00     0.011 A 
ENDROOT
BRANCH   1   7
ATOM      7  C   UNL     1      12.822   5.724  21.283  1.00  0.00     0.036 C 
ATOM      8  C   UNL     1      11.690   5.994  22.268  1.00  0.00     0.009 C 
ENDBRANCH   1   7
BRANCH   2   9
ATOM      9  O   UNL     1      13.493   3.570  19.479  1.00  0.00    -0.508 OA
ATOM     10  H   UNL     1      14.397   3.391  19.056  1.00  0.00     0.293 HD
ENDBRANCH   2   9
BRANCH   4  11
ATOM     11  O   UNL     1      10.876   5.559  15.914  1.00  0.00    -0.508 OA
ATOM     12  H   UNL     1      10.229   4.845  15.600  1.00  0.00     0.293 HD
ENDBRANCH   4  11
TORSDOF 3
ENDMDL
