MODEL 1
REMARK VINA RESULT:    -4.064      0.000      0.000
REMARK INTER + INTRA:          -4.064
REMARK INTER:                  -4.064
REMARK INTRA:                   0.000
REMARK UNBOUND:                 0.000
REMARK SMILES CC1(C)[C@@H]2CC[C@@]1(C)C(=O)C2
REMARK SMILES IDX 1 1 2 2 4 3 5 4 6 5 7 6 9 7 10 8 11 9 8 10 3 11
REMARK H PARENT
REMARK Flexibility Score: inf
ROOT
ATOM      1  C   UNL     1     141.596 145.776 143.130  1.00  0.00     0.012 C 
ATOM      2  C   UNL     1     141.718 147.318 142.933  1.00  0.00    -0.020 C 
ATOM      3  C   UNL     1     143.116 147.773 142.450  1.00  0.00     0.003 C 
ATOM      4  C   UNL     1     142.908 149.288 142.178  1.00  0.00     0.005 C 
ATOM      5  C   UNL     1     141.461 149.346 141.628  1.00  0.00     0.015 C 
ATOM      6  C   UNL     1     141.024 147.863 141.666  1.00  0.00     0.032 C 
ATOM      7  C   UNL     1     141.841 147.193 140.590  1.00  0.00     0.139 C 
ATOM      8  O   UNL     1     141.440 146.862 139.484  1.00  0.00    -0.299 OA
ATOM      9  C   UNL     1     143.259 147.094 141.060  1.00  0.00     0.080 C 
ATOM     10  C   UNL     1     139.511 147.636 141.564  1.00  0.00     0.020 C 
ATOM     11  C   UNL     1     141.272 147.971 144.275  1.00  0.00     0.012 C 
ENDROOT
TORSDOF 0
ENDMDL
MODEL 2
REMARK VINA RESULT:    -3.921      1.556      2.758
REMARK INTER + INTRA:          -3.921
REMARK INTER:                  -3.921
REMARK INTRA:                   0.000
REMARK UNBOUND:                 0.000
REMARK SMILES CC1(C)[C@@H]2CC[C@@]1(C)C(=O)C2
REMARK SMILES IDX 1 1 2 2 4 3 5 4 6 5 7 6 9 7 10 8 11 9 8 10 3 11
REMARK H PARENT
REMARK Flexibility Score: inf
ROOT
ATOM      1  C   UNL     1     144.125 147.870 142.671  1.00  0.00     0.012 C 
ATOM      2  C   UNL     1     142.816 147.990 141.832  1.00  0.00    -0.020 C 
ATOM      3  C   UNL     1     142.701 146.935 140.706  1.00  0.00     0.003 C 
ATOM      4  C   UNL     1     141.266 147.170 140.161  1.00  0.00     0.005 C 
ATOM      5  C   UNL     1     140.466 147.535 141.437  1.00  0.00     0.015 C 
ATOM      6  C   UNL     1     141.546 147.474 142.543  1.00  0.00     0.032 C 
ATOM      7  C   UNL     1     141.877 146.008 142.677  1.00  0.00     0.139 C 
ATOM      8  O   UNL     1     141.498 145.265 143.569  1.00  0.00    -0.299 OA
ATOM      9  C   UNL     1     142.664 145.585 141.475  1.00  0.00     0.080 C 
ATOM     10  C   UNL     1     141.164 148.172 143.853  1.00  0.00     0.020 C 
ATOM     11  C   UNL     1     142.749 149.462 141.326  1.00  0.00     0.012 C 
ENDROOT
TORSDOF 0
ENDMDL
MODEL 3
REMARK VINA RESULT:    -3.882     10.547     11.788
REMARK INTER + INTRA:          -3.882
REMARK INTER:                  -3.882
REMARK INTRA:                   0.000
REMARK UNBOUND:                 0.000
REMARK SMILES CC1(C)[C@@H]2CC[C@@]1(C)C(=O)C2
REMARK SMILES IDX 1 1 2 2 4 3 5 4 6 5 7 6 9 7 10 8 11 9 8 10 3 11
REMARK H PARENT
REMARK Flexibility Score: inf
ROOT
ATOM      1  C   UNL     1     144.784 137.642 143.295  1.00  0.00     0.012 C 
ATOM      2  C   UNL     1     144.182 137.476 144.724  1.00  0.00    -0.020 C 
ATOM      3  C   UNL     1     142.732 138.003 144.852  1.00  0.00     0.003 C 
ATOM      4  C   UNL     1     142.334 137.566 146.288  1.00  0.00     0.005 C 
ATOM      5  C   UNL     1     143.044 136.198 146.443  1.00  0.00     0.015 C 
ATOM      6  C   UNL     1     143.765 136.033 145.084  1.00  0.00     0.032 C 
ATOM      7  C   UNL     1     142.657 135.805 144.086  1.00  0.00     0.139 C 
ATOM      8  O   UNL     1     142.345 134.733 143.592  1.00  0.00    -0.299 OA
ATOM      9  C   UNL     1     141.929 137.097 143.879  1.00  0.00     0.080 C 
ATOM     10  C   UNL     1     144.875 134.977 145.069  1.00  0.00     0.020 C 
ATOM     11  C   UNL     1     145.186 138.148 145.707  1.00  0.00     0.012 C 
ENDROOT
TORSDOF 0
ENDMDL
MODEL 4
REMARK VINA RESULT:    -3.863      9.401     11.367
REMARK INTER + INTRA:          -3.863
REMARK INTER:                  -3.863
REMARK INTRA:                   0.000
REMARK UNBOUND:                 0.000
REMARK SMILES CC1(C)[C@@H]2CC[C@@]1(C)C(=O)C2
REMARK SMILES IDX 1 1 2 2 4 3 5 4 6 5 7 6 9 7 10 8 11 9 8 10 3 11
REMARK H PARENT
REMARK Flexibility Score: inf
ROOT
ATOM      1  C   UNL     1     141.976 137.594 146.968  1.00  0.00     0.012 C 
ATOM      2  C   UNL     1     143.203 137.113 146.134  1.00  0.00    -0.020 C 
ATOM      3  C   UNL     1     143.060 135.669 145.596  1.00  0.00     0.003 C 
ATOM      4  C   UNL     1     144.309 135.518 144.684  1.00  0.00     0.005 C 
ATOM      5  C   UNL     1     144.461 136.931 144.068  1.00  0.00     0.015 C 
ATOM      6  C   UNL     1     143.290 137.710 144.712  1.00  0.00     0.032 C 
ATOM      7  C   UNL     1     142.048 137.126 144.087  1.00  0.00     0.139 C 
ATOM      8  O   UNL     1     141.375 137.642 143.208  1.00  0.00    -0.299 OA
ATOM      9  C   UNL     1     141.832 135.754 144.648  1.00  0.00     0.080 C 
ATOM     10  C   UNL     1     143.405 139.236 144.618  1.00  0.00     0.020 C 
ATOM     11  C   UNL     1     144.458 137.330 147.030  1.00  0.00     0.012 C 
ENDROOT
TORSDOF 0
ENDMDL
MODEL 5
REMARK VINA RESULT:    -3.834     10.218     11.834
REMARK INTER + INTRA:          -3.834
REMARK INTER:                  -3.834
REMARK INTRA:                   0.000
REMARK UNBOUND:                 0.000
REMARK SMILES CC1(C)[C@@H]2CC[C@@]1(C)C(=O)C2
REMARK SMILES IDX 1 1 2 2 4 3 5 4 6 5 7 6 9 7 10 8 11 9 8 10 3 11
REMARK H PARENT
REMARK Flexibility Score: inf
ROOT
ATOM      1  C   UNL     1     142.338 137.911 143.647  1.00  0.00     0.012 C 
ATOM      2  C   UNL     1     142.728 136.656 144.489  1.00  0.00    -0.020 C 
ATOM      3  C   UNL     1     144.196 136.208 144.290  1.00  0.00     0.003 C 
ATOM      4  C   UNL     1     144.355 135.080 145.346  1.00  0.00     0.005 C 
ATOM      5  C   UNL     1     143.490 135.587 146.528  1.00  0.00     0.015 C 
ATOM      6  C   UNL     1     142.939 136.930 145.994  1.00  0.00     0.032 C 
ATOM      7  C   UNL     1     144.137 137.845 145.945  1.00  0.00     0.139 C 
ATOM      8  O   UNL     1     144.396 138.733 146.744  1.00  0.00    -0.299 OA
ATOM      9  C   UNL     1     145.019 137.418 144.813  1.00  0.00     0.080 C 
ATOM     10  C   UNL     1     141.735 137.482 146.764  1.00  0.00     0.020 C 
ATOM     11  C   UNL     1     141.681 135.554 144.149  1.00  0.00     0.012 C 
ENDROOT
TORSDOF 0
ENDMDL
MODEL 6
REMARK VINA RESULT:    -3.770     10.028     11.946
REMARK INTER + INTRA:          -3.770
REMARK INTER:                  -3.770
REMARK INTRA:                   0.000
REMARK UNBOUND:                 0.000
REMARK SMILES CC1(C)[C@@H]2CC[C@@]1(C)C(=O)C2
REMARK SMILES IDX 1 1 2 2 4 3 5 4 6 5 7 6 9 7 10 8 11 9 8 10 3 11
REMARK H PARENT
REMARK Flexibility Score: inf
ROOT
ATOM      1  C   UNL     1     144.650 138.320 145.373  1.00  0.00     0.012 C 
ATOM      2  C   UNL     1     143.468 137.552 144.706  1.00  0.00    -0.020 C 
ATOM      3  C   UNL     1     143.899 136.248 143.991  1.00  0.00     0.003 C 
ATOM      4  C   UNL     1     142.541 135.618 143.580  1.00  0.00     0.005 C 
ATOM      5  C   UNL     1     141.613 135.989 144.765  1.00  0.00     0.015 C 
ATOM      6  C   UNL     1     142.554 136.793 145.693  1.00  0.00     0.032 C 
ATOM      7  C   UNL     1     143.521 135.771 146.239  1.00  0.00     0.139 C 
ATOM      8  O   UNL     1     143.494 135.284 147.359  1.00  0.00    -0.299 OA
ATOM      9  C   UNL     1     144.460 135.370 145.144  1.00  0.00     0.080 C 
ATOM     10  C   UNL     1     141.841 137.639 146.754  1.00  0.00     0.020 C 
ATOM     11  C   UNL     1     142.747 138.572 143.775  1.00  0.00     0.012 C 
ENDROOT
TORSDOF 0
ENDMDL
MODEL 7
REMARK VINA RESULT:    -3.726     16.211     18.045
REMARK INTER + INTRA:          -3.726
REMARK INTER:                  -3.726
REMARK INTRA:                   0.000
REMARK UNBOUND:                 0.000
REMARK SMILES CC1(C)[C@@H]2CC[C@@]1(C)C(=O)C2
REMARK SMILES IDX 1 1 2 2 4 3 5 4 6 5 7 6 9 7 10 8 11 9 8 10 3 11
REMARK H PARENT
REMARK Flexibility Score: inf
ROOT
ATOM      1  C   UNL     1     134.239 134.041 151.633  1.00  0.00     0.012 C 
ATOM      2  C   UNL     1     133.707 133.327 150.351  1.00  0.00    -0.020 C 
ATOM      3  C   UNL     1     133.379 134.298 149.191  1.00  0.00     0.003 C 
ATOM      4  C   UNL     1     133.047 133.333 148.021  1.00  0.00     0.005 C 
ATOM      5  C   UNL     1     134.029 132.157 148.251  1.00  0.00     0.015 C 
ATOM      6  C   UNL     1     134.788 132.594 149.527  1.00  0.00     0.032 C 
ATOM      7  C   UNL     1     135.642 133.757 149.088  1.00  0.00     0.139 C 
ATOM      8  O   UNL     1     136.844 133.725 148.873  1.00  0.00    -0.299 OA
ATOM      9  C   UNL     1     134.754 134.940 148.855  1.00  0.00     0.080 C 
ATOM     10  C   UNL     1     135.546 131.468 150.241  1.00  0.00     0.020 C 
ATOM     11  C   UNL     1     132.500 132.453 150.802  1.00  0.00     0.012 C 
ENDROOT
TORSDOF 0
ENDMDL
MODEL 8
REMARK VINA RESULT:    -3.663      9.988     11.490
REMARK INTER + INTRA:          -3.663
REMARK INTER:                  -3.663
REMARK INTRA:                   0.000
REMARK UNBOUND:                 0.000
REMARK SMILES CC1(C)[C@@H]2CC[C@@]1(C)C(=O)C2
REMARK SMILES IDX 1 1 2 2 4 3 5 4 6 5 7 6 9 7 10 8 11 9 8 10 3 11
REMARK H PARENT
REMARK Flexibility Score: inf
ROOT
ATOM      1  C   UNL     1     145.110 135.859 144.675  1.00  0.00     0.012 C 
ATOM      2  C   UNL     1     143.970 136.221 145.677  1.00  0.00    -0.020 C 
ATOM      3  C   UNL     1     144.158 137.597 146.360  1.00  0.00     0.003 C 
ATOM      4  C   UNL     1     142.831 137.771 147.148  1.00  0.00     0.005 C 
ATOM      5  C   UNL     1     141.782 137.123 146.209  1.00  0.00     0.015 C 
ATOM      6  C   UNL     1     142.643 136.651 145.014  1.00  0.00     0.032 C 
ATOM      7  C   UNL     1     143.075 137.922 144.325  1.00  0.00     0.139 C 
ATOM      8  O   UNL     1     142.608 138.372 143.290  1.00  0.00    -0.299 OA
ATOM      9  C   UNL     1     144.101 138.602 145.177  1.00  0.00     0.080 C 
ATOM     10  C   UNL     1     141.968 135.620 144.103  1.00  0.00     0.020 C 
ATOM     11  C   UNL     1     143.865 135.030 146.675  1.00  0.00     0.012 C 
ENDROOT
TORSDOF 0
ENDMDL
MODEL 9
REMARK VINA RESULT:    -3.612      1.139      2.557
REMARK INTER + INTRA:          -3.612
REMARK INTER:                  -3.612
REMARK INTRA:                   0.000
REMARK UNBOUND:                 0.000
REMARK SMILES CC1(C)[C@@H]2CC[C@@]1(C)C(=O)C2
REMARK SMILES IDX 1 1 2 2 4 3 5 4 6 5 7 6 9 7 10 8 11 9 8 10 3 11
REMARK H PARENT
REMARK Flexibility Score: inf
ROOT
ATOM      1  C   UNL     1     144.442 148.037 141.570  1.00  0.00     0.012 C 
ATOM      2  C   UNL     1     143.315 147.612 142.562  1.00  0.00    -0.020 C 
ATOM      3  C   UNL     1     142.246 148.708 142.792  1.00  0.00     0.003 C 
ATOM      4  C   UNL     1     141.186 147.974 143.659  1.00  0.00     0.005 C 
ATOM      5  C   UNL     1     141.207 146.534 143.087  1.00  0.00     0.015 C 
ATOM      6  C   UNL     1     142.281 146.625 141.978  1.00  0.00     0.032 C 
ATOM      7  C   UNL     1     141.654 147.480 140.904  1.00  0.00     0.139 C 
ATOM      8  O   UNL     1     141.181 147.079 139.852  1.00  0.00    -0.299 OA
ATOM      9  C   UNL     1     141.610 148.897 141.387  1.00  0.00     0.080 C 
ATOM     10  C   UNL     1     142.822 145.274 141.495  1.00  0.00     0.020 C 
ATOM     11  C   UNL     1     144.028 147.143 143.864  1.00  0.00     0.012 C 
ENDROOT
TORSDOF 0
ENDMDL
