MODEL 1
REMARK VINA RESULT:    -3.094      0.000      0.000
REMARK INTER + INTRA:          -3.954
REMARK INTER:                  -4.360
REMARK INTRA:                   0.406
REMARK UNBOUND:                 0.406
REMARK SMILES CC1=CCC(=C(C)C)C(=O)CC(C)=CCC1
REMARK SMILES IDX 12 1 14 2 13 3 15 4 16 5 2 6 1 7 3 8 11 10 9 11 10 12 5 13
REMARK SMILES IDX 6 14 7 15 8 16 4 17
REMARK H PARENT
REMARK Flexibility Score: 60.00
ROOT
ATOM      1  C   UNL     1     -28.919 -17.650  19.932  1.00  0.00    -0.070 C 
ATOM      2  C   UNL     1     -29.870 -18.278  19.201  1.00  0.00    -0.027 C 
ATOM      3  C   UNL     1     -28.159 -16.528  19.268  1.00  0.00     0.039 C 
ENDROOT
BRANCH   2   4
ATOM      4  C   UNL     1     -30.816 -19.347  19.693  1.00  0.00     0.032 C 
BRANCH   4   5
ATOM      5  C   UNL     1     -31.982 -18.770  20.518  1.00  0.00     0.034 C 
BRANCH   5   6
ATOM      6  C   UNL     1     -32.146 -19.477  21.850  1.00  0.00    -0.077 C 
ATOM      7  C   UNL     1     -32.581 -20.920  21.845  1.00  0.00     0.039 C 
ATOM      8  C   UNL     1     -31.950 -18.878  23.046  1.00  0.00    -0.023 CG0
ATOM      9  G   UNL     1     -31.549 -17.438  23.257  1.00  0.00     0.000 G0
ENDBRANCH   5   6
ENDBRANCH   4   5
ENDBRANCH   2   4
BRANCH   1  10
ATOM     10  C   UNL     1     -28.626 -17.968  21.389  1.00  0.00     0.111 C 
BRANCH  10  11
ATOM     11  C   UNL     1     -29.216 -16.931  22.313  1.00  0.00     0.163 C 
ATOM     12  O   UNL     1     -28.939 -15.720  22.098  1.00  0.00    -0.294 OA
BRANCH  11  13
ATOM     13  C   UNL     1     -30.064 -17.306  23.487  1.00  0.00    -0.002 C 
ATOM     14  C   UNL     1     -29.532 -17.471  24.735  1.00  0.00    -0.069 C 
ATOM     15  C   UNL     1     -28.068 -17.213  25.013  1.00  0.00     0.039 C 
ATOM     16  C   UNL     1     -30.391 -17.889  25.910  1.00  0.00     0.039 C 
BRANCH  13  17
ATOM     17  C   UNL     1     -31.559 -17.422  23.249  1.00  0.00     0.066 CG0
ATOM     18  G   UNL     1     -31.935 -18.872  23.051  1.00  0.00     0.000 G0
ENDBRANCH  13  17
ENDBRANCH  11  13
ENDBRANCH  10  11
ENDBRANCH   1  10
TORSDOF 0
ENDMDL
MODEL 2
REMARK VINA RESULT:    -3.057      2.243      4.235
REMARK INTER + INTRA:          -3.903
REMARK INTER:                  -4.278
REMARK INTRA:                   0.375
REMARK UNBOUND:                 0.406
REMARK SMILES CC1=CCC(=C(C)C)C(=O)CC(C)=CCC1
REMARK SMILES IDX 12 1 14 2 13 3 15 4 16 5 2 6 1 7 3 8 11 10 9 11 10 12 5 13
REMARK SMILES IDX 6 14 7 15 8 16 4 17
REMARK H PARENT
REMARK Flexibility Score: 60.00
ROOT
ATOM      1  C   UNL     1     -28.010 -17.514  23.081  1.00  0.00    -0.070 C 
ATOM      2  C   UNL     1     -27.475 -17.599  24.322  1.00  0.00    -0.027 C 
ATOM      3  C   UNL     1     -27.068 -17.236  21.936  1.00  0.00     0.039 C 
ENDROOT
BRANCH   2   4
ATOM      4  C   UNL     1     -28.208 -17.971  25.589  1.00  0.00     0.032 C 
BRANCH   4   5
ATOM      5  C   UNL     1     -29.080 -16.821  26.127  1.00  0.00     0.034 C 
BRANCH   5   6
ATOM      6  C   UNL     1     -30.487 -17.278  26.464  1.00  0.00    -0.077 C 
ATOM      7  C   UNL     1     -30.658 -18.374  27.485  1.00  0.00     0.039 C 
ATOM      8  C   UNL     1     -31.598 -16.777  25.880  1.00  0.00    -0.023 CG0
ATOM      9  G   UNL     1     -31.631 -15.706  24.815  1.00  0.00     0.000 G0
ENDBRANCH   5   6
ENDBRANCH   4   5
ENDBRANCH   2   4
BRANCH   1  10
ATOM     10  C   UNL     1     -29.480 -17.748  22.777  1.00  0.00     0.111 C 
BRANCH  10  11
ATOM     11  C   UNL     1     -30.259 -16.455  22.777  1.00  0.00     0.163 C 
ATOM     12  O   UNL     1     -29.726 -15.442  22.249  1.00  0.00    -0.294 OA
BRANCH  11  13
ATOM     13  C   UNL     1     -31.602 -16.339  23.425  1.00  0.00    -0.002 C 
ATOM     14  C   UNL     1     -32.731 -16.835  22.834  1.00  0.00    -0.069 C 
ATOM     15  C   UNL     1     -32.673 -17.594  21.527  1.00  0.00     0.039 C 
ATOM     16  C   UNL     1     -34.092 -16.680  23.478  1.00  0.00     0.039 C 
BRANCH  13  17
ATOM     17  C   UNL     1     -31.651 -15.711  24.806  1.00  0.00     0.066 CG0
ATOM     18  G   UNL     1     -31.586 -16.790  25.862  1.00  0.00     0.000 G0
ENDBRANCH  13  17
ENDBRANCH  11  13
ENDBRANCH  10  11
ENDBRANCH   1  10
TORSDOF 0
ENDMDL
MODEL 3
REMARK VINA RESULT:    -3.055      1.543      1.905
REMARK INTER + INTRA:          -3.900
REMARK INTER:                  -4.560
REMARK INTRA:                   0.661
REMARK UNBOUND:                 0.406
REMARK SMILES CC1=CCC(=C(C)C)C(=O)CC(C)=CCC1
REMARK SMILES IDX 12 1 14 2 13 3 15 4 16 5 2 6 1 7 3 8 11 10 9 11 10 12 5 13
REMARK SMILES IDX 6 14 7 15 8 16 4 17
REMARK H PARENT
REMARK Flexibility Score: 60.00
ROOT
ATOM      1  C   UNL     1     -29.244 -17.648  20.649  1.00  0.00    -0.070 C 
ATOM      2  C   UNL     1     -30.030 -18.341  19.792  1.00  0.00    -0.027 C 
ATOM      3  C   UNL     1     -27.769 -17.967  20.654  1.00  0.00     0.039 C 
ENDROOT
BRANCH   2   4
ATOM      4  C   UNL     1     -31.502 -18.113  19.545  1.00  0.00     0.032 C 
BRANCH   4   5
ATOM      5  C   UNL     1     -32.341 -19.387  19.761  1.00  0.00     0.034 C 
BRANCH   5   6
ATOM      6  C   UNL     1     -32.183 -19.947  21.161  1.00  0.00    -0.077 C 
ATOM      7  C   UNL     1     -31.861 -21.412  21.313  1.00  0.00     0.039 C 
ATOM      8  C   UNL     1     -32.340 -19.213  22.285  1.00  0.00    -0.023 CG0
ATOM      9  G   UNL     1     -32.696 -17.746  22.339  1.00  0.00     0.000 G0
ENDBRANCH   5   6
ENDBRANCH   4   5
ENDBRANCH   2   4
BRANCH   1  10
ATOM     10  C   UNL     1     -29.752 -16.532  21.548  1.00  0.00     0.111 C 
BRANCH  10  11
ATOM     11  C   UNL     1     -30.253 -17.067  22.867  1.00  0.00     0.163 C 
ATOM     12  O   UNL     1     -29.420 -17.616  23.638  1.00  0.00    -0.294 OA
BRANCH  11  13
ATOM     13  C   UNL     1     -31.698 -17.008  23.250  1.00  0.00    -0.002 C 
ATOM     14  C   UNL     1     -32.128 -16.281  24.325  1.00  0.00    -0.069 C 
ATOM     15  C   UNL     1     -31.176 -15.437  25.143  1.00  0.00     0.039 C 
ATOM     16  C   UNL     1     -33.587 -16.257  24.728  1.00  0.00     0.039 C 
BRANCH  13  17
ATOM     17  C   UNL     1     -32.680 -17.731  22.347  1.00  0.00     0.066 CG0
ATOM     18  G   UNL     1     -32.335 -19.200  22.287  1.00  0.00     0.000 G0
ENDBRANCH  13  17
ENDBRANCH  11  13
ENDBRANCH  10  11
ENDBRANCH   1  10
TORSDOF 0
ENDMDL
MODEL 4
REMARK VINA RESULT:    -2.985      2.865      5.752
REMARK INTER + INTRA:          -3.801
REMARK INTER:                  -4.233
REMARK INTRA:                   0.432
REMARK UNBOUND:                 0.406
REMARK SMILES CC1=CCC(=C(C)C)C(=O)CC(C)=CCC1
REMARK SMILES IDX 12 1 14 2 13 3 15 4 16 5 2 6 1 7 3 8 11 10 9 11 10 12 5 13
REMARK SMILES IDX 6 14 7 15 8 16 4 17
REMARK H PARENT
REMARK Flexibility Score: 60.00
ROOT
ATOM      1  C   UNL     1     -31.463 -15.828  27.826  1.00  0.00    -0.070 C 
ATOM      2  C   UNL     1     -32.647 -15.172  27.847  1.00  0.00    -0.027 C 
ATOM      3  C   UNL     1     -31.101 -16.649  29.040  1.00  0.00     0.039 C 
ENDROOT
BRANCH   2   4
ATOM      4  C   UNL     1     -33.254 -14.386  26.710  1.00  0.00     0.032 C 
BRANCH   4   5
ATOM      5  C   UNL     1     -33.773 -15.290  25.577  1.00  0.00     0.034 C 
BRANCH   5   6
ATOM      6  C   UNL     1     -33.208 -14.895  24.225  1.00  0.00    -0.077 C 
ATOM      7  C   UNL     1     -33.502 -13.511  23.704  1.00  0.00     0.039 C 
ATOM      8  C   UNL     1     -32.477 -15.723  23.447  1.00  0.00    -0.023 CG0
ATOM      9  G   UNL     1     -32.109 -17.151  23.777  1.00  0.00     0.000 G0
ENDBRANCH   5   6
ENDBRANCH   4   5
ENDBRANCH   2   4
BRANCH   1  10
ATOM     10  C   UNL     1     -30.522 -15.835  26.633  1.00  0.00     0.111 C 
BRANCH  10  11
ATOM     11  C   UNL     1     -30.592 -17.141  25.879  1.00  0.00     0.163 C 
ATOM     12  O   UNL     1     -30.519 -18.211  26.540  1.00  0.00    -0.294 OA
BRANCH  11  13
ATOM     13  C   UNL     1     -30.692 -17.189  24.387  1.00  0.00    -0.002 C 
ATOM     14  C   UNL     1     -29.585 -17.325  23.596  1.00  0.00    -0.069 C 
ATOM     15  C   UNL     1     -28.205 -17.506  24.187  1.00  0.00     0.039 C 
ATOM     16  C   UNL     1     -29.692 -17.334  22.086  1.00  0.00     0.039 C 
BRANCH  13  17
ATOM     17  C   UNL     1     -32.087 -17.158  23.788  1.00  0.00     0.066 CG0
ATOM     18  G   UNL     1     -32.468 -15.735  23.453  1.00  0.00     0.000 G0
ENDBRANCH  13  17
ENDBRANCH  11  13
ENDBRANCH  10  11
ENDBRANCH   1  10
TORSDOF 0
ENDMDL
MODEL 5
REMARK VINA RESULT:    -2.933      1.688      3.899
REMARK INTER + INTRA:          -3.728
REMARK INTER:                  -4.382
REMARK INTRA:                   0.654
REMARK UNBOUND:                 0.406
REMARK SMILES CC1=CCC(=C(C)C)C(=O)CC(C)=CCC1
REMARK SMILES IDX 12 1 14 2 13 3 15 4 16 5 2 6 1 7 3 8 11 10 9 11 10 12 5 13
REMARK SMILES IDX 6 14 7 15 8 16 4 17
REMARK H PARENT
REMARK Flexibility Score: 60.00
ROOT
ATOM      1  C   UNL     1     -27.503 -17.170  20.505  1.00  0.00    -0.070 C 
ATOM      2  C   UNL     1     -26.664 -16.670  21.443  1.00  0.00    -0.027 C 
ATOM      3  C   UNL     1     -27.334 -16.680  19.088  1.00  0.00     0.039 C 
ENDROOT
BRANCH   2   4
ATOM      4  C   UNL     1     -26.585 -17.094  22.890  1.00  0.00     0.032 C 
BRANCH   4   5
ATOM      5  C   UNL     1     -27.475 -16.235  23.807  1.00  0.00     0.034 C 
BRANCH   5   6
ATOM      6  C   UNL     1     -28.609 -17.035  24.418  1.00  0.00    -0.077 C 
ATOM      7  C   UNL     1     -28.317 -17.876  25.635  1.00  0.00     0.039 C 
ATOM      8  C   UNL     1     -29.865 -17.060  23.917  1.00  0.00    -0.023 CG0
ATOM      9  G   UNL     1     -30.341 -16.317  22.692  1.00  0.00     0.000 G0
ENDBRANCH   5   6
ENDBRANCH   4   5
ENDBRANCH   2   4
BRANCH   1  10
ATOM     10  C   UNL     1     -28.550 -18.234  20.790  1.00  0.00     0.111 C 
BRANCH  10  11
ATOM     11  C   UNL     1     -29.947 -17.715  20.553  1.00  0.00     0.163 C 
ATOM     12  O   UNL     1     -30.322 -17.545  19.362  1.00  0.00    -0.294 OA
BRANCH  11  13
ATOM     13  C   UNL     1     -30.861 -17.357  21.682  1.00  0.00    -0.002 C 
ATOM     14  C   UNL     1     -32.075 -17.964  21.845  1.00  0.00    -0.069 C 
ATOM     15  C   UNL     1     -32.530 -19.084  20.936  1.00  0.00     0.039 C 
ATOM     16  C   UNL     1     -33.010 -17.568  22.968  1.00  0.00     0.039 C 
BRANCH  13  17
ATOM     17  C   UNL     1     -30.350 -16.340  22.686  1.00  0.00     0.066 CG0
ATOM     18  G   UNL     1     -29.879 -17.046  23.936  1.00  0.00     0.000 G0
ENDBRANCH  13  17
ENDBRANCH  11  13
ENDBRANCH  10  11
ENDBRANCH   1  10
TORSDOF 0
ENDMDL
MODEL 6
REMARK VINA RESULT:    -2.912      2.019      4.165
REMARK INTER + INTRA:          -3.698
REMARK INTER:                  -4.158
REMARK INTRA:                   0.460
REMARK UNBOUND:                 0.406
REMARK SMILES CC1=CCC(=C(C)C)C(=O)CC(C)=CCC1
REMARK SMILES IDX 12 1 14 2 13 3 15 4 16 5 2 6 1 7 3 8 11 10 9 11 10 12 5 13
REMARK SMILES IDX 6 14 7 15 8 16 4 17
REMARK H PARENT
REMARK Flexibility Score: 60.00
ROOT
ATOM      1  C   UNL     1     -29.795 -17.903  21.192  1.00  0.00    -0.070 C 
ATOM      2  C   UNL     1     -28.451 -17.855  21.343  1.00  0.00    -0.027 C 
ATOM      3  C   UNL     1     -30.356 -18.987  20.303  1.00  0.00     0.039 C 
ENDROOT
BRANCH   2   4
ATOM      4  C   UNL     1     -27.687 -16.930  22.260  1.00  0.00     0.032 C 
BRANCH   4   5
ATOM      5  C   UNL     1     -27.555 -17.490  23.689  1.00  0.00     0.034 C 
BRANCH   5   6
ATOM      6  C   UNL     1     -28.029 -16.502  24.738  1.00  0.00    -0.077 C 
ATOM      7  C   UNL     1     -27.141 -15.330  25.069  1.00  0.00     0.039 C 
ATOM      8  C   UNL     1     -29.193 -16.626  25.413  1.00  0.00    -0.023 CG0
ATOM      9  G   UNL     1     -30.195 -17.744  25.249  1.00  0.00     0.000 G0
ENDBRANCH   5   6
ENDBRANCH   4   5
ENDBRANCH   2   4
BRANCH   1  10
ATOM     10  C   UNL     1     -30.761 -16.978  21.913  1.00  0.00     0.111 C 
BRANCH  10  11
ATOM     11  C   UNL     1     -31.487 -17.692  23.026  1.00  0.00     0.163 C 
ATOM     12  O   UNL     1     -32.221 -18.671  22.722  1.00  0.00    -0.294 OA
BRANCH  11  13
ATOM     13  C   UNL     1     -31.398 -17.239  24.449  1.00  0.00    -0.002 C 
ATOM     14  C   UNL     1     -32.375 -16.473  25.023  1.00  0.00    -0.069 C 
ATOM     15  C   UNL     1     -33.635 -16.103  24.272  1.00  0.00     0.039 C 
ATOM     16  C   UNL     1     -32.259 -15.987  26.452  1.00  0.00     0.039 C 
BRANCH  13  17
ATOM     17  C   UNL     1     -30.210 -17.730  25.256  1.00  0.00     0.066 CG0
ATOM     18  G   UNL     1     -29.207 -16.613  25.422  1.00  0.00     0.000 G0
ENDBRANCH  13  17
ENDBRANCH  11  13
ENDBRANCH  10  11
ENDBRANCH   1  10
TORSDOF 0
ENDMDL
MODEL 7
REMARK VINA RESULT:    -2.896      1.955      4.625
REMARK INTER + INTRA:          -3.675
REMARK INTER:                  -4.161
REMARK INTRA:                   0.485
REMARK UNBOUND:                 0.406
REMARK SMILES CC1=CCC(=C(C)C)C(=O)CC(C)=CCC1
REMARK SMILES IDX 12 1 14 2 13 3 15 4 16 5 2 6 1 7 3 8 11 10 9 11 10 12 5 13
REMARK SMILES IDX 6 14 7 15 8 16 4 17
REMARK H PARENT
REMARK Flexibility Score: 60.00
ROOT
ATOM      1  C   UNL     1     -28.753 -16.968  23.871  1.00  0.00    -0.070 C 
ATOM      2  C   UNL     1     -27.533 -17.269  23.368  1.00  0.00    -0.027 C 
ATOM      3  C   UNL     1     -28.906 -16.970  25.373  1.00  0.00     0.039 C 
ENDROOT
BRANCH   2   4
ATOM      4  C   UNL     1     -27.129 -17.224  21.914  1.00  0.00     0.032 C 
BRANCH   4   5
ATOM      5  C   UNL     1     -27.827 -18.310  21.073  1.00  0.00     0.034 C 
BRANCH   5   6
ATOM      6  C   UNL     1     -28.482 -17.739  19.830  1.00  0.00    -0.077 C 
ATOM      7  C   UNL     1     -27.653 -16.868  18.920  1.00  0.00     0.039 C 
ATOM      8  C   UNL     1     -29.777 -17.944  19.504  1.00  0.00    -0.023 CG0
ATOM      9  G   UNL     1     -30.772 -18.752  20.302  1.00  0.00     0.000 G0
ENDBRANCH   5   6
ENDBRANCH   4   5
ENDBRANCH   2   4
BRANCH   1  10
ATOM     10  C   UNL     1     -29.945 -16.570  23.017  1.00  0.00     0.111 C 
BRANCH  10  11
ATOM     11  C   UNL     1     -30.796 -17.764  22.660  1.00  0.00     0.163 C 
ATOM     12  O   UNL     1     -30.891 -18.697  23.502  1.00  0.00    -0.294 OA
BRANCH  11  13
ATOM     13  C   UNL     1     -31.475 -17.884  21.332  1.00  0.00    -0.002 C 
ATOM     14  C   UNL     1     -32.617 -17.192  21.043  1.00  0.00    -0.069 C 
ATOM     15  C   UNL     1     -33.218 -16.209  22.023  1.00  0.00     0.039 C 
ATOM     16  C   UNL     1     -33.319 -17.349  19.711  1.00  0.00     0.039 C 
BRANCH  13  17
ATOM     17  C   UNL     1     -30.798 -18.754  20.288  1.00  0.00     0.066 CG0
ATOM     18  G   UNL     1     -29.789 -17.936  19.517  1.00  0.00     0.000 G0
ENDBRANCH  13  17
ENDBRANCH  11  13
ENDBRANCH  10  11
ENDBRANCH   1  10
TORSDOF 0
ENDMDL
MODEL 8
REMARK VINA RESULT:    -2.816      3.908      5.637
REMARK INTER + INTRA:          -3.563
REMARK INTER:                  -3.934
REMARK INTRA:                   0.371
REMARK UNBOUND:                 0.406
REMARK SMILES CC1=CCC(=C(C)C)C(=O)CC(C)=CCC1
REMARK SMILES IDX 12 1 14 2 13 3 15 4 16 5 2 6 1 7 3 8 11 10 9 11 10 12 5 13
REMARK SMILES IDX 6 14 7 15 8 16 4 17
REMARK H PARENT
REMARK Flexibility Score: 60.00
ROOT
ATOM      1  C   UNL     1     -30.625 -17.400  25.809  1.00  0.00    -0.070 C 
ATOM      2  C   UNL     1     -31.052 -17.913  24.631  1.00  0.00    -0.027 C 
ATOM      3  C   UNL     1     -30.029 -18.361  26.809  1.00  0.00     0.039 C 
ENDROOT
BRANCH   2   4
ATOM      4  C   UNL     1     -31.579 -17.128  23.453  1.00  0.00     0.032 C 
BRANCH   4   5
ATOM      5  C   UNL     1     -33.053 -16.717  23.629  1.00  0.00     0.034 C 
BRANCH   5   6
ATOM      6  C   UNL     1     -33.247 -15.217  23.516  1.00  0.00    -0.077 C 
ATOM      7  C   UNL     1     -32.975 -14.558  22.188  1.00  0.00     0.039 C 
ATOM      8  C   UNL     1     -33.625 -14.430  24.548  1.00  0.00    -0.023 CG0
ATOM      9  G   UNL     1     -33.908 -14.896  25.957  1.00  0.00     0.000 G0
ENDBRANCH   5   6
ENDBRANCH   4   5
ENDBRANCH   2   4
BRANCH   1  10
ATOM     10  C   UNL     1     -30.653 -15.919  26.146  1.00  0.00     0.111 C 
BRANCH  10  11
ATOM     11  C   UNL     1     -31.738 -15.597  27.144  1.00  0.00     0.163 C 
ATOM     12  O   UNL     1     -31.796 -16.285  28.199  1.00  0.00    -0.294 OA
BRANCH  11  13
ATOM     13  C   UNL     1     -32.759 -14.534  26.889  1.00  0.00    -0.002 C 
ATOM     14  C   UNL     1     -32.631 -13.275  27.405  1.00  0.00    -0.069 C 
ATOM     15  C   UNL     1     -31.412 -12.865  28.202  1.00  0.00     0.039 C 
ATOM     16  C   UNL     1     -33.688 -12.216  27.174  1.00  0.00     0.039 C 
BRANCH  13  17
ATOM     17  C   UNL     1     -33.911 -14.891  25.967  1.00  0.00     0.066 CG0
ATOM     18  G   UNL     1     -33.598 -14.444  24.559  1.00  0.00     0.000 G0
ENDBRANCH  13  17
ENDBRANCH  11  13
ENDBRANCH  10  11
ENDBRANCH   1  10
TORSDOF 0
ENDMDL
MODEL 9
REMARK VINA RESULT:    -2.802      1.520      3.982
REMARK INTER + INTRA:          -3.543
REMARK INTER:                  -4.050
REMARK INTRA:                   0.507
REMARK UNBOUND:                 0.406
REMARK SMILES CC1=CCC(=C(C)C)C(=O)CC(C)=CCC1
REMARK SMILES IDX 12 1 14 2 13 3 15 4 16 5 2 6 1 7 3 8 11 10 9 11 10 12 5 13
REMARK SMILES IDX 6 14 7 15 8 16 4 17
REMARK H PARENT
REMARK Flexibility Score: 60.00
ROOT
ATOM      1  C   UNL     1     -26.973 -16.437  21.810  1.00  0.00    -0.070 C 
ATOM      2  C   UNL     1     -26.615 -15.786  22.942  1.00  0.00    -0.027 C 
ATOM      3  C   UNL     1     -26.285 -16.032  20.528  1.00  0.00     0.039 C 
ENDROOT
BRANCH   2   4
ATOM      4  C   UNL     1     -27.092 -16.098  24.340  1.00  0.00     0.032 C 
BRANCH   4   5
ATOM      5  C   UNL     1     -28.581 -15.761  24.546  1.00  0.00     0.034 C 
BRANCH   5   6
ATOM      6  C   UNL     1     -29.376 -16.958  25.033  1.00  0.00    -0.077 C 
ATOM      7  C   UNL     1     -28.889 -17.690  26.258  1.00  0.00     0.039 C 
ATOM      8  C   UNL     1     -30.484 -17.423  24.415  1.00  0.00    -0.023 CG0
ATOM      9  G   UNL     1     -31.104 -16.851  23.163  1.00  0.00     0.000 G0
ENDBRANCH   5   6
ENDBRANCH   4   5
ENDBRANCH   2   4
BRANCH   1  10
ATOM     10  C   UNL     1     -27.968 -17.584  21.773  1.00  0.00     0.111 C 
BRANCH  10  11
ATOM     11  C   UNL     1     -29.333 -17.121  21.324  1.00  0.00     0.163 C 
ATOM     12  O   UNL     1     -29.393 -16.250  20.415  1.00  0.00    -0.294 OA
BRANCH  11  13
ATOM     13  C   UNL     1     -30.590 -17.626  21.958  1.00  0.00    -0.002 C 
ATOM     14  C   UNL     1     -31.212 -18.761  21.518  1.00  0.00    -0.069 C 
ATOM     15  C   UNL     1     -30.624 -19.609  20.412  1.00  0.00     0.039 C 
ATOM     16  C   UNL     1     -32.505 -19.244  22.141  1.00  0.00     0.039 C 
BRANCH  13  17
ATOM     17  C   UNL     1     -31.107 -16.865  23.165  1.00  0.00     0.066 CG0
ATOM     18  G   UNL     1     -30.479 -17.413  24.425  1.00  0.00     0.000 G0
ENDBRANCH  13  17
ENDBRANCH  11  13
ENDBRANCH  10  11
ENDBRANCH   1  10
TORSDOF 0
ENDMDL
