MODEL 1
REMARK VINA RESULT:    -7.238      0.000      0.000
REMARK INTER + INTRA:          -7.238
REMARK INTER:                  -7.238
REMARK INTRA:                   0.000
REMARK UNBOUND:                 0.000
REMARK SMILES C=C1c2ccccc2-c2ccccc21
REMARK SMILES IDX 1 1 2 2 3 3 4 4 5 5 6 6 7 7 8 8 9 9 10 10 11 11 12 12 13 13
REMARK SMILES IDX 14 14
REMARK H PARENT
REMARK Flexibility Score: inf
ROOT
ATOM      1  C   UNL     1      -7.282  -0.267 -36.506  1.00  0.00     0.018 C 
ATOM      2  C   UNL     1      -6.967   0.872 -37.121  1.00  0.00    -0.017 C 
ATOM      3  C   UNL     1      -6.533   2.129 -36.498  1.00  0.00    -0.010 A 
ATOM      4  C   UNL     1      -6.343   2.448 -35.152  1.00  0.00     0.009 A 
ATOM      5  C   UNL     1      -5.916   3.747 -34.828  1.00  0.00     0.001 A 
ATOM      6  C   UNL     1      -5.688   4.699 -35.843  1.00  0.00     0.001 A 
ATOM      7  C   UNL     1      -5.884   4.362 -37.192  1.00  0.00     0.009 A 
ATOM      8  C   UNL     1      -6.308   3.067 -37.493  1.00  0.00    -0.010 A 
ATOM      9  C   UNL     1      -6.588   2.448 -38.784  1.00  0.00    -0.010 A 
ATOM     10  C   UNL     1      -6.508   2.981 -40.071  1.00  0.00     0.009 A 
ATOM     11  C   UNL     1      -6.840   2.151 -41.154  1.00  0.00     0.001 A 
ATOM     12  C   UNL     1      -7.242   0.816 -40.936  1.00  0.00     0.001 A 
ATOM     13  C   UNL     1      -7.315   0.298 -39.632  1.00  0.00     0.009 A 
ATOM     14  C   UNL     1      -6.982   1.137 -38.566  1.00  0.00    -0.010 A 
ENDROOT
TORSDOF 0
ENDMDL
MODEL 2
REMARK VINA RESULT:    -7.236      0.053      4.268
REMARK INTER + INTRA:          -7.236
REMARK INTER:                  -7.236
REMARK INTRA:                   0.000
REMARK UNBOUND:                 0.000
REMARK SMILES C=C1c2ccccc2-c2ccccc21
REMARK SMILES IDX 1 1 2 2 3 3 4 4 5 5 6 6 7 7 8 8 9 9 10 10 11 11 12 12 13 13
REMARK SMILES IDX 14 14
REMARK H PARENT
REMARK Flexibility Score: inf
ROOT
ATOM      1  C   UNL     1      -7.305  -0.248 -36.501  1.00  0.00     0.018 C 
ATOM      2  C   UNL     1      -6.979   0.879 -37.134  1.00  0.00    -0.017 C 
ATOM      3  C   UNL     1      -6.989   1.121 -38.583  1.00  0.00    -0.010 A 
ATOM      4  C   UNL     1      -7.331   0.269 -39.635  1.00  0.00     0.009 A 
ATOM      5  C   UNL     1      -7.251   0.765 -40.948  1.00  0.00     0.001 A 
ATOM      6  C   UNL     1      -6.835   2.091 -41.187  1.00  0.00     0.001 A 
ATOM      7  C   UNL     1      -6.494   2.935 -40.117  1.00  0.00     0.009 A 
ATOM      8  C   UNL     1      -6.581   2.423 -38.822  1.00  0.00    -0.010 A 
ATOM      9  C   UNL     1      -6.295   3.060 -37.540  1.00  0.00    -0.010 A 
ATOM     10  C   UNL     1      -5.856   4.355 -37.261  1.00  0.00     0.009 A 
ATOM     11  C   UNL     1      -5.658   4.711 -35.917  1.00  0.00     0.001 A 
ATOM     12  C   UNL     1      -5.897   3.779 -34.886  1.00  0.00     0.001 A 
ATOM     13  C   UNL     1      -6.338   2.479 -35.189  1.00  0.00     0.009 A 
ATOM     14  C   UNL     1      -6.531   2.141 -36.531  1.00  0.00    -0.010 A 
ENDROOT
TORSDOF 0
ENDMDL
MODEL 3
REMARK VINA RESULT:    -6.103      1.118      5.033
REMARK INTER + INTRA:          -6.103
REMARK INTER:                  -6.103
REMARK INTRA:                   0.000
REMARK UNBOUND:                 0.000
REMARK SMILES C=C1c2ccccc2-c2ccccc21
REMARK SMILES IDX 1 1 2 2 3 3 4 4 5 5 6 6 7 7 8 8 9 9 10 10 11 11 12 12 13 13
REMARK SMILES IDX 14 14
REMARK H PARENT
REMARK Flexibility Score: inf
ROOT
ATOM      1  C   UNL     1      -5.545   4.033 -38.906  1.00  0.00     0.018 C 
ATOM      2  C   UNL     1      -6.163   2.865 -38.732  1.00  0.00    -0.017 C 
ATOM      3  C   UNL     1      -6.737   1.998 -39.769  1.00  0.00    -0.010 A 
ATOM      4  C   UNL     1      -6.782   2.162 -41.156  1.00  0.00     0.009 A 
ATOM      5  C   UNL     1      -7.401   1.163 -41.926  1.00  0.00     0.001 A 
ATOM      6  C   UNL     1      -7.960   0.027 -41.306  1.00  0.00     0.001 A 
ATOM      7  C   UNL     1      -7.907  -0.123 -39.911  1.00  0.00     0.009 A 
ATOM      8  C   UNL     1      -7.288   0.880 -39.164  1.00  0.00    -0.010 A 
ATOM      9  C   UNL     1      -7.088   0.989 -37.723  1.00  0.00    -0.010 A 
ATOM     10  C   UNL     1      -7.462   0.120 -36.698  1.00  0.00     0.009 A 
ATOM     11  C   UNL     1      -7.140   0.475 -35.378  1.00  0.00     0.001 A 
ATOM     12  C   UNL     1      -6.457   1.679 -35.106  1.00  0.00     0.001 A 
ATOM     13  C   UNL     1      -6.089   2.541 -36.154  1.00  0.00     0.009 A 
ATOM     14  C   UNL     1      -6.417   2.173 -37.461  1.00  0.00    -0.010 A 
ENDROOT
TORSDOF 0
ENDMDL
MODEL 4
REMARK VINA RESULT:    -6.087      1.110      2.882
REMARK INTER + INTRA:          -6.087
REMARK INTER:                  -6.087
REMARK INTRA:                   0.000
REMARK UNBOUND:                 0.000
REMARK SMILES C=C1c2ccccc2-c2ccccc21
REMARK SMILES IDX 1 1 2 2 3 3 4 4 5 5 6 6 7 7 8 8 9 9 10 10 11 11 12 12 13 13
REMARK SMILES IDX 14 14
REMARK H PARENT
REMARK Flexibility Score: inf
ROOT
ATOM      1  C   UNL     1      -5.548   4.020 -38.910  1.00  0.00     0.018 C 
ATOM      2  C   UNL     1      -6.169   2.856 -38.720  1.00  0.00    -0.017 C 
ATOM      3  C   UNL     1      -6.417   2.178 -37.441  1.00  0.00    -0.010 A 
ATOM      4  C   UNL     1      -6.080   2.559 -36.140  1.00  0.00     0.009 A 
ATOM      5  C   UNL     1      -6.444   1.709 -35.081  1.00  0.00     0.001 A 
ATOM      6  C   UNL     1      -7.130   0.504 -35.335  1.00  0.00     0.001 A 
ATOM      7  C   UNL     1      -7.460   0.135 -36.650  1.00  0.00     0.009 A 
ATOM      8  C   UNL     1      -7.091   0.993 -37.686  1.00  0.00    -0.010 A 
ATOM      9  C   UNL     1      -7.300   0.869 -39.126  1.00  0.00    -0.010 A 
ATOM     10  C   UNL     1      -7.925  -0.141 -39.857  1.00  0.00     0.009 A 
ATOM     11  C   UNL     1      -7.987  -0.005 -41.254  1.00  0.00     0.001 A 
ATOM     12  C   UNL     1      -7.430   1.123 -41.889  1.00  0.00     0.001 A 
ATOM     13  C   UNL     1      -6.804   2.130 -41.133  1.00  0.00     0.009 A 
ATOM     14  C   UNL     1      -6.750   1.980 -39.745  1.00  0.00    -0.010 A 
ENDROOT
TORSDOF 0
ENDMDL
MODEL 5
REMARK VINA RESULT:    -5.931     15.349     15.967
REMARK INTER + INTRA:          -5.931
REMARK INTER:                  -5.931
REMARK INTRA:                   0.000
REMARK UNBOUND:                 0.000
REMARK SMILES C=C1c2ccccc2-c2ccccc21
REMARK SMILES IDX 1 1 2 2 3 3 4 4 5 5 6 6 7 7 8 8 9 9 10 10 11 11 12 12 13 13
REMARK SMILES IDX 14 14
REMARK H PARENT
REMARK Flexibility Score: inf
ROOT
ATOM      1  C   UNL     1       6.903  -8.173 -34.137  1.00  0.00     0.018 C 
ATOM      2  C   UNL     1       6.683  -7.497 -35.264  1.00  0.00    -0.017 C 
ATOM      3  C   UNL     1       7.418  -6.325 -35.757  1.00  0.00    -0.010 A 
ATOM      4  C   UNL     1       8.500  -5.640 -35.197  1.00  0.00     0.009 A 
ATOM      5  C   UNL     1       9.020  -4.534 -35.891  1.00  0.00     0.001 A 
ATOM      6  C   UNL     1       8.457  -4.133 -37.120  1.00  0.00     0.001 A 
ATOM      7  C   UNL     1       7.370  -4.832 -37.669  1.00  0.00     0.009 A 
ATOM      8  C   UNL     1       6.869  -5.927 -36.965  1.00  0.00    -0.010 A 
ATOM      9  C   UNL     1       5.766  -6.826 -37.289  1.00  0.00    -0.010 A 
ATOM     10  C   UNL     1       4.911  -6.834 -38.391  1.00  0.00     0.009 A 
ATOM     11  C   UNL     1       3.919  -7.827 -38.452  1.00  0.00     0.001 A 
ATOM     12  C   UNL     1       3.799  -8.784 -37.424  1.00  0.00     0.001 A 
ATOM     13  C   UNL     1       4.671  -8.758 -36.321  1.00  0.00     0.009 A 
ATOM     14  C   UNL     1       5.652  -7.763 -36.275  1.00  0.00    -0.010 A 
ENDROOT
TORSDOF 0
ENDMDL
MODEL 6
REMARK VINA RESULT:    -5.922     15.340     16.291
REMARK INTER + INTRA:          -5.922
REMARK INTER:                  -5.922
REMARK INTRA:                   0.000
REMARK UNBOUND:                 0.000
REMARK SMILES C=C1c2ccccc2-c2ccccc21
REMARK SMILES IDX 1 1 2 2 3 3 4 4 5 5 6 6 7 7 8 8 9 9 10 10 11 11 12 12 13 13
REMARK SMILES IDX 14 14
REMARK H PARENT
REMARK Flexibility Score: inf
ROOT
ATOM      1  C   UNL     1       6.893  -8.085 -34.120  1.00  0.00     0.018 C 
ATOM      2  C   UNL     1       6.689  -7.414 -35.253  1.00  0.00    -0.017 C 
ATOM      3  C   UNL     1       5.679  -7.692 -36.283  1.00  0.00    -0.010 A 
ATOM      4  C   UNL     1       4.707  -8.694 -36.343  1.00  0.00     0.009 A 
ATOM      5  C   UNL     1       3.856  -8.731 -37.461  1.00  0.00     0.001 A 
ATOM      6  C   UNL     1       3.989  -7.779 -38.492  1.00  0.00     0.001 A 
ATOM      7  C   UNL     1       4.972  -6.779 -38.417  1.00  0.00     0.009 A 
ATOM      8  C   UNL     1       5.806  -6.759 -37.299  1.00  0.00    -0.010 A 
ATOM      9  C   UNL     1       6.897  -5.851 -36.958  1.00  0.00    -0.010 A 
ATOM     10  C   UNL     1       7.403  -4.756 -37.658  1.00  0.00     0.009 A 
ATOM     11  C   UNL     1       8.475  -4.046 -37.092  1.00  0.00     0.001 A 
ATOM     12  C   UNL     1       9.017  -4.437 -35.850  1.00  0.00     0.001 A 
ATOM     13  C   UNL     1       8.491  -5.544 -35.161  1.00  0.00     0.009 A 
ATOM     14  C   UNL     1       7.426  -6.239 -35.738  1.00  0.00    -0.010 A 
ENDROOT
TORSDOF 0
ENDMDL
MODEL 7
REMARK VINA RESULT:    -5.603     15.699     16.608
REMARK INTER + INTRA:          -5.603
REMARK INTER:                  -5.603
REMARK INTRA:                   0.000
REMARK UNBOUND:                 0.000
REMARK SMILES C=C1c2ccccc2-c2ccccc21
REMARK SMILES IDX 1 1 2 2 3 3 4 4 5 5 6 6 7 7 8 8 9 9 10 10 11 11 12 12 13 13
REMARK SMILES IDX 14 14
REMARK H PARENT
REMARK Flexibility Score: inf
ROOT
ATOM      1  C   UNL     1       4.794  -6.726 -38.287  1.00  0.00     0.018 C 
ATOM      2  C   UNL     1       5.636  -6.897 -37.268  1.00  0.00    -0.017 C 
ATOM      3  C   UNL     1       6.716  -5.996 -36.846  1.00  0.00    -0.010 A 
ATOM      4  C   UNL     1       7.129  -4.773 -37.380  1.00  0.00     0.009 A 
ATOM      5  C   UNL     1       8.208  -4.110 -36.771  1.00  0.00     0.001 A 
ATOM      6  C   UNL     1       8.853  -4.672 -35.651  1.00  0.00     0.001 A 
ATOM      7  C   UNL     1       8.426  -5.904 -35.127  1.00  0.00     0.009 A 
ATOM      8  C   UNL     1       7.353  -6.546 -35.745  1.00  0.00    -0.010 A 
ATOM      9  C   UNL     1       6.706  -7.813 -35.422  1.00  0.00    -0.010 A 
ATOM     10  C   UNL     1       6.984  -8.729 -34.407  1.00  0.00     0.009 A 
ATOM     11  C   UNL     1       6.193  -9.886 -34.324  1.00  0.00     0.001 A 
ATOM     12  C   UNL     1       5.147 -10.107 -35.244  1.00  0.00     0.001 A 
ATOM     13  C   UNL     1       4.884  -9.171 -36.260  1.00  0.00     0.009 A 
ATOM     14  C   UNL     1       5.681  -8.026 -36.329  1.00  0.00    -0.010 A 
ENDROOT
TORSDOF 0
ENDMDL
MODEL 8
REMARK VINA RESULT:    -5.584     15.680     16.975
REMARK INTER + INTRA:          -5.584
REMARK INTER:                  -5.584
REMARK INTRA:                   0.000
REMARK UNBOUND:                 0.000
REMARK SMILES C=C1c2ccccc2-c2ccccc21
REMARK SMILES IDX 1 1 2 2 3 3 4 4 5 5 6 6 7 7 8 8 9 9 10 10 11 11 12 12 13 13
REMARK SMILES IDX 14 14
REMARK H PARENT
REMARK Flexibility Score: inf
ROOT
ATOM      1  C   UNL     1       3.430  -8.169 -37.586  1.00  0.00     0.018 C 
ATOM      2  C   UNL     1       4.479  -8.396 -36.796  1.00  0.00    -0.017 C 
ATOM      3  C   UNL     1       4.675  -9.526 -35.879  1.00  0.00    -0.010 A 
ATOM      4  C   UNL     1       3.846 -10.617 -35.605  1.00  0.00     0.009 A 
ATOM      5  C   UNL     1       4.285 -11.569 -34.668  1.00  0.00     0.001 A 
ATOM      6  C   UNL     1       5.531 -11.418 -34.026  1.00  0.00     0.001 A 
ATOM      7  C   UNL     1       6.352 -10.315 -34.312  1.00  0.00     0.009 A 
ATOM      8  C   UNL     1       5.899  -9.382 -35.245  1.00  0.00    -0.010 A 
ATOM      9  C   UNL     1       6.529  -8.159 -35.732  1.00  0.00    -0.010 A 
ATOM     10  C   UNL     1       7.758  -7.589 -35.396  1.00  0.00     0.009 A 
ATOM     11  C   UNL     1       8.124  -6.388 -36.025  1.00  0.00     0.001 A 
ATOM     12  C   UNL     1       7.268  -5.783 -36.969  1.00  0.00     0.001 A 
ATOM     13  C   UNL     1       6.034  -6.374 -37.292  1.00  0.00     0.009 A 
ATOM     14  C   UNL     1       5.684  -7.568 -36.657  1.00  0.00    -0.010 A 
ENDROOT
TORSDOF 0
ENDMDL
