MODEL 1
REMARK VINA RESULT:    -4.808      0.000      0.000
REMARK INTER + INTRA:          -7.670
REMARK INTER:                  -6.775
REMARK INTRA:                  -0.895
REMARK UNBOUND:                -0.895
REMARK SMILES C=CCCCCCCC(=O)[O-]
REMARK SMILES IDX 6 1 7 2 8 3 9 4 10 5 11 6 5 7 4 8 3 9 2 10 1 11
REMARK H PARENT
REMARK Flexibility Score: inf
ROOT
ATOM      1  C   UNL     1      -1.017  31.372  41.368  1.00  0.00     0.000 C 
ENDROOT
BRANCH   1   2
ATOM      2  C   UNL     1      -0.225  30.354  40.536  1.00  0.00     0.006 C 
BRANCH   2   3
ATOM      3  C   UNL     1       1.035  29.899  41.278  1.00  0.00     0.053 C 
BRANCH   3   4
ATOM      4  C   UNL     1       0.766  28.644  42.046  1.00  0.00     0.041 C 
ATOM      5  O   UNL     1      -0.249  27.946  41.787  1.00  0.00    -0.550 OA
ATOM      6  O   UNL     1       1.611  28.270  43.085  1.00  0.00    -0.550 OA
ENDBRANCH   3   4
ENDBRANCH   2   3
ENDBRANCH   1   2
BRANCH   1   7
ATOM      7  C   UNL     1      -2.400  30.820  41.741  1.00  0.00     0.000 C 
BRANCH   7   8
ATOM      8  C   UNL     1      -2.527  30.500  43.238  1.00  0.00     0.004 C 
BRANCH   8   9
ATOM      9  C   UNL     1      -1.362  31.066  44.065  1.00  0.00     0.027 C 
BRANCH   9  10
ATOM     10  C   UNL     1      -0.901  30.079  45.102  1.00  0.00    -0.035 C 
ATOM     11  C   UNL     1      -1.482  28.884  45.244  1.00  0.00     0.004 C 
ENDBRANCH   9  10
ENDBRANCH   8   9
ENDBRANCH   7   8
ENDBRANCH   1   7
TORSDOF 7
ENDMDL
MODEL 2
REMARK VINA RESULT:    -4.746      1.783      3.555
REMARK INTER + INTRA:          -7.583
REMARK INTER:                  -6.780
REMARK INTRA:                  -0.803
REMARK UNBOUND:                -0.895
REMARK SMILES C=CCCCCCCC(=O)[O-]
REMARK SMILES IDX 6 1 7 2 8 3 9 4 10 5 11 6 5 7 4 8 3 9 2 10 1 11
REMARK H PARENT
REMARK Flexibility Score: inf
ROOT
ATOM      1  C   UNL     1      -2.342  30.674  41.543  1.00  0.00     0.000 C 
ENDROOT
BRANCH   1   2
ATOM      2  C   UNL     1      -2.438  30.863  43.062  1.00  0.00     0.006 C 
BRANCH   2   3
ATOM      3  C   UNL     1      -2.690  29.528  43.769  1.00  0.00     0.053 C 
BRANCH   3   4
ATOM      4  C   UNL     1      -1.689  29.315  44.859  1.00  0.00     0.041 C 
ATOM      5  O   UNL     1      -1.659  28.226  45.489  1.00  0.00    -0.550 OA
ATOM      6  O   UNL     1      -0.820  30.340  45.216  1.00  0.00    -0.550 OA
ENDBRANCH   3   4
ENDBRANCH   2   3
ENDBRANCH   1   2
BRANCH   1   7
ATOM      7  C   UNL     1      -1.021  31.238  41.001  1.00  0.00     0.000 C 
BRANCH   7   8
ATOM      8  C   UNL     1      -0.126  30.156  40.376  1.00  0.00     0.004 C 
BRANCH   8   9
ATOM      9  C   UNL     1       1.164  29.922  41.175  1.00  0.00     0.027 C 
BRANCH   9  10
ATOM     10  C   UNL     1       0.962  28.880  42.241  1.00  0.00    -0.035 C 
ATOM     11  C   UNL     1       0.200  27.802  42.036  1.00  0.00     0.004 C 
ENDBRANCH   9  10
ENDBRANCH   8   9
ENDBRANCH   7   8
ENDBRANCH   1   7
TORSDOF 7
ENDMDL
MODEL 3
REMARK VINA RESULT:    -4.728     19.537     21.370
REMARK INTER + INTRA:          -7.558
REMARK INTER:                  -6.673
REMARK INTRA:                  -0.885
REMARK UNBOUND:                -0.895
REMARK SMILES C=CCCCCCCC(=O)[O-]
REMARK SMILES IDX 6 1 7 2 8 3 9 4 10 5 11 6 5 7 4 8 3 9 2 10 1 11
REMARK H PARENT
REMARK Flexibility Score: inf
ROOT
ATOM      1  C   UNL     1      14.849  13.262  44.775  1.00  0.00     0.000 C 
ENDROOT
BRANCH   1   2
ATOM      2  C   UNL     1      14.462  14.138  43.577  1.00  0.00     0.006 C 
BRANCH   2   3
ATOM      3  C   UNL     1      13.000  14.583  43.670  1.00  0.00     0.053 C 
BRANCH   3   4
ATOM      4  C   UNL     1      12.878  15.805  44.524  1.00  0.00     0.041 C 
ATOM      5  O   UNL     1      11.819  16.028  45.165  1.00  0.00    -0.550 OA
ATOM      6  O   UNL     1      13.918  16.727  44.572  1.00  0.00    -0.550 OA
ENDBRANCH   3   4
ENDBRANCH   2   3
ENDBRANCH   1   2
BRANCH   1   7
ATOM      7  C   UNL     1      15.978  13.911  45.589  1.00  0.00     0.000 C 
BRANCH   7   8
ATOM      8  C   UNL     1      15.605  14.112  47.066  1.00  0.00     0.004 C 
BRANCH   8   9
ATOM      9  C   UNL     1      14.134  13.774  47.356  1.00  0.00     0.027 C 
BRANCH   9  10
ATOM     10  C   UNL     1      13.462  14.880  48.120  1.00  0.00    -0.035 C 
ATOM     11  C   UNL     1      13.964  16.118  48.153  1.00  0.00     0.004 C 
ENDBRANCH   9  10
ENDBRANCH   8   9
ENDBRANCH   7   8
ENDBRANCH   1   7
TORSDOF 7
ENDMDL
MODEL 4
REMARK VINA RESULT:    -4.723      1.296      3.478
REMARK INTER + INTRA:          -7.550
REMARK INTER:                  -6.687
REMARK INTRA:                  -0.863
REMARK UNBOUND:                -0.895
REMARK SMILES C=CCCCCCCC(=O)[O-]
REMARK SMILES IDX 6 1 7 2 8 3 9 4 10 5 11 6 5 7 4 8 3 9 2 10 1 11
REMARK H PARENT
REMARK Flexibility Score: inf
ROOT
ATOM      1  C   UNL     1      -2.811  29.782  43.666  1.00  0.00     0.000 C 
ENDROOT
BRANCH   1   2
ATOM      2  C   UNL     1      -2.028  29.105  44.798  1.00  0.00     0.006 C 
BRANCH   2   3
ATOM      3  C   UNL     1      -1.496  27.738  44.358  1.00  0.00     0.053 C 
BRANCH   3   4
ATOM      4  C   UNL     1      -0.129  27.874  43.768  1.00  0.00     0.041 C 
ATOM      5  O   UNL     1       0.327  26.977  43.011  1.00  0.00    -0.550 OA
ATOM      6  O   UNL     1       0.665  28.967  44.094  1.00  0.00    -0.550 OA
ENDBRANCH   3   4
ENDBRANCH   2   3
ENDBRANCH   1   2
BRANCH   1   7
ATOM      7  C   UNL     1      -2.105  31.064  43.199  1.00  0.00     0.000 C 
BRANCH   7   8
ATOM      8  C   UNL     1      -1.749  31.035  41.705  1.00  0.00     0.004 C 
BRANCH   8   9
ATOM      9  C   UNL     1      -2.095  29.694  41.041  1.00  0.00     0.027 C 
BRANCH   9  10
ATOM     10  C   UNL     1      -0.903  29.117  40.327  1.00  0.00    -0.035 C 
ATOM     11  C   UNL     1       0.277  29.743  40.308  1.00  0.00     0.004 C 
ENDBRANCH   9  10
ENDBRANCH   8   9
ENDBRANCH   7   8
ENDBRANCH   1   7
TORSDOF 7
ENDMDL
MODEL 5
REMARK VINA RESULT:    -4.657     19.347     21.482
REMARK INTER + INTRA:          -7.458
REMARK INTER:                  -6.595
REMARK INTRA:                  -0.863
REMARK UNBOUND:                -0.895
REMARK SMILES C=CCCCCCCC(=O)[O-]
REMARK SMILES IDX 6 1 7 2 8 3 9 4 10 5 11 6 5 7 4 8 3 9 2 10 1 11
REMARK H PARENT
REMARK Flexibility Score: inf
ROOT
ATOM      1  C   UNL     1      15.663  14.740  47.387  1.00  0.00     0.000 C 
ENDROOT
BRANCH   1   2
ATOM      2  C   UNL     1      14.544  15.464  48.147  1.00  0.00     0.006 C 
BRANCH   2   3
ATOM      3  C   UNL     1      14.240  16.825  47.515  1.00  0.00     0.053 C 
BRANCH   3   4
ATOM      4  C   UNL     1      13.104  16.712  46.549  1.00  0.00     0.041 C 
ATOM      5  O   UNL     1      12.305  15.743  46.619  1.00  0.00    -0.550 OA
ATOM      6  O   UNL     1      12.956  17.654  45.537  1.00  0.00    -0.550 OA
ENDBRANCH   3   4
ENDBRANCH   2   3
ENDBRANCH   1   2
BRANCH   1   7
ATOM      7  C   UNL     1      15.114  13.523  46.627  1.00  0.00     0.000 C 
BRANCH   7   8
ATOM      8  C   UNL     1      15.339  13.620  45.111  1.00  0.00     0.004 C 
BRANCH   8   9
ATOM      9  C   UNL     1      16.033  14.927  44.698  1.00  0.00     0.027 C 
BRANCH   9  10
ATOM     10  C   UNL     1      15.242  15.654  43.645  1.00  0.00    -0.035 C 
ATOM     11  C   UNL     1      14.162  15.111  43.077  1.00  0.00     0.004 C 
ENDBRANCH   9  10
ENDBRANCH   8   9
ENDBRANCH   7   8
ENDBRANCH   1   7
TORSDOF 7
ENDMDL
MODEL 6
REMARK VINA RESULT:    -4.633     19.476     21.520
REMARK INTER + INTRA:          -7.423
REMARK INTER:                  -6.541
REMARK INTRA:                  -0.882
REMARK UNBOUND:                -0.895
REMARK SMILES C=CCCCCCCC(=O)[O-]
REMARK SMILES IDX 6 1 7 2 8 3 9 4 10 5 11 6 5 7 4 8 3 9 2 10 1 11
REMARK H PARENT
REMARK Flexibility Score: inf
ROOT
ATOM      1  C   UNL     1      15.854  13.932  45.554  1.00  0.00     0.000 C 
ENDROOT
BRANCH   1   2
ATOM      2  C   UNL     1      15.566  13.867  47.059  1.00  0.00     0.006 C 
BRANCH   2   3
ATOM      3  C   UNL     1      15.183  15.245  47.606  1.00  0.00     0.053 C 
BRANCH   3   4
ATOM      4  C   UNL     1      13.764  15.245  48.079  1.00  0.00     0.041 C 
ATOM      5  O   UNL     1      12.990  14.303  47.766  1.00  0.00    -0.550 OA
ATOM      6  O   UNL     1      13.280  16.313  48.826  1.00  0.00    -0.550 OA
ENDBRANCH   3   4
ENDBRANCH   2   3
ENDBRANCH   1   2
BRANCH   1   7
ATOM      7  C   UNL     1      14.704  13.312  44.747  1.00  0.00     0.000 C 
BRANCH   7   8
ATOM      8  C   UNL     1      14.083  14.298  43.745  1.00  0.00     0.004 C 
BRANCH   8   9
ATOM      9  C   UNL     1      14.562  15.742  43.962  1.00  0.00     0.027 C 
BRANCH   9  10
ATOM     10  C   UNL     1      13.459  16.603  44.514  1.00  0.00    -0.035 C 
ATOM     11  C   UNL     1      12.245  16.111  44.774  1.00  0.00     0.004 C 
ENDBRANCH   9  10
ENDBRANCH   8   9
ENDBRANCH   7   8
ENDBRANCH   1   7
TORSDOF 7
ENDMDL
MODEL 7
REMARK VINA RESULT:    -4.617      1.469      2.441
REMARK INTER + INTRA:          -7.402
REMARK INTER:                  -6.546
REMARK INTRA:                  -0.856
REMARK UNBOUND:                -0.895
REMARK SMILES C=CCCCCCCC(=O)[O-]
REMARK SMILES IDX 6 1 7 2 8 3 9 4 10 5 11 6 5 7 4 8 3 9 2 10 1 11
REMARK H PARENT
REMARK Flexibility Score: inf
ROOT
ATOM      1  C   UNL     1      -2.361  30.906  43.308  1.00  0.00     0.000 C 
ENDROOT
BRANCH   1   2
ATOM      2  C   UNL     1      -2.312  30.990  41.777  1.00  0.00     0.006 C 
BRANCH   2   3
ATOM      3  C   UNL     1      -0.874  31.161  41.281  1.00  0.00     0.053 C 
BRANCH   3   4
ATOM      4  C   UNL     1      -0.393  29.906  40.625  1.00  0.00     0.041 C 
ATOM      5  O   UNL     1      -1.172  28.928  40.476  1.00  0.00    -0.550 OA
ATOM      6  O   UNL     1       0.933  29.795  40.223  1.00  0.00    -0.550 OA
ENDBRANCH   3   4
ENDBRANCH   2   3
ENDBRANCH   1   2
BRANCH   1   7
ATOM      7  C   UNL     1      -2.758  29.495  43.768  1.00  0.00     0.000 C 
BRANCH   7   8
ATOM      8  C   UNL     1      -1.757  28.894  44.767  1.00  0.00     0.004 C 
BRANCH   8   9
ATOM      9  C   UNL     1      -0.373  29.557  44.689  1.00  0.00     0.027 C 
BRANCH   9  10
ATOM     10  C   UNL     1       0.600  28.696  43.932  1.00  0.00    -0.035 C 
ATOM     11  C   UNL     1       0.275  27.471  43.508  1.00  0.00     0.004 C 
ENDBRANCH   9  10
ENDBRANCH   8   9
ENDBRANCH   7   8
ENDBRANCH   1   7
TORSDOF 7
ENDMDL
MODEL 8
REMARK VINA RESULT:    -4.538     19.290     21.204
REMARK INTER + INTRA:          -7.289
REMARK INTER:                  -6.501
REMARK INTRA:                  -0.788
REMARK UNBOUND:                -0.895
REMARK SMILES C=CCCCCCCC(=O)[O-]
REMARK SMILES IDX 6 1 7 2 8 3 9 4 10 5 11 6 5 7 4 8 3 9 2 10 1 11
REMARK H PARENT
REMARK Flexibility Score: inf
ROOT
ATOM      1  C   UNL     1      15.210  13.781  46.843  1.00  0.00     0.000 C 
ENDROOT
BRANCH   1   2
ATOM      2  C   UNL     1      14.197  13.445  45.741  1.00  0.00     0.006 C 
BRANCH   2   3
ATOM      3  C   UNL     1      14.870  13.412  44.366  1.00  0.00     0.053 C 
BRANCH   3   4
ATOM      4  C   UNL     1      14.427  14.576  43.538  1.00  0.00     0.041 C 
ATOM      5  O   UNL     1      15.141  15.609  43.463  1.00  0.00    -0.550 OA
ATOM      6  O   UNL     1      13.199  14.539  42.887  1.00  0.00    -0.550 OA
ENDBRANCH   3   4
ENDBRANCH   2   3
ENDBRANCH   1   2
BRANCH   1   7
ATOM      7  C   UNL     1      15.233  15.291  47.126  1.00  0.00     0.000 C 
BRANCH   7   8
ATOM      8  C   UNL     1      14.287  15.694  48.268  1.00  0.00     0.004 C 
BRANCH   8   9
ATOM      9  C   UNL     1      13.001  16.365  47.763  1.00  0.00     0.027 C 
BRANCH   9  10
ATOM     10  C   UNL     1      13.201  16.967  46.399  1.00  0.00    -0.035 C 
ATOM     11  C   UNL     1      12.239  16.946  45.472  1.00  0.00     0.004 C 
ENDBRANCH   9  10
ENDBRANCH   8   9
ENDBRANCH   7   8
ENDBRANCH   1   7
TORSDOF 7
ENDMDL
MODEL 9
REMARK VINA RESULT:    -4.528     10.616     11.636
REMARK INTER + INTRA:          -7.276
REMARK INTER:                  -6.470
REMARK INTRA:                  -0.807
REMARK UNBOUND:                -0.895
REMARK SMILES C=CCCCCCCC(=O)[O-]
REMARK SMILES IDX 6 1 7 2 8 3 9 4 10 5 11 6 5 7 4 8 3 9 2 10 1 11
REMARK H PARENT
REMARK Flexibility Score: inf
ROOT
ATOM      1  C   UNL     1       6.115  21.551  46.470  1.00  0.00     0.000 C 
ENDROOT
BRANCH   1   2
ATOM      2  C   UNL     1       6.392  23.055  46.346  1.00  0.00     0.006 C 
BRANCH   2   3
ATOM      3  C   UNL     1       7.893  23.346  46.419  1.00  0.00     0.053 C 
BRANCH   3   4
ATOM      4  C   UNL     1       8.543  23.081  45.098  1.00  0.00     0.041 C 
ATOM      5  O   UNL     1       9.250  22.053  44.934  1.00  0.00    -0.550 OA
ATOM      6  O   UNL     1       8.408  23.996  44.060  1.00  0.00    -0.550 OA
ENDBRANCH   3   4
ENDBRANCH   2   3
ENDBRANCH   1   2
BRANCH   1   7
ATOM      7  C   UNL     1       4.751  21.191  45.864  1.00  0.00     0.000 C 
BRANCH   7   8
ATOM      8  C   UNL     1       4.861  20.680  44.419  1.00  0.00     0.004 C 
BRANCH   8   9
ATOM      9  C   UNL     1       6.243  20.086  44.105  1.00  0.00     0.027 C 
BRANCH   9  10
ATOM     10  C   UNL     1       6.751  20.566  42.773  1.00  0.00    -0.035 C 
ATOM     11  C   UNL     1       6.385  21.746  42.264  1.00  0.00     0.004 C 
ENDBRANCH   9  10
ENDBRANCH   8   9
ENDBRANCH   7   8
ENDBRANCH   1   7
TORSDOF 7
ENDMDL
