MODEL 1
REMARK VINA RESULT:    -4.575      0.000      0.000
REMARK INTER + INTRA:         -15.700
REMARK INTER:                 -11.530
REMARK INTRA:                  -4.170
REMARK UNBOUND:                -4.170
REMARK SMILES CCCCCCCCCCCCCCCCCCCCCCCCCCCC(=O)[O-]
REMARK SMILES IDX 15 1 16 2 17 3 18 4 19 5 20 6 21 7 22 8 23 9 24 10 25 11
REMARK SMILES IDX 26 12 27 13 28 14 29 15 30 16 14 17 13 18 12 19 11 20 10 21
REMARK SMILES IDX 9 22 8 23 7 24 6 25 5 26 4 27 3 28 2 29 1 30
REMARK H PARENT
REMARK Flexibility Score: inf
ROOT
ATOM      1  C   UNL     1      54.633  -0.036  15.564  1.00  0.00     0.000 C 
ENDROOT
BRANCH   1   2
ATOM      2  C   UNL     1      53.859   1.108  16.244  1.00  0.00     0.000 C 
BRANCH   2   3
ATOM      3  C   UNL     1      54.542   2.476  16.065  1.00  0.00     0.000 C 
BRANCH   3   4
ATOM      4  C   UNL     1      54.662   3.317  17.353  1.00  0.00     0.000 C 
BRANCH   4   5
ATOM      5  C   UNL     1      56.057   3.917  17.612  1.00  0.00     0.000 C 
BRANCH   5   6
ATOM      6  C   UNL     1      57.093   3.481  16.561  1.00  0.00     0.000 C 
BRANCH   6   7
ATOM      7  C   UNL     1      58.327   2.803  17.179  1.00  0.00     0.000 C 
BRANCH   7   8
ATOM      8  C   UNL     1      58.077   2.049  18.502  1.00  0.00     0.000 C 
BRANCH   8   9
ATOM      9  C   UNL     1      57.735   0.553  18.328  1.00  0.00     0.000 C 
BRANCH   9  10
ATOM     10  C   UNL     1      56.309   0.216  18.801  1.00  0.00     0.000 C 
BRANCH  10  11
ATOM     11  C   UNL     1      56.113  -1.280  19.108  1.00  0.00     0.000 C 
BRANCH  11  12
ATOM     12  C   UNL     1      56.125  -1.644  20.603  1.00  0.00     0.006 C 
BRANCH  12  13
ATOM     13  C   UNL     1      57.114  -2.771  20.941  1.00  0.00     0.053 C 
BRANCH  13  14
ATOM     14  C   UNL     1      58.490  -2.447  20.443  1.00  0.00     0.041 C 
ATOM     15  O   UNL     1      59.207  -1.618  21.064  1.00  0.00    -0.550 OA
ATOM     16  O   UNL     1      58.962  -3.017  19.264  1.00  0.00    -0.550 OA
ENDBRANCH  13  14
ENDBRANCH  12  13
ENDBRANCH  11  12
ENDBRANCH  10  11
ENDBRANCH   9  10
ENDBRANCH   8   9
ENDBRANCH   7   8
ENDBRANCH   6   7
ENDBRANCH   5   6
ENDBRANCH   4   5
ENDBRANCH   3   4
ENDBRANCH   2   3
ENDBRANCH   1   2
BRANCH   1  17
ATOM     17  C   UNL     1      55.774   0.470  14.669  1.00  0.00     0.000 C 
BRANCH  17  18
ATOM     18  C   UNL     1      57.087  -0.296  14.900  1.00  0.00     0.000 C 
BRANCH  18  19
ATOM     19  C   UNL     1      56.845  -1.744  15.357  1.00  0.00     0.000 C 
BRANCH  19  20
ATOM     20  C   UNL     1      57.203  -2.767  14.268  1.00  0.00     0.000 C 
BRANCH  20  21
ATOM     21  C   UNL     1      56.016  -3.694  13.971  1.00  0.00     0.000 C 
BRANCH  21  22
ATOM     22  C   UNL     1      55.005  -3.065  12.996  1.00  0.00    -0.000 C 
BRANCH  22  23
ATOM     23  C   UNL     1      53.560  -3.128  13.522  1.00  0.00    -0.000 C 
BRANCH  23  24
ATOM     24  C   UNL     1      52.541  -2.605  12.488  1.00  0.00    -0.000 C 
BRANCH  24  25
ATOM     25  C   UNL     1      51.646  -3.707  11.895  1.00  0.00    -0.000 C 
BRANCH  25  26
ATOM     26  C   UNL     1      52.429  -4.719  11.041  1.00  0.00    -0.000 C 
BRANCH  26  27
ATOM     27  C   UNL     1      52.637  -4.220   9.594  1.00  0.00    -0.000 C 
BRANCH  27  28
ATOM     28  C   UNL     1      54.057  -3.689   9.322  1.00  0.00    -0.000 C 
BRANCH  28  29
ATOM     29  C   UNL     1      54.795  -4.392   8.172  1.00  0.00    -0.003 C 
ATOM     30  C   UNL     1      54.218  -4.051   6.796  1.00  0.00     0.004 C 
ENDBRANCH  28  29
ENDBRANCH  27  28
ENDBRANCH  26  27
ENDBRANCH  25  26
ENDBRANCH  24  25
ENDBRANCH  23  24
ENDBRANCH  22  23
ENDBRANCH  21  22
ENDBRANCH  20  21
ENDBRANCH  19  20
ENDBRANCH  18  19
ENDBRANCH  17  18
ENDBRANCH   1  17
TORSDOF 26
ENDMDL
MODEL 2
REMARK VINA RESULT:    -4.554      4.015     10.220
REMARK INTER + INTRA:         -15.647
REMARK INTER:                 -11.769
REMARK INTRA:                  -3.878
REMARK UNBOUND:                -4.170
REMARK SMILES CCCCCCCCCCCCCCCCCCCCCCCCCCCC(=O)[O-]
REMARK SMILES IDX 15 1 16 2 17 3 18 4 19 5 20 6 21 7 22 8 23 9 24 10 25 11
REMARK SMILES IDX 26 12 27 13 28 14 29 15 30 16 14 17 13 18 12 19 11 20 10 21
REMARK SMILES IDX 9 22 8 23 7 24 6 25 5 26 4 27 3 28 2 29 1 30
REMARK H PARENT
REMARK Flexibility Score: inf
ROOT
ATOM      1  C   UNL     1      54.772  -0.879  16.059  1.00  0.00     0.000 C 
ENDROOT
BRANCH   1   2
ATOM      2  C   UNL     1      55.733  -0.062  15.176  1.00  0.00     0.000 C 
BRANCH   2   3
ATOM      3  C   UNL     1      56.998  -0.849  14.788  1.00  0.00     0.000 C 
BRANCH   3   4
ATOM      4  C   UNL     1      56.942  -2.361  15.089  1.00  0.00     0.000 C 
BRANCH   4   5
ATOM      5  C   UNL     1      56.962  -3.275  13.850  1.00  0.00     0.000 C 
BRANCH   5   6
ATOM      6  C   UNL     1      55.690  -3.140  12.995  1.00  0.00     0.000 C 
BRANCH   6   7
ATOM      7  C   UNL     1      54.481  -3.875  13.597  1.00  0.00     0.000 C 
BRANCH   7   8
ATOM      8  C   UNL     1      53.098  -3.343  13.163  1.00  0.00     0.000 C 
BRANCH   8   9
ATOM      9  C   UNL     1      53.145  -2.014  12.378  1.00  0.00     0.000 C 
BRANCH   9  10
ATOM     10  C   UNL     1      52.061  -1.935  11.287  1.00  0.00     0.000 C 
BRANCH  10  11
ATOM     11  C   UNL     1      52.627  -1.590   9.897  1.00  0.00     0.000 C 
BRANCH  11  12
ATOM     12  C   UNL     1      53.334  -2.750   9.175  1.00  0.00     0.006 C 
BRANCH  12  13
ATOM     13  C   UNL     1      52.696  -3.095   7.821  1.00  0.00     0.053 C 
BRANCH  13  14
ATOM     14  C   UNL     1      53.437  -4.209   7.145  1.00  0.00     0.041 C 
ATOM     15  O   UNL     1      54.679  -4.336   7.316  1.00  0.00    -0.550 OA
ATOM     16  O   UNL     1      52.770  -5.075   6.284  1.00  0.00    -0.550 OA
ENDBRANCH  13  14
ENDBRANCH  12  13
ENDBRANCH  11  12
ENDBRANCH  10  11
ENDBRANCH   9  10
ENDBRANCH   8   9
ENDBRANCH   7   8
ENDBRANCH   6   7
ENDBRANCH   5   6
ENDBRANCH   4   5
ENDBRANCH   3   4
ENDBRANCH   2   3
ENDBRANCH   1   2
BRANCH   1  17
ATOM     17  C   UNL     1      54.679  -0.338  17.493  1.00  0.00     0.000 C 
BRANCH  17  18
ATOM     18  C   UNL     1      55.812  -0.858  18.394  1.00  0.00     0.000 C 
BRANCH  18  19
ATOM     19  C   UNL     1      56.761   0.265  18.843  1.00  0.00     0.000 C 
BRANCH  19  20
ATOM     20  C   UNL     1      58.239  -0.141  18.728  1.00  0.00     0.000 C 
BRANCH  20  21
ATOM     21  C   UNL     1      58.375  -1.627  18.369  1.00  0.00     0.000 C 
BRANCH  21  22
ATOM     22  C   UNL     1      59.170  -2.419  19.420  1.00  0.00    -0.000 C 
BRANCH  22  23
ATOM     23  C   UNL     1      58.308  -3.468  20.146  1.00  0.00    -0.000 C 
BRANCH  23  24
ATOM     24  C   UNL     1      57.437  -2.839  21.254  1.00  0.00    -0.000 C 
BRANCH  24  25
ATOM     25  C   UNL     1      58.180  -1.792  22.101  1.00  0.00    -0.000 C 
BRANCH  25  26
ATOM     26  C   UNL     1      57.285  -0.610  22.512  1.00  0.00    -0.000 C 
BRANCH  26  27
ATOM     27  C   UNL     1      55.790  -0.894  22.247  1.00  0.00    -0.000 C 
BRANCH  27  28
ATOM     28  C   UNL     1      54.889   0.347  22.402  1.00  0.00    -0.000 C 
BRANCH  28  29
ATOM     29  C   UNL     1      53.906   0.282  23.582  1.00  0.00    -0.003 C 
ATOM     30  C   UNL     1      53.599  -1.150  24.023  1.00  0.00     0.004 C 
ENDBRANCH  28  29
ENDBRANCH  27  28
ENDBRANCH  26  27
ENDBRANCH  25  26
ENDBRANCH  24  25
ENDBRANCH  23  24
ENDBRANCH  22  23
ENDBRANCH  21  22
ENDBRANCH  20  21
ENDBRANCH  19  20
ENDBRANCH  18  19
ENDBRANCH  17  18
ENDBRANCH   1  17
TORSDOF 26
ENDMDL
MODEL 3
REMARK VINA RESULT:    -4.488      3.594      8.046
REMARK INTER + INTRA:         -15.480
REMARK INTER:                 -10.180
REMARK INTRA:                  -5.300
REMARK UNBOUND:                -4.170
REMARK SMILES CCCCCCCCCCCCCCCCCCCCCCCCCCCC(=O)[O-]
REMARK SMILES IDX 15 1 16 2 17 3 18 4 19 5 20 6 21 7 22 8 23 9 24 10 25 11
REMARK SMILES IDX 26 12 27 13 28 14 29 15 30 16 14 17 13 18 12 19 11 20 10 21
REMARK SMILES IDX 9 22 8 23 7 24 6 25 5 26 4 27 3 28 2 29 1 30
REMARK H PARENT
REMARK Flexibility Score: inf
ROOT
ATOM      1  C   UNL     1      53.079   1.159  11.202  1.00  0.00     0.000 C 
ENDROOT
BRANCH   1   2
ATOM      2  C   UNL     1      52.237   1.204  12.490  1.00  0.00     0.000 C 
BRANCH   2   3
ATOM      3  C   UNL     1      52.849   2.115  13.568  1.00  0.00     0.000 C 
BRANCH   3   4
ATOM      4  C   UNL     1      53.440   1.377  14.787  1.00  0.00     0.000 C 
BRANCH   4   5
ATOM      5  C   UNL     1      54.968   1.485  14.938  1.00  0.00     0.000 C 
BRANCH   5   6
ATOM      6  C   UNL     1      55.717   0.355  14.210  1.00  0.00     0.000 C 
BRANCH   6   7
ATOM      7  C   UNL     1      57.159   0.170  14.710  1.00  0.00     0.000 C 
BRANCH   7   8
ATOM      8  C   UNL     1      57.582  -1.288  14.987  1.00  0.00     0.000 C 
BRANCH   8   9
ATOM      9  C   UNL     1      56.433  -2.315  14.886  1.00  0.00     0.000 C 
BRANCH   9  10
ATOM     10  C   UNL     1      56.690  -3.382  13.806  1.00  0.00     0.000 C 
BRANCH  10  11
ATOM     11  C   UNL     1      55.530  -3.516  12.802  1.00  0.00     0.000 C 
BRANCH  11  12
ATOM     12  C   UNL     1      54.124  -3.376  13.410  1.00  0.00     0.006 C 
BRANCH  12  13
ATOM     13  C   UNL     1      53.291  -2.264  12.754  1.00  0.00     0.053 C 
BRANCH  13  14
ATOM     14  C   UNL     1      52.160  -2.838  11.955  1.00  0.00     0.041 C 
ATOM     15  O   UNL     1      52.121  -2.670  10.706  1.00  0.00    -0.550 OA
ATOM     16  O   UNL     1      51.121  -3.510  12.591  1.00  0.00    -0.550 OA
ENDBRANCH  13  14
ENDBRANCH  12  13
ENDBRANCH  11  12
ENDBRANCH  10  11
ENDBRANCH   9  10
ENDBRANCH   8   9
ENDBRANCH   7   8
ENDBRANCH   6   7
ENDBRANCH   5   6
ENDBRANCH   4   5
ENDBRANCH   3   4
ENDBRANCH   2   3
ENDBRANCH   1   2
BRANCH   1  17
ATOM     17  C   UNL     1      53.622   2.538  10.799  1.00  0.00     0.000 C 
BRANCH  17  18
ATOM     18  C   UNL     1      55.099   2.488  10.374  1.00  0.00     0.000 C 
BRANCH  18  19
ATOM     19  C   UNL     1      56.049   2.871  11.521  1.00  0.00     0.000 C 
BRANCH  19  20
ATOM     20  C   UNL     1      55.706   4.239  12.130  1.00  0.00     0.000 C 
BRANCH  20  21
ATOM     21  C   UNL     1      56.442   4.449  13.460  1.00  0.00     0.000 C 
BRANCH  21  22
ATOM     22  C   UNL     1      57.732   3.617  13.559  1.00  0.00    -0.000 C 
BRANCH  22  23
ATOM     23  C   UNL     1      58.294   3.568  14.992  1.00  0.00    -0.000 C 
BRANCH  23  24
ATOM     24  C   UNL     1      57.423   4.364  15.986  1.00  0.00    -0.000 C 
BRANCH  24  25
ATOM     25  C   UNL     1      57.036   3.564  17.242  1.00  0.00    -0.000 C 
BRANCH  25  26
ATOM     26  C   UNL     1      58.204   2.743  17.812  1.00  0.00    -0.000 C 
BRANCH  26  27
ATOM     27  C   UNL     1      57.720   1.619  18.755  1.00  0.00    -0.000 C 
BRANCH  27  28
ATOM     28  C   UNL     1      57.996   0.201  18.218  1.00  0.00    -0.000 C 
BRANCH  28  29
ATOM     29  C   UNL     1      56.945  -0.848  18.613  1.00  0.00    -0.003 C 
ATOM     30  C   UNL     1      55.544  -0.513  18.097  1.00  0.00     0.004 C 
ENDBRANCH  28  29
ENDBRANCH  27  28
ENDBRANCH  26  27
ENDBRANCH  25  26
ENDBRANCH  24  25
ENDBRANCH  23  24
ENDBRANCH  22  23
ENDBRANCH  21  22
ENDBRANCH  20  21
ENDBRANCH  19  20
ENDBRANCH  18  19
ENDBRANCH  17  18
ENDBRANCH   1  17
TORSDOF 26
ENDMDL
MODEL 4
REMARK VINA RESULT:    -4.480      2.818      5.109
REMARK INTER + INTRA:         -15.459
REMARK INTER:                 -12.364
REMARK INTRA:                  -3.095
REMARK UNBOUND:                -4.170
REMARK SMILES CCCCCCCCCCCCCCCCCCCCCCCCCCCC(=O)[O-]
REMARK SMILES IDX 15 1 16 2 17 3 18 4 19 5 20 6 21 7 22 8 23 9 24 10 25 11
REMARK SMILES IDX 26 12 27 13 28 14 29 15 30 16 14 17 13 18 12 19 11 20 10 21
REMARK SMILES IDX 9 22 8 23 7 24 6 25 5 26 4 27 3 28 2 29 1 30
REMARK H PARENT
REMARK Flexibility Score: inf
ROOT
ATOM      1  C   UNL     1      57.280  -2.604  21.338  1.00  0.00     0.000 C 
ENDROOT
BRANCH   1   2
ATOM      2  C   UNL     1      55.885  -2.080  20.952  1.00  0.00     0.000 C 
BRANCH   2   3
ATOM      3  C   UNL     1      55.428  -0.903  21.832  1.00  0.00     0.000 C 
BRANCH   3   4
ATOM      4  C   UNL     1      55.379   0.464  21.117  1.00  0.00     0.000 C 
BRANCH   4   5
ATOM      5  C   UNL     1      56.752   1.071  20.774  1.00  0.00     0.000 C 
BRANCH   5   6
ATOM      6  C   UNL     1      57.508   1.565  22.020  1.00  0.00     0.000 C 
BRANCH   6   7
ATOM      7  C   UNL     1      58.734   0.701  22.361  1.00  0.00     0.000 C 
BRANCH   7   8
ATOM      8  C   UNL     1      58.616  -0.137  23.651  1.00  0.00     0.000 C 
BRANCH   8   9
ATOM      9  C   UNL     1      59.570  -1.350  23.712  1.00  0.00     0.000 C 
BRANCH   9  10
ATOM     10  C   UNL     1      61.045  -0.949  23.527  1.00  0.00     0.000 C 
BRANCH  10  11
ATOM     11  C   UNL     1      61.996  -2.159  23.465  1.00  0.00     0.000 C 
BRANCH  11  12
ATOM     12  C   UNL     1      61.484  -3.347  22.633  1.00  0.00     0.006 C 
BRANCH  12  13
ATOM     13  C   UNL     1      62.559  -4.417  22.384  1.00  0.00     0.053 C 
BRANCH  13  14
ATOM     14  C   UNL     1      63.179  -4.253  21.030  1.00  0.00     0.041 C 
ATOM     15  O   UNL     1      62.661  -4.812  20.026  1.00  0.00    -0.550 OA
ATOM     16  O   UNL     1      64.359  -3.529  20.881  1.00  0.00    -0.550 OA
ENDBRANCH  13  14
ENDBRANCH  12  13
ENDBRANCH  11  12
ENDBRANCH  10  11
ENDBRANCH   9  10
ENDBRANCH   8   9
ENDBRANCH   7   8
ENDBRANCH   6   7
ENDBRANCH   5   6
ENDBRANCH   4   5
ENDBRANCH   3   4
ENDBRANCH   2   3
ENDBRANCH   1   2
BRANCH   1  17
ATOM     17  C   UNL     1      58.132  -2.979  20.116  1.00  0.00     0.000 C 
BRANCH  17  18
ATOM     18  C   UNL     1      58.791  -1.755  19.459  1.00  0.00     0.000 C 
BRANCH  18  19
ATOM     19  C   UNL     1      58.418  -1.619  17.973  1.00  0.00     0.000 C 
BRANCH  19  20
ATOM     20  C   UNL     1      57.155  -0.769  17.766  1.00  0.00     0.000 C 
BRANCH  20  21
ATOM     21  C   UNL     1      57.208  -0.024  16.424  1.00  0.00     0.000 C 
BRANCH  21  22
ATOM     22  C   UNL     1      57.438  -0.970  15.233  1.00  0.00    -0.000 C 
BRANCH  22  23
ATOM     23  C   UNL     1      56.192  -1.808  14.895  1.00  0.00    -0.000 C 
BRANCH  23  24
ATOM     24  C   UNL     1      56.547  -3.093  14.118  1.00  0.00    -0.000 C 
BRANCH  24  25
ATOM     25  C   UNL     1      55.322  -3.945  13.745  1.00  0.00    -0.000 C 
BRANCH  25  26
ATOM     26  C   UNL     1      54.144  -3.103  13.224  1.00  0.00    -0.000 C 
BRANCH  26  27
ATOM     27  C   UNL     1      52.904  -3.970  12.913  1.00  0.00    -0.000 C 
BRANCH  27  28
ATOM     28  C   UNL     1      52.226  -3.618  11.575  1.00  0.00    -0.000 C 
BRANCH  28  29
ATOM     29  C   UNL     1      52.530  -4.594  10.427  1.00  0.00    -0.003 C 
ATOM     30  C   UNL     1      53.526  -4.030   9.413  1.00  0.00     0.004 C 
ENDBRANCH  28  29
ENDBRANCH  27  28
ENDBRANCH  26  27
ENDBRANCH  25  26
ENDBRANCH  24  25
ENDBRANCH  23  24
ENDBRANCH  22  23
ENDBRANCH  21  22
ENDBRANCH  20  21
ENDBRANCH  19  20
ENDBRANCH  18  19
ENDBRANCH  17  18
ENDBRANCH   1  17
TORSDOF 26
ENDMDL
MODEL 5
REMARK VINA RESULT:    -4.454      3.515      8.700
REMARK INTER + INTRA:         -15.393
REMARK INTER:                 -10.273
REMARK INTRA:                  -5.120
REMARK UNBOUND:                -4.170
REMARK SMILES CCCCCCCCCCCCCCCCCCCCCCCCCCCC(=O)[O-]
REMARK SMILES IDX 15 1 16 2 17 3 18 4 19 5 20 6 21 7 22 8 23 9 24 10 25 11
REMARK SMILES IDX 26 12 27 13 28 14 29 15 30 16 14 17 13 18 12 19 11 20 10 21
REMARK SMILES IDX 9 22 8 23 7 24 6 25 5 26 4 27 3 28 2 29 1 30
REMARK H PARENT
REMARK Flexibility Score: inf
ROOT
ATOM      1  C   UNL     1      57.212  -2.778  14.130  1.00  0.00     0.000 C 
ENDROOT
BRANCH   1   2
ATOM      2  C   UNL     1      55.997  -3.684  13.865  1.00  0.00     0.000 C 
BRANCH   2   3
ATOM      3  C   UNL     1      54.961  -3.031  12.932  1.00  0.00     0.000 C 
BRANCH   3   4
ATOM      4  C   UNL     1      53.498  -3.126  13.415  1.00  0.00     0.000 C 
BRANCH   4   5
ATOM      5  C   UNL     1      52.639  -4.179  12.690  1.00  0.00     0.000 C 
BRANCH   5   6
ATOM      6  C   UNL     1      51.959  -3.621  11.428  1.00  0.00     0.000 C 
BRANCH   6   7
ATOM      7  C   UNL     1      51.657  -2.116  11.523  1.00  0.00     0.000 C 
BRANCH   7   8
ATOM      8  C   UNL     1      52.237  -1.250  10.384  1.00  0.00     0.000 C 
BRANCH   8   9
ATOM      9  C   UNL     1      52.443   0.235  10.755  1.00  0.00     0.000 C 
BRANCH   9  10
ATOM     10  C   UNL     1      52.890   0.421  12.216  1.00  0.00     0.000 C 
BRANCH  10  11
ATOM     11  C   UNL     1      52.041   1.453  12.981  1.00  0.00     0.000 C 
BRANCH  11  12
ATOM     12  C   UNL     1      52.503   2.913  12.836  1.00  0.00     0.006 C 
BRANCH  12  13
ATOM     13  C   UNL     1      54.001   3.102  13.118  1.00  0.00     0.053 C 
BRANCH  13  14
ATOM     14  C   UNL     1      54.704   3.686  11.930  1.00  0.00     0.041 C 
ATOM     15  O   UNL     1      55.545   4.612  12.087  1.00  0.00    -0.550 OA
ATOM     16  O   UNL     1      54.394   3.250  10.646  1.00  0.00    -0.550 OA
ENDBRANCH  13  14
ENDBRANCH  12  13
ENDBRANCH  11  12
ENDBRANCH  10  11
ENDBRANCH   9  10
ENDBRANCH   8   9
ENDBRANCH   7   8
ENDBRANCH   6   7
ENDBRANCH   5   6
ENDBRANCH   4   5
ENDBRANCH   3   4
ENDBRANCH   2   3
ENDBRANCH   1   2
BRANCH   1  17
ATOM     17  C   UNL     1      56.966  -1.770  15.262  1.00  0.00     0.000 C 
BRANCH  17  18
ATOM     18  C   UNL     1      57.125  -0.313  14.798  1.00  0.00     0.000 C 
BRANCH  18  19
ATOM     19  C   UNL     1      55.770   0.373  14.555  1.00  0.00     0.000 C 
BRANCH  19  20
ATOM     20  C   UNL     1      54.658  -0.203  15.445  1.00  0.00     0.000 C 
BRANCH  20  21
ATOM     21  C   UNL     1      53.965   0.907  16.248  1.00  0.00     0.000 C 
BRANCH  21  22
ATOM     22  C   UNL     1      54.773   1.332  17.486  1.00  0.00    -0.000 C 
BRANCH  22  23
ATOM     23  C   UNL     1      55.459   0.141  18.180  1.00  0.00    -0.000 C 
BRANCH  23  24
ATOM     24  C   UNL     1      56.974   0.369  18.364  1.00  0.00    -0.000 C 
BRANCH  24  25
ATOM     25  C   UNL     1      57.360   1.850  18.510  1.00  0.00    -0.000 C 
BRANCH  25  26
ATOM     26  C   UNL     1      58.034   2.421  17.250  1.00  0.00    -0.000 C 
BRANCH  26  27
ATOM     27  C   UNL     1      57.444   3.790  16.845  1.00  0.00    -0.000 C 
BRANCH  27  28
ATOM     28  C   UNL     1      56.980   3.852  15.377  1.00  0.00    -0.000 C 
BRANCH  28  29
ATOM     29  C   UNL     1      58.000   3.317  14.359  1.00  0.00    -0.003 C 
ATOM     30  C   UNL     1      58.709   4.429  13.585  1.00  0.00     0.004 C 
ENDBRANCH  28  29
ENDBRANCH  27  28
ENDBRANCH  26  27
ENDBRANCH  25  26
ENDBRANCH  24  25
ENDBRANCH  23  24
ENDBRANCH  22  23
ENDBRANCH  21  22
ENDBRANCH  20  21
ENDBRANCH  19  20
ENDBRANCH  18  19
ENDBRANCH  17  18
ENDBRANCH   1  17
TORSDOF 26
ENDMDL
MODEL 6
REMARK VINA RESULT:    -4.446      4.315     10.371
REMARK INTER + INTRA:         -15.374
REMARK INTER:                 -10.756
REMARK INTRA:                  -4.618
REMARK UNBOUND:                -4.170
REMARK SMILES CCCCCCCCCCCCCCCCCCCCCCCCCCCC(=O)[O-]
REMARK SMILES IDX 15 1 16 2 17 3 18 4 19 5 20 6 21 7 22 8 23 9 24 10 25 11
REMARK SMILES IDX 26 12 27 13 28 14 29 15 30 16 14 17 13 18 12 19 11 20 10 21
REMARK SMILES IDX 9 22 8 23 7 24 6 25 5 26 4 27 3 28 2 29 1 30
REMARK H PARENT
REMARK Flexibility Score: inf
ROOT
ATOM      1  C   UNL     1      57.327  -3.389  20.881  1.00  0.00     0.000 C 
ENDROOT
BRANCH   1   2
ATOM      2  C   UNL     1      56.217  -2.379  20.539  1.00  0.00     0.000 C 
BRANCH   2   3
ATOM      3  C   UNL     1      55.703  -1.619  21.775  1.00  0.00     0.000 C 
BRANCH   3   4
ATOM      4  C   UNL     1      56.251  -0.185  21.933  1.00  0.00     0.000 C 
BRANCH   4   5
ATOM      5  C   UNL     1      57.514  -0.061  22.804  1.00  0.00     0.000 C 
BRANCH   5   6
ATOM      6  C   UNL     1      58.714   0.510  22.029  1.00  0.00     0.000 C 
BRANCH   6   7
ATOM      7  C   UNL     1      58.306   1.217  20.725  1.00  0.00     0.000 C 
BRANCH   7   8
ATOM      8  C   UNL     1      58.885   0.607  19.431  1.00  0.00     0.000 C 
BRANCH   8   9
ATOM      9  C   UNL     1      57.820   0.059  18.455  1.00  0.00     0.000 C 
BRANCH   9  10
ATOM     10  C   UNL     1      56.712   1.084  18.154  1.00  0.00     0.000 C 
BRANCH  10  11
ATOM     11  C   UNL     1      55.299   0.472  18.183  1.00  0.00     0.000 C 
BRANCH  11  12
ATOM     12  C   UNL     1      55.163  -0.885  17.471  1.00  0.00     0.006 C 
BRANCH  12  13
ATOM     13  C   UNL     1      54.911  -0.751  15.962  1.00  0.00     0.053 C 
BRANCH  13  14
ATOM     14  C   UNL     1      55.885  -1.578  15.177  1.00  0.00     0.041 C 
ATOM     15  O   UNL     1      57.116  -1.524  15.442  1.00  0.00    -0.550 OA
ATOM     16  O   UNL     1      55.444  -2.366  14.118  1.00  0.00    -0.550 OA
ENDBRANCH  13  14
ENDBRANCH  12  13
ENDBRANCH  11  12
ENDBRANCH  10  11
ENDBRANCH   9  10
ENDBRANCH   8   9
ENDBRANCH   7   8
ENDBRANCH   6   7
ENDBRANCH   5   6
ENDBRANCH   4   5
ENDBRANCH   3   4
ENDBRANCH   2   3
ENDBRANCH   1   2
BRANCH   1  17
ATOM     17  C   UNL     1      58.659  -3.064  20.189  1.00  0.00     0.000 C 
BRANCH  17  18
ATOM     18  C   UNL     1      59.779  -2.735  21.190  1.00  0.00     0.000 C 
BRANCH  18  19
ATOM     19  C   UNL     1      59.506  -3.323  22.584  1.00  0.00     0.000 C 
BRANCH  19  20
ATOM     20  C   UNL     1      60.286  -2.591  23.688  1.00  0.00     0.000 C 
BRANCH  20  21
ATOM     21  C   UNL     1      61.665  -3.231  23.903  1.00  0.00     0.000 C 
BRANCH  21  22
ATOM     22  C   UNL     1      61.589  -4.544  24.701  1.00  0.00    -0.000 C 
BRANCH  22  23
ATOM     23  C   UNL     1      62.651  -4.620  25.813  1.00  0.00    -0.000 C 
BRANCH  23  24
ATOM     24  C   UNL     1      63.299  -6.018  25.904  1.00  0.00    -0.000 C 
BRANCH  24  25
ATOM     25  C   UNL     1      63.272  -6.795  24.577  1.00  0.00    -0.000 C 
BRANCH  25  26
ATOM     26  C   UNL     1      64.482  -6.488  23.678  1.00  0.00    -0.000 C 
BRANCH  26  27
ATOM     27  C   UNL     1      64.056  -5.958  22.291  1.00  0.00    -0.000 C 
BRANCH  27  28
ATOM     28  C   UNL     1      64.377  -4.467  22.074  1.00  0.00    -0.000 C 
BRANCH  28  29
ATOM     29  C   UNL     1      63.729  -3.848  20.825  1.00  0.00    -0.003 C 
ATOM     30  C   UNL     1      62.563  -4.677  20.285  1.00  0.00     0.004 C 
ENDBRANCH  28  29
ENDBRANCH  27  28
ENDBRANCH  26  27
ENDBRANCH  25  26
ENDBRANCH  24  25
ENDBRANCH  23  24
ENDBRANCH  22  23
ENDBRANCH  21  22
ENDBRANCH  20  21
ENDBRANCH  19  20
ENDBRANCH  18  19
ENDBRANCH  17  18
ENDBRANCH   1  17
TORSDOF 26
ENDMDL
MODEL 7
REMARK VINA RESULT:    -4.442      3.621      6.723
REMARK INTER + INTRA:         -15.364
REMARK INTER:                 -10.287
REMARK INTRA:                  -5.077
REMARK UNBOUND:                -4.170
REMARK SMILES CCCCCCCCCCCCCCCCCCCCCCCCCCCC(=O)[O-]
REMARK SMILES IDX 15 1 16 2 17 3 18 4 19 5 20 6 21 7 22 8 23 9 24 10 25 11
REMARK SMILES IDX 26 12 27 13 28 14 29 15 30 16 14 17 13 18 12 19 11 20 10 21
REMARK SMILES IDX 9 22 8 23 7 24 6 25 5 26 4 27 3 28 2 29 1 30
REMARK H PARENT
REMARK Flexibility Score: inf
ROOT
ATOM      1  C   UNL     1      53.171   0.272  12.293  1.00  0.00     0.000 C 
ENDROOT
BRANCH   1   2
ATOM      2  C   UNL     1      52.801   1.436  13.230  1.00  0.00     0.000 C 
BRANCH   2   3
ATOM      3  C   UNL     1      51.645   2.294  12.686  1.00  0.00     0.000 C 
BRANCH   3   4
ATOM      4  C   UNL     1      52.069   3.428  11.730  1.00  0.00     0.000 C 
BRANCH   4   5
ATOM      5  C   UNL     1      52.034   3.068  10.233  1.00  0.00     0.000 C 
BRANCH   5   6
ATOM      6  C   UNL     1      53.440   2.982   9.613  1.00  0.00     0.000 C 
BRANCH   6   7
ATOM      7  C   UNL     1      54.515   3.681  10.460  1.00  0.00     0.000 C 
BRANCH   7   8
ATOM      8  C   UNL     1      55.574   2.751  11.088  1.00  0.00     0.000 C 
BRANCH   8   9
ATOM      9  C   UNL     1      56.431   3.414  12.190  1.00  0.00     0.000 C 
BRANCH   9  10
ATOM     10  C   UNL     1      55.574   4.035  13.308  1.00  0.00     0.000 C 
BRANCH  10  11
ATOM     11  C   UNL     1      55.515   3.165  14.577  1.00  0.00     0.000 C 
BRANCH  11  12
ATOM     12  C   UNL     1      56.680   2.174  14.742  1.00  0.00     0.006 C 
BRANCH  12  13
ATOM     13  C   UNL     1      57.579   2.494  15.945  1.00  0.00     0.053 C 
BRANCH  13  14
ATOM     14  C   UNL     1      58.344   3.764  15.724  1.00  0.00     0.041 C 
ATOM     15  O   UNL     1      58.183   4.741  16.503  1.00  0.00    -0.550 OA
ATOM     16  O   UNL     1      59.193   3.891  14.628  1.00  0.00    -0.550 OA
ENDBRANCH  13  14
ENDBRANCH  12  13
ENDBRANCH  11  12
ENDBRANCH  10  11
ENDBRANCH   9  10
ENDBRANCH   8   9
ENDBRANCH   7   8
ENDBRANCH   6   7
ENDBRANCH   5   6
ENDBRANCH   4   5
ENDBRANCH   3   4
ENDBRANCH   2   3
ENDBRANCH   1   2
BRANCH   1  17
ATOM     17  C   UNL     1      51.940  -0.406  11.675  1.00  0.00     0.000 C 
BRANCH  17  18
ATOM     18  C   UNL     1      52.072  -0.594  10.154  1.00  0.00     0.000 C 
BRANCH  18  19
ATOM     19  C   UNL     1      51.825  -2.050   9.723  1.00  0.00     0.000 C 
BRANCH  19  20
ATOM     20  C   UNL     1      53.102  -2.727   9.201  1.00  0.00     0.000 C 
BRANCH  20  21
ATOM     21  C   UNL     1      53.636  -3.750  10.215  1.00  0.00     0.000 C 
BRANCH  21  22
ATOM     22  C   UNL     1      52.587  -4.138  11.270  1.00  0.00    -0.000 C 
BRANCH  22  23
ATOM     23  C   UNL     1      53.119  -4.004  12.709  1.00  0.00    -0.000 C 
BRANCH  23  24
ATOM     24  C   UNL     1      54.292  -3.006  12.804  1.00  0.00    -0.000 C 
BRANCH  24  25
ATOM     25  C   UNL     1      55.355  -3.402  13.843  1.00  0.00    -0.000 C 
BRANCH  25  26
ATOM     26  C   UNL     1      56.149  -2.198  14.377  1.00  0.00    -0.000 C 
BRANCH  26  27
ATOM     27  C   UNL     1      55.262  -1.230  15.190  1.00  0.00    -0.000 C 
BRANCH  27  28
ATOM     28  C   UNL     1      55.645  -1.146  16.680  1.00  0.00    -0.000 C 
BRANCH  28  29
ATOM     29  C   UNL     1      54.998   0.022  17.442  1.00  0.00    -0.003 C 
ATOM     30  C   UNL     1      53.834   0.659  16.682  1.00  0.00     0.004 C 
ENDBRANCH  28  29
ENDBRANCH  27  28
ENDBRANCH  26  27
ENDBRANCH  25  26
ENDBRANCH  24  25
ENDBRANCH  23  24
ENDBRANCH  22  23
ENDBRANCH  21  22
ENDBRANCH  20  21
ENDBRANCH  19  20
ENDBRANCH  18  19
ENDBRANCH  17  18
ENDBRANCH   1  17
TORSDOF 26
ENDMDL
MODEL 8
REMARK VINA RESULT:    -4.440      2.144      4.704
REMARK INTER + INTRA:         -15.358
REMARK INTER:                 -11.271
REMARK INTRA:                  -4.087
REMARK UNBOUND:                -4.170
REMARK SMILES CCCCCCCCCCCCCCCCCCCCCCCCCCCC(=O)[O-]
REMARK SMILES IDX 15 1 16 2 17 3 18 4 19 5 20 6 21 7 22 8 23 9 24 10 25 11
REMARK SMILES IDX 26 12 27 13 28 14 29 15 30 16 14 17 13 18 12 19 11 20 10 21
REMARK SMILES IDX 9 22 8 23 7 24 6 25 5 26 4 27 3 28 2 29 1 30
REMARK H PARENT
REMARK Flexibility Score: inf
ROOT
ATOM      1  C   UNL     1      54.915  -3.116  12.876  1.00  0.00     0.000 C 
ENDROOT
BRANCH   1   2
ATOM      2  C   UNL     1      55.750  -2.899  14.151  1.00  0.00     0.000 C 
BRANCH   2   3
ATOM      3  C   UNL     1      55.876  -1.413  14.532  1.00  0.00     0.000 C 
BRANCH   3   4
ATOM      4  C   UNL     1      54.584  -0.586  14.371  1.00  0.00     0.000 C 
BRANCH   4   5
ATOM      5  C   UNL     1      54.503   0.677  15.248  1.00  0.00     0.000 C 
BRANCH   5   6
ATOM      6  C   UNL     1      55.855   1.401  15.368  1.00  0.00     0.000 C 
BRANCH   6   7
ATOM      7  C   UNL     1      56.006   2.178  16.686  1.00  0.00     0.000 C 
BRANCH   7   8
ATOM      8  C   UNL     1      56.797   1.454  17.796  1.00  0.00     0.000 C 
BRANCH   8   9
ATOM      9  C   UNL     1      55.927   0.591  18.737  1.00  0.00     0.000 C 
BRANCH   9  10
ATOM     10  C   UNL     1      56.210  -0.915  18.584  1.00  0.00     0.000 C 
BRANCH  10  11
ATOM     11  C   UNL     1      57.483  -1.211  17.770  1.00  0.00     0.000 C 
BRANCH  11  12
ATOM     12  C   UNL     1      58.722  -1.573  18.608  1.00  0.00     0.006 C 
BRANCH  12  13
ATOM     13  C   UNL     1      58.375  -2.005  20.041  1.00  0.00     0.053 C 
BRANCH  13  14
ATOM     14  C   UNL     1      58.454  -3.494  20.190  1.00  0.00     0.041 C 
ATOM     15  O   UNL     1      57.559  -4.113  20.826  1.00  0.00    -0.550 OA
ATOM     16  O   UNL     1      59.540  -4.195  19.675  1.00  0.00    -0.550 OA
ENDBRANCH  13  14
ENDBRANCH  12  13
ENDBRANCH  11  12
ENDBRANCH  10  11
ENDBRANCH   9  10
ENDBRANCH   8   9
ENDBRANCH   7   8
ENDBRANCH   6   7
ENDBRANCH   5   6
ENDBRANCH   4   5
ENDBRANCH   3   4
ENDBRANCH   2   3
ENDBRANCH   1   2
BRANCH   1  17
ATOM     17  C   UNL     1      53.790  -4.143  13.070  1.00  0.00     0.000 C 
BRANCH  17  18
ATOM     18  C   UNL     1      52.392  -3.507  12.994  1.00  0.00     0.000 C 
BRANCH  18  19
ATOM     19  C   UNL     1      51.628  -3.928  11.729  1.00  0.00     0.000 C 
BRANCH  19  20
ATOM     20  C   UNL     1      52.472  -4.825  10.810  1.00  0.00     0.000 C 
BRANCH  20  21
ATOM     21  C   UNL     1      52.580  -4.222   9.402  1.00  0.00     0.000 C 
BRANCH  21  22
ATOM     22  C   UNL     1      53.128  -2.785   9.415  1.00  0.00    -0.000 C 
BRANCH  22  23
ATOM     23  C   UNL     1      52.174  -1.784   8.739  1.00  0.00    -0.000 C 
BRANCH  23  24
ATOM     24  C   UNL     1      51.793  -0.619   9.677  1.00  0.00    -0.000 C 
BRANCH  24  25
ATOM     25  C   UNL     1      52.695  -0.507  10.917  1.00  0.00    -0.000 C 
BRANCH  25  26
ATOM     26  C   UNL     1      52.188   0.529  11.935  1.00  0.00    -0.000 C 
BRANCH  26  27
ATOM     27  C   UNL     1      52.466   1.978  11.477  1.00  0.00    -0.000 C 
BRANCH  27  28
ATOM     28  C   UNL     1      53.583   2.675  12.278  1.00  0.00    -0.000 C 
BRANCH  28  29
ATOM     29  C   UNL     1      54.749   3.201  11.426  1.00  0.00    -0.003 C 
ATOM     30  C   UNL     1      56.109   2.676  11.888  1.00  0.00     0.004 C 
ENDBRANCH  28  29
ENDBRANCH  27  28
ENDBRANCH  26  27
ENDBRANCH  25  26
ENDBRANCH  24  25
ENDBRANCH  23  24
ENDBRANCH  22  23
ENDBRANCH  21  22
ENDBRANCH  20  21
ENDBRANCH  19  20
ENDBRANCH  18  19
ENDBRANCH  17  18
ENDBRANCH   1  17
TORSDOF 26
ENDMDL
MODEL 9
REMARK VINA RESULT:    -4.406      2.258      5.730
REMARK INTER + INTRA:         -15.272
REMARK INTER:                 -10.489
REMARK INTRA:                  -4.783
REMARK UNBOUND:                -4.170
REMARK SMILES CCCCCCCCCCCCCCCCCCCCCCCCCCCC(=O)[O-]
REMARK SMILES IDX 15 1 16 2 17 3 18 4 19 5 20 6 21 7 22 8 23 9 24 10 25 11
REMARK SMILES IDX 26 12 27 13 28 14 29 15 30 16 14 17 13 18 12 19 11 20 10 21
REMARK SMILES IDX 9 22 8 23 7 24 6 25 5 26 4 27 3 28 2 29 1 30
REMARK H PARENT
REMARK Flexibility Score: inf
ROOT
ATOM      1  C   UNL     1      53.791  -3.814  12.545  1.00  0.00     0.000 C 
ENDROOT
BRANCH   1   2
ATOM      2  C   UNL     1      54.542  -2.677  13.261  1.00  0.00     0.000 C 
BRANCH   2   3
ATOM      3  C   UNL     1      55.751  -3.180  14.070  1.00  0.00     0.000 C 
BRANCH   3   4
ATOM      4  C   UNL     1      56.639  -2.072  14.673  1.00  0.00     0.000 C 
BRANCH   4   5
ATOM      5  C   UNL     1      55.893  -0.790  15.086  1.00  0.00     0.000 C 
BRANCH   5   6
ATOM      6  C   UNL     1      55.072  -0.973  16.375  1.00  0.00     0.000 C 
BRANCH   6   7
ATOM      7  C   UNL     1      54.295   0.292  16.777  1.00  0.00     0.000 C 
BRANCH   7   8
ATOM      8  C   UNL     1      54.797   1.607  16.146  1.00  0.00     0.000 C 
BRANCH   8   9
ATOM      9  C   UNL     1      55.126   2.718  17.167  1.00  0.00     0.000 C 
BRANCH   9  10
ATOM     10  C   UNL     1      56.625   3.072  17.190  1.00  0.00     0.000 C 
BRANCH  10  11
ATOM     11  C   UNL     1      57.538   1.837  17.076  1.00  0.00     0.000 C 
BRANCH  11  12
ATOM     12  C   UNL     1      58.119   1.332  18.408  1.00  0.00     0.006 C 
BRANCH  12  13
ATOM     13  C   UNL     1      57.265   0.235  19.061  1.00  0.00     0.053 C 
BRANCH  13  14
ATOM     14  C   UNL     1      57.940  -1.100  18.968  1.00  0.00     0.041 C 
ATOM     15  O   UNL     1      58.183  -1.759  20.014  1.00  0.00    -0.550 OA
ATOM     16  O   UNL     1      58.351  -1.595  17.734  1.00  0.00    -0.550 OA
ENDBRANCH  13  14
ENDBRANCH  12  13
ENDBRANCH  11  12
ENDBRANCH  10  11
ENDBRANCH   9  10
ENDBRANCH   8   9
ENDBRANCH   7   8
ENDBRANCH   6   7
ENDBRANCH   5   6
ENDBRANCH   4   5
ENDBRANCH   3   4
ENDBRANCH   2   3
ENDBRANCH   1   2
BRANCH   1  17
ATOM     17  C   UNL     1      52.274  -3.766  12.784  1.00  0.00     0.000 C 
BRANCH  17  18
ATOM     18  C   UNL     1      51.551  -2.841  11.791  1.00  0.00     0.000 C 
BRANCH  18  19
ATOM     19  C   UNL     1      52.108  -2.968  10.363  1.00  0.00     0.000 C 
BRANCH  19  20
ATOM     20  C   UNL     1      52.725  -1.654   9.859  1.00  0.00     0.000 C 
BRANCH  20  21
ATOM     21  C   UNL     1      51.889  -0.447  10.307  1.00  0.00     0.000 C 
BRANCH  21  22
ATOM     22  C   UNL     1      52.751   0.683  10.895  1.00  0.00    -0.000 C 
BRANCH  22  23
ATOM     23  C   UNL     1      53.134   0.429  12.365  1.00  0.00    -0.000 C 
BRANCH  23  24
ATOM     24  C   UNL     1      52.429   1.408  13.327  1.00  0.00    -0.000 C 
BRANCH  24  25
ATOM     25  C   UNL     1      52.500   2.876  12.871  1.00  0.00    -0.000 C 
BRANCH  25  26
ATOM     26  C   UNL     1      53.877   3.514  13.122  1.00  0.00    -0.000 C 
BRANCH  26  27
ATOM     27  C   UNL     1      54.640   3.786  11.807  1.00  0.00    -0.000 C 
BRANCH  27  28
ATOM     28  C   UNL     1      55.913   2.933  11.645  1.00  0.00    -0.000 C 
BRANCH  28  29
ATOM     29  C   UNL     1      56.412   2.274  12.941  1.00  0.00    -0.003 C 
ATOM     30  C   UNL     1      57.633   2.976  13.536  1.00  0.00     0.004 C 
ENDBRANCH  28  29
ENDBRANCH  27  28
ENDBRANCH  26  27
ENDBRANCH  25  26
ENDBRANCH  24  25
ENDBRANCH  23  24
ENDBRANCH  22  23
ENDBRANCH  21  22
ENDBRANCH  20  21
ENDBRANCH  19  20
ENDBRANCH  18  19
ENDBRANCH  17  18
ENDBRANCH   1  17
TORSDOF 26
ENDMDL
