MODEL 1
REMARK VINA RESULT:    -2.716      0.000      0.000
REMARK INTER + INTRA:          -2.796
REMARK INTER:                  -2.796
REMARK INTRA:                   0.000
REMARK UNBOUND:                 0.000
REMARK SMILES CC1(C)[C@@H]2CC[C@@]1(C)[C@H](O)C2
REMARK SMILES IDX 1 1 2 2 4 3 5 4 6 5 7 6 9 7 11 8 8 9 3 10 10 11
REMARK H PARENT 10 12
REMARK Flexibility Score: inf
ROOT
ATOM      1  C   UNL     1     129.262 110.713 118.470  1.00  0.00     0.012 C 
ATOM      2  C   UNL     1     128.419 112.025 118.542  1.00  0.00    -0.025 C 
ATOM      3  C   UNL     1     129.263 113.309 118.517  1.00  0.00    -0.002 C 
ATOM      4  C   UNL     1     130.096 113.213 119.819  1.00  0.00     0.005 C 
ATOM      5  C   UNL     1     129.113 112.548 120.805  1.00  0.00     0.010 C 
ATOM      6  C   UNL     1     127.837 112.361 119.937  1.00  0.00    -0.001 C 
ATOM      7  C   UNL     1     127.239 113.789 119.763  1.00  0.00     0.121 C 
ATOM      8  C   UNL     1     128.220 114.432 118.753  1.00  0.00     0.036 C 
ATOM      9  C   UNL     1     126.862 111.331 120.527  1.00  0.00     0.015 C 
ATOM     10  C   UNL     1     127.389 111.927 117.376  1.00  0.00     0.012 C 
ENDROOT
BRANCH   7  11
ATOM     11  O   UNL     1     125.927 113.751 119.262  1.00  0.00    -0.393 OA
ATOM     12  H   UNL     1     125.629 112.807 119.329  1.00  0.00     0.210 HD
ENDBRANCH   7  11
TORSDOF 1
ENDMDL
MODEL 2
REMARK VINA RESULT:    -2.694     14.263     15.701
REMARK INTER + INTRA:          -2.773
REMARK INTER:                  -2.773
REMARK INTRA:                   0.000
REMARK UNBOUND:                 0.000
REMARK SMILES CC1(C)[C@@H]2CC[C@@]1(C)[C@H](O)C2
REMARK SMILES IDX 1 1 2 2 4 3 5 4 6 5 7 6 9 7 11 8 8 9 3 10 10 11
REMARK H PARENT 10 12
REMARK Flexibility Score: inf
ROOT
ATOM      1  C   UNL     1     128.525 129.136 118.239  1.00  0.00     0.012 C 
ATOM      2  C   UNL     1     127.184 128.347 118.368  1.00  0.00    -0.025 C 
ATOM      3  C   UNL     1     125.933 129.237 118.326  1.00  0.00    -0.002 C 
ATOM      4  C   UNL     1     126.082 130.120 119.590  1.00  0.00     0.005 C 
ATOM      5  C   UNL     1     126.727 129.155 120.607  1.00  0.00     0.010 C 
ATOM      6  C   UNL     1     126.851 127.838 119.791  1.00  0.00    -0.001 C 
ATOM      7  C   UNL     1     125.398 127.287 119.665  1.00  0.00     0.121 C 
ATOM      8  C   UNL     1     124.776 128.248 118.624  1.00  0.00     0.036 C 
ATOM      9  C   UNL     1     127.854 126.849 120.406  1.00  0.00     0.015 C 
ATOM     10  C   UNL     1     127.224 127.266 117.245  1.00  0.00     0.012 C 
ENDROOT
BRANCH   7  11
ATOM     11  O   UNL     1     125.380 125.955 119.220  1.00  0.00    -0.393 OA
ATOM     12  H   UNL     1     124.804 125.937 118.411  1.00  0.00     0.210 HD
ENDBRANCH   7  11
TORSDOF 1
ENDMDL
MODEL 3
REMARK VINA RESULT:    -2.516      1.455      2.608
REMARK INTER + INTRA:          -2.589
REMARK INTER:                  -2.589
REMARK INTRA:                   0.000
REMARK UNBOUND:                 0.000
REMARK SMILES CC1(C)[C@@H]2CC[C@@]1(C)[C@H](O)C2
REMARK SMILES IDX 1 1 2 2 4 3 5 4 6 5 7 6 9 7 11 8 8 9 3 10 10 11
REMARK H PARENT 10 12
REMARK Flexibility Score: inf
ROOT
ATOM      1  C   UNL     1     129.675 114.204 120.891  1.00  0.00     0.012 C 
ATOM      2  C   UNL     1     128.940 113.190 119.957  1.00  0.00    -0.025 C 
ATOM      3  C   UNL     1     128.789 113.677 118.508  1.00  0.00    -0.002 C 
ATOM      4  C   UNL     1     127.886 114.928 118.646  1.00  0.00     0.005 C 
ATOM      5  C   UNL     1     126.931 114.536 119.793  1.00  0.00     0.010 C 
ATOM      6  C   UNL     1     127.408 113.101 120.154  1.00  0.00    -0.001 C 
ATOM      7  C   UNL     1     126.928 112.195 118.979  1.00  0.00     0.121 C 
ATOM      8  C   UNL     1     127.911 112.582 117.848  1.00  0.00     0.036 C 
ATOM      9  C   UNL     1     126.930 112.647 121.542  1.00  0.00     0.015 C 
ATOM     10  C   UNL     1     129.727 111.851 120.091  1.00  0.00     0.012 C 
ENDROOT
BRANCH   7  11
ATOM     11  O   UNL     1     127.015 110.831 119.301  1.00  0.00    -0.393 OA
ATOM     12  H   UNL     1     126.093 110.534 119.518  1.00  0.00     0.210 HD
ENDBRANCH   7  11
TORSDOF 1
ENDMDL
MODEL 4
REMARK VINA RESULT:    -2.511     14.481     15.860
REMARK INTER + INTRA:          -2.584
REMARK INTER:                  -2.584
REMARK INTRA:                   0.000
REMARK UNBOUND:                 0.000
REMARK SMILES CC1(C)[C@@H]2CC[C@@]1(C)[C@H](O)C2
REMARK SMILES IDX 1 1 2 2 4 3 5 4 6 5 7 6 9 7 11 8 8 9 3 10 10 11
REMARK H PARENT 10 12
REMARK Flexibility Score: inf
ROOT
ATOM      1  C   UNL     1     124.877 129.721 120.876  1.00  0.00     0.012 C 
ATOM      2  C   UNL     1     125.878 128.978 119.936  1.00  0.00    -0.025 C 
ATOM      3  C   UNL     1     125.387 128.842 118.487  1.00  0.00    -0.002 C 
ATOM      4  C   UNL     1     124.123 127.957 118.621  1.00  0.00     0.005 C 
ATOM      5  C   UNL     1     124.503 126.990 119.761  1.00  0.00     0.010 C 
ATOM      6  C   UNL     1     125.945 127.443 120.123  1.00  0.00    -0.001 C 
ATOM      7  C   UNL     1     126.842 126.957 118.945  1.00  0.00     0.121 C 
ATOM      8  C   UNL     1     126.469 127.953 117.820  1.00  0.00     0.036 C 
ATOM      9  C   UNL     1     126.394 126.950 121.507  1.00  0.00     0.015 C 
ATOM     10  C   UNL     1     127.230 129.744 120.073  1.00  0.00     0.012 C 
ENDROOT
BRANCH   7  11
ATOM     11  O   UNL     1     128.209 127.022 119.265  1.00  0.00    -0.393 OA
ATOM     12  H   UNL     1     128.537 127.893 118.920  1.00  0.00     0.210 HD
ENDBRANCH   7  11
TORSDOF 1
ENDMDL
MODEL 5
REMARK VINA RESULT:    -2.456      1.778      3.076
REMARK INTER + INTRA:          -2.528
REMARK INTER:                  -2.528
REMARK INTRA:                   0.000
REMARK UNBOUND:                 0.000
REMARK SMILES CC1(C)[C@@H]2CC[C@@]1(C)[C@H](O)C2
REMARK SMILES IDX 1 1 2 2 4 3 5 4 6 5 7 6 9 7 11 8 8 9 3 10 10 11
REMARK H PARENT 10 12
REMARK Flexibility Score: inf
ROOT
ATOM      1  C   UNL     1     126.264 112.725 120.374  1.00  0.00     0.012 C 
ATOM      2  C   UNL     1     127.762 112.403 120.073  1.00  0.00    -0.025 C 
ATOM      3  C   UNL     1     128.752 113.377 120.731  1.00  0.00    -0.002 C 
ATOM      4  C   UNL     1     128.418 114.731 120.058  1.00  0.00     0.005 C 
ATOM      5  C   UNL     1     128.058 114.317 118.616  1.00  0.00     0.010 C 
ATOM      6  C   UNL     1     128.245 112.774 118.650  1.00  0.00    -0.001 C 
ATOM      7  C   UNL     1     129.786 112.543 118.702  1.00  0.00     0.121 C 
ATOM      8  C   UNL     1     130.125 112.937 120.160  1.00  0.00     0.036 C 
ATOM      9  C   UNL     1     127.535 112.063 117.489  1.00  0.00     0.015 C 
ATOM     10  C   UNL     1     127.965 110.917 120.500  1.00  0.00     0.012 C 
ENDROOT
BRANCH   7  11
ATOM     11  O   UNL     1     130.124 111.206 118.432  1.00  0.00    -0.393 OA
ATOM     12  H   UNL     1     129.684 110.973 117.574  1.00  0.00     0.210 HD
ENDBRANCH   7  11
TORSDOF 1
ENDMDL
MODEL 6
REMARK VINA RESULT:    -2.434     14.418     15.935
REMARK INTER + INTRA:          -2.505
REMARK INTER:                  -2.505
REMARK INTRA:                   0.000
REMARK UNBOUND:                 0.000
REMARK SMILES CC1(C)[C@@H]2CC[C@@]1(C)[C@H](O)C2
REMARK SMILES IDX 1 1 2 2 4 3 5 4 6 5 7 6 9 7 11 8 8 9 3 10 10 11
REMARK H PARENT 10 12
REMARK Flexibility Score: inf
ROOT
ATOM      1  C   UNL     1     124.651 129.738 121.123  1.00  0.00     0.012 C 
ATOM      2  C   UNL     1     125.547 128.536 120.687  1.00  0.00    -0.025 C 
ATOM      3  C   UNL     1     126.987 128.933 120.326  1.00  0.00    -0.002 C 
ATOM      4  C   UNL     1     126.803 129.853 119.094  1.00  0.00     0.005 C 
ATOM      5  C   UNL     1     125.610 129.207 118.359  1.00  0.00     0.010 C 
ATOM      6  C   UNL     1     125.274 127.990 119.265  1.00  0.00    -0.001 C 
ATOM      7  C   UNL     1     126.423 126.964 119.028  1.00  0.00     0.121 C 
ATOM      8  C   UNL     1     127.602 127.613 119.792  1.00  0.00     0.036 C 
ATOM      9  C   UNL     1     123.864 127.434 119.015  1.00  0.00     0.015 C 
ATOM     10  C   UNL     1     125.453 127.500 121.849  1.00  0.00     0.012 C 
ENDROOT
BRANCH   7  11
ATOM     11  O   UNL     1     126.106 125.695 119.540  1.00  0.00    -0.393 OA
ATOM     12  H   UNL     1     126.909 125.128 119.402  1.00  0.00     0.210 HD
ENDBRANCH   7  11
TORSDOF 1
ENDMDL
MODEL 7
REMARK VINA RESULT:    -2.430     14.366     16.150
REMARK INTER + INTRA:          -2.501
REMARK INTER:                  -2.501
REMARK INTRA:                   0.000
REMARK UNBOUND:                 0.000
REMARK SMILES CC1(C)[C@@H]2CC[C@@]1(C)[C@H](O)C2
REMARK SMILES IDX 1 1 2 2 4 3 5 4 6 5 7 6 9 7 11 8 8 9 3 10 10 11
REMARK H PARENT 10 12
REMARK Flexibility Score: inf
ROOT
ATOM      1  C   UNL     1     126.260 126.257 120.233  1.00  0.00     0.012 C 
ATOM      2  C   UNL     1     126.731 127.724 119.982  1.00  0.00    -0.025 C 
ATOM      3  C   UNL     1     125.851 128.785 120.661  1.00  0.00    -0.002 C 
ATOM      4  C   UNL     1     124.479 128.606 119.966  1.00  0.00     0.005 C 
ATOM      5  C   UNL     1     124.872 128.251 118.518  1.00  0.00     0.010 C 
ATOM      6  C   UNL     1     126.426 128.284 118.571  1.00  0.00    -0.001 C 
ATOM      7  C   UNL     1     126.806 129.792 118.673  1.00  0.00     0.121 C 
ATOM      8  C   UNL     1     126.430 130.125 120.137  1.00  0.00     0.036 C 
ATOM      9  C   UNL     1     127.078 127.542 117.395  1.00  0.00     0.015 C 
ATOM     10  C   UNL     1     128.225 127.767 120.427  1.00  0.00     0.012 C 
ENDROOT
BRANCH   7  11
ATOM     11  O   UNL     1     128.172 130.006 118.425  1.00  0.00    -0.393 OA
ATOM     12  H   UNL     1     128.270 130.088 117.441  1.00  0.00     0.210 HD
ENDBRANCH   7  11
TORSDOF 1
ENDMDL
MODEL 8
REMARK VINA RESULT:    -2.424      1.236      2.960
REMARK INTER + INTRA:          -2.495
REMARK INTER:                  -2.495
REMARK INTRA:                   0.000
REMARK UNBOUND:                 0.000
REMARK SMILES CC1(C)[C@@H]2CC[C@@]1(C)[C@H](O)C2
REMARK SMILES IDX 1 1 2 2 4 3 5 4 6 5 7 6 9 7 11 8 8 9 3 10 10 11
REMARK H PARENT 10 12
REMARK Flexibility Score: inf
ROOT
ATOM      1  C   UNL     1     129.697 114.383 121.150  1.00  0.00     0.012 C 
ATOM      2  C   UNL     1     128.505 113.485 120.691  1.00  0.00    -0.025 C 
ATOM      3  C   UNL     1     128.918 112.061 120.289  1.00  0.00    -0.002 C 
ATOM      4  C   UNL     1     129.833 112.290 119.060  1.00  0.00     0.005 C 
ATOM      5  C   UNL     1     129.172 113.495 118.361  1.00  0.00     0.010 C 
ATOM      6  C   UNL     1     127.952 113.792 119.278  1.00  0.00    -0.001 C 
ATOM      7  C   UNL     1     126.939 112.637 119.011  1.00  0.00     0.121 C 
ATOM      8  C   UNL     1     127.605 111.445 119.740  1.00  0.00     0.036 C 
ATOM      9  C   UNL     1     127.378 115.201 119.069  1.00  0.00     0.015 C 
ATOM     10  C   UNL     1     127.471 113.534 121.857  1.00  0.00     0.012 C 
ENDROOT
BRANCH   7  11
ATOM     11  O   UNL     1     125.668 112.924 119.534  1.00  0.00    -0.393 OA
ATOM     12  H   UNL     1     125.768 112.942 120.521  1.00  0.00     0.210 HD
ENDBRANCH   7  11
TORSDOF 1
ENDMDL
MODEL 9
REMARK VINA RESULT:    -2.365     14.095     15.915
REMARK INTER + INTRA:          -2.434
REMARK INTER:                  -2.434
REMARK INTRA:                   0.000
REMARK UNBOUND:                 0.000
REMARK SMILES CC1(C)[C@@H]2CC[C@@]1(C)[C@H](O)C2
REMARK SMILES IDX 1 1 2 2 4 3 5 4 6 5 7 6 9 7 11 8 8 9 3 10 10 11
REMARK H PARENT 10 12
REMARK Flexibility Score: inf
ROOT
ATOM      1  C   UNL     1     124.104 127.941 118.794  1.00  0.00     0.012 C 
ATOM      2  C   UNL     1     125.451 127.751 119.561  1.00  0.00    -0.025 C 
ATOM      3  C   UNL     1     125.643 128.728 120.731  1.00  0.00    -0.002 C 
ATOM      4  C   UNL     1     125.689 130.111 120.036  1.00  0.00     0.005 C 
ATOM      5  C   UNL     1     126.420 129.804 118.713  1.00  0.00     0.010 C 
ATOM      6  C   UNL     1     126.708 128.281 118.830  1.00  0.00    -0.001 C 
ATOM      7  C   UNL     1     127.843 128.153 119.890  1.00  0.00     0.121 C 
ATOM      8  C   UNL     1     127.088 128.437 121.211  1.00  0.00     0.036 C 
ATOM      9  C   UNL     1     127.027 127.630 117.476  1.00  0.00     0.015 C 
ATOM     10  C   UNL     1     125.485 126.250 119.982  1.00  0.00     0.012 C 
ENDROOT
BRANCH   7  11
ATOM     11  O   UNL     1     128.422 126.873 119.886  1.00  0.00    -0.393 OA
ATOM     12  H   UNL     1     129.293 126.960 119.419  1.00  0.00     0.210 HD
ENDBRANCH   7  11
TORSDOF 1
ENDMDL
