MODEL 1
REMARK VINA RESULT:    14.245      0.000      0.000
REMARK INTER + INTRA:          24.335
REMARK INTER:                  22.156
REMARK INTRA:                   2.179
REMARK UNBOUND:                 2.179
REMARK SMILES C[C@]12C[C@@H](O)[C@@H]3C[C@@]1(O[C@H]1O[C@H](CO)[C@H](O)[C@@H](O)[C@@H]1O)[C@]3(COC(=O)c1ccccc1)C(=O)O2
REMARK SMILES IDX 1 1 2 2 3 3 4 4 6 5 7 6 8 7 21 8 32 9 33 10 34 11 9 12 10 13
REMARK SMILES IDX 19 14 11 15 17 16 12 17 15 18 20 19 18 21 13 23 14 24 16 26
REMARK SMILES IDX 5 28 22 30 23 31 24 32 25 33 26 34 27 35 31 36 28 37 30 38
REMARK SMILES IDX 29 39
REMARK H PARENT 20 20 18 22 14 25 16 27 5 29
REMARK Flexibility Score: inf
ROOT
ATOM      1  C   UNL     1      10.155 -17.056 -24.878  1.00  0.00     0.060 C 
ATOM      2  C   UNL     1       9.301 -18.084 -24.126  1.00  0.00     0.142 C 
ATOM      3  C   UNL     1       8.449 -18.945 -25.132  1.00  0.00     0.083 C 
ATOM      4  C   UNL     1       7.299 -19.733 -24.395  1.00  0.00     0.123 C 
ATOM      5  C   UNL     1       6.904 -19.017 -23.063  1.00  0.00     0.045 C 
ATOM      6  C   UNL     1       6.877 -17.518 -23.380  1.00  0.00     0.049 C 
ATOM      7  C   UNL     1       8.359 -17.493 -22.984  1.00  0.00     0.131 C 
ATOM      8  C   UNL     1       8.135 -18.760 -22.135  1.00  0.00     0.140 C 
ATOM      9  C   UNL     1       9.392 -19.535 -22.372  1.00  0.00     0.319 C 
ATOM     10  O   UNL     1       9.766 -20.533 -21.701  1.00  0.00    -0.251 OA
ATOM     11  O   UNL     1      10.110 -19.023 -23.434  1.00  0.00    -0.456 OA
ENDROOT
BRANCH   7  12
ATOM     12  O   UNL     1       8.698 -16.261 -22.350  1.00  0.00    -0.338 OA
BRANCH  12  13
ATOM     13  C   UNL     1       7.692 -15.255 -22.380  1.00  0.00     0.282 C 
ATOM     14  C   UNL     1       8.344 -13.867 -22.586  1.00  0.00     0.202 C 
ATOM     15  O   UNL     1       6.922 -15.265 -21.187  1.00  0.00    -0.341 OA
ATOM     16  C   UNL     1       9.155 -13.435 -21.343  1.00  0.00     0.179 C 
ATOM     17  C   UNL     1       7.721 -15.040 -20.036  1.00  0.00     0.178 C 
ATOM     18  C   UNL     1       8.327 -13.617 -20.061  1.00  0.00     0.177 C 
BRANCH  14  19
ATOM     19  O   UNL     1       7.337 -12.925 -22.858  1.00  0.00    -0.385 OA
ATOM     20  H   UNL     1       7.589 -12.088 -22.385  1.00  0.00     0.211 HD
ENDBRANCH  14  19
BRANCH  16  21
ATOM     21  O   UNL     1      10.336 -14.193 -21.246  1.00  0.00    -0.387 OA
ATOM     22  H   UNL     1      10.966 -13.832 -21.922  1.00  0.00     0.211 HD
ENDBRANCH  16  21
BRANCH  17  23
ATOM     23  C   UNL     1       6.876 -15.287 -18.780  1.00  0.00     0.191 C 
BRANCH  23  24
ATOM     24  O   UNL     1       7.405 -16.342 -18.025  1.00  0.00    -0.394 OA
ATOM     25  H   UNL     1       8.027 -15.929 -17.372  1.00  0.00     0.210 HD
ENDBRANCH  23  24
ENDBRANCH  17  23
BRANCH  18  26
ATOM     26  O   UNL     1       7.313 -12.643 -20.025  1.00  0.00    -0.387 OA
ATOM     27  H   UNL     1       7.387 -12.174 -19.154  1.00  0.00     0.211 HD
ENDBRANCH  18  26
ENDBRANCH  12  13
ENDBRANCH   7  12
BRANCH   4  28
ATOM     28  O   UNL     1       7.688 -21.054 -24.122  1.00  0.00    -0.393 OA
ATOM     29  H   UNL     1       6.915 -21.632 -24.353  1.00  0.00     0.210 HD
ENDBRANCH   4  28
BRANCH   8  30
ATOM     30  C   UNL     1       7.766 -18.574 -20.651  1.00  0.00     0.255 C 
BRANCH  30  31
ATOM     31  O   UNL     1       6.988 -19.685 -20.216  1.00  0.00    -0.461 OA
BRANCH  31  32
ATOM     32  C   UNL     1       7.469 -20.998 -20.226  1.00  0.00     0.338 C 
ATOM     33  O   UNL     1       7.571 -21.625 -21.316  1.00  0.00    -0.246 OA
BRANCH  32  34
ATOM     34  C   UNL     1       7.855 -21.647 -18.953  1.00  0.00     0.060 A 
ATOM     35  C   UNL     1       6.879 -21.943 -17.984  1.00  0.00     0.015 A 
ATOM     36  C   UNL     1       9.199 -21.975 -18.693  1.00  0.00     0.015 A 
ATOM     37  C   UNL     1       7.242 -22.556 -16.781  1.00  0.00     0.001 A 
ATOM     38  C   UNL     1       9.556 -22.588 -17.487  1.00  0.00     0.001 A 
ATOM     39  C   UNL     1       8.578 -22.878 -16.532  1.00  0.00     0.000 A 
ENDBRANCH  32  34
ENDBRANCH  31  32
ENDBRANCH  30  31
ENDBRANCH   8  30
TORSDOF 12
ENDMDL
MODEL 2
REMARK VINA RESULT:    15.669      0.910      2.047
REMARK INTER + INTRA:          26.550
REMARK INTER:                  21.029
REMARK INTRA:                   5.521
REMARK UNBOUND:                 2.179
REMARK SMILES C[C@]12C[C@@H](O)[C@@H]3C[C@@]1(O[C@H]1O[C@H](CO)[C@H](O)[C@@H](O)[C@@H]1O)[C@]3(COC(=O)c1ccccc1)C(=O)O2
REMARK SMILES IDX 1 1 2 2 3 3 4 4 6 5 7 6 8 7 21 8 32 9 33 10 34 11 9 12 10 13
REMARK SMILES IDX 19 14 11 15 17 16 12 17 15 18 20 19 18 21 13 23 14 24 16 26
REMARK SMILES IDX 5 28 22 30 23 31 24 32 25 33 26 34 27 35 31 36 28 37 30 38
REMARK SMILES IDX 29 39
REMARK H PARENT 20 20 18 22 14 25 16 27 5 29
REMARK Flexibility Score: inf
ROOT
ATOM      1  C   UNL     1      10.095 -17.087 -25.226  1.00  0.00     0.060 C 
ATOM      2  C   UNL     1       9.245 -17.999 -24.334  1.00  0.00     0.142 C 
ATOM      3  C   UNL     1       8.315 -18.924 -25.204  1.00  0.00     0.083 C 
ATOM      4  C   UNL     1       7.178 -19.588 -24.336  1.00  0.00     0.123 C 
ATOM      5  C   UNL     1       6.875 -18.725 -23.069  1.00  0.00     0.045 C 
ATOM      6  C   UNL     1       6.883 -17.266 -23.538  1.00  0.00     0.049 C 
ATOM      7  C   UNL     1       8.383 -17.258 -23.216  1.00  0.00     0.131 C 
ATOM      8  C   UNL     1       8.159 -18.423 -22.231  1.00  0.00     0.140 C 
ATOM      9  C   UNL     1       9.375 -19.267 -22.444  1.00  0.00     0.319 C 
ATOM     10  O   UNL     1       9.748 -20.206 -21.692  1.00  0.00    -0.251 OA
ATOM     11  O   UNL     1      10.056 -18.894 -23.586  1.00  0.00    -0.456 OA
ENDROOT
BRANCH   7  12
ATOM     12  O   UNL     1       8.796 -15.982 -22.729  1.00  0.00    -0.338 OA
BRANCH  12  13
ATOM     13  C   UNL     1       8.625 -15.771 -21.332  1.00  0.00     0.282 C 
ATOM     14  C   UNL     1       7.202 -15.233 -21.053  1.00  0.00     0.202 C 
ATOM     15  O   UNL     1       9.600 -14.871 -20.828  1.00  0.00    -0.341 OA
ATOM     16  C   UNL     1       7.028 -13.794 -21.591  1.00  0.00     0.179 C 
ATOM     17  C   UNL     1       9.535 -13.605 -21.465  1.00  0.00     0.178 C 
ATOM     18  C   UNL     1       8.196 -12.900 -21.147  1.00  0.00     0.177 C 
BRANCH  14  19
ATOM     19  O   UNL     1       6.966 -15.262 -19.667  1.00  0.00    -0.385 OA
ATOM     20  H   UNL     1       6.917 -16.219 -19.403  1.00  0.00     0.211 HD
ENDBRANCH  14  19
BRANCH  16  21
ATOM     21  O   UNL     1       6.960 -13.806 -22.996  1.00  0.00    -0.387 OA
ATOM     22  H   UNL     1       7.654 -13.178 -23.324  1.00  0.00     0.211 HD
ENDBRANCH  16  21
BRANCH  17  23
ATOM     23  C   UNL     1      10.747 -12.764 -21.041  1.00  0.00     0.191 C 
BRANCH  23  24
ATOM     24  O   UNL     1      11.244 -12.028 -22.125  1.00  0.00    -0.394 OA
ATOM     25  H   UNL     1      10.451 -11.714 -22.631  1.00  0.00     0.210 HD
ENDBRANCH  23  24
ENDBRANCH  17  23
BRANCH  18  26
ATOM     26  O   UNL     1       8.083 -12.646 -19.768  1.00  0.00    -0.387 OA
ATOM     27  H   UNL     1       8.916 -12.976 -19.339  1.00  0.00     0.211 HD
ENDBRANCH  18  26
ENDBRANCH  12  13
ENDBRANCH   7  12
BRANCH   4  28
ATOM     28  O   UNL     1       7.534 -20.888 -23.947  1.00  0.00    -0.393 OA
ATOM     29  H   UNL     1       7.720 -20.853 -22.972  1.00  0.00     0.210 HD
ENDBRANCH   4  28
BRANCH   8  30
ATOM     30  C   UNL     1       7.872 -18.073 -20.758  1.00  0.00     0.255 C 
BRANCH  30  31
ATOM     31  O   UNL     1       7.063 -19.092 -20.181  1.00  0.00    -0.461 OA
BRANCH  31  32
ATOM     32  C   UNL     1       7.331 -20.455 -20.339  1.00  0.00     0.338 C 
ATOM     33  O   UNL     1       7.217 -20.994 -21.475  1.00  0.00    -0.246 OA
BRANCH  32  34
ATOM     34  C   UNL     1       7.747 -21.261 -19.171  1.00  0.00     0.060 A 
ATOM     35  C   UNL     1       6.877 -22.225 -18.628  1.00  0.00     0.015 A 
ATOM     36  C   UNL     1       9.014 -21.076 -18.584  1.00  0.00     0.015 A 
ATOM     37  C   UNL     1       7.268 -22.987 -17.523  1.00  0.00     0.001 A 
ATOM     38  C   UNL     1       9.399 -21.842 -17.479  1.00  0.00     0.001 A 
ATOM     39  C   UNL     1       8.528 -22.796 -16.949  1.00  0.00     0.000 A 
ENDBRANCH  32  34
ENDBRANCH  31  32
ENDBRANCH  30  31
ENDBRANCH   8  30
TORSDOF 12
ENDMDL
