MODEL 1
REMARK VINA RESULT:    -6.882      0.000      0.000
REMARK INTER + INTRA:         -10.972
REMARK INTER:                  -9.296
REMARK INTRA:                  -1.676
REMARK UNBOUND:                -1.676
REMARK SMILES CC[C@@H](CC[C@@H](C)[C@@H]1CC[C@@H]2[C@@H]3CC(=O)C4=CC(=O)CC[C@@]4(C)[C@@H]3CC[C@@]21C)C(C)C
REMARK SMILES IDX 4 1 3 2 2 3 1 4 29 5 30 6 31 7 5 8 6 9 7 10 8 11 9 12 27 13
REMARK SMILES IDX 10 14 11 15 26 16 28 17 12 18 25 19 24 20 13 21 22 22 14 23
REMARK SMILES IDX 16 24 21 25 23 26 15 27 17 28 20 29 18 30 19 31
REMARK H PARENT
REMARK Flexibility Score: inf
ROOT
ATOM      1  C   UNL     1     132.235 135.339 124.119  1.00  0.00     0.004 C 
ENDROOT
BRANCH   1   2
ATOM      2  C   UNL     1     131.312 135.516 125.371  1.00  0.00    -0.009 C 
BRANCH   2   3
ATOM      3  C   UNL     1     130.229 136.606 125.118  1.00  0.00     0.000 C 
ATOM      4  C   UNL     1     129.415 136.950 126.372  1.00  0.00     0.004 C 
ENDBRANCH   2   3
BRANCH   2   5
ATOM      5  C   UNL     1     132.107 135.785 126.707  1.00  0.00    -0.014 C 
ATOM      6  C   UNL     1     133.507 136.383 126.460  1.00  0.00     0.007 C 
ATOM      7  C   UNL     1     132.272 134.505 127.552  1.00  0.00     0.007 C 
ENDBRANCH   2   5
ENDBRANCH   1   2
BRANCH   1   8
ATOM      8  C   UNL     1     131.844 136.206 122.893  1.00  0.00     0.004 C 
BRANCH   8   9
ATOM      9  C   UNL     1     132.912 137.272 122.509  1.00  0.00    -0.011 C 
ATOM     10  C   UNL     1     132.768 138.503 123.444  1.00  0.00     0.008 C 
BRANCH   9  11
ATOM     11  C   UNL     1     134.353 136.652 122.472  1.00  0.00    -0.002 C 
ATOM     12  C   UNL     1     135.395 137.369 123.345  1.00  0.00     0.005 C 
ATOM     13  C   UNL     1     135.007 136.373 121.070  1.00  0.00    -0.026 C 
ATOM     14  C   UNL     1     136.713 137.342 122.592  1.00  0.00     0.005 C 
ATOM     15  C   UNL     1     136.532 136.417 121.378  1.00  0.00    -0.001 C 
ATOM     16  C   UNL     1     134.612 137.377 119.929  1.00  0.00     0.007 C 
ATOM     17  C   UNL     1     134.609 134.948 120.597  1.00  0.00     0.012 C 
ATOM     18  C   UNL     1     137.433 136.766 120.150  1.00  0.00     0.004 C 
ATOM     19  C   UNL     1     135.586 138.547 119.756  1.00  0.00     0.005 C 
ATOM     20  C   UNL     1     136.980 138.032 119.323  1.00  0.00     0.003 C 
ATOM     21  C   UNL     1     138.932 136.722 120.515  1.00  0.00     0.085 C 
ATOM     22  C   UNL     1     138.060 139.172 119.111  1.00  0.00    -0.000 C 
ATOM     23  C   UNL     1     139.796 137.276 119.426  1.00  0.00     0.159 C 
ATOM     24  C   UNL     1     139.388 138.516 118.722  1.00  0.00     0.005 C 
ATOM     25  C   UNL     1     137.568 140.116 117.959  1.00  0.00     0.020 C 
ATOM     26  C   UNL     1     138.288 140.024 120.385  1.00  0.00     0.017 C 
ATOM     27  O   UNL     1     140.902 136.731 119.188  1.00  0.00    -0.295 OA
ATOM     28  C   UNL     1     140.225 139.083 117.831  1.00  0.00     0.055 C 
ATOM     29  C   UNL     1     138.645 141.085 117.461  1.00  0.00     0.081 C 
ATOM     30  C   UNL     1     139.910 140.350 117.156  1.00  0.00     0.156 C 
ATOM     31  O   UNL     1     140.741 140.847 116.350  1.00  0.00    -0.295 OA
ENDBRANCH   9  11
ENDBRANCH   8   9
ENDBRANCH   1   8
TORSDOF 6
ENDMDL
MODEL 2
REMARK VINA RESULT:    -6.851      5.308      8.368
REMARK INTER + INTRA:         -10.931
REMARK INTER:                  -8.618
REMARK INTRA:                  -2.312
REMARK UNBOUND:                -1.676
REMARK SMILES CC[C@@H](CC[C@@H](C)[C@@H]1CC[C@@H]2[C@@H]3CC(=O)C4=CC(=O)CC[C@@]4(C)[C@@H]3CC[C@@]21C)C(C)C
REMARK SMILES IDX 4 1 3 2 2 3 1 4 29 5 30 6 31 7 5 8 6 9 7 10 8 11 9 12 27 13
REMARK SMILES IDX 10 14 11 15 26 16 28 17 12 18 25 19 24 20 13 21 22 22 14 23
REMARK SMILES IDX 16 24 21 25 23 26 15 27 17 28 20 29 18 30 19 31
REMARK H PARENT
REMARK Flexibility Score: inf
ROOT
ATOM      1  C   UNL     1     144.117 135.617 124.929  1.00  0.00     0.004 C 
ENDROOT
BRANCH   1   2
ATOM      2  C   UNL     1     144.553 134.123 124.769  1.00  0.00    -0.009 C 
BRANCH   2   3
ATOM      3  C   UNL     1     145.761 133.994 123.794  1.00  0.00     0.000 C 
ATOM      4  C   UNL     1     145.392 133.331 122.461  1.00  0.00     0.004 C 
ENDBRANCH   2   3
BRANCH   2   5
ATOM      5  C   UNL     1     143.372 133.160 124.361  1.00  0.00    -0.014 C 
ATOM      6  C   UNL     1     141.995 133.855 124.399  1.00  0.00     0.007 C 
ATOM      7  C   UNL     1     143.304 131.910 125.262  1.00  0.00     0.007 C 
ENDBRANCH   2   5
ENDBRANCH   1   2
BRANCH   1   8
ATOM      8  C   UNL     1     145.024 136.644 124.202  1.00  0.00     0.004 C 
BRANCH   8   9
ATOM      9  C   UNL     1     144.393 137.240 122.910  1.00  0.00    -0.011 C 
ATOM     10  C   UNL     1     145.408 137.124 121.741  1.00  0.00     0.008 C 
BRANCH   9  11
ATOM     11  C   UNL     1     142.989 136.604 122.612  1.00  0.00    -0.002 C 
ATOM     12  C   UNL     1     142.914 135.752 121.335  1.00  0.00     0.005 C 
ATOM     13  C   UNL     1     141.728 137.542 122.642  1.00  0.00    -0.026 C 
ATOM     14  C   UNL     1     141.554 135.995 120.708  1.00  0.00     0.005 C 
ATOM     15  C   UNL     1     140.720 136.804 121.713  1.00  0.00    -0.001 C 
ATOM     16  C   UNL     1     141.975 139.021 122.180  1.00  0.00     0.007 C 
ATOM     17  C   UNL     1     141.165 137.593 124.089  1.00  0.00     0.012 C 
ATOM     18  C   UNL     1     139.636 137.727 121.069  1.00  0.00     0.004 C 
ATOM     19  C   UNL     1     141.688 139.273 120.695  1.00  0.00     0.005 C 
ATOM     20  C   UNL     1     140.189 139.038 120.386  1.00  0.00     0.003 C 
ATOM     21  C   UNL     1     138.633 136.918 120.220  1.00  0.00     0.085 C 
ATOM     22  C   UNL     1     139.790 139.281 118.872  1.00  0.00    -0.000 C 
ATOM     23  C   UNL     1     137.734 137.800 119.411  1.00  0.00     0.159 C 
ATOM     24  C   UNL     1     138.297 138.979 118.710  1.00  0.00     0.005 C 
ATOM     25  C   UNL     1     140.079 140.780 118.513  1.00  0.00     0.020 C 
ATOM     26  C   UNL     1     140.582 138.377 117.893  1.00  0.00     0.017 C 
ATOM     27  O   UNL     1     136.530 137.474 119.265  1.00  0.00    -0.295 OA
ATOM     28  C   UNL     1     137.513 139.700 117.883  1.00  0.00     0.055 C 
ATOM     29  C   UNL     1     139.474 141.216 117.176  1.00  0.00     0.081 C 
ATOM     30  C   UNL     1     138.031 140.833 117.104  1.00  0.00     0.156 C 
ATOM     31  O   UNL     1     137.259 141.456 116.328  1.00  0.00    -0.295 OA
ENDBRANCH   9  11
ENDBRANCH   8   9
ENDBRANCH   1   8
TORSDOF 6
ENDMDL
MODEL 3
REMARK VINA RESULT:    -6.688      5.206      7.956
REMARK INTER + INTRA:         -10.710
REMARK INTER:                  -8.591
REMARK INTRA:                  -2.119
REMARK UNBOUND:                -1.676
REMARK SMILES CC[C@@H](CC[C@@H](C)[C@@H]1CC[C@@H]2[C@@H]3CC(=O)C4=CC(=O)CC[C@@]4(C)[C@@H]3CC[C@@]21C)C(C)C
REMARK SMILES IDX 4 1 3 2 2 3 1 4 29 5 30 6 31 7 5 8 6 9 7 10 8 11 9 12 27 13
REMARK SMILES IDX 10 14 11 15 26 16 28 17 12 18 25 19 24 20 13 21 22 22 14 23
REMARK SMILES IDX 16 24 21 25 23 26 15 27 17 28 20 29 18 30 19 31
REMARK H PARENT
REMARK Flexibility Score: inf
ROOT
ATOM      1  C   UNL     1     142.836 134.508 124.834  1.00  0.00     0.004 C 
ENDROOT
BRANCH   1   2
ATOM      2  C   UNL     1     144.361 134.260 124.584  1.00  0.00    -0.009 C 
BRANCH   2   3
ATOM      3  C   UNL     1     145.076 135.572 124.143  1.00  0.00     0.000 C 
ATOM      4  C   UNL     1     144.465 136.832 124.769  1.00  0.00     0.004 C 
ENDBRANCH   2   3
BRANCH   2   5
ATOM      5  C   UNL     1     144.652 133.075 123.584  1.00  0.00    -0.014 C 
ATOM      6  C   UNL     1     145.460 131.931 124.232  1.00  0.00     0.007 C 
ATOM      7  C   UNL     1     145.411 133.548 122.328  1.00  0.00     0.007 C 
ENDBRANCH   2   5
ENDBRANCH   1   2
BRANCH   1   8
ATOM      8  C   UNL     1     141.884 133.687 123.926  1.00  0.00     0.004 C 
BRANCH   8   9
ATOM      9  C   UNL     1     140.939 134.562 123.050  1.00  0.00    -0.011 C 
ATOM     10  C   UNL     1     139.491 134.464 123.601  1.00  0.00     0.008 C 
BRANCH   9  11
ATOM     11  C   UNL     1     141.481 136.028 122.911  1.00  0.00    -0.002 C 
ATOM     12  C   UNL     1     140.680 137.095 123.673  1.00  0.00     0.005 C 
ATOM     13  C   UNL     1     141.769 136.579 121.467  1.00  0.00    -0.026 C 
ATOM     14  C   UNL     1     140.660 138.346 122.813  1.00  0.00     0.005 C 
ATOM     15  C   UNL     1     141.633 138.119 121.646  1.00  0.00    -0.001 C 
ATOM     16  C   UNL     1     140.827 136.036 120.336  1.00  0.00     0.007 C 
ATOM     17  C   UNL     1     143.229 136.225 121.069  1.00  0.00     0.012 C 
ATOM     18  C   UNL     1     141.276 138.896 120.337  1.00  0.00     0.004 C 
ATOM     19  C   UNL     1     139.611 136.924 120.049  1.00  0.00     0.005 C 
ATOM     20  C   UNL     1     140.064 138.306 119.516  1.00  0.00     0.003 C 
ATOM     21  C   UNL     1     141.227 140.420 120.577  1.00  0.00     0.085 C 
ATOM     22  C   UNL     1     138.875 139.298 119.182  1.00  0.00    -0.000 C 
ATOM     23  C   UNL     1     140.662 141.159 119.405  1.00  0.00     0.159 C 
ATOM     24  C   UNL     1     139.470 140.625 118.703  1.00  0.00     0.005 C 
ATOM     25  C   UNL     1     137.996 138.661 118.050  1.00  0.00     0.020 C 
ATOM     26  C   UNL     1     137.970 139.580 120.408  1.00  0.00     0.017 C 
ATOM     27  O   UNL     1     141.154 142.271 119.090  1.00  0.00    -0.295 OA
ATOM     28  C   UNL     1     138.888 141.353 117.729  1.00  0.00     0.055 C 
ATOM     29  C   UNL     1     136.988 139.636 117.436  1.00  0.00     0.081 C 
ATOM     30  C   UNL     1     137.663 140.912 117.047  1.00  0.00     0.156 C 
ATOM     31  O   UNL     1     137.148 141.645 116.161  1.00  0.00    -0.295 OA
ENDBRANCH   9  11
ENDBRANCH   8   9
ENDBRANCH   1   8
TORSDOF 6
ENDMDL
MODEL 4
REMARK VINA RESULT:    -6.655      2.335      4.420
REMARK INTER + INTRA:         -10.665
REMARK INTER:                  -9.355
REMARK INTRA:                  -1.310
REMARK UNBOUND:                -1.676
REMARK SMILES CC[C@@H](CC[C@@H](C)[C@@H]1CC[C@@H]2[C@@H]3CC(=O)C4=CC(=O)CC[C@@]4(C)[C@@H]3CC[C@@]21C)C(C)C
REMARK SMILES IDX 4 1 3 2 2 3 1 4 29 5 30 6 31 7 5 8 6 9 7 10 8 11 9 12 27 13
REMARK SMILES IDX 10 14 11 15 26 16 28 17 12 18 25 19 24 20 13 21 22 22 14 23
REMARK SMILES IDX 16 24 21 25 23 26 15 27 17 28 20 29 18 30 19 31
REMARK H PARENT
REMARK Flexibility Score: inf
ROOT
ATOM      1  C   UNL     1     131.984 137.272 124.240  1.00  0.00     0.004 C 
ENDROOT
BRANCH   1   2
ATOM      2  C   UNL     1     131.404 136.148 125.161  1.00  0.00    -0.009 C 
BRANCH   2   3
ATOM      3  C   UNL     1     130.208 136.679 126.006  1.00  0.00     0.000 C 
ATOM      4  C   UNL     1     128.915 136.828 125.194  1.00  0.00     0.004 C 
ENDBRANCH   2   3
BRANCH   2   5
ATOM      5  C   UNL     1     132.491 135.450 126.066  1.00  0.00    -0.014 C 
ATOM      6  C   UNL     1     131.891 134.812 127.336  1.00  0.00     0.007 C 
ATOM      7  C   UNL     1     133.602 136.429 126.499  1.00  0.00     0.007 C 
ENDBRANCH   2   5
ENDBRANCH   1   2
BRANCH   1   8
ATOM      8  C   UNL     1     132.203 136.857 122.761  1.00  0.00     0.004 C 
BRANCH   8   9
ATOM      9  C   UNL     1     133.281 135.751 122.570  1.00  0.00    -0.011 C 
ATOM     10  C   UNL     1     132.580 134.379 122.379  1.00  0.00     0.008 C 
BRANCH   9  11
ATOM     11  C   UNL     1     134.292 136.125 121.430  1.00  0.00    -0.002 C 
ATOM     12  C   UNL     1     134.743 134.952 120.546  1.00  0.00     0.005 C 
ATOM     13  C   UNL     1     135.567 136.961 121.813  1.00  0.00    -0.026 C 
ATOM     14  C   UNL     1     136.207 135.174 120.213  1.00  0.00     0.005 C 
ATOM     15  C   UNL     1     136.582 136.584 120.695  1.00  0.00    -0.001 C 
ATOM     16  C   UNL     1     136.147 136.690 123.246  1.00  0.00     0.007 C 
ATOM     17  C   UNL     1     135.229 138.475 121.724  1.00  0.00     0.012 C 
ATOM     18  C   UNL     1     138.083 136.760 121.095  1.00  0.00     0.004 C 
ATOM     19  C   UNL     1     137.259 135.636 123.286  1.00  0.00     0.005 C 
ATOM     20  C   UNL     1     138.490 136.117 122.478  1.00  0.00     0.003 C 
ATOM     21  C   UNL     1     139.026 136.435 119.917  1.00  0.00     0.085 C 
ATOM     22  C   UNL     1     139.701 135.096 122.464  1.00  0.00    -0.000 C 
ATOM     23  C   UNL     1     140.460 136.371 120.341  1.00  0.00     0.159 C 
ATOM     24  C   UNL     1     140.823 135.686 121.605  1.00  0.00     0.005 C 
ATOM     25  C   UNL     1     140.199 134.893 123.937  1.00  0.00     0.020 C 
ATOM     26  C   UNL     1     139.311 133.714 121.880  1.00  0.00     0.017 C 
ATOM     27  O   UNL     1     141.345 136.820 119.571  1.00  0.00    -0.295 OA
ATOM     28  C   UNL     1     142.122 135.519 121.923  1.00  0.00     0.055 C 
ATOM     29  C   UNL     1     141.539 134.159 124.034  1.00  0.00     0.081 C 
ATOM     30  C   UNL     1     142.547 134.785 123.124  1.00  0.00     0.156 C 
ATOM     31  O   UNL     1     143.776 134.639 123.359  1.00  0.00    -0.295 OA
ENDBRANCH   9  11
ENDBRANCH   8   9
ENDBRANCH   1   8
TORSDOF 6
ENDMDL
MODEL 5
REMARK VINA RESULT:    -6.589      5.474      7.669
REMARK INTER + INTRA:         -10.577
REMARK INTER:                  -8.324
REMARK INTRA:                  -2.253
REMARK UNBOUND:                -1.676
REMARK SMILES CC[C@@H](CC[C@@H](C)[C@@H]1CC[C@@H]2[C@@H]3CC(=O)C4=CC(=O)CC[C@@]4(C)[C@@H]3CC[C@@]21C)C(C)C
REMARK SMILES IDX 4 1 3 2 2 3 1 4 29 5 30 6 31 7 5 8 6 9 7 10 8 11 9 12 27 13
REMARK SMILES IDX 10 14 11 15 26 16 28 17 12 18 25 19 24 20 13 21 22 22 14 23
REMARK SMILES IDX 16 24 21 25 23 26 15 27 17 28 20 29 18 30 19 31
REMARK H PARENT
REMARK Flexibility Score: inf
ROOT
ATOM      1  C   UNL     1     142.382 134.458 125.600  1.00  0.00     0.004 C 
ENDROOT
BRANCH   1   2
ATOM      2  C   UNL     1     142.319 134.250 124.050  1.00  0.00    -0.009 C 
BRANCH   2   3
ATOM      3  C   UNL     1     141.121 133.335 123.656  1.00  0.00     0.000 C 
ATOM      4  C   UNL     1     140.253 133.926 122.539  1.00  0.00     0.004 C 
ENDBRANCH   2   3
BRANCH   2   5
ATOM      5  C   UNL     1     143.674 133.733 123.427  1.00  0.00    -0.014 C 
ATOM      6  C   UNL     1     144.912 134.199 124.220  1.00  0.00     0.007 C 
ATOM      7  C   UNL     1     143.846 134.179 121.961  1.00  0.00     0.007 C 
ENDBRANCH   2   5
ENDBRANCH   1   2
BRANCH   1   8
ATOM      8  C   UNL     1     141.704 135.755 126.112  1.00  0.00     0.004 C 
BRANCH   8   9
ATOM      9  C   UNL     1     140.888 136.512 125.023  1.00  0.00    -0.011 C 
ATOM     10  C   UNL     1     139.385 136.510 125.413  1.00  0.00     0.008 C 
BRANCH   9  11
ATOM     11  C   UNL     1     141.484 137.938 124.748  1.00  0.00    -0.002 C 
ATOM     12  C   UNL     1     140.471 139.092 124.812  1.00  0.00     0.005 C 
ATOM     13  C   UNL     1     142.366 138.139 123.463  1.00  0.00    -0.026 C 
ATOM     14  C   UNL     1     140.851 140.088 123.732  1.00  0.00     0.005 C 
ATOM     15  C   UNL     1     142.215 139.660 123.169  1.00  0.00    -0.001 C 
ATOM     16  C   UNL     1     141.966 137.262 122.225  1.00  0.00     0.007 C 
ATOM     17  C   UNL     1     143.846 137.817 123.806  1.00  0.00     0.012 C 
ATOM     18  C   UNL     1     142.462 140.061 121.679  1.00  0.00     0.004 C 
ATOM     19  C   UNL     1     141.010 137.953 121.246  1.00  0.00     0.005 C 
ATOM     20  C   UNL     1     141.687 139.193 120.612  1.00  0.00     0.003 C 
ATOM     21  C   UNL     1     142.365 141.588 121.478  1.00  0.00     0.085 C 
ATOM     22  C   UNL     1     140.778 139.974 119.577  1.00  0.00    -0.000 C 
ATOM     23  C   UNL     1     142.365 141.970 120.031  1.00  0.00     0.159 C 
ATOM     24  C   UNL     1     141.559 141.186 119.063  1.00  0.00     0.005 C 
ATOM     25  C   UNL     1     140.433 139.011 118.388  1.00  0.00     0.020 C 
ATOM     26  C   UNL     1     139.453 140.476 120.205  1.00  0.00     0.017 C 
ATOM     27  O   UNL     1     142.978 143.007 119.673  1.00  0.00    -0.295 OA
ATOM     28  C   UNL     1     141.461 141.605 117.785  1.00  0.00     0.055 C 
ATOM     29  C   UNL     1     139.804 139.722 117.187  1.00  0.00     0.081 C 
ATOM     30  C   UNL     1     140.619 140.914 116.798  1.00  0.00     0.156 C 
ATOM     31  O   UNL     1     140.546 141.363 115.623  1.00  0.00    -0.295 OA
ENDBRANCH   9  11
ENDBRANCH   8   9
ENDBRANCH   1   8
TORSDOF 6
ENDMDL
MODEL 6
REMARK VINA RESULT:    -6.417      7.039     10.225
REMARK INTER + INTRA:         -10.344
REMARK INTER:                  -8.635
REMARK INTRA:                  -1.708
REMARK UNBOUND:                -1.676
REMARK SMILES CC[C@@H](CC[C@@H](C)[C@@H]1CC[C@@H]2[C@@H]3CC(=O)C4=CC(=O)CC[C@@]4(C)[C@@H]3CC[C@@]21C)C(C)C
REMARK SMILES IDX 4 1 3 2 2 3 1 4 29 5 30 6 31 7 5 8 6 9 7 10 8 11 9 12 27 13
REMARK SMILES IDX 10 14 11 15 26 16 28 17 12 18 25 19 24 20 13 21 22 22 14 23
REMARK SMILES IDX 16 24 21 25 23 26 15 27 17 28 20 29 18 30 19 31
REMARK H PARENT
REMARK Flexibility Score: inf
ROOT
ATOM      1  C   UNL     1     135.783 140.120 119.614  1.00  0.00     0.004 C 
ENDROOT
BRANCH   1   2
ATOM      2  C   UNL     1     136.308 138.982 118.677  1.00  0.00    -0.009 C 
BRANCH   2   3
ATOM      3  C   UNL     1     137.385 138.117 119.397  1.00  0.00     0.000 C 
ATOM      4  C   UNL     1     136.962 136.654 119.580  1.00  0.00     0.004 C 
ENDBRANCH   2   3
BRANCH   2   5
ATOM      5  C   UNL     1     136.820 139.501 117.278  1.00  0.00    -0.014 C 
ATOM      6  C   UNL     1     137.569 140.846 117.377  1.00  0.00     0.007 C 
ATOM      7  C   UNL     1     135.670 139.665 116.263  1.00  0.00     0.007 C 
ENDBRANCH   2   5
ENDBRANCH   1   2
BRANCH   1   8
ATOM      8  C   UNL     1     134.330 139.928 120.122  1.00  0.00     0.004 C 
BRANCH   8   9
ATOM      9  C   UNL     1     133.388 139.237 119.093  1.00  0.00    -0.011 C 
ATOM     10  C   UNL     1     133.038 137.811 119.595  1.00  0.00     0.008 C 
BRANCH   9  11
ATOM     11  C   UNL     1     132.141 140.132 118.766  1.00  0.00    -0.002 C 
ATOM     12  C   UNL     1     130.836 139.714 119.462  1.00  0.00     0.005 C 
ATOM     13  C   UNL     1     131.812 140.426 117.258  1.00  0.00    -0.026 C 
ATOM     14  C   UNL     1     129.704 139.948 118.478  1.00  0.00     0.005 C 
ATOM     15  C   UNL     1     130.284 140.718 117.282  1.00  0.00    -0.001 C 
ATOM     16  C   UNL     1     132.172 139.275 116.252  1.00  0.00     0.007 C 
ATOM     17  C   UNL     1     132.581 141.698 116.807  1.00  0.00     0.012 C 
ATOM     18  C   UNL     1     129.553 140.462 115.924  1.00  0.00     0.004 C 
ATOM     19  C   UNL     1     131.015 138.317 115.951  1.00  0.00     0.005 C 
ATOM     20  C   UNL     1     129.858 139.069 115.248  1.00  0.00     0.003 C 
ATOM     21  C   UNL     1     128.058 140.839 116.005  1.00  0.00     0.085 C 
ATOM     22  C   UNL     1     128.612 138.159 114.888  1.00  0.00    -0.000 C 
ATOM     23  C   UNL     1     127.294 140.388 114.800  1.00  0.00     0.159 C 
ATOM     24  C   UNL     1     127.542 139.039 114.235  1.00  0.00     0.005 C 
ATOM     25  C   UNL     1     129.079 137.046 113.887  1.00  0.00     0.020 C 
ATOM     26  C   UNL     1     127.992 137.476 116.133  1.00  0.00     0.017 C 
ATOM     27  O   UNL     1     126.388 141.126 114.339  1.00  0.00    -0.295 OA
ATOM     28  C   UNL     1     126.767 138.585 113.229  1.00  0.00     0.055 C 
ATOM     29  C   UNL     1     127.922 136.280 113.240  1.00  0.00     0.081 C 
ATOM     30  C   UNL     1     126.915 137.231 112.677  1.00  0.00     0.156 C 
ATOM     31  O   UNL     1     126.147 136.851 111.753  1.00  0.00    -0.295 OA
ENDBRANCH   9  11
ENDBRANCH   8   9
ENDBRANCH   1   8
TORSDOF 6
ENDMDL
MODEL 7
REMARK VINA RESULT:    -6.353      4.881      9.055
REMARK INTER + INTRA:         -10.258
REMARK INTER:                  -8.497
REMARK INTRA:                  -1.761
REMARK UNBOUND:                -1.676
REMARK SMILES CC[C@@H](CC[C@@H](C)[C@@H]1CC[C@@H]2[C@@H]3CC(=O)C4=CC(=O)CC[C@@]4(C)[C@@H]3CC[C@@]21C)C(C)C
REMARK SMILES IDX 4 1 3 2 2 3 1 4 29 5 30 6 31 7 5 8 6 9 7 10 8 11 9 12 27 13
REMARK SMILES IDX 10 14 11 15 26 16 28 17 12 18 25 19 24 20 13 21 22 22 14 23
REMARK SMILES IDX 16 24 21 25 23 26 15 27 17 28 20 29 18 30 19 31
REMARK H PARENT
REMARK Flexibility Score: inf
ROOT
ATOM      1  C   UNL     1     139.083 141.009 119.876  1.00  0.00     0.004 C 
ENDROOT
BRANCH   1   2
ATOM      2  C   UNL     1     138.609 141.230 118.400  1.00  0.00    -0.009 C 
BRANCH   2   3
ATOM      3  C   UNL     1     137.128 140.784 118.215  1.00  0.00     0.000 C 
ATOM      4  C   UNL     1     136.629 140.931 116.772  1.00  0.00     0.004 C 
ENDBRANCH   2   3
BRANCH   2   5
ATOM      5  C   UNL     1     139.555 140.565 117.327  1.00  0.00    -0.014 C 
ATOM      6  C   UNL     1     139.783 139.061 117.582  1.00  0.00     0.007 C 
ATOM      7  C   UNL     1     140.932 141.256 117.259  1.00  0.00     0.007 C 
ENDBRANCH   2   5
ENDBRANCH   1   2
BRANCH   1   8
ATOM      8  C   UNL     1     138.060 140.282 120.787  1.00  0.00     0.004 C 
BRANCH   8   9
ATOM      9  C   UNL     1     138.694 139.201 121.711  1.00  0.00    -0.011 C 
ATOM     10  C   UNL     1     137.566 138.387 122.398  1.00  0.00     0.008 C 
BRANCH   9  11
ATOM     11  C   UNL     1     139.742 138.328 120.935  1.00  0.00    -0.002 C 
ATOM     12  C   UNL     1     139.257 136.924 120.539  1.00  0.00     0.005 C 
ATOM     13  C   UNL     1     141.186 138.188 121.539  1.00  0.00    -0.026 C 
ATOM     14  C   UNL     1     140.435 135.979 120.690  1.00  0.00     0.005 C 
ATOM     15  C   UNL     1     141.684 136.836 120.951  1.00  0.00    -0.001 C 
ATOM     16  C   UNL     1     141.267 138.209 123.107  1.00  0.00     0.007 C 
ATOM     17  C   UNL     1     142.074 139.348 121.011  1.00  0.00     0.012 C 
ATOM     18  C   UNL     1     142.796 136.131 121.793  1.00  0.00     0.004 C 
ATOM     19  C   UNL     1     141.243 136.820 123.756  1.00  0.00     0.005 C 
ATOM     20  C   UNL     1     142.491 136.005 123.336  1.00  0.00     0.003 C 
ATOM     21  C   UNL     1     143.288 134.836 121.113  1.00  0.00     0.085 C 
ATOM     22  C   UNL     1     142.563 134.552 123.964  1.00  0.00    -0.000 C 
ATOM     23  C   UNL     1     144.177 134.030 122.007  1.00  0.00     0.159 C 
ATOM     24  C   UNL     1     143.821 133.857 123.436  1.00  0.00     0.005 C 
ATOM     25  C   UNL     1     142.635 134.686 125.525  1.00  0.00     0.020 C 
ATOM     26  C   UNL     1     141.332 133.683 123.599  1.00  0.00     0.017 C 
ATOM     27  O   UNL     1     145.164 133.434 121.509  1.00  0.00    -0.295 OA
ATOM     28  C   UNL     1     144.552 133.030 124.210  1.00  0.00     0.055 C 
ATOM     29  C   UNL     1     142.995 133.378 126.235  1.00  0.00     0.081 C 
ATOM     30  C   UNL     1     144.206 132.760 125.613  1.00  0.00     0.156 C 
ATOM     31  O   UNL     1     144.911 131.959 126.282  1.00  0.00    -0.295 OA
ENDBRANCH   9  11
ENDBRANCH   8   9
ENDBRANCH   1   8
TORSDOF 6
ENDMDL
MODEL 8
REMARK VINA RESULT:    -6.348      4.700      8.489
REMARK INTER + INTRA:         -10.250
REMARK INTER:                  -8.484
REMARK INTRA:                  -1.766
REMARK UNBOUND:                -1.676
REMARK SMILES CC[C@@H](CC[C@@H](C)[C@@H]1CC[C@@H]2[C@@H]3CC(=O)C4=CC(=O)CC[C@@]4(C)[C@@H]3CC[C@@]21C)C(C)C
REMARK SMILES IDX 4 1 3 2 2 3 1 4 29 5 30 6 31 7 5 8 6 9 7 10 8 11 9 12 27 13
REMARK SMILES IDX 10 14 11 15 26 16 28 17 12 18 25 19 24 20 13 21 22 22 14 23
REMARK SMILES IDX 16 24 21 25 23 26 15 27 17 28 20 29 18 30 19 31
REMARK H PARENT
REMARK Flexibility Score: inf
ROOT
ATOM      1  C   UNL     1     137.506 138.661 117.894  1.00  0.00     0.004 C 
ENDROOT
BRANCH   1   2
ATOM      2  C   UNL     1     138.015 140.141 117.931  1.00  0.00    -0.009 C 
BRANCH   2   3
ATOM      3  C   UNL     1     137.223 141.029 116.926  1.00  0.00     0.000 C 
ATOM      4  C   UNL     1     135.913 140.385 116.454  1.00  0.00     0.004 C 
ENDBRANCH   2   3
BRANCH   2   5
ATOM      5  C   UNL     1     139.573 140.279 117.725  1.00  0.00    -0.014 C 
ATOM      6  C   UNL     1     140.280 140.927 118.933  1.00  0.00     0.007 C 
ATOM      7  C   UNL     1     139.922 141.098 116.467  1.00  0.00     0.007 C 
ENDBRANCH   2   5
ENDBRANCH   1   2
BRANCH   1   8
ATOM      8  C   UNL     1     136.827 138.172 119.200  1.00  0.00     0.004 C 
BRANCH   8   9
ATOM      9  C   UNL     1     137.792 138.087 120.419  1.00  0.00    -0.011 C 
ATOM     10  C   UNL     1     136.974 138.222 121.731  1.00  0.00     0.008 C 
BRANCH   9  11
ATOM     11  C   UNL     1     138.695 136.806 120.348  1.00  0.00    -0.002 C 
ATOM     12  C   UNL     1     138.277 135.660 121.283  1.00  0.00     0.005 C 
ATOM     13  C   UNL     1     140.252 136.986 120.469  1.00  0.00    -0.026 C 
ATOM     14  C   UNL     1     139.549 135.011 121.800  1.00  0.00     0.005 C 
ATOM     15  C   UNL     1     140.724 135.604 121.007  1.00  0.00    -0.001 C 
ATOM     16  C   UNL     1     140.725 138.166 121.390  1.00  0.00     0.007 C 
ATOM     17  C   UNL     1     140.848 137.229 119.055  1.00  0.00     0.012 C 
ATOM     18  C   UNL     1     142.082 135.638 121.780  1.00  0.00     0.004 C 
ATOM     19  C   UNL     1     141.015 137.756 122.838  1.00  0.00     0.005 C 
ATOM     20  C   UNL     1     142.195 136.754 122.892  1.00  0.00     0.003 C 
ATOM     21  C   UNL     1     142.519 134.225 122.222  1.00  0.00     0.085 C 
ATOM     22  C   UNL     1     142.577 136.273 124.352  1.00  0.00    -0.000 C 
ATOM     23  C   UNL     1     143.687 134.261 123.158  1.00  0.00     0.159 C 
ATOM     24  C   UNL     1     143.726 135.267 124.246  1.00  0.00     0.005 C 
ATOM     25  C   UNL     1     143.029 137.522 125.186  1.00  0.00     0.020 C 
ATOM     26  C   UNL     1     141.394 135.592 125.086  1.00  0.00     0.017 C 
ATOM     27  O   UNL     1     144.573 133.376 123.061  1.00  0.00    -0.295 OA
ATOM     28  C   UNL     1     144.713 135.218 125.163  1.00  0.00     0.055 C 
ATOM     29  C   UNL     1     143.694 137.161 126.517  1.00  0.00     0.081 C 
ATOM     30  C   UNL     1     144.766 136.140 126.307  1.00  0.00     0.156 C 
ATOM     31  O   UNL     1     145.699 136.034 127.147  1.00  0.00    -0.295 OA
ENDBRANCH   9  11
ENDBRANCH   8   9
ENDBRANCH   1   8
TORSDOF 6
ENDMDL
MODEL 9
REMARK VINA RESULT:    -6.310      4.352      8.819
REMARK INTER + INTRA:         -10.199
REMARK INTER:                  -8.407
REMARK INTRA:                  -1.792
REMARK UNBOUND:                -1.676
REMARK SMILES CC[C@@H](CC[C@@H](C)[C@@H]1CC[C@@H]2[C@@H]3CC(=O)C4=CC(=O)CC[C@@]4(C)[C@@H]3CC[C@@]21C)C(C)C
REMARK SMILES IDX 4 1 3 2 2 3 1 4 29 5 30 6 31 7 5 8 6 9 7 10 8 11 9 12 27 13
REMARK SMILES IDX 10 14 11 15 26 16 28 17 12 18 25 19 24 20 13 21 22 22 14 23
REMARK SMILES IDX 16 24 21 25 23 26 15 27 17 28 20 29 18 30 19 31
REMARK H PARENT
REMARK Flexibility Score: inf
ROOT
ATOM      1  C   UNL     1     143.705 134.501 121.550  1.00  0.00     0.004 C 
ENDROOT
BRANCH   1   2
ATOM      2  C   UNL     1     144.251 134.232 122.993  1.00  0.00    -0.009 C 
BRANCH   2   3
ATOM      3  C   UNL     1     145.422 133.206 122.965  1.00  0.00     0.000 C 
ATOM      4  C   UNL     1     146.005 132.992 121.563  1.00  0.00     0.004 C 
ENDBRANCH   2   3
BRANCH   2   5
ATOM      5  C   UNL     1     143.132 133.811 124.022  1.00  0.00    -0.014 C 
ATOM      6  C   UNL     1     142.766 134.944 125.004  1.00  0.00     0.007 C 
ATOM      7  C   UNL     1     143.539 132.573 124.847  1.00  0.00     0.007 C 
ENDBRANCH   2   5
ENDBRANCH   1   2
BRANCH   1   8
ATOM      8  C   UNL     1     143.485 135.996 121.203  1.00  0.00     0.004 C 
BRANCH   8   9
ATOM      9  C   UNL     1     142.140 136.574 121.731  1.00  0.00    -0.011 C 
ATOM     10  C   UNL     1     142.161 138.122 121.605  1.00  0.00     0.008 C 
BRANCH   9  11
ATOM     11  C   UNL     1     140.910 135.886 121.041  1.00  0.00    -0.002 C 
ATOM     12  C   UNL     1     140.223 136.719 119.948  1.00  0.00     0.005 C 
ATOM     13  C   UNL     1     139.789 135.275 121.959  1.00  0.00    -0.026 C 
ATOM     14  C   UNL     1     138.731 136.460 120.051  1.00  0.00     0.005 C 
ATOM     15  C   UNL     1     138.531 135.304 121.043  1.00  0.00    -0.001 C 
ATOM     16  C   UNL     1     139.543 136.026 123.315  1.00  0.00     0.007 C 
ATOM     17  C   UNL     1     140.156 133.804 122.299  1.00  0.00     0.012 C 
ATOM     18  C   UNL     1     137.170 135.330 121.810  1.00  0.00     0.004 C 
ATOM     19  C   UNL     1     138.429 137.078 123.258  1.00  0.00     0.005 C 
ATOM     20  C   UNL     1     137.066 136.408 122.958  1.00  0.00     0.003 C 
ATOM     21  C   UNL     1     135.971 135.286 120.840  1.00  0.00     0.085 C 
ATOM     22  C   UNL     1     135.846 137.415 122.886  1.00  0.00    -0.000 C 
ATOM     23  C   UNL     1     134.670 135.544 121.535  1.00  0.00     0.159 C 
ATOM     24  C   UNL     1     134.580 136.621 122.550  1.00  0.00     0.005 C 
ATOM     25  C   UNL     1     135.690 138.112 124.283  1.00  0.00     0.020 C 
ATOM     26  C   UNL     1     136.038 138.511 121.807  1.00  0.00     0.017 C 
ATOM     27  O   UNL     1     133.651 134.902 121.180  1.00  0.00    -0.295 OA
ATOM     28  C   UNL     1     133.383 136.936 123.083  1.00  0.00     0.055 C 
ATOM     29  C   UNL     1     134.381 138.890 124.435  1.00  0.00     0.081 C 
ATOM     30  C   UNL     1     133.216 138.041 124.038  1.00  0.00     0.156 C 
ATOM     31  O   UNL     1     132.069 138.306 124.487  1.00  0.00    -0.295 OA
ENDBRANCH   9  11
ENDBRANCH   8   9
ENDBRANCH   1   8
TORSDOF 6
ENDMDL
