MODEL 1
REMARK VINA RESULT:    -7.573      0.000      0.000
REMARK INTER + INTRA:          -9.186
REMARK INTER:                  -9.123
REMARK INTRA:                  -0.063
REMARK UNBOUND:                -0.063
REMARK SMILES O=c1c(O)c(-c2ccc(O)cc2O)oc2cc(O)cc(O)c12
REMARK SMILES IDX 5 1 3 2 2 3 1 4 22 5 20 6 19 7 17 8 16 9 15 10 14 11 6 12
REMARK SMILES IDX 8 13 7 14 9 15 11 16 12 17 10 18 13 20 4 22 21 24 18 26
REMARK H PARENT 10 19 13 21 4 23 21 25 18 27
REMARK Flexibility Score: inf
ROOT
ATOM      1  C   UNL     1       9.702  -1.519  19.181  1.00  0.00     0.184 A 
ATOM      2  C   UNL     1      11.036  -1.940  19.047  1.00  0.00     0.208 A 
ATOM      3  C   UNL     1      11.339  -3.302  19.204  1.00  0.00     0.238 A 
ATOM      4  O   UNL     1      12.526  -3.681  19.027  1.00  0.00    -0.285 OA
ATOM      5  C   UNL     1      10.308  -4.222  19.515  1.00  0.00     0.111 A 
ATOM      6  C   UNL     1      10.507  -5.618  19.736  1.00  0.00     0.134 A 
ATOM      7  C   UNL     1       9.397  -6.454  19.910  1.00  0.00     0.093 A 
ATOM      8  C   UNL     1       8.101  -5.935  19.935  1.00  0.00     0.123 A 
ATOM      9  C   UNL     1       7.900  -4.565  19.780  1.00  0.00     0.094 A 
ATOM     10  C   UNL     1       8.985  -3.710  19.568  1.00  0.00     0.146 A 
ATOM     11  O   UNL     1       8.749  -2.413  19.412  1.00  0.00    -0.451 OA
ENDROOT
BRANCH   1  12
ATOM     12  C   UNL     1       9.316  -0.094  19.051  1.00  0.00     0.063 A 
ATOM     13  C   UNL     1       9.754   2.258  19.493  1.00  0.00     0.047 A 
ATOM     14  C   UNL     1      10.131   0.917  19.591  1.00  0.00     0.020 A 
ATOM     15  C   UNL     1       8.553   2.608  18.866  1.00  0.00     0.119 A 
ATOM     16  C   UNL     1       7.730   1.610  18.339  1.00  0.00     0.093 A 
ATOM     17  C   UNL     1       8.100   0.261  18.430  1.00  0.00     0.130 A 
BRANCH  15  18
ATOM     18  O   UNL     1       8.167   3.943  18.764  1.00  0.00    -0.508 OA
ATOM     19  H   UNL     1       7.931   4.359  17.871  1.00  0.00     0.293 HD
ENDBRANCH  15  18
BRANCH  17  20
ATOM     20  O   UNL     1       7.271  -0.725  17.895  1.00  0.00    -0.507 OA
ATOM     21  H   UNL     1       7.188  -0.863  16.894  1.00  0.00     0.293 HD
ENDBRANCH  17  20
ENDBRANCH   1  12
BRANCH   2  22
ATOM     22  O   UNL     1      12.033  -1.016  18.727  1.00  0.00    -0.502 OA
ATOM     23  H   UNL     1      12.455  -0.967  17.807  1.00  0.00     0.293 HD
ENDBRANCH   2  22
BRANCH   6  24
ATOM     24  O   UNL     1      11.764  -6.223  19.820  1.00  0.00    -0.507 OA
ATOM     25  H   UNL     1      12.640  -5.759  19.636  1.00  0.00     0.293 HD
ENDBRANCH   6  24
BRANCH   8  26
ATOM     26  O   UNL     1       7.003  -6.772  20.125  1.00  0.00    -0.508 OA
ATOM     27  H   UNL     1       6.205  -6.482  20.679  1.00  0.00     0.293 HD
ENDBRANCH   8  26
TORSDOF 6
ENDMDL
MODEL 2
REMARK VINA RESULT:    -7.150      1.477      6.378
REMARK INTER + INTRA:          -8.676
REMARK INTER:                  -9.078
REMARK INTRA:                   0.402
REMARK UNBOUND:                -0.063
REMARK SMILES O=c1c(O)c(-c2ccc(O)cc2O)oc2cc(O)cc(O)c12
REMARK SMILES IDX 5 1 3 2 2 3 1 4 22 5 20 6 19 7 17 8 16 9 15 10 14 11 6 12
REMARK SMILES IDX 8 13 7 14 9 15 11 16 12 17 10 18 13 20 4 22 21 24 18 26
REMARK H PARENT 10 19 13 21 4 23 21 25 18 27
REMARK Flexibility Score: inf
ROOT
ATOM      1  C   UNL     1      10.400  -2.671  19.422  1.00  0.00     0.184 A 
ATOM      2  C   UNL     1      11.660  -2.198  19.016  1.00  0.00     0.208 A 
ATOM      3  C   UNL     1      11.849  -0.816  18.854  1.00  0.00     0.238 A 
ATOM      4  O   UNL     1      12.994  -0.395  18.547  1.00  0.00    -0.285 OA
ATOM      5  C   UNL     1      10.770   0.073  19.079  1.00  0.00     0.111 A 
ATOM      6  C   UNL     1      10.837   1.488  18.905  1.00  0.00     0.134 A 
ATOM      7  C   UNL     1       9.745   2.282  19.280  1.00  0.00     0.093 A 
ATOM      8  C   UNL     1       8.567   1.706  19.760  1.00  0.00     0.123 A 
ATOM      9  C   UNL     1       8.470   0.321  19.876  1.00  0.00     0.094 A 
ATOM     10  C   UNL     1       9.555  -0.495  19.545  1.00  0.00     0.146 A 
ATOM     11  O   UNL     1       9.426  -1.809  19.683  1.00  0.00    -0.451 OA
ENDROOT
BRANCH   1  12
ATOM     12  C   UNL     1      10.126  -4.118  19.589  1.00  0.00     0.063 A 
ATOM     13  C   UNL     1      10.928  -6.398  19.866  1.00  0.00     0.047 A 
ATOM     14  C   UNL     1      11.184  -5.031  19.737  1.00  0.00     0.020 A 
ATOM     15  C   UNL     1       9.612  -6.873  19.838  1.00  0.00     0.119 A 
ATOM     16  C   UNL     1       8.554  -5.975  19.678  1.00  0.00     0.093 A 
ATOM     17  C   UNL     1       8.801  -4.600  19.549  1.00  0.00     0.130 A 
BRANCH  15  18
ATOM     18  O   UNL     1       9.345  -8.234  19.966  1.00  0.00    -0.508 OA
ATOM     19  H   UNL     1       8.675  -8.701  19.366  1.00  0.00     0.293 HD
ENDBRANCH  15  18
BRANCH  17  20
ATOM     20  O   UNL     1       7.735  -3.714  19.395  1.00  0.00    -0.507 OA
ATOM     21  H   UNL     1       6.960  -3.696  20.049  1.00  0.00     0.293 HD
ENDBRANCH  17  20
ENDBRANCH   1  12
BRANCH   2  22
ATOM     22  O   UNL     1      12.713  -3.094  18.814  1.00  0.00    -0.502 OA
ATOM     23  H   UNL     1      13.154  -3.595  19.575  1.00  0.00     0.293 HD
ENDBRANCH   2  22
BRANCH   6  24
ATOM     24  O   UNL     1      11.932   2.156  18.349  1.00  0.00    -0.507 OA
ATOM     25  H   UNL     1      11.868   2.961  17.746  1.00  0.00     0.293 HD
ENDBRANCH   6  24
BRANCH   8  26
ATOM     26  O   UNL     1       7.480   2.502  20.115  1.00  0.00    -0.508 OA
ATOM     27  H   UNL     1       7.597   3.342  20.670  1.00  0.00     0.293 HD
ENDBRANCH   8  26
TORSDOF 6
ENDMDL
MODEL 3
REMARK VINA RESULT:    -6.595      1.405      3.212
REMARK INTER + INTRA:          -8.008
REMARK INTER:                  -8.091
REMARK INTRA:                   0.083
REMARK UNBOUND:                -0.063
REMARK SMILES O=c1c(O)c(-c2ccc(O)cc2O)oc2cc(O)cc(O)c12
REMARK SMILES IDX 5 1 3 2 2 3 1 4 22 5 20 6 19 7 17 8 16 9 15 10 14 11 6 12
REMARK SMILES IDX 8 13 7 14 9 15 11 16 12 17 10 18 13 20 4 22 21 24 18 26
REMARK H PARENT 10 19 13 21 4 23 21 25 18 27
REMARK Flexibility Score: inf
ROOT
ATOM      1  C   UNL     1       8.300  -2.062  19.619  1.00  0.00     0.184 A 
ATOM      2  C   UNL     1       7.057  -2.711  19.706  1.00  0.00     0.208 A 
ATOM      3  C   UNL     1       7.024  -4.112  19.800  1.00  0.00     0.238 A 
ATOM      4  O   UNL     1       5.911  -4.683  19.935  1.00  0.00    -0.285 OA
ATOM      5  C   UNL     1       8.235  -4.847  19.786  1.00  0.00     0.111 A 
ATOM      6  C   UNL     1       8.319  -6.271  19.836  1.00  0.00     0.134 A 
ATOM      7  C   UNL     1       9.573  -6.885  19.944  1.00  0.00     0.093 A 
ATOM      8  C   UNL     1      10.748  -6.129  19.940  1.00  0.00     0.123 A 
ATOM      9  C   UNL     1      10.679  -4.742  19.831  1.00  0.00     0.094 A 
ATOM     10  C   UNL     1       9.441  -4.098  19.758  1.00  0.00     0.146 A 
ATOM     11  O   UNL     1       9.419  -2.774  19.669  1.00  0.00    -0.451 OA
ENDROOT
BRANCH   1  12
ATOM     12  C   UNL     1       8.405  -0.590  19.493  1.00  0.00     0.063 A 
ATOM     13  C   UNL     1       7.540   1.635  19.968  1.00  0.00     0.047 A 
ATOM     14  C   UNL     1       7.459   0.248  20.109  1.00  0.00     0.020 A 
ATOM     15  C   UNL     1       8.562   2.205  19.200  1.00  0.00     0.119 A 
ATOM     16  C   UNL     1       9.500   1.380  18.573  1.00  0.00     0.093 A 
ATOM     17  C   UNL     1       9.427  -0.013  18.711  1.00  0.00     0.130 A 
BRANCH  15  18
ATOM     18  O   UNL     1       8.653   3.587  19.052  1.00  0.00    -0.508 OA
ATOM     19  H   UNL     1       9.021   4.175  19.790  1.00  0.00     0.293 HD
ENDBRANCH  15  18
BRANCH  17  20
ATOM     20  O   UNL     1      10.373  -0.824  18.083  1.00  0.00    -0.507 OA
ATOM     21  H   UNL     1      10.160  -1.778  17.814  1.00  0.00     0.293 HD
ENDBRANCH  17  20
ENDBRANCH   1  12
BRANCH   2  22
ATOM     22  O   UNL     1       5.877  -1.964  19.732  1.00  0.00    -0.502 OA
ATOM     23  H   UNL     1       5.232  -1.992  20.513  1.00  0.00     0.293 HD
ENDBRANCH   2  22
BRANCH   6  24
ATOM     24  O   UNL     1       7.213  -7.121  19.754  1.00  0.00    -0.507 OA
ATOM     25  H   UNL     1       6.280  -6.882  20.052  1.00  0.00     0.293 HD
ENDBRANCH   6  24
BRANCH   8  26
ATOM     26  O   UNL     1      11.992  -6.749  20.032  1.00  0.00    -0.508 OA
ATOM     27  H   UNL     1      12.636  -6.536  20.786  1.00  0.00     0.293 HD
ENDBRANCH   8  26
TORSDOF 6
ENDMDL
MODEL 4
REMARK VINA RESULT:    -6.249      1.468      7.031
REMARK INTER + INTRA:          -7.590
REMARK INTER:                  -8.007
REMARK INTRA:                   0.416
REMARK UNBOUND:                -0.063
REMARK SMILES O=c1c(O)c(-c2ccc(O)cc2O)oc2cc(O)cc(O)c12
REMARK SMILES IDX 5 1 3 2 2 3 1 4 22 5 20 6 19 7 17 8 16 9 15 10 14 11 6 12
REMARK SMILES IDX 8 13 7 14 9 15 11 16 12 17 10 18 13 20 4 22 21 24 18 26
REMARK H PARENT 10 19 13 21 4 23 21 25 18 27
REMARK Flexibility Score: inf
ROOT
ATOM      1  C   UNL     1       9.175  -2.315  19.589  1.00  0.00     0.184 A 
ATOM      2  C   UNL     1       7.965  -1.690  19.242  1.00  0.00     0.208 A 
ATOM      3  C   UNL     1       7.918  -0.288  19.177  1.00  0.00     0.238 A 
ATOM      4  O   UNL     1       6.848   0.264  18.810  1.00  0.00    -0.285 OA
ATOM      5  C   UNL     1       9.075   0.471  19.479  1.00  0.00     0.111 A 
ATOM      6  C   UNL     1       9.130   1.897  19.483  1.00  0.00     0.134 A 
ATOM      7  C   UNL     1      10.360   2.540  19.673  1.00  0.00     0.093 A 
ATOM      8  C   UNL     1      11.524   1.809  19.921  1.00  0.00     0.123 A 
ATOM      9  C   UNL     1      11.469   0.418  19.979  1.00  0.00     0.094 A 
ATOM     10  C   UNL     1      10.264  -0.253  19.758  1.00  0.00     0.146 A 
ATOM     11  O   UNL     1      10.258  -1.579  19.808  1.00  0.00    -0.451 OA
ENDROOT
BRANCH   1  12
ATOM     12  C   UNL     1       9.289  -3.788  19.701  1.00  0.00     0.063 A 
ATOM     13  C   UNL     1       8.247  -5.967  19.995  1.00  0.00     0.047 A 
ATOM     14  C   UNL     1       8.139  -4.581  19.863  1.00  0.00     0.020 A 
ATOM     15  C   UNL     1       9.505  -6.580  19.980  1.00  0.00     0.119 A 
ATOM     16  C   UNL     1      10.654  -5.799  19.834  1.00  0.00     0.093 A 
ATOM     17  C   UNL     1      10.556  -4.407  19.697  1.00  0.00     0.130 A 
BRANCH  15  18
ATOM     18  O   UNL     1       9.624  -7.962  20.113  1.00  0.00    -0.508 OA
ATOM     19  H   UNL     1       9.516  -8.581  19.318  1.00  0.00     0.293 HD
ENDBRANCH  15  18
BRANCH  17  20
ATOM     20  O   UNL     1      11.711  -3.640  19.546  1.00  0.00    -0.507 OA
ATOM     21  H   UNL     1      12.344  -3.475  20.320  1.00  0.00     0.293 HD
ENDBRANCH  17  20
ENDBRANCH   1  12
BRANCH   2  22
ATOM     22  O   UNL     1       6.841  -2.460  18.935  1.00  0.00    -0.502 OA
ATOM     23  H   UNL     1       6.786  -3.034  18.102  1.00  0.00     0.293 HD
ENDBRANCH   2  22
BRANCH   6  24
ATOM     24  O   UNL     1       8.011   2.722  19.336  1.00  0.00    -0.507 OA
ATOM     25  H   UNL     1       7.066   2.456  19.565  1.00  0.00     0.293 HD
ENDBRANCH   6  24
BRANCH   8  26
ATOM     26  O   UNL     1      12.741   2.457  20.124  1.00  0.00    -0.508 OA
ATOM     27  H   UNL     1      12.790   3.362  20.578  1.00  0.00     0.293 HD
ENDBRANCH   8  26
TORSDOF 6
ENDMDL
MODEL 5
REMARK VINA RESULT:    -5.886      1.849      6.480
REMARK INTER + INTRA:          -7.153
REMARK INTER:                  -7.458
REMARK INTRA:                   0.305
REMARK UNBOUND:                -0.063
REMARK SMILES O=c1c(O)c(-c2ccc(O)cc2O)oc2cc(O)cc(O)c12
REMARK SMILES IDX 5 1 3 2 2 3 1 4 22 5 20 6 19 7 17 8 16 9 15 10 14 11 6 12
REMARK SMILES IDX 8 13 7 14 9 15 11 16 12 17 10 18 13 20 4 22 21 24 18 26
REMARK H PARENT 10 19 13 21 4 23 21 25 18 27
REMARK Flexibility Score: inf
ROOT
ATOM      1  C   UNL     1       9.376  -2.672  19.555  1.00  0.00     0.184 A 
ATOM      2  C   UNL     1       8.785  -1.442  19.219  1.00  0.00     0.208 A 
ATOM      3  C   UNL     1       9.594  -0.296  19.141  1.00  0.00     0.238 A 
ATOM      4  O   UNL     1       9.069   0.790  18.784  1.00  0.00    -0.285 OA
ATOM      5  C   UNL     1      10.978  -0.392  19.422  1.00  0.00     0.111 A 
ATOM      6  C   UNL     1      11.884   0.712  19.413  1.00  0.00     0.134 A 
ATOM      7  C   UNL     1      13.256   0.480  19.580  1.00  0.00     0.093 A 
ATOM      8  C   UNL     1      13.745  -0.806  19.820  1.00  0.00     0.123 A 
ATOM      9  C   UNL     1      12.862  -1.881  19.890  1.00  0.00     0.094 A 
ATOM     10  C   UNL     1      11.492  -1.687  19.691  1.00  0.00     0.146 A 
ATOM     11  O   UNL     1      10.687  -2.740  19.753  1.00  0.00    -0.451 OA
ENDROOT
BRANCH   1  12
ATOM     12  C   UNL     1       8.578  -3.914  19.678  1.00  0.00     0.063 A 
ATOM     13  C   UNL     1       6.459  -5.024  20.125  1.00  0.00     0.047 A 
ATOM     14  C   UNL     1       7.207  -3.853  19.982  1.00  0.00     0.020 A 
ATOM     15  C   UNL     1       7.073  -6.273  19.979  1.00  0.00     0.119 A 
ATOM     16  C   UNL     1       8.439  -6.344  19.691  1.00  0.00     0.093 A 
ATOM     17  C   UNL     1       9.197  -5.174  19.542  1.00  0.00     0.130 A 
BRANCH  15  18
ATOM     18  O   UNL     1       6.338  -7.447  20.120  1.00  0.00    -0.508 OA
ATOM     19  H   UNL     1       6.668  -8.328  19.743  1.00  0.00     0.293 HD
ENDBRANCH  15  18
BRANCH  17  20
ATOM     20  O   UNL     1      10.558  -5.260  19.249  1.00  0.00    -0.507 OA
ATOM     21  H   UNL     1      11.024  -4.562  18.682  1.00  0.00     0.293 HD
ENDBRANCH  17  20
ENDBRANCH   1  12
BRANCH   2  22
ATOM     22  O   UNL     1       7.420  -1.376  18.933  1.00  0.00    -0.502 OA
ATOM     23  H   UNL     1       6.809  -0.683  19.350  1.00  0.00     0.293 HD
ENDBRANCH   2  22
BRANCH   6  24
ATOM     24  O   UNL     1      11.490   2.045  19.273  1.00  0.00    -0.507 OA
ATOM     25  H   UNL     1      11.134   2.453  18.422  1.00  0.00     0.293 HD
ENDBRANCH   6  24
BRANCH   8  26
ATOM     26  O   UNL     1      15.109  -1.026  20.001  1.00  0.00    -0.508 OA
ATOM     27  H   UNL     1      15.686  -0.373  20.519  1.00  0.00     0.293 HD
ENDBRANCH   8  26
TORSDOF 6
ENDMDL
MODEL 6
REMARK VINA RESULT:    -5.013      1.272      3.006
REMARK INTER + INTRA:          -6.102
REMARK INTER:                  -7.362
REMARK INTRA:                   1.260
REMARK UNBOUND:                -0.063
REMARK SMILES O=c1c(O)c(-c2ccc(O)cc2O)oc2cc(O)cc(O)c12
REMARK SMILES IDX 5 1 3 2 2 3 1 4 22 5 20 6 19 7 17 8 16 9 15 10 14 11 6 12
REMARK SMILES IDX 8 13 7 14 9 15 11 16 12 17 10 18 13 20 4 22 21 24 18 26
REMARK H PARENT 10 19 13 21 4 23 21 25 18 27
REMARK Flexibility Score: inf
ROOT
ATOM      1  C   UNL     1       8.275  -1.226  19.337  1.00  0.00     0.184 A 
ATOM      2  C   UNL     1       7.086  -1.923  19.612  1.00  0.00     0.208 A 
ATOM      3  C   UNL     1       7.142  -3.310  19.823  1.00  0.00     0.238 A 
ATOM      4  O   UNL     1       6.083  -3.918  20.124  1.00  0.00    -0.285 OA
ATOM      5  C   UNL     1       8.384  -3.985  19.735  1.00  0.00     0.111 A 
ATOM      6  C   UNL     1       8.552  -5.394  19.891  1.00  0.00     0.134 A 
ATOM      7  C   UNL     1       9.843  -5.937  19.911  1.00  0.00     0.093 A 
ATOM      8  C   UNL     1      10.967  -5.131  19.717  1.00  0.00     0.123 A 
ATOM      9  C   UNL     1      10.809  -3.763  19.505  1.00  0.00     0.094 A 
ATOM     10  C   UNL     1       9.536  -3.187  19.515  1.00  0.00     0.146 A 
ATOM     11  O   UNL     1       9.431  -1.878  19.322  1.00  0.00    -0.451 OA
ENDROOT
BRANCH   1  12
ATOM     12  C   UNL     1       8.284   0.233  19.081  1.00  0.00     0.063 A 
ATOM     13  C   UNL     1       9.321   2.417  19.361  1.00  0.00     0.047 A 
ATOM     14  C   UNL     1       9.325   1.037  19.578  1.00  0.00     0.020 A 
ATOM     15  C   UNL     1       8.270   3.015  18.655  1.00  0.00     0.119 A 
ATOM     16  C   UNL     1       7.224   2.226  18.169  1.00  0.00     0.093 A 
ATOM     17  C   UNL     1       7.221   0.840  18.380  1.00  0.00     0.130 A 
BRANCH  15  18
ATOM     18  O   UNL     1       8.255   4.390  18.433  1.00  0.00    -0.508 OA
ATOM     19  H   UNL     1       7.572   4.820  17.820  1.00  0.00     0.293 HD
ENDBRANCH  15  18
BRANCH  17  20
ATOM     20  O   UNL     1       6.173   0.064  17.885  1.00  0.00    -0.507 OA
ATOM     21  H   UNL     1       5.224   0.417  17.844  1.00  0.00     0.293 HD
ENDBRANCH  17  20
ENDBRANCH   1  12
BRANCH   2  22
ATOM     22  O   UNL     1       5.875  -1.232  19.706  1.00  0.00    -0.502 OA
ATOM     23  H   UNL     1       4.984  -1.706  19.797  1.00  0.00     0.293 HD
ENDBRANCH   2  22
BRANCH   6  24
ATOM     24  O   UNL     1       7.493  -6.300  20.000  1.00  0.00    -0.507 OA
ATOM     25  H   UNL     1       6.602  -6.094  20.427  1.00  0.00     0.293 HD
ENDBRANCH   6  24
BRANCH   8  26
ATOM     26  O   UNL     1      12.246  -5.681  19.723  1.00  0.00    -0.508 OA
ATOM     27  H   UNL     1      12.772  -5.792  20.583  1.00  0.00     0.293 HD
ENDBRANCH   8  26
TORSDOF 6
ENDMDL
MODEL 7
REMARK VINA RESULT:    -4.918      2.401      5.214
REMARK INTER + INTRA:          -5.988
REMARK INTER:                  -5.796
REMARK INTRA:                  -0.192
REMARK UNBOUND:                -0.063
REMARK SMILES O=c1c(O)c(-c2ccc(O)cc2O)oc2cc(O)cc(O)c12
REMARK SMILES IDX 5 1 3 2 2 3 1 4 22 5 20 6 19 7 17 8 16 9 15 10 14 11 6 12
REMARK SMILES IDX 8 13 7 14 9 15 11 16 12 17 10 18 13 20 4 22 21 24 18 26
REMARK H PARENT 10 19 13 21 4 23 21 25 18 27
REMARK Flexibility Score: inf
ROOT
ATOM      1  C   UNL     1      10.819  -0.981  19.175  1.00  0.00     0.184 A 
ATOM      2  C   UNL     1      10.252   0.236  18.761  1.00  0.00     0.208 A 
ATOM      3  C   UNL     1       8.857   0.328  18.630  1.00  0.00     0.238 A 
ATOM      4  O   UNL     1       8.351   1.436  18.314  1.00  0.00    -0.285 OA
ATOM      5  C   UNL     1       8.049  -0.805  18.893  1.00  0.00     0.111 A 
ATOM      6  C   UNL     1       6.629  -0.838  18.753  1.00  0.00     0.134 A 
ATOM      7  C   UNL     1       5.921  -1.974  19.163  1.00  0.00     0.093 A 
ATOM      8  C   UNL     1       6.587  -3.102  19.648  1.00  0.00     0.123 A 
ATOM      9  C   UNL     1       7.977  -3.102  19.732  1.00  0.00     0.094 A 
ATOM     10  C   UNL     1       8.709  -1.970  19.364  1.00  0.00     0.146 A 
ATOM     11  O   UNL     1      10.031  -2.007  19.472  1.00  0.00    -0.451 OA
ENDROOT
BRANCH   1  12
ATOM     12  C   UNL     1      12.284  -1.154  19.311  1.00  0.00     0.063 A 
ATOM     13  C   UNL     1      14.435  -0.357  20.125  1.00  0.00     0.047 A 
ATOM     14  C   UNL     1      13.050  -0.211  20.019  1.00  0.00     0.020 A 
ATOM     15  C   UNL     1      15.076  -1.441  19.515  1.00  0.00     0.119 A 
ATOM     16  C   UNL     1      14.326  -2.376  18.797  1.00  0.00     0.093 A 
ATOM     17  C   UNL     1      12.935  -2.239  18.688  1.00  0.00     0.130 A 
BRANCH  15  18
ATOM     18  O   UNL     1      16.457  -1.597  19.613  1.00  0.00    -0.508 OA
ATOM     19  H   UNL     1      16.870  -2.464  19.938  1.00  0.00     0.293 HD
ENDBRANCH  15  18
BRANCH  17  20
ATOM     20  O   UNL     1      12.197  -3.183  17.973  1.00  0.00    -0.507 OA
ATOM     21  H   UNL     1      12.210  -3.211  16.959  1.00  0.00     0.293 HD
ENDBRANCH  17  20
ENDBRANCH   1  12
BRANCH   2  22
ATOM     22  O   UNL     1      11.068   1.344  18.521  1.00  0.00    -0.502 OA
ATOM     23  H   UNL     1      11.658   1.417  17.701  1.00  0.00     0.293 HD
ENDBRANCH   2  22
BRANCH   6  24
ATOM     24  O   UNL     1       5.875   0.199  18.196  1.00  0.00    -0.507 OA
ATOM     25  H   UNL     1       6.231   1.119  17.984  1.00  0.00     0.293 HD
ENDBRANCH   6  24
BRANCH   8  26
ATOM     26  O   UNL     1       5.875  -4.235  20.039  1.00  0.00    -0.508 OA
ATOM     27  H   UNL     1       5.953  -4.612  20.976  1.00  0.00     0.293 HD
ENDBRANCH   8  26
TORSDOF 6
ENDMDL
