MODEL 1
REMARK VINA RESULT:    -3.994      0.000      0.000
REMARK INTER + INTRA:          -5.925
REMARK INTER:                  -5.395
REMARK INTRA:                  -0.530
REMARK UNBOUND:                -0.530
REMARK SMILES O=C[C@H](O)[C@H](O)[C@H](O)CO
REMARK SMILES IDX 7 1 9 2 10 3 5 5 3 6 2 7 1 8 4 9 6 11 8 13
REMARK H PARENT 10 4 4 10 6 12 8 14
REMARK Flexibility Score: inf
ROOT
ATOM      1  C   UNL     1     100.924 113.152 126.624  1.00  0.00     0.171 C 
ENDROOT
BRANCH   1   2
ATOM      2  C   UNL     1     102.313 112.496 126.573  1.00  0.00     0.190 C 
BRANCH   2   3
ATOM      3  O   UNL     1     102.876 112.473 127.855  1.00  0.00    -0.394 OA
ATOM      4  H   UNL     1     103.159 111.536 128.017  1.00  0.00     0.210 HD
ENDBRANCH   2   3
ENDBRANCH   1   2
BRANCH   1   5
ATOM      5  C   UNL     1     101.041 114.682 126.869  1.00  0.00     0.181 C 
BRANCH   5   6
ATOM      6  C   UNL     1     100.059 115.526 126.010  1.00  0.00     0.209 C 
BRANCH   6   7
ATOM      7  C   UNL     1     100.746 116.160 124.833  1.00  0.00     0.258 C 
ATOM      8  O   UNL     1     101.302 115.467 123.995  1.00  0.00    -0.300 OA
ENDBRANCH   6   7
BRANCH   6   9
ATOM      9  O   UNL     1      99.455 116.533 126.784  1.00  0.00    -0.383 OA
ATOM     10  H   UNL     1      98.493 116.552 126.541  1.00  0.00     0.211 HD
ENDBRANCH   6   9
ENDBRANCH   5   6
BRANCH   5  11
ATOM     11  O   UNL     1     102.358 115.125 126.650  1.00  0.00    -0.387 OA
ATOM     12  H   UNL     1     102.383 115.579 125.767  1.00  0.00     0.211 HD
ENDBRANCH   5  11
ENDBRANCH   1   5
BRANCH   1  13
ATOM     13  O   UNL     1     100.176 112.563 127.658  1.00  0.00    -0.388 OA
ATOM     14  H   UNL     1     100.689 112.692 128.498  1.00  0.00     0.211 HD
ENDBRANCH   1  13
TORSDOF 8
ENDMDL
MODEL 2
REMARK VINA RESULT:    -3.963      1.181      2.407
REMARK INTER + INTRA:          -5.883
REMARK INTER:                  -5.381
REMARK INTRA:                  -0.501
REMARK UNBOUND:                -0.530
REMARK SMILES O=C[C@H](O)[C@H](O)[C@H](O)CO
REMARK SMILES IDX 7 1 9 2 10 3 5 5 3 6 2 7 1 8 4 9 6 11 8 13
REMARK H PARENT 10 4 4 10 6 12 8 14
REMARK Flexibility Score: inf
ROOT
ATOM      1  C   UNL     1     102.026 112.107 126.886  1.00  0.00     0.171 C 
ENDROOT
BRANCH   1   2
ATOM      2  C   UNL     1     102.846 111.628 125.677  1.00  0.00     0.190 C 
BRANCH   2   3
ATOM      3  O   UNL     1     103.834 110.728 126.098  1.00  0.00    -0.394 OA
ATOM      4  H   UNL     1     103.814 109.974 125.454  1.00  0.00     0.210 HD
ENDBRANCH   2   3
ENDBRANCH   1   2
BRANCH   1   5
ATOM      5  C   UNL     1     100.945 113.135 126.452  1.00  0.00     0.181 C 
BRANCH   5   6
ATOM      6  C   UNL     1     101.256 114.591 126.896  1.00  0.00     0.209 C 
BRANCH   6   7
ATOM      7  C   UNL     1     100.157 115.542 126.510  1.00  0.00     0.258 C 
ATOM      8  O   UNL     1      99.475 115.328 125.519  1.00  0.00    -0.300 OA
ENDBRANCH   6   7
BRANCH   6   9
ATOM      9  O   UNL     1     102.465 115.037 126.335  1.00  0.00    -0.383 OA
ATOM     10  H   UNL     1     102.294 115.215 125.373  1.00  0.00     0.211 HD
ENDBRANCH   6   9
ENDBRANCH   5   6
BRANCH   5  11
ATOM     11  O   UNL     1      99.675 112.758 126.928  1.00  0.00    -0.387 OA
ATOM     12  H   UNL     1      99.469 113.323 127.719  1.00  0.00     0.211 HD
ENDBRANCH   5  11
ENDBRANCH   1   5
BRANCH   1  13
ATOM     13  O   UNL     1     102.892 112.698 127.822  1.00  0.00    -0.388 OA
ATOM     14  H   UNL     1     103.336 113.460 127.367  1.00  0.00     0.211 HD
ENDBRANCH   1  13
TORSDOF 8
ENDMDL
MODEL 3
REMARK VINA RESULT:    -3.952      1.764      4.288
REMARK INTER + INTRA:          -5.868
REMARK INTER:                  -5.294
REMARK INTRA:                  -0.574
REMARK UNBOUND:                -0.530
REMARK SMILES O=C[C@H](O)[C@H](O)[C@H](O)CO
REMARK SMILES IDX 7 1 9 2 10 3 5 5 3 6 2 7 1 8 4 9 6 11 8 13
REMARK H PARENT 10 4 4 10 6 12 8 14
REMARK Flexibility Score: inf
ROOT
ATOM      1  C   UNL     1     100.106 117.518 126.389  1.00  0.00     0.171 C 
ENDROOT
BRANCH   1   2
ATOM      2  C   UNL     1     100.045 118.060 124.952  1.00  0.00     0.190 C 
BRANCH   2   3
ATOM      3  O   UNL     1      98.719 118.357 124.611  1.00  0.00    -0.394 OA
ATOM      4  H   UNL     1      98.153 117.734 125.137  1.00  0.00     0.210 HD
ENDBRANCH   2   3
ENDBRANCH   1   2
BRANCH   1   5
ATOM      5  C   UNL     1      99.877 115.981 126.413  1.00  0.00     0.181 C 
BRANCH   5   6
ATOM      6  C   UNL     1     101.179 115.160 126.626  1.00  0.00     0.209 C 
BRANCH   6   7
ATOM      7  C   UNL     1     101.639 114.499 125.356  1.00  0.00     0.258 C 
ATOM      8  O   UNL     1     102.091 115.168 124.439  1.00  0.00    -0.300 OA
ENDBRANCH   6   7
BRANCH   6   9
ATOM      9  O   UNL     1     100.995 114.177 127.613  1.00  0.00    -0.383 OA
ATOM     10  H   UNL     1     101.665 113.464 127.444  1.00  0.00     0.211 HD
ENDBRANCH   6   9
ENDBRANCH   5   6
BRANCH   5  11
ATOM     11  O   UNL     1      99.237 115.552 125.235  1.00  0.00    -0.387 OA
ATOM     12  H   UNL     1      98.895 114.633 125.394  1.00  0.00     0.211 HD
ENDBRANCH   5  11
ENDBRANCH   1   5
BRANCH   1  13
ATOM     13  O   UNL     1      99.121 118.155 127.162  1.00  0.00    -0.388 OA
ATOM     14  H   UNL     1      99.520 118.331 128.055  1.00  0.00     0.211 HD
ENDBRANCH   1  13
TORSDOF 8
ENDMDL
MODEL 4
REMARK VINA RESULT:    -3.888      1.904      2.507
REMARK INTER + INTRA:          -5.781
REMARK INTER:                  -5.445
REMARK INTRA:                  -0.336
REMARK UNBOUND:                -0.530
REMARK SMILES O=C[C@H](O)[C@H](O)[C@H](O)CO
REMARK SMILES IDX 7 1 9 2 10 3 5 5 3 6 2 7 1 8 4 9 6 11 8 13
REMARK H PARENT 10 4 4 10 6 12 8 14
REMARK Flexibility Score: inf
ROOT
ATOM      1  C   UNL     1     102.374 113.365 126.651  1.00  0.00     0.171 C 
ENDROOT
BRANCH   1   2
ATOM      2  C   UNL     1     102.985 114.772 126.745  1.00  0.00     0.190 C 
BRANCH   2   3
ATOM      3  O   UNL     1     103.426 115.014 128.053  1.00  0.00    -0.394 OA
ATOM      4  H   UNL     1     103.117 114.243 128.596  1.00  0.00     0.210 HD
ENDBRANCH   2   3
ENDBRANCH   1   2
BRANCH   1   5
ATOM      5  C   UNL     1     100.823 113.426 126.727  1.00  0.00     0.181 C 
BRANCH   5   6
ATOM      6  C   UNL     1     100.135 113.524 125.337  1.00  0.00     0.209 C 
BRANCH   6   7
ATOM      7  C   UNL     1     100.986 112.933 124.248  1.00  0.00     0.258 C 
ATOM      8  O   UNL     1     100.605 111.950 123.630  1.00  0.00    -0.300 OA
ENDBRANCH   6   7
BRANCH   6   9
ATOM      9  O   UNL     1      99.844 114.862 125.016  1.00  0.00    -0.383 OA
ATOM     10  H   UNL     1      99.303 115.230 125.762  1.00  0.00     0.211 HD
ENDBRANCH   6   9
ENDBRANCH   5   6
BRANCH   5  11
ATOM     11  O   UNL     1     100.403 114.498 127.537  1.00  0.00    -0.387 OA
ATOM     12  H   UNL     1      99.433 114.637 127.376  1.00  0.00     0.211 HD
ENDBRANCH   5  11
ENDBRANCH   1   5
BRANCH   1  13
ATOM     13  O   UNL     1     102.868 112.580 127.706  1.00  0.00    -0.388 OA
ATOM     14  H   UNL     1     103.476 111.903 127.306  1.00  0.00     0.211 HD
ENDBRANCH   1  13
TORSDOF 8
ENDMDL
MODEL 5
REMARK VINA RESULT:    -3.860      1.154      1.395
REMARK INTER + INTRA:          -5.744
REMARK INTER:                  -5.438
REMARK INTRA:                  -0.306
REMARK UNBOUND:                -0.530
REMARK SMILES O=C[C@H](O)[C@H](O)[C@H](O)CO
REMARK SMILES IDX 7 1 9 2 10 3 5 5 3 6 2 7 1 8 4 9 6 11 8 13
REMARK H PARENT 10 4 4 10 6 12 8 14
REMARK Flexibility Score: inf
ROOT
ATOM      1  C   UNL     1     100.931 113.524 126.565  1.00  0.00     0.171 C 
ENDROOT
BRANCH   1   2
ATOM      2  C   UNL     1     102.330 112.914 126.379  1.00  0.00     0.190 C 
BRANCH   2   3
ATOM      3  O   UNL     1     102.875 112.582 127.626  1.00  0.00    -0.394 OA
ATOM      4  H   UNL     1     103.116 113.441 128.060  1.00  0.00     0.210 HD
ENDBRANCH   2   3
ENDBRANCH   1   2
BRANCH   1   5
ATOM      5  C   UNL     1     101.024 115.044 126.873  1.00  0.00     0.181 C 
BRANCH   5   6
ATOM      6  C   UNL     1     100.401 115.941 125.767  1.00  0.00     0.209 C 
BRANCH   6   7
ATOM      7  C   UNL     1     100.250 117.367 126.222  1.00  0.00     0.258 C 
ATOM      8  O   UNL     1     100.095 118.263 125.406  1.00  0.00    -0.300 OA
ENDBRANCH   6   7
BRANCH   6   9
ATOM      9  O   UNL     1      99.144 115.451 125.374  1.00  0.00    -0.383 OA
ATOM     10  H   UNL     1      98.470 115.850 125.984  1.00  0.00     0.211 HD
ENDBRANCH   6   9
ENDBRANCH   5   6
BRANCH   5  11
ATOM     11  O   UNL     1     102.359 115.430 127.096  1.00  0.00    -0.387 OA
ATOM     12  H   UNL     1     102.840 114.650 127.478  1.00  0.00     0.211 HD
ENDBRANCH   5  11
ENDBRANCH   1   5
BRANCH   1  13
ATOM     13  O   UNL     1     100.282 112.866 127.624  1.00  0.00    -0.388 OA
ATOM     14  H   UNL     1     100.944 112.249 128.034  1.00  0.00     0.211 HD
ENDBRANCH   1  13
TORSDOF 8
ENDMDL
MODEL 6
REMARK VINA RESULT:    -3.838      1.364      3.621
REMARK INTER + INTRA:          -5.715
REMARK INTER:                  -4.948
REMARK INTRA:                  -0.766
REMARK UNBOUND:                -0.530
REMARK SMILES O=C[C@H](O)[C@H](O)[C@H](O)CO
REMARK SMILES IDX 7 1 9 2 10 3 5 5 3 6 2 7 1 8 4 9 6 11 8 13
REMARK H PARENT 10 4 4 10 6 12 8 14
REMARK Flexibility Score: inf
ROOT
ATOM      1  C   UNL     1     100.863 115.874 125.723  1.00  0.00     0.171 C 
ENDROOT
BRANCH   1   2
ATOM      2  C   UNL     1     101.400 115.296 124.404  1.00  0.00     0.190 C 
BRANCH   2   3
ATOM      3  O   UNL     1     100.648 114.173 124.035  1.00  0.00    -0.394 OA
ATOM      4  H   UNL     1     101.038 113.405 124.527  1.00  0.00     0.210 HD
ENDBRANCH   2   3
ENDBRANCH   1   2
BRANCH   1   5
ATOM      5  C   UNL     1     101.081 114.878 126.895  1.00  0.00     0.181 C 
BRANCH   5   6
ATOM      6  C   UNL     1     102.450 114.143 126.842  1.00  0.00     0.209 C 
BRANCH   6   7
ATOM      7  C   UNL     1     102.284 112.649 126.866  1.00  0.00     0.258 C 
ATOM      8  O   UNL     1     101.888 112.055 125.875  1.00  0.00    -0.300 OA
ENDBRANCH   6   7
BRANCH   6   9
ATOM      9  O   UNL     1     103.268 114.531 127.917  1.00  0.00    -0.383 OA
ATOM     10  H   UNL     1     102.930 114.065 128.725  1.00  0.00     0.211 HD
ENDBRANCH   6   9
ENDBRANCH   5   6
BRANCH   5  11
ATOM     11  O   UNL     1     100.041 113.932 126.949  1.00  0.00    -0.387 OA
ATOM     12  H   UNL     1     100.202 113.263 126.234  1.00  0.00     0.211 HD
ENDBRANCH   5  11
ENDBRANCH   1   5
BRANCH   1  13
ATOM     13  O   UNL     1      99.492 116.144 125.580  1.00  0.00    -0.388 OA
ATOM     14  H   UNL     1      99.014 115.277 125.655  1.00  0.00     0.211 HD
ENDBRANCH   1  13
TORSDOF 8
ENDMDL
MODEL 7
REMARK VINA RESULT:    -3.821      1.412      3.699
REMARK INTER + INTRA:          -5.692
REMARK INTER:                  -4.913
REMARK INTRA:                  -0.779
REMARK UNBOUND:                -0.530
REMARK SMILES O=C[C@H](O)[C@H](O)[C@H](O)CO
REMARK SMILES IDX 7 1 9 2 10 3 5 5 3 6 2 7 1 8 4 9 6 11 8 13
REMARK H PARENT 10 4 4 10 6 12 8 14
REMARK Flexibility Score: inf
ROOT
ATOM      1  C   UNL     1     100.817 115.077 126.671  1.00  0.00     0.171 C 
ENDROOT
BRANCH   1   2
ATOM      2  C   UNL     1     101.352 115.409 125.269  1.00  0.00     0.190 C 
BRANCH   2   3
ATOM      3  O   UNL     1     100.533 114.822 124.296  1.00  0.00    -0.394 OA
ATOM      4  H   UNL     1      99.834 114.318 124.789  1.00  0.00     0.210 HD
ENDBRANCH   2   3
ENDBRANCH   1   2
BRANCH   1   5
ATOM      5  C   UNL     1     100.877 113.549 126.942  1.00  0.00     0.181 C 
BRANCH   5   6
ATOM      6  C   UNL     1     102.269 112.920 126.654  1.00  0.00     0.209 C 
BRANCH   6   7
ATOM      7  C   UNL     1     102.183 111.804 125.650  1.00  0.00     0.258 C 
ATOM      8  O   UNL     1     101.967 112.048 124.472  1.00  0.00    -0.300 OA
ENDBRANCH   6   7
BRANCH   6   9
ATOM      9  O   UNL     1     102.850 112.428 127.836  1.00  0.00    -0.383 OA
ATOM     10  H   UNL     1     102.999 113.207 128.434  1.00  0.00     0.211 HD
ENDBRANCH   6   9
ENDBRANCH   5   6
BRANCH   5  11
ATOM     11  O   UNL     1      99.892 112.869 126.202  1.00  0.00    -0.387 OA
ATOM     12  H   UNL     1     100.068 113.034 125.239  1.00  0.00     0.211 HD
ENDBRANCH   5  11
ENDBRANCH   1   5
BRANCH   1  13
ATOM     13  O   UNL     1      99.488 115.524 126.772  1.00  0.00    -0.388 OA
ATOM     14  H   UNL     1      98.904 114.732 126.639  1.00  0.00     0.211 HD
ENDBRANCH   1  13
TORSDOF 8
ENDMDL
MODEL 8
REMARK VINA RESULT:    -3.809      1.580      3.920
REMARK INTER + INTRA:          -5.676
REMARK INTER:                  -5.173
REMARK INTRA:                  -0.502
REMARK UNBOUND:                -0.530
REMARK SMILES O=C[C@H](O)[C@H](O)[C@H](O)CO
REMARK SMILES IDX 7 1 9 2 10 3 5 5 3 6 2 7 1 8 4 9 6 11 8 13
REMARK H PARENT 10 4 4 10 6 12 8 14
REMARK Flexibility Score: inf
ROOT
ATOM      1  C   UNL     1     100.950 114.229 126.965  1.00  0.00     0.171 C 
ENDROOT
BRANCH   1   2
ATOM      2  C   UNL     1     100.857 115.516 126.131  1.00  0.00     0.190 C 
BRANCH   2   3
ATOM      3  O   UNL     1      99.575 116.068 126.247  1.00  0.00    -0.394 OA
ATOM      4  H   UNL     1      99.056 115.728 125.472  1.00  0.00     0.210 HD
ENDBRANCH   2   3
ENDBRANCH   1   2
BRANCH   1   5
ATOM      5  C   UNL     1     102.187 113.385 126.549  1.00  0.00     0.181 C 
BRANCH   5   6
ATOM      6  C   UNL     1     101.828 112.120 125.722  1.00  0.00     0.209 C 
BRANCH   6   7
ATOM      7  C   UNL     1     103.039 111.277 125.433  1.00  0.00     0.258 C 
ATOM      8  O   UNL     1     103.419 110.443 126.241  1.00  0.00    -0.300 OA
ENDBRANCH   6   7
BRANCH   6   9
ATOM      9  O   UNL     1     101.216 112.474 124.507  1.00  0.00    -0.383 OA
ATOM     10  H   UNL     1     101.572 113.363 124.248  1.00  0.00     0.211 HD
ENDBRANCH   6   9
ENDBRANCH   5   6
BRANCH   5  11
ATOM     11  O   UNL     1     102.941 113.012 127.677  1.00  0.00    -0.387 OA
ATOM     12  H   UNL     1     103.886 112.911 127.390  1.00  0.00     0.211 HD
ENDBRANCH   5  11
ENDBRANCH   1   5
BRANCH   1  13
ATOM     13  O   UNL     1      99.779 113.475 126.776  1.00  0.00    -0.388 OA
ATOM     14  H   UNL     1      99.011 114.077 126.963  1.00  0.00     0.211 HD
ENDBRANCH   1  13
TORSDOF 8
ENDMDL
MODEL 9
REMARK VINA RESULT:    -3.805      1.505      2.210
REMARK INTER + INTRA:          -5.670
REMARK INTER:                  -4.983
REMARK INTRA:                  -0.687
REMARK UNBOUND:                -0.530
REMARK SMILES O=C[C@H](O)[C@H](O)[C@H](O)CO
REMARK SMILES IDX 7 1 9 2 10 3 5 5 3 6 2 7 1 8 4 9 6 11 8 13
REMARK H PARENT 10 4 4 10 6 12 8 14
REMARK Flexibility Score: inf
ROOT
ATOM      1  C   UNL     1     101.902 112.565 125.493  1.00  0.00     0.171 C 
ENDROOT
BRANCH   1   2
ATOM      2  C   UNL     1     102.472 111.779 126.685  1.00  0.00     0.190 C 
BRANCH   2   3
ATOM      3  O   UNL     1     102.912 112.668 127.675  1.00  0.00    -0.394 OA
ATOM      4  H   UNL     1     103.771 112.305 128.011  1.00  0.00     0.210 HD
ENDBRANCH   2   3
ENDBRANCH   1   2
BRANCH   1   5
ATOM      5  C   UNL     1     100.558 113.247 125.869  1.00  0.00     0.181 C 
BRANCH   5   6
ATOM      6  C   UNL     1     100.535 114.775 125.586  1.00  0.00     0.209 C 
BRANCH   6   7
ATOM      7  C   UNL     1     101.094 115.567 126.736  1.00  0.00     0.258 C 
ATOM      8  O   UNL     1     102.253 115.411 127.088  1.00  0.00    -0.300 OA
ENDBRANCH   6   7
BRANCH   6   9
ATOM      9  O   UNL     1      99.226 115.215 125.320  1.00  0.00    -0.383 OA
ATOM     10  H   UNL     1      98.941 114.787 124.472  1.00  0.00     0.211 HD
ENDBRANCH   6   9
ENDBRANCH   5   6
BRANCH   5  11
ATOM     11  O   UNL     1     100.238 113.014 127.220  1.00  0.00    -0.387 OA
ATOM     12  H   UNL     1      99.301 112.688 127.257  1.00  0.00     0.211 HD
ENDBRANCH   5  11
ENDBRANCH   1   5
BRANCH   1  13
ATOM     13  O   UNL     1     101.700 111.683 124.418  1.00  0.00    -0.388 OA
ATOM     14  H   UNL     1     101.289 112.209 123.683  1.00  0.00     0.211 HD
ENDBRANCH   1  13
TORSDOF 8
ENDMDL
