MODEL 1
REMARK VINA RESULT:    -4.419      0.000      0.000
REMARK INTER + INTRA:          -4.548
REMARK INTER:                  -4.548
REMARK INTRA:                   0.000
REMARK UNBOUND:                 0.000
REMARK SMILES CC1(C)[C@H]2CC[C@](C)(C2)[C@H]1O
REMARK SMILES IDX 1 1 2 2 4 3 5 4 6 5 7 6 9 7 10 8 8 9 3 10 11 11
REMARK H PARENT 11 12
REMARK Flexibility Score: inf
ROOT
ATOM      1  C   UNL     1     183.591 187.892 189.101  1.00  0.00     0.014 C 
ATOM      2  C   UNL     1     184.872 188.738 189.315  1.00  0.00    -0.006 C 
ATOM      3  C   UNL     1     185.570 189.157 187.974  1.00  0.00    -0.002 C 
ATOM      4  C   UNL     1     184.554 189.764 186.984  1.00  0.00     0.005 C 
ATOM      5  C   UNL     1     184.167 191.088 187.661  1.00  0.00     0.010 C 
ATOM      6  C   UNL     1     185.098 191.124 188.896  1.00  0.00    -0.006 C 
ATOM      7  C   UNL     1     186.327 190.413 188.372  1.00  0.00     0.013 C 
ATOM      8  C   UNL     1     184.602 190.130 189.978  1.00  0.00     0.126 C 
ATOM      9  C   UNL     1     185.372 192.535 189.426  1.00  0.00     0.014 C 
ATOM     10  C   UNL     1     185.843 187.895 190.178  1.00  0.00     0.014 C 
ENDROOT
BRANCH   8  11
ATOM     11  O   UNL     1     183.251 190.353 190.295  1.00  0.00    -0.392 OA
ATOM     12  H   UNL     1     182.787 190.538 189.436  1.00  0.00     0.211 HD
ENDBRANCH   8  11
TORSDOF 1
ENDMDL
MODEL 2
REMARK VINA RESULT:    -4.334      1.462      3.430
REMARK INTER + INTRA:          -4.460
REMARK INTER:                  -4.460
REMARK INTRA:                   0.000
REMARK UNBOUND:                 0.000
REMARK SMILES CC1(C)[C@H]2CC[C@](C)(C2)[C@H]1O
REMARK SMILES IDX 1 1 2 2 4 3 5 4 6 5 7 6 9 7 10 8 8 9 3 10 11 11
REMARK H PARENT 11 12
REMARK Flexibility Score: inf
ROOT
ATOM      1  C   UNL     1     185.314 192.525 187.728  1.00  0.00     0.014 C 
ATOM      2  C   UNL     1     185.707 191.027 187.649  1.00  0.00    -0.006 C 
ATOM      3  C   UNL     1     186.146 190.429 189.032  1.00  0.00    -0.002 C 
ATOM      4  C   UNL     1     185.125 190.772 190.137  1.00  0.00     0.005 C 
ATOM      5  C   UNL     1     183.890 189.955 189.724  1.00  0.00     0.010 C 
ATOM      6  C   UNL     1     184.401 189.159 188.500  1.00  0.00    -0.006 C 
ATOM      7  C   UNL     1     185.855 188.948 188.860  1.00  0.00     0.013 C 
ATOM      8  C   UNL     1     184.519 190.086 187.262  1.00  0.00     0.126 C 
ATOM      9  C   UNL     1     183.628 187.863 188.236  1.00  0.00     0.014 C 
ATOM     10  C   UNL     1     186.863 190.906 186.627  1.00  0.00     0.014 C 
ENDROOT
BRANCH   8  11
ATOM     11  O   UNL     1     183.313 190.767 187.018  1.00  0.00    -0.392 OA
ATOM     12  H   UNL     1     183.121 190.661 186.050  1.00  0.00     0.211 HD
ENDBRANCH   8  11
TORSDOF 1
ENDMDL
MODEL 3
REMARK VINA RESULT:    -4.332      1.830      3.104
REMARK INTER + INTRA:          -4.459
REMARK INTER:                  -4.459
REMARK INTRA:                   0.000
REMARK UNBOUND:                 0.000
REMARK SMILES CC1(C)[C@H]2CC[C@](C)(C2)[C@H]1O
REMARK SMILES IDX 1 1 2 2 4 3 5 4 6 5 7 6 9 7 10 8 8 9 3 10 11 11
REMARK H PARENT 11 12
REMARK Flexibility Score: inf
ROOT
ATOM      1  C   UNL     1     186.020 191.072 190.849  1.00  0.00     0.014 C 
ATOM      2  C   UNL     1     185.044 190.621 189.731  1.00  0.00    -0.006 C 
ATOM      3  C   UNL     1     184.519 191.810 188.852  1.00  0.00    -0.002 C 
ATOM      4  C   UNL     1     185.681 192.705 188.373  1.00  0.00     0.005 C 
ATOM      5  C   UNL     1     186.435 191.790 187.395  1.00  0.00     0.010 C 
ATOM      6  C   UNL     1     185.542 190.527 187.351  1.00  0.00    -0.006 C 
ATOM      7  C   UNL     1     184.164 191.123 187.544  1.00  0.00     0.013 C 
ATOM      8  C   UNL     1     185.707 189.701 188.653  1.00  0.00     0.126 C 
ATOM      9  C   UNL     1     185.692 189.705 186.068  1.00  0.00     0.014 C 
ATOM     10  C   UNL     1     183.857 189.903 190.417  1.00  0.00     0.014 C 
ENDROOT
BRANCH   8  11
ATOM     11  O   UNL     1     187.060 189.415 188.907  1.00  0.00    -0.392 OA
ATOM     12  H   UNL     1     187.101 189.043 189.827  1.00  0.00     0.211 HD
ENDBRANCH   8  11
TORSDOF 1
ENDMDL
MODEL 4
REMARK VINA RESULT:    -4.319      7.447      9.735
REMARK INTER + INTRA:          -4.445
REMARK INTER:                  -4.445
REMARK INTRA:                   0.000
REMARK UNBOUND:                 0.000
REMARK SMILES CC1(C)[C@H]2CC[C@](C)(C2)[C@H]1O
REMARK SMILES IDX 1 1 2 2 4 3 5 4 6 5 7 6 9 7 10 8 8 9 3 10 11 11
REMARK H PARENT 11 12
REMARK Flexibility Score: inf
ROOT
ATOM      1  C   UNL     1     187.057 183.553 191.384  1.00  0.00     0.014 C 
ATOM      2  C   UNL     1     186.952 182.024 191.619  1.00  0.00    -0.006 C 
ATOM      3  C   UNL     1     187.799 181.526 192.841  1.00  0.00    -0.002 C 
ATOM      4  C   UNL     1     187.535 182.391 194.092  1.00  0.00     0.005 C 
ATOM      5  C   UNL     1     186.081 182.041 194.446  1.00  0.00     0.010 C 
ATOM      6  C   UNL     1     185.737 180.933 193.422  1.00  0.00    -0.006 C 
ATOM      7  C   UNL     1     187.077 180.253 193.249  1.00  0.00     0.013 C 
ATOM      8  C   UNL     1     185.516 181.546 192.015  1.00  0.00     0.126 C 
ATOM      9  C   UNL     1     184.614 179.996 193.876  1.00  0.00     0.014 C 
ATOM     10  C   UNL     1     187.429 181.325 190.323  1.00  0.00     0.014 C 
ENDROOT
BRANCH   8  11
ATOM     11  O   UNL     1     184.565 182.582 192.054  1.00  0.00    -0.392 OA
ATOM     12  H   UNL     1     184.888 183.235 192.728  1.00  0.00     0.211 HD
ENDBRANCH   8  11
TORSDOF 1
ENDMDL
MODEL 5
REMARK VINA RESULT:    -4.312      1.264      2.230
REMARK INTER + INTRA:          -4.438
REMARK INTER:                  -4.438
REMARK INTRA:                   0.000
REMARK UNBOUND:                 0.000
REMARK SMILES CC1(C)[C@H]2CC[C@](C)(C2)[C@H]1O
REMARK SMILES IDX 1 1 2 2 4 3 5 4 6 5 7 6 9 7 10 8 8 9 3 10 11 11
REMARK H PARENT 11 12
REMARK Flexibility Score: inf
ROOT
ATOM      1  C   UNL     1     184.247 190.361 187.264  1.00  0.00     0.014 C 
ATOM      2  C   UNL     1     185.324 190.165 188.362  1.00  0.00    -0.006 C 
ATOM      3  C   UNL     1     186.497 191.203 188.271  1.00  0.00    -0.002 C 
ATOM      4  C   UNL     1     185.959 192.643 188.145  1.00  0.00     0.005 C 
ATOM      5  C   UNL     1     185.317 192.889 189.519  1.00  0.00     0.010 C 
ATOM      6  C   UNL     1     185.672 191.599 190.297  1.00  0.00    -0.006 C 
ATOM      7  C   UNL     1     187.016 191.243 189.698  1.00  0.00     0.013 C 
ATOM      8  C   UNL     1     184.794 190.416 189.813  1.00  0.00     0.126 C 
ATOM      9  C   UNL     1     185.693 191.778 191.818  1.00  0.00     0.014 C 
ATOM     10  C   UNL     1     185.875 188.726 188.216  1.00  0.00     0.014 C 
ENDROOT
BRANCH   8  11
ATOM     11  O   UNL     1     183.427 190.739 189.869  1.00  0.00    -0.392 OA
ATOM     12  H   UNL     1     182.931 189.883 189.781  1.00  0.00     0.211 HD
ENDBRANCH   8  11
TORSDOF 1
ENDMDL
MODEL 6
REMARK VINA RESULT:    -4.273      1.395      3.272
REMARK INTER + INTRA:          -4.398
REMARK INTER:                  -4.398
REMARK INTRA:                   0.000
REMARK UNBOUND:                 0.000
REMARK SMILES CC1(C)[C@H]2CC[C@](C)(C2)[C@H]1O
REMARK SMILES IDX 1 1 2 2 4 3 5 4 6 5 7 6 9 7 10 8 8 9 3 10 11 11
REMARK H PARENT 11 12
REMARK Flexibility Score: inf
ROOT
ATOM      1  C   UNL     1     185.652 191.863 191.217  1.00  0.00     0.014 C 
ATOM      2  C   UNL     1     185.642 192.164 189.696  1.00  0.00    -0.006 C 
ATOM      3  C   UNL     1     186.849 191.517 188.929  1.00  0.00    -0.002 C 
ATOM      4  C   UNL     1     187.003 190.025 189.292  1.00  0.00     0.005 C 
ATOM      5  C   UNL     1     185.750 189.391 188.668  1.00  0.00     0.010 C 
ATOM      6  C   UNL     1     185.097 190.583 187.929  1.00  0.00    -0.006 C 
ATOM      7  C   UNL     1     186.310 191.386 187.515  1.00  0.00     0.013 C 
ATOM      8  C   UNL     1     184.420 191.544 188.941  1.00  0.00     0.126 C 
ATOM      9  C   UNL     1     184.193 190.170 186.763  1.00  0.00     0.014 C 
ATOM     10  C   UNL     1     185.671 193.703 189.530  1.00  0.00     0.014 C 
ENDROOT
BRANCH   8  11
ATOM     11  O   UNL     1     183.527 190.854 189.780  1.00  0.00    -0.392 OA
ATOM     12  H   UNL     1     183.221 191.506 190.463  1.00  0.00     0.211 HD
ENDBRANCH   8  11
TORSDOF 1
ENDMDL
MODEL 7
REMARK VINA RESULT:    -4.176      1.117      3.378
REMARK INTER + INTRA:          -4.298
REMARK INTER:                  -4.298
REMARK INTRA:                   0.000
REMARK UNBOUND:                 0.000
REMARK SMILES CC1(C)[C@H]2CC[C@](C)(C2)[C@H]1O
REMARK SMILES IDX 1 1 2 2 4 3 5 4 6 5 7 6 9 7 10 8 8 9 3 10 11 11
REMARK H PARENT 11 12
REMARK Flexibility Score: inf
ROOT
ATOM      1  C   UNL     1     185.368 191.238 191.557  1.00  0.00     0.014 C 
ATOM      2  C   UNL     1     185.116 190.770 190.100  1.00  0.00    -0.006 C 
ATOM      3  C   UNL     1     186.255 189.849 189.540  1.00  0.00    -0.002 C 
ATOM      4  C   UNL     1     186.595 188.717 190.532  1.00  0.00     0.005 C 
ATOM      5  C   UNL     1     185.329 187.846 190.501  1.00  0.00     0.010 C 
ATOM      6  C   UNL     1     184.472 188.529 189.409  1.00  0.00    -0.006 C 
ATOM      7  C   UNL     1     185.537 189.048 188.468  1.00  0.00     0.013 C 
ATOM      8  C   UNL     1     183.861 189.849 189.945  1.00  0.00     0.126 C 
ATOM      9  C   UNL     1     183.455 187.595 188.746  1.00  0.00     0.014 C 
ATOM     10  C   UNL     1     184.981 192.040 189.225  1.00  0.00     0.014 C 
ENDROOT
BRANCH   8  11
ATOM     11  O   UNL     1     183.162 189.636 191.146  1.00  0.00    -0.392 OA
ATOM     12  H   UNL     1     182.279 189.258 190.895  1.00  0.00     0.211 HD
ENDBRANCH   8  11
TORSDOF 1
ENDMDL
MODEL 8
REMARK VINA RESULT:    -4.141      1.858      3.728
REMARK INTER + INTRA:          -4.262
REMARK INTER:                  -4.262
REMARK INTRA:                   0.000
REMARK UNBOUND:                 0.000
REMARK SMILES CC1(C)[C@H]2CC[C@](C)(C2)[C@H]1O
REMARK SMILES IDX 1 1 2 2 4 3 5 4 6 5 7 6 9 7 10 8 8 9 3 10 11 11
REMARK H PARENT 11 12
REMARK Flexibility Score: inf
ROOT
ATOM      1  C   UNL     1     187.912 192.742 189.176  1.00  0.00     0.014 C 
ATOM      2  C   UNL     1     186.364 192.736 189.253  1.00  0.00    -0.006 C 
ATOM      3  C   UNL     1     185.681 192.193 187.950  1.00  0.00    -0.002 C 
ATOM      4  C   UNL     1     186.310 190.856 187.506  1.00  0.00     0.005 C 
ATOM      5  C   UNL     1     185.871 189.888 188.617  1.00  0.00     0.010 C 
ATOM      6  C   UNL     1     184.950 190.770 189.494  1.00  0.00    -0.006 C 
ATOM      7  C   UNL     1     184.340 191.693 188.461  1.00  0.00     0.013 C 
ATOM      8  C   UNL     1     185.792 191.762 190.337  1.00  0.00     0.126 C 
ATOM      9  C   UNL     1     183.923 189.977 190.307  1.00  0.00     0.014 C 
ATOM     10  C   UNL     1     185.910 194.191 189.524  1.00  0.00     0.014 C 
ENDROOT
BRANCH   8  11
ATOM     11  O   UNL     1     186.784 191.091 191.074  1.00  0.00    -0.392 OA
ATOM     12  H   UNL     1     186.864 191.571 191.940  1.00  0.00     0.211 HD
ENDBRANCH   8  11
TORSDOF 1
ENDMDL
MODEL 9
REMARK VINA RESULT:    -4.129      1.902      3.235
REMARK INTER + INTRA:          -4.249
REMARK INTER:                  -4.249
REMARK INTRA:                   0.000
REMARK UNBOUND:                 0.000
REMARK SMILES CC1(C)[C@H]2CC[C@](C)(C2)[C@H]1O
REMARK SMILES IDX 1 1 2 2 4 3 5 4 6 5 7 6 9 7 10 8 8 9 3 10 11 11
REMARK H PARENT 11 12
REMARK Flexibility Score: inf
ROOT
ATOM      1  C   UNL     1     184.574 186.397 191.180  1.00  0.00     0.014 C 
ATOM      2  C   UNL     1     183.769 187.633 190.701  1.00  0.00    -0.006 C 
ATOM      3  C   UNL     1     184.263 188.979 191.338  1.00  0.00    -0.002 C 
ATOM      4  C   UNL     1     185.795 189.121 191.221  1.00  0.00     0.005 C 
ATOM      5  C   UNL     1     186.006 189.296 189.709  1.00  0.00     0.010 C 
ATOM      6  C   UNL     1     184.559 189.347 189.166  1.00  0.00    -0.006 C 
ATOM      7  C   UNL     1     183.827 190.011 190.313  1.00  0.00     0.013 C 
ATOM      8  C   UNL     1     183.927 187.931 189.173  1.00  0.00     0.126 C 
ATOM      9  C   UNL     1     184.423 190.083 187.830  1.00  0.00     0.014 C 
ATOM     10  C   UNL     1     182.285 187.386 191.066  1.00  0.00     0.014 C 
ENDROOT
BRANCH   8  11
ATOM     11  O   UNL     1     184.742 187.006 188.497  1.00  0.00    -0.392 OA
ATOM     12  H   UNL     1     185.606 187.464 188.326  1.00  0.00     0.211 HD
ENDBRANCH   8  11
TORSDOF 1
ENDMDL
