MODEL 1
REMARK VINA RESULT:    -3.801      0.000      0.000
REMARK INTER + INTRA:          -5.225
REMARK INTER:                  -5.801
REMARK INTRA:                   0.575
REMARK UNBOUND:                 0.575
REMARK SMILES CC1=CCC[C@H](C)C(=O)C[C@@H](C(C)C)C(=O)C1
REMARK SMILES IDX 8 1 9 2 6 3 7 4 5 5 4 6 3 7 2 8 1 9 10 11 11 12 15 13 16 14
REMARK SMILES IDX 17 15 12 17 13 18 14 19
REMARK H PARENT
REMARK Flexibility Score: 70.00
ROOT
ATOM      1  C   UNL     1       1.574  28.903  54.996  1.00  0.00     0.136 C 
ATOM      2  O   UNL     1       1.264  27.759  54.693  1.00  0.00    -0.299 OA
ENDROOT
BRANCH   1   3
ATOM      3  C   UNL     1       0.867  29.609  56.141  1.00  0.00     0.053 C 
ATOM      4  C   UNL     1      -0.657  29.409  56.103  1.00  0.00     0.016 C 
BRANCH   3   5
ATOM      5  C   UNL     1       1.457  29.201  57.506  1.00  0.00     0.015 C 
BRANCH   5   6
ATOM      6  C   UNL     1       2.003  27.760  57.542  1.00  0.00     0.028 C 
BRANCH   6   7
ATOM      7  C   UNL     1       3.305  27.701  58.295  1.00  0.00    -0.028 C 
ATOM      8  C   UNL     1       4.522  27.549  57.719  1.00  0.00    -0.070 CG0
ATOM      9  C   UNL     1       5.736  27.579  58.613  1.00  0.00     0.039 C 
ATOM     10  G   UNL     1       4.711  27.334  56.226  1.00  0.00     0.000 G0
ENDBRANCH   6   7
ENDBRANCH   5   6
ENDBRANCH   3   5
ENDBRANCH   1   3
BRANCH   1  11
ATOM     11  C   UNL     1       2.669  29.592  54.217  1.00  0.00     0.087 C 
BRANCH  11  12
ATOM     12  C   UNL     1       3.945  28.717  54.101  1.00  0.00     0.066 C 
BRANCH  12  13
ATOM     13  C   UNL     1       4.676  28.620  55.432  1.00  0.00     0.140 C 
ATOM     14  O   UNL     1       5.318  29.575  55.846  1.00  0.00    -0.299 OA
BRANCH  13  15
ATOM     15  C   UNL     1       4.680  27.332  56.220  1.00  0.00     0.106 CG0
ATOM     16  G   UNL     1       4.543  27.566  57.717  1.00  0.00     0.000 G0
ENDBRANCH  13  15
ENDBRANCH  12  13
BRANCH  12  17
ATOM     17  C   UNL     1       4.872  29.191  52.940  1.00  0.00    -0.006 C 
ATOM     18  C   UNL     1       4.813  30.716  52.758  1.00  0.00     0.008 C 
ATOM     19  C   UNL     1       4.612  28.487  51.596  1.00  0.00     0.008 C 
ENDBRANCH  12  17
ENDBRANCH  11  12
ENDBRANCH   1  11
TORSDOF 1
ENDMDL
MODEL 2
REMARK VINA RESULT:    -3.696     10.125     12.051
REMARK INTER + INTRA:          -5.064
REMARK INTER:                  -5.491
REMARK INTRA:                   0.427
REMARK UNBOUND:                 0.575
REMARK SMILES CC1=CCC[C@H](C)C(=O)C[C@@H](C(C)C)C(=O)C1
REMARK SMILES IDX 8 1 9 2 6 3 7 4 5 5 4 6 3 7 2 8 1 9 10 11 11 12 15 13 16 14
REMARK SMILES IDX 17 15 12 17 13 18 14 19
REMARK H PARENT
REMARK Flexibility Score: 70.00
ROOT
ATOM      1  C   UNL     1      -5.886  29.298  58.216  1.00  0.00     0.136 C 
ATOM      2  O   UNL     1      -4.755  28.851  58.074  1.00  0.00    -0.299 OA
ENDROOT
BRANCH   1   3
ATOM      3  C   UNL     1      -6.111  30.569  59.017  1.00  0.00     0.053 C 
ATOM      4  C   UNL     1      -4.804  31.141  59.590  1.00  0.00     0.016 C 
BRANCH   3   5
ATOM      5  C   UNL     1      -6.879  31.625  58.196  1.00  0.00     0.015 C 
BRANCH   5   6
ATOM      6  C   UNL     1      -8.388  31.678  58.507  1.00  0.00     0.028 C 
BRANCH   6   7
ATOM      7  C   UNL     1      -9.165  32.128  57.298  1.00  0.00    -0.028 C 
ATOM      8  C   UNL     1      -9.614  31.305  56.320  1.00  0.00    -0.070 CG0
ATOM      9  C   UNL     1     -10.437  31.909  55.211  1.00  0.00     0.039 C 
ATOM     10  G   UNL     1      -9.308  29.816  56.286  1.00  0.00     0.000 G0
ENDBRANCH   6   7
ENDBRANCH   5   6
ENDBRANCH   3   5
ENDBRANCH   1   3
BRANCH   1  11
ATOM     11  C   UNL     1      -7.044  28.567  57.579  1.00  0.00     0.087 C 
BRANCH  11  12
ATOM     12  C   UNL     1      -6.985  28.615  56.029  1.00  0.00     0.066 C 
BRANCH  12  13
ATOM     13  C   UNL     1      -8.102  29.476  55.457  1.00  0.00     0.140 C 
ATOM     14  O   UNL     1      -7.989  29.955  54.338  1.00  0.00    -0.299 OA
BRANCH  13  15
ATOM     15  C   UNL     1      -9.323  29.808  56.280  1.00  0.00     0.106 CG0
ATOM     16  G   UNL     1      -9.593  31.303  56.346  1.00  0.00     0.000 G0
ENDBRANCH  13  15
ENDBRANCH  12  13
BRANCH  12  17
ATOM     17  C   UNL     1      -6.949  27.187  55.403  1.00  0.00    -0.006 C 
ATOM     18  C   UNL     1      -6.457  27.222  53.948  1.00  0.00     0.008 C 
ATOM     19  C   UNL     1      -8.282  26.423  55.493  1.00  0.00     0.008 C 
ENDBRANCH  12  17
ENDBRANCH  11  12
ENDBRANCH   1  11
TORSDOF 1
ENDMDL
MODEL 3
REMARK VINA RESULT:    -3.280     15.537     17.191
REMARK INTER + INTRA:          -4.430
REMARK INTER:                  -4.139
REMARK INTRA:                  -0.290
REMARK UNBOUND:                 0.575
REMARK SMILES CC1=CCC[C@H](C)C(=O)C[C@@H](C(C)C)C(=O)C1
REMARK SMILES IDX 8 1 9 2 6 3 7 4 5 5 4 6 3 7 2 8 1 9 10 11 11 12 15 13 16 14
REMARK SMILES IDX 17 15 12 17 13 18 14 19
REMARK H PARENT
REMARK Flexibility Score: 70.00
ROOT
ATOM      1  C   UNL     1      -5.031  37.675  43.257  1.00  0.00     0.136 C 
ATOM      2  O   UNL     1      -5.116  37.771  42.040  1.00  0.00    -0.299 OA
ENDROOT
BRANCH   1   3
ATOM      3  C   UNL     1      -5.208  38.903  44.134  1.00  0.00     0.053 C 
ATOM      4  C   UNL     1      -4.096  39.943  43.921  1.00  0.00     0.016 C 
BRANCH   3   5
ATOM      5  C   UNL     1      -6.607  39.527  43.955  1.00  0.00     0.015 C 
BRANCH   5   6
ATOM      6  C   UNL     1      -7.716  38.806  44.747  1.00  0.00     0.028 C 
BRANCH   6   7
ATOM      7  C   UNL     1      -7.231  38.431  46.123  1.00  0.00    -0.028 C 
ATOM      8  C   UNL     1      -7.157  37.163  46.594  1.00  0.00    -0.070 CG0
ATOM      9  C   UNL     1      -6.584  36.954  47.973  1.00  0.00     0.039 C 
ATOM     10  G   UNL     1      -7.640  35.956  45.805  1.00  0.00     0.000 G0
ENDBRANCH   6   7
ENDBRANCH   5   6
ENDBRANCH   3   5
ENDBRANCH   1   3
BRANCH   1  11
ATOM     11  C   UNL     1      -4.752  36.321  43.864  1.00  0.00     0.087 C 
BRANCH  11  12
ATOM     12  C   UNL     1      -5.994  35.393  43.819  1.00  0.00     0.066 C 
BRANCH  12  13
ATOM     13  C   UNL     1      -6.526  35.106  45.216  1.00  0.00     0.140 C 
ATOM     14  O   UNL     1      -6.087  34.159  45.852  1.00  0.00    -0.299 OA
BRANCH  13  15
ATOM     15  C   UNL     1      -7.641  35.935  45.805  1.00  0.00     0.106 CG0
ATOM     16  G   UNL     1      -7.125  37.143  46.573  1.00  0.00     0.000 G0
ENDBRANCH  13  15
ENDBRANCH  12  13
BRANCH  12  17
ATOM     17  C   UNL     1      -5.720  34.092  43.003  1.00  0.00    -0.006 C 
ATOM     18  C   UNL     1      -4.749  34.351  41.841  1.00  0.00     0.008 C 
ATOM     19  C   UNL     1      -6.989  33.391  42.487  1.00  0.00     0.008 C 
ENDBRANCH  12  17
ENDBRANCH  11  12
ENDBRANCH   1  11
TORSDOF 1
ENDMDL
MODEL 4
REMARK VINA RESULT:    -3.271     10.551     12.649
REMARK INTER + INTRA:          -4.416
REMARK INTER:                  -4.480
REMARK INTRA:                   0.064
REMARK UNBOUND:                 0.575
REMARK SMILES CC1=CCC[C@H](C)C(=O)C[C@@H](C(C)C)C(=O)C1
REMARK SMILES IDX 8 1 9 2 6 3 7 4 5 5 4 6 3 7 2 8 1 9 10 11 11 12 15 13 16 14
REMARK SMILES IDX 17 15 12 17 13 18 14 19
REMARK H PARENT
REMARK Flexibility Score: 70.00
ROOT
ATOM      1  C   UNL     1      -7.141  31.545  58.383  1.00  0.00     0.136 C 
ATOM      2  O   UNL     1      -7.734  31.890  59.396  1.00  0.00    -0.299 OA
ENDROOT
BRANCH   1   3
ATOM      3  C   UNL     1      -5.878  30.706  58.484  1.00  0.00     0.053 C 
ATOM      4  C   UNL     1      -5.024  31.076  59.707  1.00  0.00     0.016 C 
BRANCH   3   5
ATOM      5  C   UNL     1      -6.200  29.198  58.455  1.00  0.00     0.015 C 
BRANCH   5   6
ATOM      6  C   UNL     1      -6.238  28.598  57.035  1.00  0.00     0.028 C 
BRANCH   6   7
ATOM      7  C   UNL     1      -7.549  27.900  56.787  1.00  0.00    -0.028 C 
ATOM      8  C   UNL     1      -8.549  28.391  56.015  1.00  0.00    -0.070 CG0
ATOM      9  C   UNL     1      -9.772  27.533  55.814  1.00  0.00     0.039 C 
ATOM     10  G   UNL     1      -8.496  29.765  55.366  1.00  0.00     0.000 G0
ENDBRANCH   6   7
ENDBRANCH   5   6
ENDBRANCH   3   5
ENDBRANCH   1   3
BRANCH   1  11
ATOM     11  C   UNL     1      -7.688  31.965  57.039  1.00  0.00     0.087 C 
BRANCH  11  12
ATOM     12  C   UNL     1      -9.223  31.762  56.943  1.00  0.00     0.066 C 
BRANCH  12  13
ATOM     13  C   UNL     1      -9.581  30.702  55.912  1.00  0.00     0.140 C 
ATOM     14  O   UNL     1     -10.745  30.555  55.568  1.00  0.00    -0.299 OA
BRANCH  13  15
ATOM     15  C   UNL     1      -8.526  29.778  55.354  1.00  0.00     0.106 CG0
ATOM     16  G   UNL     1      -8.550  28.405  56.009  1.00  0.00     0.000 G0
ENDBRANCH  13  15
ENDBRANCH  12  13
BRANCH  12  17
ATOM     17  C   UNL     1      -9.975  33.109  56.705  1.00  0.00    -0.006 C 
ATOM     18  C   UNL     1      -9.684  33.676  55.307  1.00  0.00     0.008 C 
ATOM     19  C   UNL     1      -9.708  34.179  57.778  1.00  0.00     0.008 C 
ENDBRANCH  12  17
ENDBRANCH  11  12
ENDBRANCH   1  11
TORSDOF 1
ENDMDL
MODEL 5
REMARK VINA RESULT:    -3.239     10.006     12.710
REMARK INTER + INTRA:          -4.368
REMARK INTER:                  -4.615
REMARK INTRA:                   0.247
REMARK UNBOUND:                 0.575
REMARK SMILES CC1=CCC[C@H](C)C(=O)C[C@@H](C(C)C)C(=O)C1
REMARK SMILES IDX 8 1 9 2 6 3 7 4 5 5 4 6 3 7 2 8 1 9 10 11 11 12 15 13 16 14
REMARK SMILES IDX 17 15 12 17 13 18 14 19
REMARK H PARENT
REMARK Flexibility Score: 70.00
ROOT
ATOM      1  C   UNL     1       1.703  29.974  41.904  1.00  0.00     0.136 C 
ATOM      2  O   UNL     1       2.615  29.254  41.518  1.00  0.00    -0.299 OA
ENDROOT
BRANCH   1   3
ATOM      3  C   UNL     1       0.380  29.998  41.157  1.00  0.00     0.053 C 
ATOM      4  C   UNL     1       0.106  28.686  40.405  1.00  0.00     0.016 C 
BRANCH   3   5
ATOM      5  C   UNL     1      -0.789  30.368  42.093  1.00  0.00     0.015 C 
BRANCH   5   6
ATOM      6  C   UNL     1      -1.442  29.153  42.783  1.00  0.00     0.028 C 
BRANCH   6   7
ATOM      7  C   UNL     1      -2.226  29.585  43.994  1.00  0.00    -0.028 C 
ATOM      8  C   UNL     1      -1.722  29.666  45.249  1.00  0.00    -0.070 CG0
ATOM      9  C   UNL     1      -2.624  30.183  46.341  1.00  0.00     0.039 C 
ATOM     10  G   UNL     1      -0.304  29.244  45.602  1.00  0.00     0.000 G0
ENDBRANCH   6   7
ENDBRANCH   5   6
ENDBRANCH   3   5
ENDBRANCH   1   3
BRANCH   1  11
ATOM     11  C   UNL     1       1.917  30.827  43.132  1.00  0.00     0.087 C 
BRANCH  11  12
ATOM     12  C   UNL     1       1.936  29.985  44.434  1.00  0.00     0.066 C 
BRANCH  12  13
ATOM     13  C   UNL     1       0.739  30.303  45.320  1.00  0.00     0.140 C 
ATOM     14  O   UNL     1       0.637  31.408  45.833  1.00  0.00    -0.299 OA
BRANCH  13  15
ATOM     15  C   UNL     1      -0.294  29.248  45.632  1.00  0.00     0.106 CG0
ATOM     16  G   UNL     1      -1.701  29.679  45.249  1.00  0.00     0.000 G0
ENDBRANCH  13  15
ENDBRANCH  12  13
BRANCH  12  17
ATOM     17  C   UNL     1       3.293  30.114  45.192  1.00  0.00    -0.006 C 
ATOM     18  C   UNL     1       3.289  29.305  46.498  1.00  0.00     0.008 C 
ATOM     19  C   UNL     1       3.727  31.565  45.469  1.00  0.00     0.008 C 
ENDBRANCH  12  17
ENDBRANCH  11  12
ENDBRANCH   1  11
TORSDOF 1
ENDMDL
MODEL 6
REMARK VINA RESULT:    -3.207     11.423     13.443
REMARK INTER + INTRA:          -4.319
REMARK INTER:                  -4.326
REMARK INTRA:                   0.007
REMARK UNBOUND:                 0.575
REMARK SMILES CC1=CCC[C@H](C)C(=O)C[C@@H](C(C)C)C(=O)C1
REMARK SMILES IDX 8 1 9 2 6 3 7 4 5 5 4 6 3 7 2 8 1 9 10 11 11 12 15 13 16 14
REMARK SMILES IDX 17 15 12 17 13 18 14 19
REMARK H PARENT
REMARK Flexibility Score: 70.00
ROOT
ATOM      1  C   UNL     1      -0.940  28.791  42.546  1.00  0.00     0.136 C 
ATOM      2  O   UNL     1      -1.878  29.265  41.919  1.00  0.00    -0.299 OA
ENDROOT
BRANCH   1   3
ATOM      3  C   UNL     1       0.302  28.308  41.816  1.00  0.00     0.053 C 
ATOM      4  C   UNL     1      -0.033  27.393  40.628  1.00  0.00     0.016 C 
BRANCH   3   5
ATOM      5  C   UNL     1       1.197  29.488  41.386  1.00  0.00     0.015 C 
BRANCH   5   6
ATOM      6  C   UNL     1       1.989  30.124  42.546  1.00  0.00     0.028 C 
BRANCH   6   7
ATOM      7  C   UNL     1       1.474  31.506  42.850  1.00  0.00    -0.028 C 
ATOM      8  C   UNL     1       0.896  31.873  44.019  1.00  0.00    -0.070 CG0
ATOM      9  C   UNL     1       0.495  33.316  44.186  1.00  0.00     0.039 C 
ATOM     10  G   UNL     1       0.620  30.894  45.150  1.00  0.00     0.000 G0
ENDBRANCH   6   7
ENDBRANCH   5   6
ENDBRANCH   3   5
ENDBRANCH   1   3
BRANCH   1  11
ATOM     11  C   UNL     1      -1.041  28.699  44.050  1.00  0.00     0.087 C 
BRANCH  11  12
ATOM     12  C   UNL     1      -1.781  29.918  44.662  1.00  0.00     0.066 C 
BRANCH  12  13
ATOM     13  C   UNL     1      -0.844  30.772  45.505  1.00  0.00     0.140 C 
ATOM     14  O   UNL     1      -1.287  31.420  46.441  1.00  0.00    -0.299 OA
BRANCH  13  15
ATOM     15  C   UNL     1       0.621  30.885  45.158  1.00  0.00     0.106 CG0
ATOM     16  G   UNL     1       0.875  31.856  44.016  1.00  0.00     0.000 G0
ENDBRANCH  13  15
ENDBRANCH  12  13
BRANCH  12  17
ATOM     17  C   UNL     1      -3.064  29.490  45.440  1.00  0.00    -0.006 C 
ATOM     18  C   UNL     1      -3.590  28.130  44.954  1.00  0.00     0.008 C 
ATOM     19  C   UNL     1      -4.195  30.534  45.416  1.00  0.00     0.008 C 
ENDBRANCH  12  17
ENDBRANCH  11  12
ENDBRANCH   1  11
TORSDOF 1
ENDMDL
MODEL 7
REMARK VINA RESULT:    -3.110     15.273     17.182
REMARK INTER + INTRA:          -4.171
REMARK INTER:                  -4.098
REMARK INTRA:                  -0.073
REMARK UNBOUND:                 0.575
REMARK SMILES CC1=CCC[C@H](C)C(=O)C[C@@H](C(C)C)C(=O)C1
REMARK SMILES IDX 8 1 9 2 6 3 7 4 5 5 4 6 3 7 2 8 1 9 10 11 11 12 15 13 16 14
REMARK SMILES IDX 17 15 12 17 13 18 14 19
REMARK H PARENT
REMARK Flexibility Score: 70.00
ROOT
ATOM      1  C   UNL     1      -7.630  36.459  45.352  1.00  0.00     0.136 C 
ATOM      2  O   UNL     1      -7.476  36.192  46.536  1.00  0.00    -0.299 OA
ENDROOT
BRANCH   1   3
ATOM      3  C   UNL     1      -7.688  37.908  44.897  1.00  0.00     0.053 C 
ATOM      4  C   UNL     1      -7.383  38.894  46.036  1.00  0.00     0.016 C 
BRANCH   3   5
ATOM      5  C   UNL     1      -6.775  38.152  43.678  1.00  0.00     0.015 C 
BRANCH   5   6
ATOM      6  C   UNL     1      -5.270  38.077  44.003  1.00  0.00     0.028 C 
BRANCH   6   7
ATOM      7  C   UNL     1      -4.486  37.623  42.800  1.00  0.00    -0.028 C 
ATOM      8  C   UNL     1      -4.088  36.347  42.576  1.00  0.00    -0.070 CG0
ATOM      9  C   UNL     1      -3.368  36.047  41.287  1.00  0.00     0.039 C 
ATOM     10  G   UNL     1      -4.317  35.221  43.573  1.00  0.00     0.000 G0
ENDBRANCH   6   7
ENDBRANCH   5   6
ENDBRANCH   3   5
ENDBRANCH   1   3
BRANCH   1  11
ATOM     11  C   UNL     1      -7.757  35.328  44.359  1.00  0.00     0.087 C 
BRANCH  11  12
ATOM     12  C   UNL     1      -6.599  34.305  44.487  1.00  0.00     0.066 C 
BRANCH  12  13
ATOM     13  C   UNL     1      -5.593  34.458  43.354  1.00  0.00     0.140 C 
ATOM     14  O   UNL     1      -5.806  33.926  42.274  1.00  0.00    -0.299 OA
BRANCH  13  15
ATOM     15  C   UNL     1      -4.298  35.205  43.565  1.00  0.00     0.106 CG0
ATOM     16  G   UNL     1      -4.103  36.329  42.560  1.00  0.00     0.000 G0
ENDBRANCH  13  15
ENDBRANCH  12  13
BRANCH  12  17
ATOM     17  C   UNL     1      -7.125  32.843  44.627  1.00  0.00    -0.006 C 
ATOM     18  C   UNL     1      -8.559  32.707  44.091  1.00  0.00     0.008 C 
ATOM     19  C   UNL     1      -7.037  32.274  46.054  1.00  0.00     0.008 C 
ENDBRANCH  12  17
ENDBRANCH  11  12
ENDBRANCH   1  11
TORSDOF 1
ENDMDL
MODEL 8
REMARK VINA RESULT:    -3.038     13.987     16.294
REMARK INTER + INTRA:          -4.061
REMARK INTER:                  -3.821
REMARK INTRA:                  -0.239
REMARK UNBOUND:                 0.575
REMARK SMILES CC1=CCC[C@H](C)C(=O)C[C@@H](C(C)C)C(=O)C1
REMARK SMILES IDX 8 1 9 2 6 3 7 4 5 5 4 6 3 7 2 8 1 9 10 11 11 12 15 13 16 14
REMARK SMILES IDX 17 15 12 17 13 18 14 19
REMARK H PARENT
REMARK Flexibility Score: 70.00
ROOT
ATOM      1  C   UNL     1      -8.245  32.650  43.515  1.00  0.00     0.136 C 
ATOM      2  O   UNL     1      -8.928  33.099  42.605  1.00  0.00    -0.299 OA
ENDROOT
BRANCH   1   3
ATOM      3  C   UNL     1      -7.026  33.413  44.005  1.00  0.00     0.053 C 
ATOM      4  C   UNL     1      -5.939  33.540  42.926  1.00  0.00     0.016 C 
BRANCH   3   5
ATOM      5  C   UNL     1      -7.417  34.791  44.578  1.00  0.00     0.015 C 
BRANCH   5   6
ATOM      6  C   UNL     1      -7.711  34.775  46.091  1.00  0.00     0.028 C 
BRANCH   6   7
ATOM      7  C   UNL     1      -6.636  34.027  46.835  1.00  0.00    -0.028 C 
ATOM      8  C   UNL     1      -6.837  32.883  47.533  1.00  0.00    -0.070 CG0
ATOM      9  C   UNL     1      -5.639  32.222  48.166  1.00  0.00     0.039 C 
ATOM     10  G   UNL     1      -8.210  32.256  47.719  1.00  0.00     0.000 G0
ENDBRANCH   6   7
ENDBRANCH   5   6
ENDBRANCH   3   5
ENDBRANCH   1   3
BRANCH   1  11
ATOM     11  C   UNL     1      -8.637  31.331  44.139  1.00  0.00     0.087 C 
BRANCH  11  12
ATOM     12  C   UNL     1      -9.387  31.520  45.484  1.00  0.00     0.066 C 
BRANCH  12  13
ATOM     13  C   UNL     1      -8.492  31.194  46.671  1.00  0.00     0.140 C 
ATOM     14  O   UNL     1      -8.044  30.064  46.803  1.00  0.00    -0.299 OA
BRANCH  13  15
ATOM     15  C   UNL     1      -8.204  32.230  47.730  1.00  0.00     0.106 CG0
ATOM     16  G   UNL     1      -6.841  32.882  47.550  1.00  0.00     0.000 G0
ENDBRANCH  13  15
ENDBRANCH  12  13
BRANCH  12  17
ATOM     17  C   UNL     1     -10.734  30.735  45.515  1.00  0.00    -0.006 C 
ATOM     18  C   UNL     1     -11.173  30.313  44.104  1.00  0.00     0.008 C 
ATOM     19  C   UNL     1     -11.881  31.475  46.227  1.00  0.00     0.008 C 
ENDBRANCH  12  17
ENDBRANCH  11  12
ENDBRANCH   1  11
TORSDOF 1
ENDMDL
MODEL 9
REMARK VINA RESULT:    -3.035     15.453     17.607
REMARK INTER + INTRA:          -4.056
REMARK INTER:                  -3.750
REMARK INTRA:                  -0.306
REMARK UNBOUND:                 0.575
REMARK SMILES CC1=CCC[C@H](C)C(=O)C[C@@H](C(C)C)C(=O)C1
REMARK SMILES IDX 8 1 9 2 6 3 7 4 5 5 4 6 3 7 2 8 1 9 10 11 11 12 15 13 16 14
REMARK SMILES IDX 17 15 12 17 13 18 14 19
REMARK H PARENT
REMARK Flexibility Score: 70.00
ROOT
ATOM      1  C   UNL     1      -3.110  34.591  41.914  1.00  0.00     0.136 C 
ATOM      2  O   UNL     1      -3.751  33.663  41.437  1.00  0.00    -0.299 OA
ENDROOT
BRANCH   1   3
ATOM      3  C   UNL     1      -2.084  35.325  41.067  1.00  0.00     0.053 C 
ATOM      4  C   UNL     1      -0.972  34.395  40.555  1.00  0.00     0.016 C 
BRANCH   3   5
ATOM      5  C   UNL     1      -2.754  36.095  39.911  1.00  0.00     0.015 C 
BRANCH   5   6
ATOM      6  C   UNL     1      -3.673  37.241  40.377  1.00  0.00     0.028 C 
BRANCH   6   7
ATOM      7  C   UNL     1      -2.892  38.271  41.150  1.00  0.00    -0.028 C 
ATOM      8  C   UNL     1      -3.252  38.762  42.360  1.00  0.00    -0.070 CG0
ATOM      9  C   UNL     1      -2.321  39.740  43.031  1.00  0.00     0.039 C 
ATOM     10  G   UNL     1      -4.552  38.387  43.053  1.00  0.00     0.000 G0
ENDBRANCH   6   7
ENDBRANCH   5   6
ENDBRANCH   3   5
ENDBRANCH   1   3
BRANCH   1  11
ATOM     11  C   UNL     1      -3.361  34.989  43.348  1.00  0.00     0.087 C 
BRANCH  11  12
ATOM     12  C   UNL     1      -4.683  35.784  43.513  1.00  0.00     0.066 C 
BRANCH  12  13
ATOM     13  C   UNL     1      -4.423  37.202  44.000  1.00  0.00     0.140 C 
ATOM     14  O   UNL     1      -4.146  37.403  45.173  1.00  0.00    -0.299 OA
BRANCH  13  15
ATOM     15  C   UNL     1      -4.570  38.379  43.066  1.00  0.00     0.106 CG0
ATOM     16  G   UNL     1      -3.261  38.748  42.384  1.00  0.00     0.000 G0
ENDBRANCH  13  15
ENDBRANCH  12  13
BRANCH  12  17
ATOM     17  C   UNL     1      -5.712  35.023  44.405  1.00  0.00    -0.006 C 
ATOM     18  C   UNL     1      -5.120  33.720  44.962  1.00  0.00     0.008 C 
ATOM     19  C   UNL     1      -7.059  34.741  43.714  1.00  0.00     0.008 C 
ENDBRANCH  12  17
ENDBRANCH  11  12
ENDBRANCH   1  11
TORSDOF 1
ENDMDL
