MODEL 1
REMARK VINA RESULT:    -6.016      0.000      0.000
REMARK INTER + INTRA:          -7.336
REMARK INTER:                  -7.071
REMARK INTRA:                  -0.264
REMARK UNBOUND:                -0.264
REMARK SMILES O=c1cc(-c2ccc(O)c(O)c2)oc2cc(O)cc(O)c12
REMARK SMILES IDX 4 1 3 2 2 3 1 4 21 5 19 6 18 7 16 8 15 9 14 10 13 11 5 12
REMARK SMILES IDX 6 13 7 14 8 15 12 16 10 17 9 18 11 20 20 22 17 24
REMARK H PARENT 9 19 11 21 20 23 17 25
REMARK Flexibility Score: inf
ROOT
ATOM      1  C   UNL     1      37.019 -33.843   3.370  1.00  0.00     0.138 A 
ATOM      2  C   UNL     1      37.113 -35.177   2.937  1.00  0.00     0.100 A 
ATOM      3  C   UNL     1      35.977 -35.820   2.445  1.00  0.00     0.197 A 
ATOM      4  O   UNL     1      36.071 -37.017   2.061  1.00  0.00    -0.289 OA
ATOM      5  C   UNL     1      34.751 -35.126   2.393  1.00  0.00     0.107 A 
ATOM      6  C   UNL     1      33.554 -35.703   1.908  1.00  0.00     0.134 A 
ATOM      7  C   UNL     1      32.373 -34.946   1.894  1.00  0.00     0.093 A 
ATOM      8  C   UNL     1      32.367 -33.627   2.355  1.00  0.00     0.123 A 
ATOM      9  C   UNL     1      33.549 -33.051   2.835  1.00  0.00     0.094 A 
ATOM     10  C   UNL     1      34.735 -33.789   2.857  1.00  0.00     0.146 A 
ATOM     11  O   UNL     1      35.845 -33.218   3.316  1.00  0.00    -0.456 OA
ENDROOT
BRANCH   1  12
ATOM     12  C   UNL     1      38.194 -33.109   3.904  1.00  0.00     0.021 A 
ATOM     13  C   UNL     1      38.292 -32.874   5.286  1.00  0.00     0.016 A 
ATOM     14  C   UNL     1      39.384 -32.179   5.814  1.00  0.00     0.051 A 
ATOM     15  C   UNL     1      40.390 -31.697   4.968  1.00  0.00     0.157 A 
ATOM     16  C   UNL     1      39.203 -32.609   3.058  1.00  0.00     0.062 A 
ATOM     17  C   UNL     1      40.297 -31.911   3.583  1.00  0.00     0.158 A 
BRANCH  15  18
ATOM     18  O   UNL     1      41.478 -31.005   5.497  1.00  0.00    -0.504 OA
ATOM     19  H   UNL     1      41.480 -29.994   5.570  1.00  0.00     0.293 HD
ENDBRANCH  15  18
BRANCH  17  20
ATOM     20  O   UNL     1      41.277 -31.435   2.713  1.00  0.00    -0.504 OA
ATOM     21  H   UNL     1      41.063 -30.791   1.961  1.00  0.00     0.293 HD
ENDBRANCH  17  20
ENDBRANCH   1  12
BRANCH   6  22
ATOM     22  O   UNL     1      33.529 -37.018   1.442  1.00  0.00    -0.507 OA
ATOM     23  H   UNL     1      33.117 -37.768   1.986  1.00  0.00     0.293 HD
ENDBRANCH   6  22
BRANCH   8  24
ATOM     24  O   UNL     1      31.181 -32.897   2.331  1.00  0.00    -0.508 OA
ATOM     25  H   UNL     1      30.317 -33.278   2.697  1.00  0.00     0.293 HD
ENDBRANCH   8  24
TORSDOF 5
ENDMDL
MODEL 2
REMARK VINA RESULT:    -5.975     12.812     15.626
REMARK INTER + INTRA:          -7.287
REMARK INTER:                  -6.970
REMARK INTRA:                  -0.317
REMARK UNBOUND:                -0.264
REMARK SMILES O=c1cc(-c2ccc(O)c(O)c2)oc2cc(O)cc(O)c12
REMARK SMILES IDX 4 1 3 2 2 3 1 4 21 5 19 6 18 7 16 8 15 9 14 10 13 11 5 12
REMARK SMILES IDX 6 13 7 14 8 15 12 16 10 17 9 18 11 20 20 22 17 24
REMARK H PARENT 9 19 11 21 20 23 17 25
REMARK Flexibility Score: inf
ROOT
ATOM      1  C   UNL     1      27.491 -22.534   1.065  1.00  0.00     0.138 A 
ATOM      2  C   UNL     1      26.541 -21.586   1.486  1.00  0.00     0.100 A 
ATOM      3  C   UNL     1      26.733 -20.910   2.691  1.00  0.00     0.197 A 
ATOM      4  O   UNL     1      25.875 -20.064   3.061  1.00  0.00    -0.289 OA
ATOM      5  C   UNL     1      27.874 -21.189   3.472  1.00  0.00     0.107 A 
ATOM      6  C   UNL     1      28.144 -20.549   4.704  1.00  0.00     0.134 A 
ATOM      7  C   UNL     1      29.300 -20.888   5.424  1.00  0.00     0.093 A 
ATOM      8  C   UNL     1      30.186 -21.851   4.936  1.00  0.00     0.123 A 
ATOM      9  C   UNL     1      29.923 -22.487   3.718  1.00  0.00     0.094 A 
ATOM     10  C   UNL     1      28.778 -22.164   2.985  1.00  0.00     0.146 A 
ATOM     11  O   UNL     1      28.551 -22.781   1.830  1.00  0.00    -0.456 OA
ENDROOT
BRANCH   1  12
ATOM     12  C   UNL     1      27.337 -23.284  -0.207  1.00  0.00     0.021 A 
ATOM     13  C   UNL     1      26.295 -22.945  -1.087  1.00  0.00     0.016 A 
ATOM     14  C   UNL     1      26.124 -23.640  -2.288  1.00  0.00     0.051 A 
ATOM     15  C   UNL     1      26.985 -24.692  -2.623  1.00  0.00     0.157 A 
ATOM     16  C   UNL     1      28.191 -24.352  -0.545  1.00  0.00     0.062 A 
ATOM     17  C   UNL     1      28.021 -25.051  -1.746  1.00  0.00     0.158 A 
BRANCH  15  18
ATOM     18  O   UNL     1      26.813 -25.383  -3.822  1.00  0.00    -0.504 OA
ATOM     19  H   UNL     1      27.601 -25.627  -4.412  1.00  0.00     0.293 HD
ENDBRANCH  15  18
BRANCH  17  20
ATOM     20  O   UNL     1      28.888 -26.101  -2.047  1.00  0.00    -0.504 OA
ATOM     21  H   UNL     1      28.706 -26.750  -2.803  1.00  0.00     0.293 HD
ENDBRANCH  17  20
ENDBRANCH   1  12
BRANCH   6  22
ATOM     22  O   UNL     1      27.277 -19.584   5.217  1.00  0.00    -0.507 OA
ATOM     23  H   UNL     1      27.043 -18.748   4.695  1.00  0.00     0.293 HD
ENDBRANCH   6  22
BRANCH   8  24
ATOM     24  O   UNL     1      31.326 -22.169   5.671  1.00  0.00    -0.508 OA
ATOM     25  H   UNL     1      31.264 -22.592   6.589  1.00  0.00     0.293 HD
ENDBRANCH   8  24
TORSDOF 5
ENDMDL
MODEL 3
REMARK VINA RESULT:    -5.960     12.086     15.031
REMARK INTER + INTRA:          -7.270
REMARK INTER:                  -6.963
REMARK INTRA:                  -0.307
REMARK UNBOUND:                -0.264
REMARK SMILES O=c1cc(-c2ccc(O)c(O)c2)oc2cc(O)cc(O)c12
REMARK SMILES IDX 4 1 3 2 2 3 1 4 21 5 19 6 18 7 16 8 15 9 14 10 13 11 5 12
REMARK SMILES IDX 6 13 7 14 8 15 12 16 10 17 9 18 11 20 20 22 17 24
REMARK H PARENT 9 19 11 21 20 23 17 25
REMARK Flexibility Score: inf
ROOT
ATOM      1  C   UNL     1      26.646 -22.697   0.928  1.00  0.00     0.138 A 
ATOM      2  C   UNL     1      26.437 -22.381  -0.425  1.00  0.00     0.100 A 
ATOM      3  C   UNL     1      26.448 -23.400  -1.378  1.00  0.00     0.197 A 
ATOM      4  O   UNL     1      26.260 -23.106  -2.590  1.00  0.00    -0.289 OA
ATOM      5  C   UNL     1      26.673 -24.731  -0.971  1.00  0.00     0.107 A 
ATOM      6  C   UNL     1      26.699 -25.822  -1.872  1.00  0.00     0.134 A 
ATOM      7  C   UNL     1      26.936 -27.117  -1.388  1.00  0.00     0.093 A 
ATOM      8  C   UNL     1      27.146 -27.340  -0.025  1.00  0.00     0.123 A 
ATOM      9  C   UNL     1      27.121 -26.265   0.870  1.00  0.00     0.094 A 
ATOM     10  C   UNL     1      26.887 -24.968   0.408  1.00  0.00     0.146 A 
ATOM     11  O   UNL     1      26.866 -23.963   1.278  1.00  0.00    -0.456 OA
ENDROOT
BRANCH   1  12
ATOM     12  C   UNL     1      26.646 -21.655   1.985  1.00  0.00     0.021 A 
ATOM     13  C   UNL     1      25.886 -20.486   1.803  1.00  0.00     0.016 A 
ATOM     14  C   UNL     1      25.875 -19.486   2.779  1.00  0.00     0.051 A 
ATOM     15  C   UNL     1      26.631 -19.632   3.948  1.00  0.00     0.157 A 
ATOM     16  C   UNL     1      27.416 -21.788   3.158  1.00  0.00     0.062 A 
ATOM     17  C   UNL     1      27.408 -20.786   4.137  1.00  0.00     0.158 A 
BRANCH  15  18
ATOM     18  O   UNL     1      26.618 -18.633   4.920  1.00  0.00    -0.504 OA
ATOM     19  H   UNL     1      25.916 -18.613   5.652  1.00  0.00     0.293 HD
ENDBRANCH  15  18
BRANCH  17  20
ATOM     20  O   UNL     1      28.180 -20.956   5.284  1.00  0.00    -0.504 OA
ATOM     21  H   UNL     1      27.861 -20.654   6.197  1.00  0.00     0.293 HD
ENDBRANCH  17  20
ENDBRANCH   1  12
BRANCH   6  22
ATOM     22  O   UNL     1      26.494 -25.629  -3.239  1.00  0.00    -0.507 OA
ATOM     23  H   UNL     1      25.629 -25.241  -3.597  1.00  0.00     0.293 HD
ENDBRANCH   6  22
BRANCH   8  24
ATOM     24  O   UNL     1      27.380 -28.636   0.430  1.00  0.00    -0.508 OA
ATOM     25  H   UNL     1      28.153 -28.850   1.048  1.00  0.00     0.293 HD
ENDBRANCH   8  24
TORSDOF 5
ENDMDL
MODEL 4
REMARK VINA RESULT:    -5.879      1.700      2.298
REMARK INTER + INTRA:          -7.175
REMARK INTER:                  -6.890
REMARK INTRA:                  -0.284
REMARK UNBOUND:                -0.264
REMARK SMILES O=c1cc(-c2ccc(O)c(O)c2)oc2cc(O)cc(O)c12
REMARK SMILES IDX 4 1 3 2 2 3 1 4 21 5 19 6 18 7 16 8 15 9 14 10 13 11 5 12
REMARK SMILES IDX 6 13 7 14 8 15 12 16 10 17 9 18 11 20 20 22 17 24
REMARK H PARENT 9 19 11 21 20 23 17 25
REMARK Flexibility Score: inf
ROOT
ATOM      1  C   UNL     1      36.567 -32.785   3.636  1.00  0.00     0.138 A 
ATOM      2  C   UNL     1      36.040 -32.382   2.397  1.00  0.00     0.100 A 
ATOM      3  C   UNL     1      34.779 -32.835   2.008  1.00  0.00     0.197 A 
ATOM      4  O   UNL     1      34.315 -32.470   0.894  1.00  0.00    -0.289 OA
ATOM      5  C   UNL     1      34.054 -33.694   2.859  1.00  0.00     0.107 A 
ATOM      6  C   UNL     1      32.771 -34.198   2.541  1.00  0.00     0.134 A 
ATOM      7  C   UNL     1      32.118 -35.053   3.441  1.00  0.00     0.093 A 
ATOM      8  C   UNL     1      32.722 -35.413   4.648  1.00  0.00     0.123 A 
ATOM      9  C   UNL     1      33.991 -34.917   4.967  1.00  0.00     0.094 A 
ATOM     10  C   UNL     1      34.658 -34.064   4.085  1.00  0.00     0.146 A 
ATOM     11  O   UNL     1      35.862 -33.604   4.412  1.00  0.00    -0.456 OA
ENDROOT
BRANCH   1  12
ATOM     12  C   UNL     1      37.903 -32.336   4.102  1.00  0.00     0.021 A 
ATOM     13  C   UNL     1      38.109 -32.080   5.469  1.00  0.00     0.016 A 
ATOM     14  C   UNL     1      39.355 -31.649   5.932  1.00  0.00     0.051 A 
ATOM     15  C   UNL     1      40.413 -31.454   5.036  1.00  0.00     0.157 A 
ATOM     16  C   UNL     1      38.969 -32.125   3.204  1.00  0.00     0.062 A 
ATOM     17  C   UNL     1      40.218 -31.691   3.666  1.00  0.00     0.158 A 
BRANCH  15  18
ATOM     18  O   UNL     1      41.655 -31.025   5.501  1.00  0.00    -0.504 OA
ATOM     19  H   UNL     1      41.754 -30.557   6.395  1.00  0.00     0.293 HD
ENDBRANCH  15  18
BRANCH  17  20
ATOM     20  O   UNL     1      41.248 -31.496   2.747  1.00  0.00    -0.504 OA
ATOM     21  H   UNL     1      41.512 -30.574   2.421  1.00  0.00     0.293 HD
ENDBRANCH  17  20
ENDBRANCH   1  12
BRANCH   6  22
ATOM     22  O   UNL     1      32.144 -33.857   1.342  1.00  0.00    -0.507 OA
ATOM     23  H   UNL     1      31.469 -33.103   1.290  1.00  0.00     0.293 HD
ENDBRANCH   6  22
BRANCH   8  24
ATOM     24  O   UNL     1      32.051 -36.264   5.524  1.00  0.00    -0.508 OA
ATOM     25  H   UNL     1      32.515 -36.668   6.329  1.00  0.00     0.293 HD
ENDBRANCH   8  24
TORSDOF 5
ENDMDL
MODEL 5
REMARK VINA RESULT:    -5.827     10.498     12.449
REMARK INTER + INTRA:          -7.113
REMARK INTER:                  -6.796
REMARK INTRA:                  -0.318
REMARK UNBOUND:                -0.264
REMARK SMILES O=c1cc(-c2ccc(O)c(O)c2)oc2cc(O)cc(O)c12
REMARK SMILES IDX 4 1 3 2 2 3 1 4 21 5 19 6 18 7 16 8 15 9 14 10 13 11 5 12
REMARK SMILES IDX 6 13 7 14 8 15 12 16 10 17 9 18 11 20 20 22 17 24
REMARK H PARENT 9 19 11 21 20 23 17 25
REMARK Flexibility Score: inf
ROOT
ATOM      1  C   UNL     1      29.629 -23.771   1.639  1.00  0.00     0.138 A 
ATOM      2  C   UNL     1      29.126 -22.613   1.021  1.00  0.00     0.100 A 
ATOM      3  C   UNL     1      28.282 -22.736  -0.083  1.00  0.00     0.197 A 
ATOM      4  O   UNL     1      27.837 -21.692  -0.632  1.00  0.00    -0.289 OA
ATOM      5  C   UNL     1      27.949 -24.018  -0.566  1.00  0.00     0.107 A 
ATOM      6  C   UNL     1      27.101 -24.231  -1.678  1.00  0.00     0.134 A 
ATOM      7  C   UNL     1      26.823 -25.540  -2.100  1.00  0.00     0.093 A 
ATOM      8  C   UNL     1      27.377 -26.636  -1.433  1.00  0.00     0.123 A 
ATOM      9  C   UNL     1      28.217 -26.431  -0.333  1.00  0.00     0.094 A 
ATOM     10  C   UNL     1      28.505 -25.135   0.103  1.00  0.00     0.146 A 
ATOM     11  O   UNL     1      29.304 -24.966   1.152  1.00  0.00    -0.456 OA
ENDROOT
BRANCH   1  12
ATOM     12  C   UNL     1      30.532 -23.701   2.815  1.00  0.00     0.021 A 
ATOM     13  C   UNL     1      31.021 -22.452   3.238  1.00  0.00     0.016 A 
ATOM     14  C   UNL     1      31.878 -22.359   4.338  1.00  0.00     0.051 A 
ATOM     15  C   UNL     1      32.269 -23.513   5.027  1.00  0.00     0.157 A 
ATOM     16  C   UNL     1      30.942 -24.859   3.506  1.00  0.00     0.062 A 
ATOM     17  C   UNL     1      31.802 -24.768   4.607  1.00  0.00     0.158 A 
BRANCH  15  18
ATOM     18  O   UNL     1      33.124 -23.417   6.125  1.00  0.00    -0.504 OA
ATOM     19  H   UNL     1      32.936 -23.914   6.988  1.00  0.00     0.293 HD
ENDBRANCH  15  18
BRANCH  17  20
ATOM     20  O   UNL     1      32.182 -25.937   5.265  1.00  0.00    -0.504 OA
ATOM     21  H   UNL     1      32.280 -26.821   4.781  1.00  0.00     0.293 HD
ENDBRANCH  17  20
ENDBRANCH   1  12
BRANCH   6  22
ATOM     22  O   UNL     1      26.535 -23.156  -2.364  1.00  0.00    -0.507 OA
ATOM     23  H   UNL     1      27.107 -22.444  -2.803  1.00  0.00     0.293 HD
ENDBRANCH   6  22
BRANCH   8  24
ATOM     24  O   UNL     1      27.086 -27.925  -1.873  1.00  0.00    -0.508 OA
ATOM     25  H   UNL     1      26.300 -28.447  -1.502  1.00  0.00     0.293 HD
ENDBRANCH   8  24
TORSDOF 5
ENDMDL
MODEL 6
REMARK VINA RESULT:    -5.752     11.145     14.400
REMARK INTER + INTRA:          -7.025
REMARK INTER:                  -6.729
REMARK INTRA:                  -0.296
REMARK UNBOUND:                -0.264
REMARK SMILES O=c1cc(-c2ccc(O)c(O)c2)oc2cc(O)cc(O)c12
REMARK SMILES IDX 4 1 3 2 2 3 1 4 21 5 19 6 18 7 16 8 15 9 14 10 13 11 5 12
REMARK SMILES IDX 6 13 7 14 8 15 12 16 10 17 9 18 11 20 20 22 17 24
REMARK H PARENT 9 19 11 21 20 23 17 25
REMARK Flexibility Score: inf
ROOT
ATOM      1  C   UNL     1      28.746 -23.231   2.018  1.00  0.00     0.138 A 
ATOM      2  C   UNL     1      28.296 -22.049   2.630  1.00  0.00     0.100 A 
ATOM      3  C   UNL     1      28.948 -21.574   3.768  1.00  0.00     0.197 A 
ATOM      4  O   UNL     1      28.535 -20.513   4.312  1.00  0.00    -0.289 OA
ATOM      5  C   UNL     1      30.046 -22.287   4.290  1.00  0.00     0.107 A 
ATOM      6  C   UNL     1      30.763 -21.875   5.438  1.00  0.00     0.134 A 
ATOM      7  C   UNL     1      31.841 -22.645   5.898  1.00  0.00     0.093 A 
ATOM      8  C   UNL     1      32.215 -23.815   5.233  1.00  0.00     0.123 A 
ATOM      9  C   UNL     1      31.510 -24.228   4.097  1.00  0.00     0.094 A 
ATOM     10  C   UNL     1      30.433 -23.474   3.623  1.00  0.00     0.146 A 
ATOM     11  O   UNL     1      29.780 -23.886   2.541  1.00  0.00    -0.456 OA
ENDROOT
BRANCH   1  12
ATOM     12  C   UNL     1      28.091 -23.784   0.806  1.00  0.00     0.021 A 
ATOM     13  C   UNL     1      26.688 -23.782   0.718  1.00  0.00     0.016 A 
ATOM     14  C   UNL     1      26.045 -24.303  -0.409  1.00  0.00     0.051 A 
ATOM     15  C   UNL     1      26.793 -24.845  -1.461  1.00  0.00     0.157 A 
ATOM     16  C   UNL     1      28.836 -24.344  -0.251  1.00  0.00     0.062 A 
ATOM     17  C   UNL     1      28.195 -24.868  -1.379  1.00  0.00     0.158 A 
BRANCH  15  18
ATOM     18  O   UNL     1      26.150 -25.363  -2.584  1.00  0.00    -0.504 OA
ATOM     19  H   UNL     1      25.275 -24.977  -2.920  1.00  0.00     0.293 HD
ENDBRANCH  15  18
BRANCH  17  20
ATOM     20  O   UNL     1      28.967 -25.411  -2.405  1.00  0.00    -0.504 OA
ATOM     21  H   UNL     1      29.039 -24.972  -3.315  1.00  0.00     0.293 HD
ENDBRANCH  17  20
ENDBRANCH   1  12
BRANCH   6  22
ATOM     22  O   UNL     1      30.411 -20.711   6.123  1.00  0.00    -0.507 OA
ATOM     23  H   UNL     1      30.554 -19.792   5.720  1.00  0.00     0.293 HD
ENDBRANCH   6  22
BRANCH   8  24
ATOM     24  O   UNL     1      33.290 -24.562   5.711  1.00  0.00    -0.508 OA
ATOM     25  H   UNL     1      33.254 -25.573   5.757  1.00  0.00     0.293 HD
ENDBRANCH   8  24
TORSDOF 5
ENDMDL
MODEL 7
REMARK VINA RESULT:    -5.732     12.198     15.011
REMARK INTER + INTRA:          -7.001
REMARK INTER:                  -6.716
REMARK INTRA:                  -0.284
REMARK UNBOUND:                -0.264
REMARK SMILES O=c1cc(-c2ccc(O)c(O)c2)oc2cc(O)cc(O)c12
REMARK SMILES IDX 4 1 3 2 2 3 1 4 21 5 19 6 18 7 16 8 15 9 14 10 13 11 5 12
REMARK SMILES IDX 6 13 7 14 8 15 12 16 10 17 9 18 11 20 20 22 17 24
REMARK H PARENT 9 19 11 21 20 23 17 25
REMARK Flexibility Score: inf
ROOT
ATOM      1  C   UNL     1      28.255 -23.440   1.106  1.00  0.00     0.138 A 
ATOM      2  C   UNL     1      29.521 -23.689   1.663  1.00  0.00     0.100 A 
ATOM      3  C   UNL     1      29.932 -22.969   2.785  1.00  0.00     0.197 A 
ATOM      4  O   UNL     1      31.070 -23.198   3.277  1.00  0.00    -0.289 OA
ATOM      5  C   UNL     1      29.073 -21.999   3.343  1.00  0.00     0.107 A 
ATOM      6  C   UNL     1      29.410 -21.227   4.479  1.00  0.00     0.134 A 
ATOM      7  C   UNL     1      28.502 -20.277   4.969  1.00  0.00     0.093 A 
ATOM      8  C   UNL     1      27.266 -20.087   4.346  1.00  0.00     0.123 A 
ATOM      9  C   UNL     1      26.927 -20.848   3.222  1.00  0.00     0.094 A 
ATOM     10  C   UNL     1      27.818 -21.799   2.719  1.00  0.00     0.146 A 
ATOM     11  O   UNL     1      27.472 -22.511   1.651  1.00  0.00    -0.456 OA
ENDROOT
BRANCH   1  12
ATOM     12  C   UNL     1      27.767 -24.175  -0.088  1.00  0.00     0.021 A 
ATOM     13  C   UNL     1      26.971 -23.505  -1.033  1.00  0.00     0.016 A 
ATOM     14  C   UNL     1      26.492 -24.175  -2.162  1.00  0.00     0.051 A 
ATOM     15  C   UNL     1      26.791 -25.529  -2.359  1.00  0.00     0.157 A 
ATOM     16  C   UNL     1      28.052 -25.540  -0.286  1.00  0.00     0.062 A 
ATOM     17  C   UNL     1      27.572 -26.215  -1.415  1.00  0.00     0.158 A 
BRANCH  15  18
ATOM     18  O   UNL     1      26.313 -26.195  -3.487  1.00  0.00    -0.504 OA
ATOM     19  H   UNL     1      26.333 -27.206  -3.554  1.00  0.00     0.293 HD
ENDBRANCH  15  18
BRANCH  17  20
ATOM     20  O   UNL     1      27.878 -27.565  -1.577  1.00  0.00    -0.504 OA
ATOM     21  H   UNL     1      27.187 -28.240  -1.883  1.00  0.00     0.293 HD
ENDBRANCH  17  20
ENDBRANCH   1  12
BRANCH   6  22
ATOM     22  O   UNL     1      30.638 -21.395   5.121  1.00  0.00    -0.507 OA
ATOM     23  H   UNL     1      30.993 -20.710   5.779  1.00  0.00     0.293 HD
ENDBRANCH   6  22
BRANCH   8  24
ATOM     24  O   UNL     1      26.382 -19.137   4.852  1.00  0.00    -0.508 OA
ATOM     25  H   UNL     1      25.395 -19.336   4.961  1.00  0.00     0.293 HD
ENDBRANCH   8  24
TORSDOF 5
ENDMDL
MODEL 8
REMARK VINA RESULT:    -5.674     10.237     13.416
REMARK INTER + INTRA:          -6.933
REMARK INTER:                  -6.641
REMARK INTRA:                  -0.292
REMARK UNBOUND:                -0.264
REMARK SMILES O=c1cc(-c2ccc(O)c(O)c2)oc2cc(O)cc(O)c12
REMARK SMILES IDX 4 1 3 2 2 3 1 4 21 5 19 6 18 7 16 8 15 9 14 10 13 11 5 12
REMARK SMILES IDX 6 13 7 14 8 15 12 16 10 17 9 18 11 20 20 22 17 24
REMARK H PARENT 9 19 11 21 20 23 17 25
REMARK Flexibility Score: inf
ROOT
ATOM      1  C   UNL     1      29.626 -24.156   2.090  1.00  0.00     0.138 A 
ATOM      2  C   UNL     1      29.626 -25.450   2.638  1.00  0.00     0.100 A 
ATOM      3  C   UNL     1      30.399 -25.718   3.767  1.00  0.00     0.197 A 
ATOM      4  O   UNL     1      30.394 -26.882   4.251  1.00  0.00    -0.289 OA
ATOM      5  C   UNL     1      31.174 -24.688   4.340  1.00  0.00     0.107 A 
ATOM      6  C   UNL     1      31.985 -24.874   5.485  1.00  0.00     0.134 A 
ATOM      7  C   UNL     1      32.731 -23.799   5.989  1.00  0.00     0.093 A 
ATOM      8  C   UNL     1      32.681 -22.546   5.374  1.00  0.00     0.123 A 
ATOM      9  C   UNL     1      31.881 -22.357   4.242  1.00  0.00     0.094 A 
ATOM     10  C   UNL     1      31.130 -23.415   3.724  1.00  0.00     0.146 A 
ATOM     11  O   UNL     1      30.376 -23.209   2.648  1.00  0.00    -0.456 OA
ENDROOT
BRANCH   1  12
ATOM     12  C   UNL     1      28.823 -23.815   0.889  1.00  0.00     0.021 A 
ATOM     13  C   UNL     1      28.497 -22.471   0.634  1.00  0.00     0.016 A 
ATOM     14  C   UNL     1      27.736 -22.124  -0.485  1.00  0.00     0.051 A 
ATOM     15  C   UNL     1      27.278 -23.113  -1.363  1.00  0.00     0.157 A 
ATOM     16  C   UNL     1      28.347 -24.806   0.008  1.00  0.00     0.062 A 
ATOM     17  C   UNL     1      27.583 -24.461  -1.113  1.00  0.00     0.158 A 
BRANCH  15  18
ATOM     18  O   UNL     1      26.520 -22.764  -2.479  1.00  0.00    -0.504 OA
ATOM     19  H   UNL     1      25.506 -22.763  -2.453  1.00  0.00     0.293 HD
ENDBRANCH  15  18
BRANCH  17  20
ATOM     20  O   UNL     1      27.132 -25.471  -1.962  1.00  0.00    -0.504 OA
ATOM     21  H   UNL     1      27.586 -25.675  -2.844  1.00  0.00     0.293 HD
ENDBRANCH  17  20
ENDBRANCH   1  12
BRANCH   6  22
ATOM     22  O   UNL     1      32.056 -26.115   6.119  1.00  0.00    -0.507 OA
ATOM     23  H   UNL     1      31.591 -26.932   5.743  1.00  0.00     0.293 HD
ENDBRANCH   6  22
BRANCH   8  24
ATOM     24  O   UNL     1      33.432 -21.495   5.895  1.00  0.00    -0.508 OA
ATOM     25  H   UNL     1      33.161 -21.022   6.749  1.00  0.00     0.293 HD
ENDBRANCH   8  24
TORSDOF 5
ENDMDL
MODEL 9
REMARK VINA RESULT:    -5.507      1.281      2.696
REMARK INTER + INTRA:          -6.738
REMARK INTER:                  -6.452
REMARK INTRA:                  -0.285
REMARK UNBOUND:                -0.264
REMARK SMILES O=c1cc(-c2ccc(O)c(O)c2)oc2cc(O)cc(O)c12
REMARK SMILES IDX 4 1 3 2 2 3 1 4 21 5 19 6 18 7 16 8 15 9 14 10 13 11 5 12
REMARK SMILES IDX 6 13 7 14 8 15 12 16 10 17 9 18 11 20 20 22 17 24
REMARK H PARENT 9 19 11 21 20 23 17 25
REMARK Flexibility Score: inf
ROOT
ATOM      1  C   UNL     1      36.767 -32.866   4.203  1.00  0.00     0.138 A 
ATOM      2  C   UNL     1      35.624 -32.198   4.674  1.00  0.00     0.100 A 
ATOM      3  C   UNL     1      34.359 -32.705   4.374  1.00  0.00     0.197 A 
ATOM      4  O   UNL     1      33.340 -32.097   4.799  1.00  0.00    -0.289 OA
ATOM      5  C   UNL     1      34.246 -33.877   3.599  1.00  0.00     0.107 A 
ATOM      6  C   UNL     1      33.003 -34.458   3.250  1.00  0.00     0.134 A 
ATOM      7  C   UNL     1      32.976 -35.623   2.470  1.00  0.00     0.093 A 
ATOM      8  C   UNL     1      34.162 -36.217   2.034  1.00  0.00     0.123 A 
ATOM      9  C   UNL     1      35.394 -35.647   2.376  1.00  0.00     0.094 A 
ATOM     10  C   UNL     1      35.443 -34.486   3.153  1.00  0.00     0.146 A 
ATOM     11  O   UNL     1      36.625 -33.965   3.466  1.00  0.00    -0.456 OA
ENDROOT
BRANCH   1  12
ATOM     12  C   UNL     1      38.137 -32.372   4.491  1.00  0.00     0.021 A 
ATOM     13  C   UNL     1      38.507 -32.096   5.819  1.00  0.00     0.016 A 
ATOM     14  C   UNL     1      39.788 -31.622   6.116  1.00  0.00     0.051 A 
ATOM     15  C   UNL     1      40.717 -31.407   5.091  1.00  0.00     0.157 A 
ATOM     16  C   UNL     1      39.073 -32.140   3.464  1.00  0.00     0.062 A 
ATOM     17  C   UNL     1      40.356 -31.664   3.759  1.00  0.00     0.158 A 
BRANCH  15  18
ATOM     18  O   UNL     1      41.994 -30.936   5.391  1.00  0.00    -0.504 OA
ATOM     19  H   UNL     1      42.223 -29.949   5.336  1.00  0.00     0.293 HD
ENDBRANCH  15  18
BRANCH  17  20
ATOM     20  O   UNL     1      41.254 -31.449   2.715  1.00  0.00    -0.504 OA
ATOM     21  H   UNL     1      41.943 -30.707   2.741  1.00  0.00     0.293 HD
ENDBRANCH  17  20
ENDBRANCH   1  12
BRANCH   6  22
ATOM     22  O   UNL     1      31.802 -33.886   3.670  1.00  0.00    -0.507 OA
ATOM     23  H   UNL     1      31.192 -34.353   4.331  1.00  0.00     0.293 HD
ENDBRANCH   6  22
BRANCH   8  24
ATOM     24  O   UNL     1      34.107 -37.374   1.260  1.00  0.00    -0.508 OA
ATOM     25  H   UNL     1      33.524 -37.431   0.433  1.00  0.00     0.293 HD
ENDBRANCH   8  24
TORSDOF 5
ENDMDL
