MODEL 1
REMARK VINA RESULT:    -4.703      0.000      0.000
REMARK INTER + INTRA:          -7.011
REMARK INTER:                  -6.627
REMARK INTRA:                  -0.384
REMARK UNBOUND:                -0.384
REMARK SMILES C=CCCCCCCC(=O)[O-]
REMARK SMILES IDX 6 1 7 2 8 3 9 4 10 5 11 6 5 7 4 8 3 9 2 10 1 11
REMARK H PARENT
REMARK Flexibility Score: inf
ROOT
ATOM      1  C   UNL     1      29.342  -7.573 -12.917  1.00  0.00     0.000 C 
ENDROOT
BRANCH   1   2
ATOM      2  C   UNL     1      29.673  -8.542 -14.063  1.00  0.00     0.006 C 
BRANCH   2   3
ATOM      3  C   UNL     1      29.640  -7.852 -15.433  1.00  0.00     0.053 C 
BRANCH   3   4
ATOM      4  C   UNL     1      29.559  -8.844 -16.553  1.00  0.00     0.041 C 
ATOM      5  O   UNL     1      30.548  -9.572 -16.829  1.00  0.00    -0.550 OA
ATOM      6  O   UNL     1      28.401  -8.941 -17.313  1.00  0.00    -0.550 OA
ENDBRANCH   3   4
ENDBRANCH   2   3
ENDBRANCH   1   2
BRANCH   1   7
ATOM      7  C   UNL     1      29.129  -6.148 -13.449  1.00  0.00     0.000 C 
BRANCH   7   8
ATOM      8  C   UNL     1      30.236  -5.180 -13.005  1.00  0.00     0.004 C 
BRANCH   8   9
ATOM      9  C   UNL     1      31.538  -5.904 -12.628  1.00  0.00     0.027 C 
BRANCH   9  10
ATOM     10  C   UNL     1      31.977  -5.542 -11.237  1.00  0.00    -0.035 C 
ATOM     11  C   UNL     1      32.696  -6.380 -10.484  1.00  0.00     0.004 C 
ENDBRANCH   9  10
ENDBRANCH   8   9
ENDBRANCH   7   8
ENDBRANCH   1   7
TORSDOF 7
ENDMDL
MODEL 2
REMARK VINA RESULT:    -4.642      0.762      1.063
REMARK INTER + INTRA:          -6.926
REMARK INTER:                  -6.618
REMARK INTRA:                  -0.308
REMARK UNBOUND:                -0.384
REMARK SMILES C=CCCCCCCC(=O)[O-]
REMARK SMILES IDX 6 1 7 2 8 3 9 4 10 5 11 6 5 7 4 8 3 9 2 10 1 11
REMARK H PARENT
REMARK Flexibility Score: inf
ROOT
ATOM      1  C   UNL     1      29.190  -6.320 -13.605  1.00  0.00     0.000 C 
ENDROOT
BRANCH   1   2
ATOM      2  C   UNL     1      29.668  -6.876 -14.955  1.00  0.00     0.006 C 
BRANCH   2   3
ATOM      3  C   UNL     1      29.761  -8.408 -14.952  1.00  0.00     0.053 C 
BRANCH   3   4
ATOM      4  C   UNL     1      29.644  -8.975 -16.333  1.00  0.00     0.041 C 
ATOM      5  O   UNL     1      30.620  -9.571 -16.860  1.00  0.00    -0.550 OA
ATOM      6  O   UNL     1      28.467  -8.815 -17.052  1.00  0.00    -0.550 OA
ENDBRANCH   3   4
ENDBRANCH   2   3
ENDBRANCH   1   2
BRANCH   1   7
ATOM      7  C   UNL     1      29.946  -5.032 -13.245  1.00  0.00     0.000 C 
BRANCH   7   8
ATOM      8  C   UNL     1      30.898  -5.220 -12.053  1.00  0.00     0.004 C 
BRANCH   8   9
ATOM      9  C   UNL     1      31.950  -6.313 -12.303  1.00  0.00     0.027 C 
BRANCH   9  10
ATOM     10  C   UNL     1      32.684  -6.658 -11.038  1.00  0.00    -0.035 C 
ATOM     11  C   UNL     1      32.609  -5.888  -9.948  1.00  0.00     0.004 C 
ENDBRANCH   9  10
ENDBRANCH   8   9
ENDBRANCH   7   8
ENDBRANCH   1   7
TORSDOF 7
ENDMDL
MODEL 3
REMARK VINA RESULT:    -4.609      3.154      5.552
REMARK INTER + INTRA:          -6.879
REMARK INTER:                  -6.597
REMARK INTRA:                  -0.282
REMARK UNBOUND:                -0.384
REMARK SMILES C=CCCCCCCC(=O)[O-]
REMARK SMILES IDX 6 1 7 2 8 3 9 4 10 5 11 6 5 7 4 8 3 9 2 10 1 11
REMARK H PARENT
REMARK Flexibility Score: inf
ROOT
ATOM      1  C   UNL     1      29.725  -5.052 -13.130  1.00  0.00     0.000 C 
ENDROOT
BRANCH   1   2
ATOM      2  C   UNL     1      31.159  -5.531 -12.858  1.00  0.00     0.006 C 
BRANCH   2   3
ATOM      3  C   UNL     1      31.568  -5.336 -11.391  1.00  0.00     0.053 C 
BRANCH   3   4
ATOM      4  C   UNL     1      32.594  -6.338 -10.962  1.00  0.00     0.041 C 
ATOM      5  O   UNL     1      33.032  -7.189 -11.781  1.00  0.00    -0.550 OA
ATOM      6  O   UNL     1      33.042  -6.355  -9.648  1.00  0.00    -0.550 OA
ENDBRANCH   3   4
ENDBRANCH   2   3
ENDBRANCH   1   2
BRANCH   1   7
ATOM      7  C   UNL     1      28.899  -6.156 -13.808  1.00  0.00     0.000 C 
BRANCH   7   8
ATOM      8  C   UNL     1      29.670  -6.863 -14.933  1.00  0.00     0.004 C 
BRANCH   8   9
ATOM      9  C   UNL     1      29.823  -8.372 -14.688  1.00  0.00     0.027 C 
BRANCH   9  10
ATOM     10  C   UNL     1      29.854  -9.132 -15.985  1.00  0.00    -0.035 C 
ATOM     11  C   UNL     1      28.977  -8.889 -16.964  1.00  0.00     0.004 C 
ENDBRANCH   9  10
ENDBRANCH   8   9
ENDBRANCH   7   8
ENDBRANCH   1   7
TORSDOF 7
ENDMDL
MODEL 4
REMARK VINA RESULT:    -4.548      3.550      5.552
REMARK INTER + INTRA:          -6.794
REMARK INTER:                  -6.388
REMARK INTRA:                  -0.406
REMARK UNBOUND:                -0.384
REMARK SMILES C=CCCCCCCC(=O)[O-]
REMARK SMILES IDX 6 1 7 2 8 3 9 4 10 5 11 6 5 7 4 8 3 9 2 10 1 11
REMARK H PARENT
REMARK Flexibility Score: inf
ROOT
ATOM      1  C   UNL     1      29.770  -5.331 -13.127  1.00  0.00     0.000 C 
ENDROOT
BRANCH   1   2
ATOM      2  C   UNL     1      30.830  -5.100 -12.040  1.00  0.00     0.006 C 
BRANCH   2   3
ATOM      3  C   UNL     1      31.857  -6.239 -11.979  1.00  0.00     0.053 C 
BRANCH   3   4
ATOM      4  C   UNL     1      32.569  -6.276 -10.662  1.00  0.00     0.041 C 
ATOM      5  O   UNL     1      33.447  -7.149 -10.439  1.00  0.00    -0.550 OA
ATOM      6  O   UNL     1      32.237  -5.365  -9.667  1.00  0.00    -0.550 OA
ENDBRANCH   3   4
ENDBRANCH   2   3
ENDBRANCH   1   2
BRANCH   1   7
ATOM      7  C   UNL     1      30.420  -5.412 -14.517  1.00  0.00     0.000 C 
BRANCH   7   8
ATOM      8  C   UNL     1      29.948  -6.636 -15.318  1.00  0.00     0.004 C 
BRANCH   8   9
ATOM      9  C   UNL     1      29.675  -7.857 -14.427  1.00  0.00     0.027 C 
BRANCH   9  10
ATOM     10  C   UNL     1      29.831  -9.138 -15.199  1.00  0.00    -0.035 C 
ATOM     11  C   UNL     1      30.045  -9.142 -16.518  1.00  0.00     0.004 C 
ENDBRANCH   9  10
ENDBRANCH   8   9
ENDBRANCH   7   8
ENDBRANCH   1   7
TORSDOF 7
ENDMDL
MODEL 5
REMARK VINA RESULT:    -4.352      3.105      5.963
REMARK INTER + INTRA:          -6.516
REMARK INTER:                  -6.267
REMARK INTRA:                  -0.249
REMARK UNBOUND:                -0.384
REMARK SMILES C=CCCCCCCC(=O)[O-]
REMARK SMILES IDX 6 1 7 2 8 3 9 4 10 5 11 6 5 7 4 8 3 9 2 10 1 11
REMARK H PARENT
REMARK Flexibility Score: inf
ROOT
ATOM      1  C   UNL     1      29.582  -7.741 -13.694  1.00  0.00     0.000 C 
ENDROOT
BRANCH   1   2
ATOM      2  C   UNL     1      29.655  -6.316 -13.124  1.00  0.00     0.006 C 
BRANCH   2   3
ATOM      3  C   UNL     1      31.069  -5.727 -13.213  1.00  0.00     0.053 C 
BRANCH   3   4
ATOM      4  C   UNL     1      31.881  -6.045 -11.995  1.00  0.00     0.041 C 
ATOM      5  O   UNL     1      32.669  -7.027 -11.995  1.00  0.00    -0.550 OA
ATOM      6  O   UNL     1      31.742  -5.275 -10.847  1.00  0.00    -0.550 OA
ENDBRANCH   3   4
ENDBRANCH   2   3
ENDBRANCH   1   2
BRANCH   1   7
ATOM      7  C   UNL     1      29.866  -7.742 -15.203  1.00  0.00     0.000 C 
BRANCH   7   8
ATOM      8  C   UNL     1      29.828  -9.154 -15.810  1.00  0.00     0.004 C 
BRANCH   8   9
ATOM      9  C   UNL     1      29.673  -9.137 -17.338  1.00  0.00     0.027 C 
BRANCH   9  10
ATOM     10  C   UNL     1      28.232  -8.973 -17.735  1.00  0.00    -0.035 C 
ATOM     11  C   UNL     1      27.800  -9.284 -18.961  1.00  0.00     0.004 C 
ENDBRANCH   9  10
ENDBRANCH   8   9
ENDBRANCH   7   8
ENDBRANCH   1   7
TORSDOF 7
ENDMDL
MODEL 6
REMARK VINA RESULT:    -4.278      4.945      6.063
REMARK INTER + INTRA:          -6.413
REMARK INTER:                  -6.115
REMARK INTRA:                  -0.298
REMARK UNBOUND:                -0.384
REMARK SMILES C=CCCCCCCC(=O)[O-]
REMARK SMILES IDX 6 1 7 2 8 3 9 4 10 5 11 6 5 7 4 8 3 9 2 10 1 11
REMARK H PARENT
REMARK Flexibility Score: inf
ROOT
ATOM      1  C   UNL     1      32.923  -5.685 -16.292  1.00  0.00     0.000 C 
ENDROOT
BRANCH   1   2
ATOM      2  C   UNL     1      33.604  -5.111 -17.543  1.00  0.00     0.006 C 
BRANCH   2   3
ATOM      3  C   UNL     1      35.004  -5.701 -17.764  1.00  0.00     0.053 C 
BRANCH   3   4
ATOM      4  C   UNL     1      36.069  -4.854 -17.138  1.00  0.00     0.041 C 
ATOM      5  O   UNL     1      36.662  -5.244 -16.099  1.00  0.00    -0.550 OA
ATOM      6  O   UNL     1      36.382  -3.616 -17.684  1.00  0.00    -0.550 OA
ENDBRANCH   3   4
ENDBRANCH   2   3
ENDBRANCH   1   2
BRANCH   1   7
ATOM      7  C   UNL     1      31.498  -5.132 -16.142  1.00  0.00     0.000 C 
BRANCH   7   8
ATOM      8  C   UNL     1      30.837  -5.554 -14.820  1.00  0.00     0.004 C 
BRANCH   8   9
ATOM      9  C   UNL     1      29.609  -6.453 -15.034  1.00  0.00     0.027 C 
BRANCH   9  10
ATOM     10  C   UNL     1      29.934  -7.892 -14.743  1.00  0.00    -0.035 C 
ATOM     11  C   UNL     1      29.766  -8.850 -15.660  1.00  0.00     0.004 C 
ENDBRANCH   9  10
ENDBRANCH   8   9
ENDBRANCH   7   8
ENDBRANCH   1   7
TORSDOF 7
ENDMDL
MODEL 7
REMARK VINA RESULT:    -4.222      5.204      6.199
REMARK INTER + INTRA:          -6.333
REMARK INTER:                  -6.139
REMARK INTRA:                  -0.194
REMARK UNBOUND:                -0.384
REMARK SMILES C=CCCCCCCC(=O)[O-]
REMARK SMILES IDX 6 1 7 2 8 3 9 4 10 5 11 6 5 7 4 8 3 9 2 10 1 11
REMARK H PARENT
REMARK Flexibility Score: inf
ROOT
ATOM      1  C   UNL     1      33.354  -5.512 -16.423  1.00  0.00     0.000 C 
ENDROOT
BRANCH   1   2
ATOM      2  C   UNL     1      34.026  -5.194 -17.768  1.00  0.00     0.006 C 
BRANCH   2   3
ATOM      3  C   UNL     1      35.439  -5.784 -17.865  1.00  0.00     0.053 C 
BRANCH   3   4
ATOM      4  C   UNL     1      36.472  -4.844 -17.324  1.00  0.00     0.041 C 
ATOM      5  O   UNL     1      36.439  -3.622 -17.626  1.00  0.00    -0.550 OA
ATOM      6  O   UNL     1      37.492  -5.324 -16.513  1.00  0.00    -0.550 OA
ENDBRANCH   3   4
ENDBRANCH   2   3
ENDBRANCH   1   2
BRANCH   1   7
ATOM      7  C   UNL     1      31.843  -5.247 -16.490  1.00  0.00     0.000 C 
BRANCH   7   8
ATOM      8  C   UNL     1      31.122  -5.607 -15.181  1.00  0.00     0.004 C 
BRANCH   8   9
ATOM      9  C   UNL     1      29.983  -6.617 -15.391  1.00  0.00     0.027 C 
BRANCH   9  10
ATOM     10  C   UNL     1      30.005  -7.687 -14.335  1.00  0.00    -0.035 C 
ATOM     11  C   UNL     1      29.417  -7.515 -13.147  1.00  0.00     0.004 C 
ENDBRANCH   9  10
ENDBRANCH   8   9
ENDBRANCH   7   8
ENDBRANCH   1   7
TORSDOF 7
ENDMDL
MODEL 8
REMARK VINA RESULT:    -4.017      4.584      5.146
REMARK INTER + INTRA:          -6.045
REMARK INTER:                  -5.832
REMARK INTRA:                  -0.213
REMARK UNBOUND:                -0.384
REMARK SMILES C=CCCCCCCC(=O)[O-]
REMARK SMILES IDX 6 1 7 2 8 3 9 4 10 5 11 6 5 7 4 8 3 9 2 10 1 11
REMARK H PARENT
REMARK Flexibility Score: inf
ROOT
ATOM      1  C   UNL     1      31.807  -5.133 -16.500  1.00  0.00     0.000 C 
ENDROOT
BRANCH   1   2
ATOM      2  C   UNL     1      31.157  -5.516 -15.162  1.00  0.00     0.006 C 
BRANCH   2   3
ATOM      3  C   UNL     1      29.980  -6.484 -15.344  1.00  0.00     0.053 C 
BRANCH   3   4
ATOM      4  C   UNL     1      30.027  -7.607 -14.355  1.00  0.00     0.041 C 
ATOM      5  O   UNL     1      30.369  -7.391 -13.163  1.00  0.00    -0.550 OA
ATOM      6  O   UNL     1      29.725  -8.901 -14.759  1.00  0.00    -0.550 OA
ENDBRANCH   3   4
ENDBRANCH   2   3
ENDBRANCH   1   2
BRANCH   1   7
ATOM      7  C   UNL     1      33.297  -5.503 -16.512  1.00  0.00     0.000 C 
BRANCH   7   8
ATOM      8  C   UNL     1      33.984  -5.146 -17.840  1.00  0.00     0.004 C 
BRANCH   8   9
ATOM      9  C   UNL     1      35.416  -5.696 -17.931  1.00  0.00     0.027 C 
BRANCH   9  10
ATOM     10  C   UNL     1      36.362  -4.886 -17.090  1.00  0.00    -0.035 C 
ATOM     11  C   UNL     1      37.336  -5.458 -16.375  1.00  0.00     0.004 C 
ENDBRANCH   9  10
ENDBRANCH   8   9
ENDBRANCH   7   8
ENDBRANCH   1   7
TORSDOF 7
ENDMDL
MODEL 9
REMARK VINA RESULT:    -3.683      4.538      5.215
REMARK INTER + INTRA:          -5.573
REMARK INTER:                  -5.244
REMARK INTRA:                  -0.329
REMARK UNBOUND:                -0.384
REMARK SMILES C=CCCCCCCC(=O)[O-]
REMARK SMILES IDX 6 1 7 2 8 3 9 4 10 5 11 6 5 7 4 8 3 9 2 10 1 11
REMARK H PARENT
REMARK Flexibility Score: inf
ROOT
ATOM      1  C   UNL     1      31.855  -5.322 -16.692  1.00  0.00     0.000 C 
ENDROOT
BRANCH   1   2
ATOM      2  C   UNL     1      33.354  -5.496 -16.405  1.00  0.00     0.006 C 
BRANCH   2   3
ATOM      3  C   UNL     1      34.218  -5.211 -17.641  1.00  0.00     0.053 C 
BRANCH   3   4
ATOM      4  C   UNL     1      35.660  -5.023 -17.280  1.00  0.00     0.041 C 
ATOM      5  O   UNL     1      36.259  -5.888 -16.588  1.00  0.00    -0.550 OA
ATOM      6  O   UNL     1      36.332  -3.876 -17.679  1.00  0.00    -0.550 OA
ENDBRANCH   3   4
ENDBRANCH   2   3
ENDBRANCH   1   2
BRANCH   1   7
ATOM      7  C   UNL     1      31.054  -5.235 -15.384  1.00  0.00     0.000 C 
BRANCH   7   8
ATOM      8  C   UNL     1      30.270  -6.523 -15.085  1.00  0.00     0.004 C 
BRANCH   8   9
ATOM      9  C   UNL     1      29.957  -6.691 -13.590  1.00  0.00     0.027 C 
BRANCH   9  10
ATOM     10  C   UNL     1      30.945  -5.939 -12.742  1.00  0.00    -0.035 C 
ATOM     11  C   UNL     1      31.933  -6.562 -12.092  1.00  0.00     0.004 C 
ENDBRANCH   9  10
ENDBRANCH   8   9
ENDBRANCH   7   8
ENDBRANCH   1   7
TORSDOF 7
ENDMDL
