MODEL 1
REMARK VINA RESULT:    -7.711      0.000      0.000
REMARK INTER + INTRA:          -9.555
REMARK INTER:                  -9.514
REMARK INTRA:                  -0.041
REMARK UNBOUND:                -0.041
REMARK SMILES Oc1cc(O)c2cc(O)c(-c3cc(O)c(O)c(O)c3)[o+]c2c1
REMARK SMILES IDX 10 1 20 2 21 3 22 4 2 5 3 6 4 7 6 8 7 9 8 10 11 11 12 12
REMARK SMILES IDX 13 13 19 14 15 15 17 16 14 17 16 19 18 21 9 23 1 25 5 27
REMARK H PARENT 14 18 16 20 18 22 9 24 1 26 5 28
REMARK Flexibility Score: inf
ROOT
ATOM      1  C   UNL     1      22.198  -5.684 -38.923  1.00  0.00     0.402 A 
ATOM      2  O   UNL     1      21.667  -5.157 -40.024  1.00  0.00    -0.202 OA
ATOM      3  C   UNL     1      20.800  -4.149 -40.005  1.00  0.00     0.368 A 
ATOM      4  C   UNL     1      20.295  -3.666 -41.215  1.00  0.00     0.162 A 
ATOM      5  C   UNL     1      19.381  -2.611 -41.226  1.00  0.00     0.128 A 
ATOM      6  C   UNL     1      18.969  -2.035 -40.020  1.00  0.00     0.093 A 
ATOM      7  C   UNL     1      19.460  -2.501 -38.795  1.00  0.00     0.136 A 
ATOM      8  C   UNL     1      20.391  -3.572 -38.779  1.00  0.00     0.125 A 
ATOM      9  C   UNL     1      20.947  -4.096 -37.601  1.00  0.00     0.078 A 
ATOM     10  C   UNL     1      21.863  -5.149 -37.665  1.00  0.00     0.223 A 
ENDROOT
BRANCH   1  11
ATOM     11  C   UNL     1      23.145  -6.812 -39.074  1.00  0.00     0.091 A 
ATOM     12  C   UNL     1      22.765  -7.938 -39.821  1.00  0.00     0.068 A 
ATOM     13  C   UNL     1      23.631  -9.027 -39.963  1.00  0.00     0.162 A 
ATOM     14  C   UNL     1      24.398  -6.806 -38.437  1.00  0.00     0.068 A 
ATOM     15  C   UNL     1      24.891  -9.007 -39.342  1.00  0.00     0.200 A 
ATOM     16  C   UNL     1      25.272  -7.894 -38.573  1.00  0.00     0.162 A 
BRANCH  13  17
ATOM     17  O   UNL     1      23.221 -10.120 -40.726  1.00  0.00    -0.504 OA
ATOM     18  H   UNL     1      23.877 -10.691 -41.245  1.00  0.00     0.293 HD
ENDBRANCH  13  17
BRANCH  15  19
ATOM     19  O   UNL     1      25.751 -10.096 -39.492  1.00  0.00    -0.502 OA
ATOM     20  H   UNL     1      25.827 -10.824 -38.793  1.00  0.00     0.293 HD
ENDBRANCH  15  19
BRANCH  16  21
ATOM     21  O   UNL     1      26.515  -7.873 -37.941  1.00  0.00    -0.504 OA
ATOM     22  H   UNL     1      27.245  -7.231 -38.225  1.00  0.00     0.293 HD
ENDBRANCH  16  21
ENDBRANCH   1  11
BRANCH  10  23
ATOM     23  O   UNL     1      22.452  -5.638 -36.499  1.00  0.00    -0.500 OA
ATOM     24  H   UNL     1      22.737  -5.020 -35.747  1.00  0.00     0.294 HD
ENDBRANCH  10  23
BRANCH   5  25
ATOM     25  O   UNL     1      18.888  -2.143 -42.442  1.00  0.00    -0.507 OA
ATOM     26  H   UNL     1      19.083  -2.623 -43.312  1.00  0.00     0.293 HD
ENDBRANCH   5  25
BRANCH   7  27
ATOM     27  O   UNL     1      18.997  -1.875 -37.633  1.00  0.00    -0.507 OA
ATOM     28  H   UNL     1      18.051  -1.943 -37.286  1.00  0.00     0.293 HD
ENDBRANCH   7  27
TORSDOF 7
ENDMDL
MODEL 2
REMARK VINA RESULT:    -7.645      0.081      1.795
REMARK INTER + INTRA:          -9.474
REMARK INTER:                  -9.458
REMARK INTRA:                  -0.017
REMARK UNBOUND:                -0.041
REMARK SMILES Oc1cc(O)c2cc(O)c(-c3cc(O)c(O)c(O)c3)[o+]c2c1
REMARK SMILES IDX 10 1 20 2 21 3 22 4 2 5 3 6 4 7 6 8 7 9 8 10 11 11 12 12
REMARK SMILES IDX 13 13 19 14 15 15 17 16 14 17 16 19 18 21 9 23 1 25 5 27
REMARK H PARENT 14 18 16 20 18 22 9 24 1 26 5 28
REMARK Flexibility Score: inf
ROOT
ATOM      1  C   UNL     1      22.124  -5.746 -38.918  1.00  0.00     0.402 A 
ATOM      2  O   UNL     1      21.616  -5.205 -40.023  1.00  0.00    -0.202 OA
ATOM      3  C   UNL     1      20.771  -4.180 -40.011  1.00  0.00     0.368 A 
ATOM      4  C   UNL     1      20.290  -3.682 -41.225  1.00  0.00     0.162 A 
ATOM      5  C   UNL     1      19.398  -2.609 -41.243  1.00  0.00     0.128 A 
ATOM      6  C   UNL     1      18.984  -2.027 -40.040  1.00  0.00     0.093 A 
ATOM      7  C   UNL     1      19.452  -2.508 -38.811  1.00  0.00     0.136 A 
ATOM      8  C   UNL     1      20.360  -3.597 -38.788  1.00  0.00     0.125 A 
ATOM      9  C   UNL     1      20.891  -4.136 -37.605  1.00  0.00     0.078 A 
ATOM     10  C   UNL     1      21.786  -5.208 -37.662  1.00  0.00     0.223 A 
ENDROOT
BRANCH   1  11
ATOM     11  C   UNL     1      23.049  -6.893 -39.061  1.00  0.00     0.091 A 
ATOM     12  C   UNL     1      24.290  -6.865 -38.406  1.00  0.00     0.068 A 
ATOM     13  C   UNL     1      25.193  -7.924 -38.539  1.00  0.00     0.162 A 
ATOM     14  C   UNL     1      22.736  -7.988 -39.884  1.00  0.00     0.068 A 
ATOM     15  C   UNL     1      24.867  -9.027 -39.347  1.00  0.00     0.200 A 
ATOM     16  C   UNL     1      23.636  -9.055 -40.024  1.00  0.00     0.162 A 
BRANCH  13  17
ATOM     17  O   UNL     1      26.409  -7.864 -37.860  1.00  0.00    -0.504 OA
ATOM     18  H   UNL     1      26.770  -6.997 -37.478  1.00  0.00     0.293 HD
ENDBRANCH  13  17
BRANCH  15  19
ATOM     19  O   UNL     1      25.771 -10.083 -39.471  1.00  0.00    -0.502 OA
ATOM     20  H   UNL     1      26.107 -10.403 -40.371  1.00  0.00     0.293 HD
ENDBRANCH  15  19
BRANCH  16  21
ATOM     21  O   UNL     1      23.311 -10.139 -40.839  1.00  0.00    -0.504 OA
ATOM     22  H   UNL     1      23.997 -10.842 -41.086  1.00  0.00     0.293 HD
ENDBRANCH  16  21
ENDBRANCH   1  11
BRANCH  10  23
ATOM     23  O   UNL     1      22.352  -5.712 -36.491  1.00  0.00    -0.500 OA
ATOM     24  H   UNL     1      23.331  -5.572 -36.269  1.00  0.00     0.294 HD
ENDBRANCH  10  23
BRANCH   5  25
ATOM     25  O   UNL     1      18.929  -2.127 -42.463  1.00  0.00    -0.507 OA
ATOM     26  H   UNL     1      18.385  -1.275 -42.522  1.00  0.00     0.293 HD
ENDBRANCH   5  25
BRANCH   7  27
ATOM     27  O   UNL     1      18.988  -1.875 -37.653  1.00  0.00    -0.507 OA
ATOM     28  H   UNL     1      18.078  -2.028 -37.244  1.00  0.00     0.293 HD
ENDBRANCH   7  27
TORSDOF 7
ENDMDL
MODEL 3
REMARK VINA RESULT:    -7.511      2.474      7.106
REMARK INTER + INTRA:          -9.308
REMARK INTER:                  -8.967
REMARK INTRA:                  -0.341
REMARK UNBOUND:                -0.041
REMARK SMILES Oc1cc(O)c2cc(O)c(-c3cc(O)c(O)c(O)c3)[o+]c2c1
REMARK SMILES IDX 10 1 20 2 21 3 22 4 2 5 3 6 4 7 6 8 7 9 8 10 11 11 12 12
REMARK SMILES IDX 13 13 19 14 15 15 17 16 14 17 16 19 18 21 9 23 1 25 5 27
REMARK H PARENT 14 18 16 20 18 22 9 24 1 26 5 28
REMARK Flexibility Score: inf
ROOT
ATOM      1  C   UNL     1      23.217  -4.587 -38.631  1.00  0.00     0.402 A 
ATOM      2  O   UNL     1      24.307  -3.824 -38.617  1.00  0.00    -0.202 OA
ATOM      3  C   UNL     1      25.527  -4.298 -38.385  1.00  0.00     0.368 A 
ATOM      4  C   UNL     1      26.610  -3.416 -38.388  1.00  0.00     0.162 A 
ATOM      5  C   UNL     1      27.902  -3.884 -38.144  1.00  0.00     0.128 A 
ATOM      6  C   UNL     1      28.113  -5.245 -37.895  1.00  0.00     0.093 A 
ATOM      7  C   UNL     1      27.044  -6.149 -37.887  1.00  0.00     0.136 A 
ATOM      8  C   UNL     1      25.730  -5.677 -38.137  1.00  0.00     0.125 A 
ATOM      9  C   UNL     1      24.601  -6.511 -38.161  1.00  0.00     0.078 A 
ATOM     10  C   UNL     1      23.337  -5.973 -38.419  1.00  0.00     0.223 A 
ENDROOT
BRANCH   1  11
ATOM     11  C   UNL     1      21.911  -3.939 -38.891  1.00  0.00     0.091 A 
ATOM     12  C   UNL     1      21.354  -4.003 -40.178  1.00  0.00     0.068 A 
ATOM     13  C   UNL     1      20.132  -3.383 -40.459  1.00  0.00     0.162 A 
ATOM     14  C   UNL     1      21.242  -3.213 -37.892  1.00  0.00     0.068 A 
ATOM     15  C   UNL     1      19.456  -2.675 -39.450  1.00  0.00     0.200 A 
ATOM     16  C   UNL     1      20.017  -2.588 -38.165  1.00  0.00     0.162 A 
BRANCH  13  17
ATOM     17  O   UNL     1      19.606  -3.482 -41.746  1.00  0.00    -0.504 OA
ATOM     18  H   UNL     1      18.820  -4.083 -41.962  1.00  0.00     0.293 HD
ENDBRANCH  13  17
BRANCH  15  19
ATOM     19  O   UNL     1      18.235  -2.063 -39.737  1.00  0.00    -0.502 OA
ATOM     20  H   UNL     1      18.102  -1.062 -39.662  1.00  0.00     0.293 HD
ENDBRANCH  15  19
BRANCH  16  21
ATOM     21  O   UNL     1      19.359  -1.875 -37.163  1.00  0.00    -0.504 OA
ATOM     22  H   UNL     1      19.713  -1.842 -36.214  1.00  0.00     0.293 HD
ENDBRANCH  16  21
ENDBRANCH   1  11
BRANCH  10  23
ATOM     23  O   UNL     1      22.222  -6.808 -38.492  1.00  0.00    -0.500 OA
ATOM     24  H   UNL     1      22.148  -7.539 -39.191  1.00  0.00     0.294 HD
ENDBRANCH  10  23
BRANCH   5  25
ATOM     25  O   UNL     1      28.969  -2.989 -38.151  1.00  0.00    -0.507 OA
ATOM     26  H   UNL     1      29.113  -2.342 -38.916  1.00  0.00     0.293 HD
ENDBRANCH   5  25
BRANCH   7  27
ATOM     27  O   UNL     1      27.337  -7.491 -37.627  1.00  0.00    -0.507 OA
ATOM     28  H   UNL     1      28.160  -7.971 -37.960  1.00  0.00     0.293 HD
ENDBRANCH   7  27
TORSDOF 7
ENDMDL
MODEL 4
REMARK VINA RESULT:    -7.301      1.684      7.231
REMARK INTER + INTRA:          -9.050
REMARK INTER:                  -8.760
REMARK INTRA:                  -0.290
REMARK UNBOUND:                -0.041
REMARK SMILES Oc1cc(O)c2cc(O)c(-c3cc(O)c(O)c(O)c3)[o+]c2c1
REMARK SMILES IDX 10 1 20 2 21 3 22 4 2 5 3 6 4 7 6 8 7 9 8 10 11 11 12 12
REMARK SMILES IDX 13 13 19 14 15 15 17 16 14 17 16 19 18 21 9 23 1 25 5 27
REMARK H PARENT 14 18 16 20 18 22 9 24 1 26 5 28
REMARK Flexibility Score: inf
ROOT
ATOM      1  C   UNL     1      22.850  -4.380 -38.918  1.00  0.00     0.402 A 
ATOM      2  O   UNL     1      22.887  -5.710 -38.900  1.00  0.00    -0.202 OA
ATOM      3  C   UNL     1      23.986  -6.407 -38.630  1.00  0.00     0.368 A 
ATOM      4  C   UNL     1      23.925  -7.802 -38.638  1.00  0.00     0.162 A 
ATOM      5  C   UNL     1      25.065  -8.560 -38.362  1.00  0.00     0.128 A 
ATOM      6  C   UNL     1      26.275  -7.918 -38.076  1.00  0.00     0.093 A 
ATOM      7  C   UNL     1      26.361  -6.521 -38.062  1.00  0.00     0.136 A 
ATOM      8  C   UNL     1      25.205  -5.747 -38.339  1.00  0.00     0.125 A 
ATOM      9  C   UNL     1      25.195  -4.343 -38.335  1.00  0.00     0.078 A 
ATOM     10  C   UNL     1      24.014  -3.649 -38.613  1.00  0.00     0.223 A 
ENDROOT
BRANCH   1  11
ATOM     11  C   UNL     1      21.566  -3.719 -39.242  1.00  0.00     0.091 A 
ATOM     12  C   UNL     1      20.828  -3.104 -38.218  1.00  0.00     0.068 A 
ATOM     13  C   UNL     1      19.602  -2.490 -38.491  1.00  0.00     0.162 A 
ATOM     14  C   UNL     1      21.040  -3.740 -40.545  1.00  0.00     0.068 A 
ATOM     15  C   UNL     1      19.090  -2.495 -39.800  1.00  0.00     0.200 A 
ATOM     16  C   UNL     1      19.811  -3.127 -40.827  1.00  0.00     0.162 A 
BRANCH  13  17
ATOM     17  O   UNL     1      18.907  -1.878 -37.448  1.00  0.00    -0.504 OA
ATOM     18  H   UNL     1      18.103  -1.284 -37.612  1.00  0.00     0.293 HD
ENDBRANCH  13  17
BRANCH  15  19
ATOM     19  O   UNL     1      17.868  -1.876 -40.065  1.00  0.00    -0.502 OA
ATOM     20  H   UNL     1      17.617  -0.982 -39.660  1.00  0.00     0.293 HD
ENDBRANCH  15  19
BRANCH  16  21
ATOM     21  O   UNL     1      19.303  -3.149 -42.125  1.00  0.00    -0.504 OA
ATOM     22  H   UNL     1      19.421  -2.366 -42.756  1.00  0.00     0.293 HD
ENDBRANCH  16  21
ENDBRANCH   1  11
BRANCH  10  23
ATOM     23  O   UNL     1      23.991  -2.255 -38.560  1.00  0.00    -0.500 OA
ATOM     24  H   UNL     1      23.348  -1.755 -37.957  1.00  0.00     0.294 HD
ENDBRANCH  10  23
BRANCH   5  25
ATOM     25  O   UNL     1      24.984  -9.950 -38.375  1.00  0.00    -0.507 OA
ATOM     26  H   UNL     1      25.541 -10.507 -39.013  1.00  0.00     0.293 HD
ENDBRANCH   5  25
BRANCH   7  27
ATOM     27  O   UNL     1      27.607  -5.955 -37.770  1.00  0.00    -0.507 OA
ATOM     28  H   UNL     1      28.443  -6.486 -37.576  1.00  0.00     0.293 HD
ENDBRANCH   7  27
TORSDOF 7
ENDMDL
MODEL 5
REMARK VINA RESULT:    -7.269      1.595      7.085
REMARK INTER + INTRA:          -9.010
REMARK INTER:                  -8.720
REMARK INTRA:                  -0.290
REMARK UNBOUND:                -0.041
REMARK SMILES Oc1cc(O)c2cc(O)c(-c3cc(O)c(O)c(O)c3)[o+]c2c1
REMARK SMILES IDX 10 1 20 2 21 3 22 4 2 5 3 6 4 7 6 8 7 9 8 10 11 11 12 12
REMARK SMILES IDX 13 13 19 14 15 15 17 16 14 17 16 19 18 21 9 23 1 25 5 27
REMARK H PARENT 14 18 16 20 18 22 9 24 1 26 5 28
REMARK Flexibility Score: inf
ROOT
ATOM      1  C   UNL     1      22.795  -4.516 -39.078  1.00  0.00     0.402 A 
ATOM      2  O   UNL     1      22.824  -5.846 -39.074  1.00  0.00    -0.202 OA
ATOM      3  C   UNL     1      23.932  -6.552 -38.872  1.00  0.00     0.368 A 
ATOM      4  C   UNL     1      23.861  -7.947 -38.889  1.00  0.00     0.162 A 
ATOM      5  C   UNL     1      25.009  -8.714 -38.684  1.00  0.00     0.128 A 
ATOM      6  C   UNL     1      26.237  -8.082 -38.460  1.00  0.00     0.093 A 
ATOM      7  C   UNL     1      26.334  -6.686 -38.438  1.00  0.00     0.136 A 
ATOM      8  C   UNL     1      25.169  -5.903 -38.644  1.00  0.00     0.125 A 
ATOM      9  C   UNL     1      25.169  -4.499 -38.626  1.00  0.00     0.078 A 
ATOM     10  C   UNL     1      23.979  -3.795 -38.832  1.00  0.00     0.223 A 
ENDROOT
BRANCH   1  11
ATOM     11  C   UNL     1      21.500  -3.843 -39.324  1.00  0.00     0.091 A 
ATOM     12  C   UNL     1      20.971  -3.818 -40.625  1.00  0.00     0.068 A 
ATOM     13  C   UNL     1      19.760  -3.173 -40.891  1.00  0.00     0.162 A 
ATOM     14  C   UNL     1      20.812  -3.179 -38.295  1.00  0.00     0.068 A 
ATOM     15  C   UNL     1      19.065  -2.528 -39.854  1.00  0.00     0.200 A 
ATOM     16  C   UNL     1      19.597  -2.529 -38.553  1.00  0.00     0.162 A 
BRANCH  13  17
ATOM     17  O   UNL     1      19.262  -3.184 -42.194  1.00  0.00    -0.504 OA
ATOM     18  H   UNL     1      19.576  -3.855 -42.885  1.00  0.00     0.293 HD
ENDBRANCH  13  17
BRANCH  15  19
ATOM     19  O   UNL     1      17.854  -1.890 -40.127  1.00  0.00    -0.502 OA
ATOM     20  H   UNL     1      17.099  -2.352 -40.619  1.00  0.00     0.293 HD
ENDBRANCH  15  19
BRANCH  16  21
ATOM     21  O   UNL     1      18.921  -1.878 -37.522  1.00  0.00    -0.504 OA
ATOM     22  H   UNL     1      18.870  -2.270 -36.589  1.00  0.00     0.293 HD
ENDBRANCH  16  21
ENDBRANCH   1  11
BRANCH  10  23
ATOM     23  O   UNL     1      23.969  -2.401 -38.766  1.00  0.00    -0.500 OA
ATOM     24  H   UNL     1      23.735  -1.831 -39.571  1.00  0.00     0.294 HD
ENDBRANCH  10  23
BRANCH   5  25
ATOM     25  O   UNL     1      24.918 -10.104 -38.705  1.00  0.00    -0.507 OA
ATOM     26  H   UNL     1      24.790 -10.613 -39.571  1.00  0.00     0.293 HD
ENDBRANCH   5  25
BRANCH   7  27
ATOM     27  O   UNL     1      27.598  -6.131 -38.211  1.00  0.00    -0.507 OA
ATOM     28  H   UNL     1      28.461  -6.513 -38.567  1.00  0.00     0.293 HD
ENDBRANCH   7  27
TORSDOF 7
ENDMDL
MODEL 6
REMARK VINA RESULT:    -7.246      1.569      2.662
REMARK INTER + INTRA:          -8.981
REMARK INTER:                  -8.658
REMARK INTRA:                  -0.324
REMARK UNBOUND:                -0.041
REMARK SMILES Oc1cc(O)c2cc(O)c(-c3cc(O)c(O)c(O)c3)[o+]c2c1
REMARK SMILES IDX 10 1 20 2 21 3 22 4 2 5 3 6 4 7 6 8 7 9 8 10 11 11 12 12
REMARK SMILES IDX 13 13 19 14 15 15 17 16 14 17 16 19 18 21 9 23 1 25 5 27
REMARK H PARENT 14 18 16 20 18 22 9 24 1 26 5 28
REMARK Flexibility Score: inf
ROOT
ATOM      1  C   UNL     1      22.859  -4.527 -38.127  1.00  0.00     0.402 A 
ATOM      2  O   UNL     1      22.320  -4.381 -39.335  1.00  0.00    -0.202 OA
ATOM      3  C   UNL     1      21.180  -3.735 -39.553  1.00  0.00     0.368 A 
ATOM      4  C   UNL     1      20.693  -3.637 -40.858  1.00  0.00     0.162 A 
ATOM      5  C   UNL     1      19.496  -2.967 -41.116  1.00  0.00     0.128 A 
ATOM      6  C   UNL     1      18.780  -2.390 -40.062  1.00  0.00     0.093 A 
ATOM      7  C   UNL     1      19.247  -2.475 -38.745  1.00  0.00     0.136 A 
ATOM      8  C   UNL     1      20.464  -3.152 -38.479  1.00  0.00     0.125 A 
ATOM      9  C   UNL     1      21.015  -3.275 -37.193  1.00  0.00     0.078 A 
ATOM     10  C   UNL     1      22.223  -3.955 -37.009  1.00  0.00     0.223 A 
ENDROOT
BRANCH   1  11
ATOM     11  C   UNL     1      24.130  -5.278 -38.012  1.00  0.00     0.091 A 
ATOM     12  C   UNL     1      25.335  -4.575 -37.854  1.00  0.00     0.068 A 
ATOM     13  C   UNL     1      26.552  -5.256 -37.764  1.00  0.00     0.162 A 
ATOM     14  C   UNL     1      24.164  -6.679 -38.114  1.00  0.00     0.068 A 
ATOM     15  C   UNL     1      26.580  -6.659 -37.845  1.00  0.00     0.200 A 
ATOM     16  C   UNL     1      25.381  -7.370 -38.024  1.00  0.00     0.162 A 
BRANCH  13  17
ATOM     17  O   UNL     1      27.725  -4.522 -37.593  1.00  0.00    -0.504 OA
ATOM     18  H   UNL     1      27.820  -3.571 -37.931  1.00  0.00     0.293 HD
ENDBRANCH  13  17
BRANCH  15  19
ATOM     19  O   UNL     1      27.799  -7.332 -37.749  1.00  0.00    -0.502 OA
ATOM     20  H   UNL     1      27.859  -8.343 -37.755  1.00  0.00     0.293 HD
ENDBRANCH  15  19
BRANCH  16  21
ATOM     21  O   UNL     1      25.401  -8.761 -38.120  1.00  0.00    -0.504 OA
ATOM     22  H   UNL     1      25.042  -9.243 -38.936  1.00  0.00     0.293 HD
ENDBRANCH  16  21
ENDBRANCH   1  11
BRANCH  10  23
ATOM     23  O   UNL     1      22.796  -4.035 -35.740  1.00  0.00    -0.500 OA
ATOM     24  H   UNL     1      22.352  -4.547 -34.986  1.00  0.00     0.294 HD
ENDBRANCH  10  23
BRANCH   5  25
ATOM     25  O   UNL     1      19.026  -2.881 -42.425  1.00  0.00    -0.507 OA
ATOM     26  H   UNL     1      18.936  -3.702 -43.011  1.00  0.00     0.293 HD
ENDBRANCH   5  25
BRANCH   7  27
ATOM     27  O   UNL     1      18.472  -1.875 -37.747  1.00  0.00    -0.507 OA
ATOM     28  H   UNL     1      18.520  -0.899 -37.495  1.00  0.00     0.293 HD
ENDBRANCH   7  27
TORSDOF 7
ENDMDL
MODEL 7
REMARK VINA RESULT:    -7.133      1.608      2.144
REMARK INTER + INTRA:          -8.842
REMARK INTER:                  -8.521
REMARK INTRA:                  -0.321
REMARK UNBOUND:                -0.041
REMARK SMILES Oc1cc(O)c2cc(O)c(-c3cc(O)c(O)c(O)c3)[o+]c2c1
REMARK SMILES IDX 10 1 20 2 21 3 22 4 2 5 3 6 4 7 6 8 7 9 8 10 11 11 12 12
REMARK SMILES IDX 13 13 19 14 15 15 17 16 14 17 16 19 18 21 9 23 1 25 5 27
REMARK H PARENT 14 18 16 20 18 22 9 24 1 26 5 28
REMARK Flexibility Score: inf
ROOT
ATOM      1  C   UNL     1      22.980  -4.524 -38.129  1.00  0.00     0.402 A 
ATOM      2  O   UNL     1      22.413  -4.391 -39.325  1.00  0.00    -0.202 OA
ATOM      3  C   UNL     1      21.267  -3.748 -39.522  1.00  0.00     0.368 A 
ATOM      4  C   UNL     1      20.748  -3.664 -40.816  1.00  0.00     0.162 A 
ATOM      5  C   UNL     1      19.544  -2.999 -41.052  1.00  0.00     0.128 A 
ATOM      6  C   UNL     1      18.853  -2.413 -39.987  1.00  0.00     0.093 A 
ATOM      7  C   UNL     1      19.351  -2.483 -38.680  1.00  0.00     0.136 A 
ATOM      8  C   UNL     1      20.576  -3.156 -38.437  1.00  0.00     0.125 A 
ATOM      9  C   UNL     1      21.158  -3.266 -37.163  1.00  0.00     0.078 A 
ATOM     10  C   UNL     1      22.370  -3.942 -37.002  1.00  0.00     0.223 A 
ENDROOT
BRANCH   1  11
ATOM     11  C   UNL     1      24.255  -5.272 -38.037  1.00  0.00     0.091 A 
ATOM     12  C   UNL     1      24.235  -6.675 -38.062  1.00  0.00     0.068 A 
ATOM     13  C   UNL     1      25.421  -7.408 -37.956  1.00  0.00     0.162 A 
ATOM     14  C   UNL     1      25.483  -4.609 -37.869  1.00  0.00     0.068 A 
ATOM     15  C   UNL     1      26.649  -6.740 -37.809  1.00  0.00     0.200 A 
ATOM     16  C   UNL     1      26.676  -5.336 -37.761  1.00  0.00     0.162 A 
BRANCH  13  17
ATOM     17  O   UNL     1      25.360  -8.801 -38.000  1.00  0.00    -0.504 OA
ATOM     18  H   UNL     1      25.972  -9.385 -37.442  1.00  0.00     0.293 HD
ENDBRANCH  13  17
BRANCH  15  19
ATOM     19  O   UNL     1      27.829  -7.479 -37.709  1.00  0.00    -0.502 OA
ATOM     20  H   UNL     1      28.737  -7.038 -37.638  1.00  0.00     0.293 HD
ENDBRANCH  15  19
BRANCH  16  21
ATOM     21  O   UNL     1      27.889  -4.666 -37.600  1.00  0.00    -0.504 OA
ATOM     22  H   UNL     1      28.660  -5.078 -37.089  1.00  0.00     0.293 HD
ENDBRANCH  16  21
ENDBRANCH   1  11
BRANCH  10  23
ATOM     23  O   UNL     1      22.974  -4.008 -35.746  1.00  0.00    -0.500 OA
ATOM     24  H   UNL     1      23.290  -4.887 -35.352  1.00  0.00     0.294 HD
ENDBRANCH  10  23
BRANCH   5  25
ATOM     25  O   UNL     1      19.044  -2.926 -42.350  1.00  0.00    -0.507 OA
ATOM     26  H   UNL     1      18.052  -3.006 -42.541  1.00  0.00     0.293 HD
ENDBRANCH   5  25
BRANCH   7  27
ATOM     27  O   UNL     1      18.599  -1.875 -37.670  1.00  0.00    -0.507 OA
ATOM     28  H   UNL     1      17.870  -1.197 -37.831  1.00  0.00     0.293 HD
ENDBRANCH   7  27
TORSDOF 7
ENDMDL
MODEL 8
REMARK VINA RESULT:    -7.022      1.491      3.595
REMARK INTER + INTRA:          -8.706
REMARK INTER:                  -8.861
REMARK INTRA:                   0.155
REMARK UNBOUND:                -0.041
REMARK SMILES Oc1cc(O)c2cc(O)c(-c3cc(O)c(O)c(O)c3)[o+]c2c1
REMARK SMILES IDX 10 1 20 2 21 3 22 4 2 5 3 6 4 7 6 8 7 9 8 10 11 11 12 12
REMARK SMILES IDX 13 13 19 14 15 15 17 16 14 17 16 19 18 21 9 23 1 25 5 27
REMARK H PARENT 14 18 16 20 18 22 9 24 1 26 5 28
REMARK Flexibility Score: inf
ROOT
ATOM      1  C   UNL     1      22.552  -5.752 -38.493  1.00  0.00     0.402 A 
ATOM      2  O   UNL     1      22.632  -5.149 -37.309  1.00  0.00    -0.202 OA
ATOM      3  C   UNL     1      21.878  -4.110 -36.967  1.00  0.00     0.368 A 
ATOM      4  C   UNL     1      22.038  -3.543 -35.700  1.00  0.00     0.162 A 
ATOM      5  C   UNL     1      21.263  -2.449 -35.315  1.00  0.00     0.128 A 
ATOM      6  C   UNL     1      20.321  -1.916 -36.201  1.00  0.00     0.093 A 
ATOM      7  C   UNL     1      20.142  -2.466 -37.476  1.00  0.00     0.136 A 
ATOM      8  C   UNL     1      20.926  -3.580 -37.871  1.00  0.00     0.125 A 
ATOM      9  C   UNL     1      20.806  -4.205 -39.123  1.00  0.00     0.078 A 
ATOM     10  C   UNL     1      21.612  -5.303 -39.439  1.00  0.00     0.223 A 
ENDROOT
BRANCH   1  11
ATOM     11  C   UNL     1      23.454  -6.895 -38.760  1.00  0.00     0.091 A 
ATOM     12  C   UNL     1      24.767  -6.869 -38.266  1.00  0.00     0.068 A 
ATOM     13  C   UNL     1      25.648  -7.925 -38.520  1.00  0.00     0.162 A 
ATOM     14  C   UNL     1      23.042  -7.985 -39.547  1.00  0.00     0.068 A 
ATOM     15  C   UNL     1      25.224  -9.022 -39.289  1.00  0.00     0.200 A 
ATOM     16  C   UNL     1      23.918  -9.048 -39.806  1.00  0.00     0.162 A 
BRANCH  13  17
ATOM     17  O   UNL     1      26.940  -7.866 -37.998  1.00  0.00    -0.504 OA
ATOM     18  H   UNL     1      27.706  -7.437 -38.504  1.00  0.00     0.293 HD
ENDBRANCH  13  17
BRANCH  15  19
ATOM     19  O   UNL     1      26.108 -10.075 -39.534  1.00  0.00    -0.502 OA
ATOM     20  H   UNL     1      25.858 -11.041 -39.363  1.00  0.00     0.293 HD
ENDBRANCH  15  19
BRANCH  16  21
ATOM     21  O   UNL     1      23.496 -10.126 -40.583  1.00  0.00    -0.504 OA
ATOM     22  H   UNL     1      23.934 -10.347 -41.469  1.00  0.00     0.293 HD
ENDBRANCH  16  21
ENDBRANCH   1  11
BRANCH  10  23
ATOM     23  O   UNL     1      21.459  -5.954 -40.663  1.00  0.00    -0.500 OA
ATOM     24  H   UNL     1      21.549  -5.461 -41.544  1.00  0.00     0.294 HD
ENDBRANCH  10  23
BRANCH   5  25
ATOM     25  O   UNL     1      21.437  -1.897 -34.047  1.00  0.00    -0.507 OA
ATOM     26  H   UNL     1      20.930  -1.070 -33.755  1.00  0.00     0.293 HD
ENDBRANCH   5  25
BRANCH   7  27
ATOM     27  O   UNL     1      19.182  -1.875 -38.304  1.00  0.00    -0.507 OA
ATOM     28  H   UNL     1      18.298  -2.297 -38.545  1.00  0.00     0.293 HD
ENDBRANCH   7  27
TORSDOF 7
ENDMDL
MODEL 9
REMARK VINA RESULT:    -6.562      1.622      2.288
REMARK INTER + INTRA:          -8.138
REMARK INTER:                  -8.497
REMARK INTRA:                   0.359
REMARK UNBOUND:                -0.041
REMARK SMILES Oc1cc(O)c2cc(O)c(-c3cc(O)c(O)c(O)c3)[o+]c2c1
REMARK SMILES IDX 10 1 20 2 21 3 22 4 2 5 3 6 4 7 6 8 7 9 8 10 11 11 12 12
REMARK SMILES IDX 13 13 19 14 15 15 17 16 14 17 16 19 18 21 9 23 1 25 5 27
REMARK H PARENT 14 18 16 20 18 22 9 24 1 26 5 28
REMARK Flexibility Score: inf
ROOT
ATOM      1  C   UNL     1      22.912  -6.149 -38.235  1.00  0.00     0.402 A 
ATOM      2  O   UNL     1      21.882  -5.454 -38.711  1.00  0.00    -0.202 OA
ATOM      3  C   UNL     1      21.427  -4.342 -38.143  1.00  0.00     0.368 A 
ATOM      4  C   UNL     1      20.336  -3.685 -38.716  1.00  0.00     0.162 A 
ATOM      5  C   UNL     1      19.834  -2.516 -38.140  1.00  0.00     0.128 A 
ATOM      6  C   UNL     1      20.428  -2.000 -36.983  1.00  0.00     0.093 A 
ATOM      7  C   UNL     1      21.522  -2.641 -36.390  1.00  0.00     0.136 A 
ATOM      8  C   UNL     1      22.036  -3.827 -36.973  1.00  0.00     0.125 A 
ATOM      9  C   UNL     1      23.137  -4.529 -36.456  1.00  0.00     0.078 A 
ATOM     10  C   UNL     1      23.590  -5.690 -37.090  1.00  0.00     0.223 A 
ENDROOT
BRANCH   1  11
ATOM     11  C   UNL     1      23.319  -7.379 -38.951  1.00  0.00     0.091 A 
ATOM     12  C   UNL     1      22.435  -7.967 -39.870  1.00  0.00     0.068 A 
ATOM     13  C   UNL     1      22.784  -9.140 -40.545  1.00  0.00     0.162 A 
ATOM     14  C   UNL     1      24.550  -8.005 -38.691  1.00  0.00     0.068 A 
ATOM     15  C   UNL     1      24.025  -9.751 -40.297  1.00  0.00     0.200 A 
ATOM     16  C   UNL     1      24.907  -9.182 -39.364  1.00  0.00     0.162 A 
BRANCH  13  17
ATOM     17  O   UNL     1      21.883  -9.685 -41.460  1.00  0.00    -0.504 OA
ATOM     18  H   UNL     1      21.314  -9.105 -42.066  1.00  0.00     0.293 HD
ENDBRANCH  13  17
BRANCH  15  19
ATOM     19  O   UNL     1      24.367 -10.920 -40.979  1.00  0.00    -0.502 OA
ATOM     20  H   UNL     1      23.917 -11.192 -41.844  1.00  0.00     0.293 HD
ENDBRANCH  15  19
BRANCH  16  21
ATOM     21  O   UNL     1      26.134  -9.790 -39.101  1.00  0.00    -0.504 OA
ATOM     22  H   UNL     1      27.000  -9.424 -39.477  1.00  0.00     0.293 HD
ENDBRANCH  16  21
ENDBRANCH   1  11
BRANCH  10  23
ATOM     23  O   UNL     1      24.714  -6.359 -36.605  1.00  0.00    -0.500 OA
ATOM     24  H   UNL     1      25.579  -6.399 -37.132  1.00  0.00     0.294 HD
ENDBRANCH  10  23
BRANCH   5  25
ATOM     25  O   UNL     1      18.745  -1.875 -38.726  1.00  0.00    -0.507 OA
ATOM     26  H   UNL     1      17.979  -2.397 -39.134  1.00  0.00     0.293 HD
ENDBRANCH   5  25
BRANCH   7  27
ATOM     27  O   UNL     1      22.057  -2.065 -35.233  1.00  0.00    -0.507 OA
ATOM     28  H   UNL     1      22.919  -1.541 -35.202  1.00  0.00     0.293 HD
ENDBRANCH   7  27
TORSDOF 7
ENDMDL
