MODEL 1
REMARK VINA RESULT:    -3.497      0.000      0.000
REMARK INTER + INTRA:          -4.039
REMARK INTER:                  -4.008
REMARK INTRA:                  -0.031
REMARK UNBOUND:                -0.031
REMARK SMILES CC(C)[C@H]([NH3+])C(=O)[O-]
REMARK SMILES IDX 4 1 5 2 6 6 7 7 8 8 2 9 1 10 3 11
REMARK H PARENT 5 3 5 4 5 5
REMARK Flexibility Score: inf
ROOT
ATOM      1  C   UNL     1      27.645  26.248  22.302  1.00  0.00     0.230 C 
ENDROOT
BRANCH   1   2
ATOM      2  N   UNL     1      27.331  26.847  20.996  1.00  0.00    -0.350 N 
ATOM      3  H   UNL     1      27.703  27.821  20.921  1.00  0.00     0.345 HD
ATOM      4  H   UNL     1      27.724  26.265  20.222  1.00  0.00     0.345 HD
ATOM      5  H   UNL     1      26.293  26.879  20.869  1.00  0.00     0.345 HD
ENDBRANCH   1   2
BRANCH   1   6
ATOM      6  C   UNL     1      27.015  27.043  23.420  1.00  0.00     0.099 C 
ATOM      7  O   UNL     1      25.921  27.638  23.226  1.00  0.00    -0.544 OA
ATOM      8  O   UNL     1      27.602  27.089  24.678  1.00  0.00    -0.544 OA
ENDBRANCH   1   6
BRANCH   1   9
ATOM      9  C   UNL     1      29.176  26.073  22.541  1.00  0.00     0.047 C 
ATOM     10  C   UNL     1      29.741  24.868  21.774  1.00  0.00     0.014 C 
ATOM     11  C   UNL     1      29.996  27.335  22.224  1.00  0.00     0.014 C 
ENDBRANCH   1   9
TORSDOF 3
ENDMDL
MODEL 2
REMARK VINA RESULT:    -3.276      0.956      1.601
REMARK INTER + INTRA:          -3.786
REMARK INTER:                  -3.971
REMARK INTRA:                   0.185
REMARK UNBOUND:                -0.031
REMARK SMILES CC(C)[C@H]([NH3+])C(=O)[O-]
REMARK SMILES IDX 4 1 5 2 6 6 7 7 8 8 2 9 1 10 3 11
REMARK H PARENT 5 3 5 4 5 5
REMARK Flexibility Score: inf
ROOT
ATOM      1  C   UNL     1      27.607  26.350  22.293  1.00  0.00     0.230 C 
ENDROOT
BRANCH   1   2
ATOM      2  N   UNL     1      27.212  26.807  20.952  1.00  0.00    -0.350 N 
ATOM      3  H   UNL     1      26.840  27.784  20.974  1.00  0.00     0.345 HD
ATOM      4  H   UNL     1      28.023  26.760  20.295  1.00  0.00     0.345 HD
ATOM      5  H   UNL     1      26.466  26.178  20.575  1.00  0.00     0.345 HD
ENDBRANCH   1   2
BRANCH   1   6
ATOM      6  C   UNL     1      26.806  27.062  23.356  1.00  0.00     0.099 C 
ATOM      7  O   UNL     1      26.230  26.396  24.258  1.00  0.00    -0.544 OA
ATOM      8  O   UNL     1      26.735  28.449  23.383  1.00  0.00    -0.544 OA
ENDBRANCH   1   6
BRANCH   1   9
ATOM      9  C   UNL     1      29.136  26.493  22.560  1.00  0.00     0.047 C 
ATOM     10  C   UNL     1      29.431  26.819  24.033  1.00  0.00     0.014 C 
ATOM     11  C   UNL     1      29.956  25.272  22.112  1.00  0.00     0.014 C 
ENDBRANCH   1   9
TORSDOF 3
ENDMDL
MODEL 3
REMARK VINA RESULT:    -3.185      2.190      3.278
REMARK INTER + INTRA:          -3.681
REMARK INTER:                  -3.625
REMARK INTRA:                  -0.056
REMARK UNBOUND:                -0.031
REMARK SMILES CC(C)[C@H]([NH3+])C(=O)[O-]
REMARK SMILES IDX 4 1 5 2 6 6 7 7 8 8 2 9 1 10 3 11
REMARK H PARENT 5 3 5 4 5 5
REMARK Flexibility Score: inf
ROOT
ATOM      1  C   UNL     1      28.008  26.931  22.188  1.00  0.00     0.230 C 
ENDROOT
BRANCH   1   2
ATOM      2  N   UNL     1      27.262  26.778  20.930  1.00  0.00    -0.350 N 
ATOM      3  H   UNL     1      26.536  26.029  21.003  1.00  0.00     0.345 HD
ATOM      4  H   UNL     1      26.805  27.679  20.664  1.00  0.00     0.345 HD
ATOM      5  H   UNL     1      27.924  26.522  20.162  1.00  0.00     0.345 HD
ENDBRANCH   1   2
BRANCH   1   6
ATOM      6  C   UNL     1      29.259  26.087  22.173  1.00  0.00     0.099 C 
ATOM      7  O   UNL     1      29.209  24.899  21.755  1.00  0.00    -0.544 OA
ATOM      8  O   UNL     1      30.480  26.619  22.570  1.00  0.00    -0.544 OA
ENDBRANCH   1   6
BRANCH   1   9
ATOM      9  C   UNL     1      27.146  26.623  23.450  1.00  0.00     0.047 C 
ATOM     10  C   UNL     1      27.671  27.355  24.695  1.00  0.00     0.014 C 
ATOM     11  C   UNL     1      25.648  26.911  23.258  1.00  0.00     0.014 C 
ENDBRANCH   1   9
TORSDOF 3
ENDMDL
MODEL 4
REMARK VINA RESULT:    -3.138      1.290      1.567
REMARK INTER + INTRA:          -3.627
REMARK INTER:                  -3.571
REMARK INTRA:                  -0.056
REMARK UNBOUND:                -0.031
REMARK SMILES CC(C)[C@H]([NH3+])C(=O)[O-]
REMARK SMILES IDX 4 1 5 2 6 6 7 7 8 8 2 9 1 10 3 11
REMARK H PARENT 5 3 5 4 5 5
REMARK Flexibility Score: inf
ROOT
ATOM      1  C   UNL     1      27.851  26.532  22.629  1.00  0.00     0.230 C 
ENDROOT
BRANCH   1   2
ATOM      2  N   UNL     1      26.733  27.013  21.803  1.00  0.00    -0.350 N 
ATOM      3  H   UNL     1      26.283  27.858  22.221  1.00  0.00     0.345 HD
ATOM      4  H   UNL     1      27.062  27.237  20.837  1.00  0.00     0.345 HD
ATOM      5  H   UNL     1      26.011  26.260  21.722  1.00  0.00     0.345 HD
ENDBRANCH   1   2
BRANCH   1   6
ATOM      6  C   UNL     1      28.057  27.431  23.824  1.00  0.00     0.099 C 
ATOM      7  O   UNL     1      27.525  27.139  24.928  1.00  0.00    -0.544 OA
ATOM      8  O   UNL     1      28.868  28.556  23.734  1.00  0.00    -0.544 OA
ENDBRANCH   1   6
BRANCH   1   9
ATOM      9  C   UNL     1      29.176  26.365  21.824  1.00  0.00     0.047 C 
ATOM     10  C   UNL     1      29.954  25.113  22.256  1.00  0.00     0.014 C 
ATOM     11  C   UNL     1      28.975  26.365  20.300  1.00  0.00     0.014 C 
ENDBRANCH   1   9
TORSDOF 3
ENDMDL
MODEL 5
REMARK VINA RESULT:    -2.937      3.278      3.730
REMARK INTER + INTRA:          -3.397
REMARK INTER:                  -3.351
REMARK INTRA:                  -0.046
REMARK UNBOUND:                -0.031
REMARK SMILES CC(C)[C@H]([NH3+])C(=O)[O-]
REMARK SMILES IDX 4 1 5 2 6 6 7 7 8 8 2 9 1 10 3 11
REMARK H PARENT 5 3 5 4 5 5
REMARK Flexibility Score: inf
ROOT
ATOM      1  C   UNL     1      30.382  27.316  23.200  1.00  0.00     0.230 C 
ENDROOT
BRANCH   1   2
ATOM      2  N   UNL     1      28.991  27.617  22.831  1.00  0.00    -0.350 N 
ATOM      3  H   UNL     1      28.621  26.930  22.135  1.00  0.00     0.345 HD
ATOM      4  H   UNL     1      28.379  27.616  23.678  1.00  0.00     0.345 HD
ATOM      5  H   UNL     1      28.942  28.573  22.409  1.00  0.00     0.345 HD
ENDBRANCH   1   2
BRANCH   1   6
ATOM      6  C   UNL     1      31.314  28.390  22.694  1.00  0.00     0.099 C 
ATOM      7  O   UNL     1      31.330  28.679  21.467  1.00  0.00    -0.544 OA
ATOM      8  O   UNL     1      32.122  29.101  23.572  1.00  0.00    -0.544 OA
ENDBRANCH   1   6
BRANCH   1   9
ATOM      9  C   UNL     1      30.849  25.907  22.723  1.00  0.00     0.047 C 
ATOM     10  C   UNL     1      31.418  25.070  23.879  1.00  0.00     0.014 C 
ATOM     11  C   UNL     1      29.759  25.116  21.982  1.00  0.00     0.014 C 
ENDBRANCH   1   9
TORSDOF 3
ENDMDL
MODEL 6
REMARK VINA RESULT:    -2.818      2.700      2.997
REMARK INTER + INTRA:          -3.261
REMARK INTER:                  -3.199
REMARK INTRA:                  -0.062
REMARK UNBOUND:                -0.031
REMARK SMILES CC(C)[C@H]([NH3+])C(=O)[O-]
REMARK SMILES IDX 4 1 5 2 6 6 7 7 8 8 2 9 1 10 3 11
REMARK H PARENT 5 3 5 4 5 5
REMARK Flexibility Score: inf
ROOT
ATOM      1  C   UNL     1      30.195  26.634  22.148  1.00  0.00     0.230 C 
ENDROOT
BRANCH   1   2
ATOM      2  N   UNL     1      30.246  28.103  22.104  1.00  0.00    -0.350 N 
ATOM      3  H   UNL     1      30.540  28.449  21.163  1.00  0.00     0.345 HD
ATOM      4  H   UNL     1      29.314  28.509  22.346  1.00  0.00     0.345 HD
ATOM      5  H   UNL     1      30.933  28.450  22.813  1.00  0.00     0.345 HD
ENDBRANCH   1   2
BRANCH   1   6
ATOM      6  C   UNL     1      28.979  26.120  21.416  1.00  0.00     0.099 C 
ATOM      7  O   UNL     1      28.787  26.446  20.214  1.00  0.00    -0.544 OA
ATOM      8  O   UNL     1      28.092  25.250  22.036  1.00  0.00    -0.544 OA
ENDBRANCH   1   6
BRANCH   1   9
ATOM      9  C   UNL     1      30.251  26.065  23.598  1.00  0.00     0.047 C 
ATOM     10  C   UNL     1      31.509  25.213  23.830  1.00  0.00     0.014 C 
ATOM     11  C   UNL     1      30.133  27.143  24.688  1.00  0.00     0.014 C 
ENDBRANCH   1   9
TORSDOF 3
ENDMDL
MODEL 7
REMARK VINA RESULT:    -2.777      2.244      2.535
REMARK INTER + INTRA:          -3.213
REMARK INTER:                  -3.149
REMARK INTRA:                  -0.065
REMARK UNBOUND:                -0.031
REMARK SMILES CC(C)[C@H]([NH3+])C(=O)[O-]
REMARK SMILES IDX 4 1 5 2 6 6 7 7 8 8 2 9 1 10 3 11
REMARK H PARENT 5 3 5 4 5 5
REMARK Flexibility Score: inf
ROOT
ATOM      1  C   UNL     1      29.691  27.295  22.590  1.00  0.00     0.230 C 
ENDROOT
BRANCH   1   2
ATOM      2  N   UNL     1      30.654  28.195  21.938  1.00  0.00    -0.350 N 
ATOM      3  H   UNL     1      30.632  28.092  20.898  1.00  0.00     0.345 HD
ATOM      4  H   UNL     1      30.456  29.189  22.193  1.00  0.00     0.345 HD
ATOM      5  H   UNL     1      31.620  27.972  22.272  1.00  0.00     0.345 HD
ENDBRANCH   1   2
BRANCH   1   6
ATOM      6  C   UNL     1      29.161  27.912  23.862  1.00  0.00     0.099 C 
ATOM      7  O   UNL     1      28.989  27.193  24.883  1.00  0.00    -0.544 OA
ATOM      8  O   UNL     1      28.904  29.275  23.936  1.00  0.00    -0.544 OA
ENDBRANCH   1   6
BRANCH   1   9
ATOM      9  C   UNL     1      30.271  25.873  22.863  1.00  0.00     0.047 C 
ATOM     10  C   UNL     1      29.779  24.847  21.831  1.00  0.00     0.014 C 
ATOM     11  C   UNL     1      31.806  25.842  22.952  1.00  0.00     0.014 C 
ENDBRANCH   1   9
TORSDOF 3
ENDMDL
MODEL 8
REMARK VINA RESULT:    -2.774      2.926      3.576
REMARK INTER + INTRA:          -3.211
REMARK INTER:                  -3.160
REMARK INTRA:                  -0.051
REMARK UNBOUND:                -0.031
REMARK SMILES CC(C)[C@H]([NH3+])C(=O)[O-]
REMARK SMILES IDX 4 1 5 2 6 6 7 7 8 8 2 9 1 10 3 11
REMARK H PARENT 5 3 5 4 5 5
REMARK Flexibility Score: inf
ROOT
ATOM      1  C   UNL     1      30.059  27.042  22.183  1.00  0.00     0.230 C 
ENDROOT
BRANCH   1   2
ATOM      2  N   UNL     1      28.785  27.489  22.767  1.00  0.00    -0.350 N 
ATOM      3  H   UNL     1      28.041  26.763  22.665  1.00  0.00     0.345 HD
ATOM      4  H   UNL     1      28.908  27.720  23.779  1.00  0.00     0.345 HD
ATOM      5  H   UNL     1      28.466  28.359  22.283  1.00  0.00     0.345 HD
ENDBRANCH   1   2
BRANCH   1   6
ATOM      6  C   UNL     1      30.251  25.559  22.394  1.00  0.00     0.099 C 
ATOM      7  O   UNL     1      29.609  24.737  21.688  1.00  0.00    -0.544 OA
ATOM      8  O   UNL     1      31.166  25.088  23.327  1.00  0.00    -0.544 OA
ENDBRANCH   1   6
BRANCH   1   9
ATOM      9  C   UNL     1      31.288  27.842  22.712  1.00  0.00     0.047 C 
ATOM     10  C   UNL     1      31.822  28.829  21.663  1.00  0.00     0.014 C 
ATOM     11  C   UNL     1      31.022  28.570  24.040  1.00  0.00     0.014 C 
ENDBRANCH   1   9
TORSDOF 3
ENDMDL
MODEL 9
REMARK VINA RESULT:    -2.738      2.347      3.354
REMARK INTER + INTRA:          -3.170
REMARK INTER:                  -3.108
REMARK INTRA:                  -0.061
REMARK UNBOUND:                -0.031
REMARK SMILES CC(C)[C@H]([NH3+])C(=O)[O-]
REMARK SMILES IDX 4 1 5 2 6 6 7 7 8 8 2 9 1 10 3 11
REMARK H PARENT 5 3 5 4 5 5
REMARK Flexibility Score: inf
ROOT
ATOM      1  C   UNL     1      28.061  26.932  23.109  1.00  0.00     0.230 C 
ENDROOT
BRANCH   1   2
ATOM      2  N   UNL     1      28.845  28.174  23.177  1.00  0.00    -0.350 N 
ATOM      3  H   UNL     1      29.857  28.000  22.981  1.00  0.00     0.345 HD
ATOM      4  H   UNL     1      28.476  28.877  22.497  1.00  0.00     0.345 HD
ATOM      5  H   UNL     1      28.760  28.588  24.134  1.00  0.00     0.345 HD
ENDBRANCH   1   2
BRANCH   1   6
ATOM      6  C   UNL     1      28.480  26.101  21.920  1.00  0.00     0.099 C 
ATOM      7  O   UNL     1      27.978  26.330  20.787  1.00  0.00    -0.544 OA
ATOM      8  O   UNL     1      29.450  25.115  22.050  1.00  0.00    -0.544 OA
ENDBRANCH   1   6
BRANCH   1   9
ATOM      9  C   UNL     1      26.522  27.181  23.097  1.00  0.00     0.047 C 
ATOM     10  C   UNL     1      25.749  26.020  23.741  1.00  0.00     0.014 C 
ATOM     11  C   UNL     1      26.110  28.515  23.742  1.00  0.00     0.014 C 
ENDBRANCH   1   9
TORSDOF 3
ENDMDL
