MODEL 1
REMARK VINA RESULT:    -4.049      0.000      0.000
REMARK INTER + INTRA:          -5.836
REMARK INTER:                  -5.469
REMARK INTRA:                  -0.366
REMARK UNBOUND:                -0.366
REMARK SMILES CCCCCCCC(=O)[O-]
REMARK SMILES IDX 5 1 6 2 7 3 8 4 9 5 10 6 4 7 3 8 2 9 1 10
REMARK H PARENT
REMARK Flexibility Score: inf
ROOT
ATOM      1  C   UNL     1      -7.451  25.942  24.108  1.00  0.00     0.000 C 
ENDROOT
BRANCH   1   2
ATOM      2  C   UNL     1      -8.155  27.177  24.688  1.00  0.00     0.006 C 
BRANCH   2   3
ATOM      3  C   UNL     1      -9.372  27.561  23.843  1.00  0.00     0.053 C 
BRANCH   3   4
ATOM      4  C   UNL     1      -9.296  28.998  23.437  1.00  0.00     0.041 C 
ATOM      5  O   UNL     1      -8.860  29.862  24.243  1.00  0.00    -0.550 OA
ATOM      6  O   UNL     1      -9.659  29.378  22.150  1.00  0.00    -0.550 OA
ENDBRANCH   3   4
ENDBRANCH   2   3
ENDBRANCH   1   2
BRANCH   1   7
ATOM      7  C   UNL     1      -7.328  25.985  22.573  1.00  0.00     0.000 C 
BRANCH   7   8
ATOM      8  C   UNL     1      -7.812  24.717  21.847  1.00  0.00    -0.000 C 
BRANCH   8   9
ATOM      9  C   UNL     1      -8.966  24.014  22.575  1.00  0.00    -0.003 C 
ATOM     10  C   UNL     1      -8.962  22.514  22.291  1.00  0.00     0.004 C 
ENDBRANCH   8   9
ENDBRANCH   7   8
ENDBRANCH   1   7
TORSDOF 6
ENDMDL
MODEL 2
REMARK VINA RESULT:    -3.887      1.915      4.111
REMARK INTER + INTRA:          -5.616
REMARK INTER:                  -5.099
REMARK INTRA:                  -0.518
REMARK UNBOUND:                -0.366
REMARK SMILES CCCCCCCC(=O)[O-]
REMARK SMILES IDX 5 1 6 2 7 3 8 4 9 5 10 6 4 7 3 8 2 9 1 10
REMARK H PARENT
REMARK Flexibility Score: inf
ROOT
ATOM      1  C   UNL     1      -7.162  25.995  24.142  1.00  0.00     0.000 C 
ENDROOT
BRANCH   1   2
ATOM      2  C   UNL     1      -7.019  25.826  22.622  1.00  0.00     0.006 C 
BRANCH   2   3
ATOM      3  C   UNL     1      -8.349  25.406  21.989  1.00  0.00     0.053 C 
BRANCH   3   4
ATOM      4  C   UNL     1      -8.743  26.365  20.912  1.00  0.00     0.041 C 
ATOM      5  O   UNL     1      -8.553  27.601  21.064  1.00  0.00    -0.550 OA
ATOM      6  O   UNL     1      -9.274  25.891  19.718  1.00  0.00    -0.550 OA
ENDBRANCH   3   4
ENDBRANCH   2   3
ENDBRANCH   1   2
BRANCH   1   7
ATOM      7  C   UNL     1      -8.624  26.171  24.591  1.00  0.00     0.000 C 
BRANCH   7   8
ATOM      8  C   UNL     1      -8.939  27.521  25.261  1.00  0.00    -0.000 C 
BRANCH   8   9
ATOM      9  C   UNL     1      -9.710  28.480  24.343  1.00  0.00    -0.003 C 
ATOM     10  C   UNL     1      -8.884  29.724  24.031  1.00  0.00     0.004 C 
ENDBRANCH   8   9
ENDBRANCH   7   8
ENDBRANCH   1   7
TORSDOF 6
ENDMDL
MODEL 3
REMARK VINA RESULT:    -3.843      1.794      3.494
REMARK INTER + INTRA:          -5.557
REMARK INTER:                  -5.030
REMARK INTRA:                  -0.527
REMARK UNBOUND:                -0.366
REMARK SMILES CCCCCCCC(=O)[O-]
REMARK SMILES IDX 5 1 6 2 7 3 8 4 9 5 10 6 4 7 3 8 2 9 1 10
REMARK H PARENT
REMARK Flexibility Score: inf
ROOT
ATOM      1  C   UNL     1      -7.183  25.956  22.888  1.00  0.00     0.000 C 
ENDROOT
BRANCH   1   2
ATOM      2  C   UNL     1      -8.151  25.051  22.112  1.00  0.00     0.006 C 
BRANCH   2   3
ATOM      3  C   UNL     1      -9.478  25.766  21.848  1.00  0.00     0.053 C 
BRANCH   3   4
ATOM      4  C   UNL     1      -9.242  27.071  21.157  1.00  0.00     0.041 C 
ATOM      5  O   UNL     1      -8.807  27.092  19.975  1.00  0.00    -0.550 OA
ATOM      6  O   UNL     1      -9.551  28.265  21.799  1.00  0.00    -0.550 OA
ENDBRANCH   3   4
ENDBRANCH   2   3
ENDBRANCH   1   2
BRANCH   1   7
ATOM      7  C   UNL     1      -7.480  26.000  24.398  1.00  0.00     0.000 C 
BRANCH   7   8
ATOM      8  C   UNL     1      -8.103  27.315  24.899  1.00  0.00    -0.000 C 
BRANCH   8   9
ATOM      9  C   UNL     1      -9.130  27.102  26.022  1.00  0.00    -0.003 C 
ATOM     10  C   UNL     1     -10.159  26.045  25.632  1.00  0.00     0.004 C 
ENDBRANCH   8   9
ENDBRANCH   7   8
ENDBRANCH   1   7
TORSDOF 6
ENDMDL
MODEL 4
REMARK VINA RESULT:    -3.808      2.549      3.166
REMARK INTER + INTRA:          -5.510
REMARK INTER:                  -5.087
REMARK INTRA:                  -0.423
REMARK UNBOUND:                -0.366
REMARK SMILES CCCCCCCC(=O)[O-]
REMARK SMILES IDX 5 1 6 2 7 3 8 4 9 5 10 6 4 7 3 8 2 9 1 10
REMARK H PARENT
REMARK Flexibility Score: inf
ROOT
ATOM      1  C   UNL     1      -7.396  25.939  24.052  1.00  0.00     0.000 C 
ENDROOT
BRANCH   1   2
ATOM      2  C   UNL     1      -8.632  26.828  24.259  1.00  0.00     0.006 C 
BRANCH   2   3
ATOM      3  C   UNL     1      -9.811  26.010  24.792  1.00  0.00     0.053 C 
BRANCH   3   4
ATOM      4  C   UNL     1      -9.944  26.185  26.271  1.00  0.00     0.041 C 
ATOM      5  O   UNL     1      -9.242  27.040  26.874  1.00  0.00    -0.550 OA
ATOM      6  O   UNL     1     -10.880  25.440  26.979  1.00  0.00    -0.550 OA
ENDBRANCH   3   4
ENDBRANCH   2   3
ENDBRANCH   1   2
BRANCH   1   7
ATOM      7  C   UNL     1      -7.041  25.741  22.567  1.00  0.00     0.000 C 
BRANCH   7   8
ATOM      8  C   UNL     1      -7.778  24.582  21.872  1.00  0.00    -0.000 C 
BRANCH   8   9
ATOM      9  C   UNL     1      -8.401  24.989  20.529  1.00  0.00    -0.003 C 
ATOM     10  C   UNL     1      -8.765  26.470  20.518  1.00  0.00     0.004 C 
ENDBRANCH   8   9
ENDBRANCH   7   8
ENDBRANCH   1   7
TORSDOF 6
ENDMDL
MODEL 5
REMARK VINA RESULT:    -3.767      1.653      2.737
REMARK INTER + INTRA:          -5.454
REMARK INTER:                  -4.879
REMARK INTRA:                  -0.575
REMARK UNBOUND:                -0.366
REMARK SMILES CCCCCCCC(=O)[O-]
REMARK SMILES IDX 5 1 6 2 7 3 8 4 9 5 10 6 4 7 3 8 2 9 1 10
REMARK H PARENT
REMARK Flexibility Score: inf
ROOT
ATOM      1  C   UNL     1      -9.091  26.533  20.597  1.00  0.00     0.000 C 
ENDROOT
BRANCH   1   2
ATOM      2  C   UNL     1     -10.529  26.583  21.135  1.00  0.00     0.006 C 
BRANCH   2   3
ATOM      3  C   UNL     1     -10.610  27.439  22.402  1.00  0.00     0.053 C 
BRANCH   3   4
ATOM      4  C   UNL     1     -10.113  28.824  22.132  1.00  0.00     0.041 C 
ATOM      5  O   UNL     1      -9.115  29.272  22.755  1.00  0.00    -0.550 OA
ATOM      6  O   UNL     1     -10.721  29.603  21.154  1.00  0.00    -0.550 OA
ENDBRANCH   3   4
ENDBRANCH   2   3
ENDBRANCH   1   2
BRANCH   1   7
ATOM      7  C   UNL     1      -8.502  25.110  20.590  1.00  0.00     0.000 C 
BRANCH   7   8
ATOM      8  C   UNL     1      -7.812  24.687  21.899  1.00  0.00    -0.000 C 
BRANCH   8   9
ATOM      9  C   UNL     1      -7.101  25.851  22.605  1.00  0.00    -0.003 C 
ATOM     10  C   UNL     1      -7.610  26.020  24.034  1.00  0.00     0.004 C 
ENDBRANCH   8   9
ENDBRANCH   7   8
ENDBRANCH   1   7
TORSDOF 6
ENDMDL
MODEL 6
REMARK VINA RESULT:    -3.749      1.643      2.372
REMARK INTER + INTRA:          -5.430
REMARK INTER:                  -5.064
REMARK INTRA:                  -0.367
REMARK UNBOUND:                -0.366
REMARK SMILES CCCCCCCC(=O)[O-]
REMARK SMILES IDX 5 1 6 2 7 3 8 4 9 5 10 6 4 7 3 8 2 9 1 10
REMARK H PARENT
REMARK Flexibility Score: inf
ROOT
ATOM      1  C   UNL     1      -7.448  26.031  22.452  1.00  0.00     0.000 C 
ENDROOT
BRANCH   1   2
ATOM      2  C   UNL     1      -7.179  25.962  23.963  1.00  0.00     0.006 C 
BRANCH   2   3
ATOM      3  C   UNL     1      -8.487  25.812  24.746  1.00  0.00     0.053 C 
BRANCH   3   4
ATOM      4  C   UNL     1      -8.819  27.084  25.459  1.00  0.00     0.041 C 
ATOM      5  O   UNL     1      -8.769  28.184  24.848  1.00  0.00    -0.550 OA
ATOM      6  O   UNL     1      -9.234  27.051  26.785  1.00  0.00    -0.550 OA
ENDBRANCH   3   4
ENDBRANCH   2   3
ENDBRANCH   1   2
BRANCH   1   7
ATOM      7  C   UNL     1      -7.776  24.657  21.838  1.00  0.00     0.000 C 
BRANCH   7   8
ATOM      8  C   UNL     1      -9.209  24.513  21.297  1.00  0.00    -0.000 C 
BRANCH   8   9
ATOM      9  C   UNL     1      -9.765  23.089  21.446  1.00  0.00    -0.003 C 
ATOM     10  C   UNL     1      -8.899  22.257  22.387  1.00  0.00     0.004 C 
ENDBRANCH   8   9
ENDBRANCH   7   8
ENDBRANCH   1   7
TORSDOF 6
ENDMDL
MODEL 7
REMARK VINA RESULT:    -3.644      3.358      5.297
REMARK INTER + INTRA:          -5.289
REMARK INTER:                  -4.924
REMARK INTRA:                  -0.364
REMARK UNBOUND:                -0.366
REMARK SMILES CCCCCCCC(=O)[O-]
REMARK SMILES IDX 5 1 6 2 7 3 8 4 9 5 10 6 4 7 3 8 2 9 1 10
REMARK H PARENT
REMARK Flexibility Score: inf
ROOT
ATOM      1  C   UNL     1      -7.873  24.980  21.958  1.00  0.00     0.000 C 
ENDROOT
BRANCH   1   2
ATOM      2  C   UNL     1      -9.040  24.208  22.591  1.00  0.00     0.006 C 
BRANCH   2   3
ATOM      3  C   UNL     1      -8.961  22.717  22.249  1.00  0.00     0.053 C 
BRANCH   3   4
ATOM      4  C   UNL     1     -10.042  22.342  21.286  1.00  0.00     0.041 C 
ATOM      5  O   UNL     1     -10.177  21.144  20.921  1.00  0.00    -0.550 OA
ATOM      6  O   UNL     1     -10.932  23.306  20.829  1.00  0.00    -0.550 OA
ENDBRANCH   3   4
ENDBRANCH   2   3
ENDBRANCH   1   2
BRANCH   1   7
ATOM      7  C   UNL     1      -7.200  25.960  22.937  1.00  0.00     0.000 C 
BRANCH   7   8
ATOM      8  C   UNL     1      -7.747  25.919  24.375  1.00  0.00    -0.000 C 
BRANCH   8   9
ATOM      9  C   UNL     1      -8.179  27.300  24.891  1.00  0.00    -0.003 C 
ATOM     10  C   UNL     1      -9.483  27.747  24.237  1.00  0.00     0.004 C 
ENDBRANCH   8   9
ENDBRANCH   7   8
ENDBRANCH   1   7
TORSDOF 6
ENDMDL
MODEL 8
REMARK VINA RESULT:    -3.597      2.143      3.227
REMARK INTER + INTRA:          -5.224
REMARK INTER:                  -4.666
REMARK INTRA:                  -0.558
REMARK UNBOUND:                -0.366
REMARK SMILES CCCCCCCC(=O)[O-]
REMARK SMILES IDX 5 1 6 2 7 3 8 4 9 5 10 6 4 7 3 8 2 9 1 10
REMARK H PARENT
REMARK Flexibility Score: inf
ROOT
ATOM      1  C   UNL     1      -9.146  28.885  24.276  1.00  0.00     0.000 C 
ENDROOT
BRANCH   1   2
ATOM      2  C   UNL     1     -10.565  29.091  23.727  1.00  0.00     0.006 C 
BRANCH   2   3
ATOM      3  C   UNL     1     -10.547  29.250  22.204  1.00  0.00     0.053 C 
BRANCH   3   4
ATOM      4  C   UNL     1     -10.359  27.923  21.541  1.00  0.00     0.041 C 
ATOM      5  O   UNL     1      -9.599  27.817  20.542  1.00  0.00    -0.550 OA
ATOM      6  O   UNL     1     -10.982  26.793  22.055  1.00  0.00    -0.550 OA
ENDBRANCH   3   4
ENDBRANCH   2   3
ENDBRANCH   1   2
BRANCH   1   7
ATOM      7  C   UNL     1      -9.003  27.595  25.105  1.00  0.00     0.000 C 
BRANCH   7   8
ATOM      8  C   UNL     1      -7.779  26.730  24.756  1.00  0.00    -0.000 C 
BRANCH   8   9
ATOM      9  C   UNL     1      -8.102  25.614  23.752  1.00  0.00    -0.003 C 
ATOM     10  C   UNL     1      -7.317  25.796  22.456  1.00  0.00     0.004 C 
ENDBRANCH   8   9
ENDBRANCH   7   8
ENDBRANCH   1   7
TORSDOF 6
ENDMDL
MODEL 9
REMARK VINA RESULT:    -3.565      2.614      4.447
REMARK INTER + INTRA:          -5.182
REMARK INTER:                  -4.685
REMARK INTRA:                  -0.496
REMARK UNBOUND:                -0.366
REMARK SMILES CCCCCCCC(=O)[O-]
REMARK SMILES IDX 5 1 6 2 7 3 8 4 9 5 10 6 4 7 3 8 2 9 1 10
REMARK H PARENT
REMARK Flexibility Score: inf
ROOT
ATOM      1  C   UNL     1      -8.090  27.002  25.092  1.00  0.00     0.000 C 
ENDROOT
BRANCH   1   2
ATOM      2  C   UNL     1      -8.016  25.632  24.401  1.00  0.00     0.006 C 
BRANCH   2   3
ATOM      3  C   UNL     1      -7.440  25.762  22.988  1.00  0.00     0.053 C 
BRANCH   3   4
ATOM      4  C   UNL     1      -8.156  24.849  22.044  1.00  0.00     0.041 C 
ATOM      5  O   UNL     1      -8.782  23.848  22.484  1.00  0.00    -0.550 OA
ATOM      6  O   UNL     1      -8.176  25.132  20.684  1.00  0.00    -0.550 OA
ENDBRANCH   3   4
ENDBRANCH   2   3
ENDBRANCH   1   2
BRANCH   1   7
ATOM      7  C   UNL     1      -9.419  27.735  24.833  1.00  0.00     0.000 C 
BRANCH   7   8
ATOM      8  C   UNL     1      -9.274  29.186  24.340  1.00  0.00    -0.000 C 
BRANCH   8   9
ATOM      9  C   UNL     1      -9.400  29.317  22.815  1.00  0.00    -0.003 C 
ATOM     10  C   UNL     1     -10.235  28.180  22.234  1.00  0.00     0.004 C 
ENDBRANCH   8   9
ENDBRANCH   7   8
ENDBRANCH   1   7
TORSDOF 6
ENDMDL
