MODEL 1
REMARK VINA RESULT:    -3.545      0.000      0.000
REMARK INTER + INTRA:          -9.160
REMARK INTER:                  -6.447
REMARK INTRA:                  -2.712
REMARK UNBOUND:                -2.712
REMARK SMILES CCCCCC=CCC=CCCCCCCCC(=O)[O-]
REMARK SMILES IDX 11 1 12 2 13 3 14 4 15 5 16 6 17 7 18 8 19 9 20 10 10 11
REMARK SMILES IDX 9 12 8 13 7 14 6 15 5 16 4 17 3 18 2 19 1 20
REMARK H PARENT
REMARK Flexibility Score: inf
ROOT
ATOM      1  C   UNL     1      60.480  30.997  60.116  1.00  0.00     0.027 C 
ENDROOT
BRANCH   1   2
ATOM      2  C   UNL     1      61.354  30.522  61.285  1.00  0.00     0.004 C 
BRANCH   2   3
ATOM      3  C   UNL     1      61.799  29.058  61.137  1.00  0.00     0.000 C 
BRANCH   3   4
ATOM      4  C   UNL     1      63.321  28.919  60.960  1.00  0.00     0.000 C 
BRANCH   4   5
ATOM      5  C   UNL     1      63.698  28.107  59.711  1.00  0.00     0.000 C 
BRANCH   5   6
ATOM      6  C   UNL     1      65.190  27.730  59.675  1.00  0.00     0.006 C 
BRANCH   6   7
ATOM      7  C   UNL     1      66.043  28.665  60.544  1.00  0.00     0.053 C 
BRANCH   7   8
ATOM      8  C   UNL     1      67.381  28.070  60.859  1.00  0.00     0.041 C 
ATOM      9  O   UNL     1      67.911  28.265  61.983  1.00  0.00    -0.550 OA
ATOM     10  O   UNL     1      68.028  27.276  59.921  1.00  0.00    -0.550 OA
ENDBRANCH   7   8
ENDBRANCH   6   7
ENDBRANCH   5   6
ENDBRANCH   4   5
ENDBRANCH   3   4
ENDBRANCH   2   3
ENDBRANCH   1   2
BRANCH   1  11
ATOM     11  C   UNL     1      60.791  30.218  58.864  1.00  0.00    -0.031 C 
ATOM     12  C   UNL     1      61.658  30.619  57.915  1.00  0.00    -0.027 C 
BRANCH  12  13
ATOM     13  C   UNL     1      62.483  31.878  57.994  1.00  0.00     0.054 C 
BRANCH  13  14
ATOM     14  C   UNL     1      63.940  31.560  58.219  1.00  0.00    -0.027 C 
ATOM     15  C   UNL     1      64.607  31.882  59.342  1.00  0.00    -0.031 C 
BRANCH  15  16
ATOM     16  C   UNL     1      64.005  32.644  60.497  1.00  0.00     0.027 C 
BRANCH  16  17
ATOM     17  C   UNL     1      64.513  34.091  60.517  1.00  0.00     0.004 C 
BRANCH  17  18
ATOM     18  C   UNL     1      63.385  35.118  60.712  1.00  0.00     0.000 C 
BRANCH  18  19
ATOM     19  C   UNL     1      61.982  34.568  60.380  1.00  0.00    -0.003 C 
ATOM     20  C   UNL     1      60.922  35.668  60.325  1.00  0.00     0.004 C 
ENDBRANCH  18  19
ENDBRANCH  17  18
ENDBRANCH  16  17
ENDBRANCH  15  16
ENDBRANCH  13  14
ENDBRANCH  12  13
ENDBRANCH   1  11
TORSDOF 14
ENDMDL
MODEL 2
REMARK VINA RESULT:    -3.518     10.830     12.562
REMARK INTER + INTRA:          -9.110
REMARK INTER:                  -6.836
REMARK INTRA:                  -2.274
REMARK UNBOUND:                -2.712
REMARK SMILES CCCCCC=CCC=CCCCCCCCC(=O)[O-]
REMARK SMILES IDX 11 1 12 2 13 3 14 4 15 5 16 6 17 7 18 8 19 9 20 10 10 11
REMARK SMILES IDX 9 12 8 13 7 14 6 15 5 16 4 17 3 18 2 19 1 20
REMARK H PARENT
REMARK Flexibility Score: inf
ROOT
ATOM      1  C   UNL     1      59.834  25.578  51.855  1.00  0.00     0.027 C 
ENDROOT
BRANCH   1   2
ATOM      2  C   UNL     1      60.780  24.424  52.218  1.00  0.00     0.004 C 
BRANCH   2   3
ATOM      3  C   UNL     1      62.132  24.515  51.493  1.00  0.00     0.000 C 
BRANCH   3   4
ATOM      4  C   UNL     1      62.471  23.233  50.713  1.00  0.00     0.000 C 
BRANCH   4   5
ATOM      5  C   UNL     1      61.721  23.142  49.374  1.00  0.00     0.000 C 
BRANCH   5   6
ATOM      6  C   UNL     1      61.112  21.749  49.129  1.00  0.00     0.006 C 
BRANCH   6   7
ATOM      7  C   UNL     1      60.938  20.957  50.432  1.00  0.00     0.053 C 
BRANCH   7   8
ATOM      8  C   UNL     1      60.263  19.641  50.199  1.00  0.00     0.041 C 
ATOM      9  O   UNL     1      59.354  19.539  49.334  1.00  0.00    -0.550 OA
ATOM     10  O   UNL     1      60.657  18.519  50.916  1.00  0.00    -0.550 OA
ENDBRANCH   7   8
ENDBRANCH   6   7
ENDBRANCH   5   6
ENDBRANCH   4   5
ENDBRANCH   3   4
ENDBRANCH   2   3
ENDBRANCH   1   2
BRANCH   1  11
ATOM     11  C   UNL     1      59.261  25.388  50.474  1.00  0.00    -0.031 C 
ATOM     12  C   UNL     1      59.503  26.206  49.432  1.00  0.00    -0.027 C 
BRANCH  12  13
ATOM     13  C   UNL     1      60.422  27.399  49.483  1.00  0.00     0.054 C 
BRANCH  13  14
ATOM     14  C   UNL     1      59.748  28.629  48.928  1.00  0.00    -0.027 C 
ATOM     15  C   UNL     1      59.010  29.472  49.673  1.00  0.00    -0.031 C 
BRANCH  15  16
ATOM     16  C   UNL     1      58.719  29.274  51.139  1.00  0.00     0.027 C 
BRANCH  16  17
ATOM     17  C   UNL     1      57.388  28.535  51.335  1.00  0.00     0.004 C 
BRANCH  17  18
ATOM     18  C   UNL     1      56.345  28.888  50.262  1.00  0.00     0.000 C 
BRANCH  18  19
ATOM     19  C   UNL     1      55.230  27.833  50.110  1.00  0.00    -0.003 C 
ATOM     20  C   UNL     1      55.775  26.461  49.711  1.00  0.00     0.004 C 
ENDBRANCH  18  19
ENDBRANCH  17  18
ENDBRANCH  16  17
ENDBRANCH  15  16
ENDBRANCH  13  14
ENDBRANCH  12  13
ENDBRANCH   1  11
TORSDOF 14
ENDMDL
MODEL 3
REMARK VINA RESULT:    -3.428      1.995      4.090
REMARK INTER + INTRA:          -8.945
REMARK INTER:                  -6.580
REMARK INTRA:                  -2.365
REMARK UNBOUND:                -2.712
REMARK SMILES CCCCCC=CCC=CCCCCCCCC(=O)[O-]
REMARK SMILES IDX 11 1 12 2 13 3 14 4 15 5 16 6 17 7 18 8 19 9 20 10 10 11
REMARK SMILES IDX 9 12 8 13 7 14 6 15 5 16 4 17 3 18 2 19 1 20
REMARK H PARENT
REMARK Flexibility Score: inf
ROOT
ATOM      1  C   UNL     1      63.275  32.576  59.139  1.00  0.00     0.027 C 
ENDROOT
BRANCH   1   2
ATOM      2  C   UNL     1      61.966  31.785  59.272  1.00  0.00     0.004 C 
BRANCH   2   3
ATOM      3  C   UNL     1      61.276  32.003  60.628  1.00  0.00     0.000 C 
BRANCH   3   4
ATOM      4  C   UNL     1      60.810  30.686  61.272  1.00  0.00     0.000 C 
BRANCH   4   5
ATOM      5  C   UNL     1      61.983  29.762  61.640  1.00  0.00     0.000 C 
BRANCH   5   6
ATOM      6  C   UNL     1      62.013  28.476  60.793  1.00  0.00     0.006 C 
BRANCH   6   7
ATOM      7  C   UNL     1      63.441  27.949  60.594  1.00  0.00     0.053 C 
BRANCH   7   8
ATOM      8  C   UNL     1      64.312  28.947  59.895  1.00  0.00     0.041 C 
ATOM      9  O   UNL     1      65.211  29.557  60.530  1.00  0.00    -0.550 OA
ATOM     10  O   UNL     1      64.152  29.179  58.535  1.00  0.00    -0.550 OA
ENDBRANCH   7   8
ENDBRANCH   6   7
ENDBRANCH   5   6
ENDBRANCH   4   5
ENDBRANCH   3   4
ENDBRANCH   2   3
ENDBRANCH   1   2
BRANCH   1  11
ATOM     11  C   UNL     1      63.862  32.874  60.494  1.00  0.00    -0.031 C 
ATOM     12  C   UNL     1      64.174  34.108  60.932  1.00  0.00    -0.027 C 
BRANCH  12  13
ATOM     13  C   UNL     1      63.933  35.374  60.150  1.00  0.00     0.054 C 
BRANCH  13  14
ATOM     14  C   UNL     1      63.151  36.375  60.964  1.00  0.00    -0.027 C 
ATOM     15  C   UNL     1      61.809  36.466  60.938  1.00  0.00    -0.031 C 
BRANCH  15  16
ATOM     16  C   UNL     1      60.918  35.623  60.060  1.00  0.00     0.027 C 
BRANCH  16  17
ATOM     17  C   UNL     1      60.118  36.504  59.091  1.00  0.00     0.004 C 
BRANCH  17  18
ATOM     18  C   UNL     1      59.266  35.688  58.105  1.00  0.00     0.000 C 
BRANCH  18  19
ATOM     19  C   UNL     1      59.977  34.429  57.567  1.00  0.00    -0.003 C 
ATOM     20  C   UNL     1      59.082  33.190  57.607  1.00  0.00     0.004 C 
ENDBRANCH  18  19
ENDBRANCH  17  18
ENDBRANCH  16  17
ENDBRANCH  15  16
ENDBRANCH  13  14
ENDBRANCH  12  13
ENDBRANCH   1  11
TORSDOF 14
ENDMDL
MODEL 4
REMARK VINA RESULT:    -3.406      9.819     12.107
REMARK INTER + INTRA:          -8.906
REMARK INTER:                  -6.283
REMARK INTRA:                  -2.622
REMARK UNBOUND:                -2.712
REMARK SMILES CCCCCC=CCC=CCCCCCCCC(=O)[O-]
REMARK SMILES IDX 11 1 12 2 13 3 14 4 15 5 16 6 17 7 18 8 19 9 20 10 10 11
REMARK SMILES IDX 9 12 8 13 7 14 6 15 5 16 4 17 3 18 2 19 1 20
REMARK H PARENT
REMARK Flexibility Score: inf
ROOT
ATOM      1  C   UNL     1      56.541  26.667  51.448  1.00  0.00     0.027 C 
ENDROOT
BRANCH   1   2
ATOM      2  C   UNL     1      57.519  27.849  51.514  1.00  0.00     0.004 C 
BRANCH   2   3
ATOM      3  C   UNL     1      57.494  28.712  50.243  1.00  0.00     0.000 C 
BRANCH   3   4
ATOM      4  C   UNL     1      58.808  29.482  50.026  1.00  0.00     0.000 C 
BRANCH   4   5
ATOM      5  C   UNL     1      59.665  28.883  48.899  1.00  0.00     0.000 C 
BRANCH   5   6
ATOM      6  C   UNL     1      60.660  27.824  49.409  1.00  0.00     0.006 C 
BRANCH   6   7
ATOM      7  C   UNL     1      60.108  26.398  49.269  1.00  0.00     0.053 C 
BRANCH   7   8
ATOM      8  C   UNL     1      60.453  25.547  50.452  1.00  0.00     0.041 C 
ATOM      9  O   UNL     1      61.611  25.585  50.943  1.00  0.00    -0.550 OA
ATOM     10  O   UNL     1      59.486  24.736  51.032  1.00  0.00    -0.550 OA
ENDBRANCH   7   8
ENDBRANCH   6   7
ENDBRANCH   5   6
ENDBRANCH   4   5
ENDBRANCH   3   4
ENDBRANCH   2   3
ENDBRANCH   1   2
BRANCH   1  11
ATOM     11  C   UNL     1      56.373  26.190  50.028  1.00  0.00    -0.031 C 
ATOM     12  C   UNL     1      55.195  26.146  49.377  1.00  0.00    -0.027 C 
BRANCH  12  13
ATOM     13  C   UNL     1      53.885  26.617  49.954  1.00  0.00     0.054 C 
BRANCH  13  14
ATOM     14  C   UNL     1      53.486  27.953  49.377  1.00  0.00    -0.027 C 
ATOM     15  C   UNL     1      53.540  29.106  50.067  1.00  0.00    -0.031 C 
BRANCH  15  16
ATOM     16  C   UNL     1      53.953  29.211  51.514  1.00  0.00     0.027 C 
BRANCH  16  17
ATOM     17  C   UNL     1      54.670  30.541  51.779  1.00  0.00     0.004 C 
BRANCH  17  18
ATOM     18  C   UNL     1      55.490  30.529  53.080  1.00  0.00     0.000 C 
BRANCH  18  19
ATOM     19  C   UNL     1      56.854  31.240  52.959  1.00  0.00    -0.003 C 
ATOM     20  C   UNL     1      57.073  32.275  54.062  1.00  0.00     0.004 C 
ENDBRANCH  18  19
ENDBRANCH  17  18
ENDBRANCH  16  17
ENDBRANCH  15  16
ENDBRANCH  13  14
ENDBRANCH  12  13
ENDBRANCH   1  11
TORSDOF 14
ENDMDL
MODEL 5
REMARK VINA RESULT:    -3.374     10.170     12.549
REMARK INTER + INTRA:          -8.848
REMARK INTER:                  -6.491
REMARK INTRA:                  -2.357
REMARK UNBOUND:                -2.712
REMARK SMILES CCCCCC=CCC=CCCCCCCCC(=O)[O-]
REMARK SMILES IDX 11 1 12 2 13 3 14 4 15 5 16 6 17 7 18 8 19 9 20 10 10 11
REMARK SMILES IDX 9 12 8 13 7 14 6 15 5 16 4 17 3 18 2 19 1 20
REMARK H PARENT
REMARK Flexibility Score: inf
ROOT
ATOM      1  C   UNL     1      58.796  26.051  51.359  1.00  0.00     0.027 C 
ENDROOT
BRANCH   1   2
ATOM      2  C   UNL     1      57.278  25.848  51.251  1.00  0.00     0.004 C 
BRANCH   2   3
ATOM      3  C   UNL     1      56.667  26.576  50.043  1.00  0.00     0.000 C 
BRANCH   3   4
ATOM      4  C   UNL     1      55.300  25.999  49.636  1.00  0.00     0.000 C 
BRANCH   4   5
ATOM      5  C   UNL     1      54.222  27.084  49.483  1.00  0.00     0.000 C 
BRANCH   5   6
ATOM      6  C   UNL     1      54.733  28.485  49.866  1.00  0.00     0.006 C 
BRANCH   6   7
ATOM      7  C   UNL     1      53.596  29.411  50.317  1.00  0.00     0.053 C 
BRANCH   7   8
ATOM      8  C   UNL     1      53.911  30.093  51.613  1.00  0.00     0.041 C 
ATOM      9  O   UNL     1      53.832  29.460  52.698  1.00  0.00    -0.550 OA
ATOM     10  O   UNL     1      54.323  31.420  51.620  1.00  0.00    -0.550 OA
ENDBRANCH   7   8
ENDBRANCH   6   7
ENDBRANCH   5   6
ENDBRANCH   4   5
ENDBRANCH   3   4
ENDBRANCH   2   3
ENDBRANCH   1   2
BRANCH   1  11
ATOM     11  C   UNL     1      59.497  25.511  50.139  1.00  0.00    -0.031 C 
ATOM     12  C   UNL     1      60.313  26.235  49.349  1.00  0.00    -0.027 C 
BRANCH  12  13
ATOM     13  C   UNL     1      60.684  27.674  49.602  1.00  0.00     0.054 C 
BRANCH  13  14
ATOM     14  C   UNL     1      59.706  28.612  48.940  1.00  0.00    -0.027 C 
ATOM     15  C   UNL     1      59.009  29.551  49.606  1.00  0.00    -0.031 C 
BRANCH  15  16
ATOM     16  C   UNL     1      59.074  29.755  51.099  1.00  0.00     0.027 C 
BRANCH  16  17
ATOM     17  C   UNL     1      57.680  29.620  51.727  1.00  0.00     0.004 C 
BRANCH  17  18
ATOM     18  C   UNL     1      57.469  30.565  52.922  1.00  0.00     0.000 C 
BRANCH  18  19
ATOM     19  C   UNL     1      58.420  31.779  52.927  1.00  0.00    -0.003 C 
ATOM     20  C   UNL     1      57.672  33.107  53.040  1.00  0.00     0.004 C 
ENDBRANCH  18  19
ENDBRANCH  17  18
ENDBRANCH  16  17
ENDBRANCH  15  16
ENDBRANCH  13  14
ENDBRANCH  12  13
ENDBRANCH   1  11
TORSDOF 14
ENDMDL
MODEL 6
REMARK VINA RESULT:    -3.313     10.051     12.549
REMARK INTER + INTRA:          -8.737
REMARK INTER:                  -6.768
REMARK INTRA:                  -1.969
REMARK UNBOUND:                -2.712
REMARK SMILES CCCCCC=CCC=CCCCCCCCC(=O)[O-]
REMARK SMILES IDX 11 1 12 2 13 3 14 4 15 5 16 6 17 7 18 8 19 9 20 10 10 11
REMARK SMILES IDX 9 12 8 13 7 14 6 15 5 16 4 17 3 18 2 19 1 20
REMARK H PARENT
REMARK Flexibility Score: inf
ROOT
ATOM      1  C   UNL     1      58.495  29.210  49.962  1.00  0.00     0.027 C 
ENDROOT
BRANCH   1   2
ATOM      2  C   UNL     1      59.568  29.313  48.869  1.00  0.00     0.004 C 
BRANCH   2   3
ATOM      3  C   UNL     1      60.585  28.162  48.925  1.00  0.00     0.000 C 
BRANCH   3   4
ATOM      4  C   UNL     1      59.976  26.864  49.483  1.00  0.00     0.000 C 
BRANCH   4   5
ATOM      5  C   UNL     1      60.831  26.243  50.600  1.00  0.00     0.000 C 
BRANCH   5   6
ATOM      6  C   UNL     1      61.647  25.029  50.118  1.00  0.00     0.006 C 
BRANCH   6   7
ATOM      7  C   UNL     1      60.770  23.786  49.918  1.00  0.00     0.053 C 
BRANCH   7   8
ATOM      8  C   UNL     1      61.569  22.606  49.460  1.00  0.00     0.041 C 
ATOM      9  O   UNL     1      61.369  22.108  48.321  1.00  0.00    -0.550 OA
ATOM     10  O   UNL     1      62.557  22.074  50.279  1.00  0.00    -0.550 OA
ENDBRANCH   7   8
ENDBRANCH   6   7
ENDBRANCH   5   6
ENDBRANCH   4   5
ENDBRANCH   3   4
ENDBRANCH   2   3
ENDBRANCH   1   2
BRANCH   1  11
ATOM     11  C   UNL     1      58.929  29.933  51.211  1.00  0.00    -0.031 C 
ATOM     12  C   UNL     1      58.921  29.392  52.443  1.00  0.00    -0.027 C 
BRANCH  12  13
ATOM     13  C   UNL     1      58.527  27.969  52.745  1.00  0.00     0.054 C 
BRANCH  13  14
ATOM     14  C   UNL     1      57.068  27.876  53.116  1.00  0.00    -0.027 C 
ATOM     15  C   UNL     1      56.179  27.112  52.454  1.00  0.00    -0.031 C 
BRANCH  15  16
ATOM     16  C   UNL     1      56.510  26.293  51.232  1.00  0.00     0.027 C 
BRANCH  16  17
ATOM     17  C   UNL     1      55.867  26.901  49.979  1.00  0.00     0.004 C 
BRANCH  17  18
ATOM     18  C   UNL     1      55.007  25.893  49.198  1.00  0.00     0.000 C 
BRANCH  18  19
ATOM     19  C   UNL     1      53.508  26.256  49.159  1.00  0.00    -0.003 C 
ATOM     20  C   UNL     1      53.251  27.714  49.538  1.00  0.00     0.004 C 
ENDBRANCH  18  19
ENDBRANCH  17  18
ENDBRANCH  16  17
ENDBRANCH  15  16
ENDBRANCH  13  14
ENDBRANCH  12  13
ENDBRANCH   1  11
TORSDOF 14
ENDMDL
MODEL 7
REMARK VINA RESULT:    -3.290      1.453      2.833
REMARK INTER + INTRA:          -8.696
REMARK INTER:                  -6.236
REMARK INTRA:                  -2.459
REMARK UNBOUND:                -2.712
REMARK SMILES CCCCCC=CCC=CCCCCCCCC(=O)[O-]
REMARK SMILES IDX 11 1 12 2 13 3 14 4 15 5 16 6 17 7 18 8 19 9 20 10 10 11
REMARK SMILES IDX 9 12 8 13 7 14 6 15 5 16 4 17 3 18 2 19 1 20
REMARK H PARENT
REMARK Flexibility Score: inf
ROOT
ATOM      1  C   UNL     1      61.162  31.319  59.183  1.00  0.00     0.027 C 
ENDROOT
BRANCH   1   2
ATOM      2  C   UNL     1      60.808  31.649  60.640  1.00  0.00     0.004 C 
BRANCH   2   3
ATOM      3  C   UNL     1      60.986  30.446  61.581  1.00  0.00     0.000 C 
BRANCH   3   4
ATOM      4  C   UNL     1      62.372  29.792  61.447  1.00  0.00     0.000 C 
BRANCH   4   5
ATOM      5  C   UNL     1      62.289  28.274  61.224  1.00  0.00     0.000 C 
BRANCH   5   6
ATOM      6  C   UNL     1      63.376  27.754  60.264  1.00  0.00     0.006 C 
BRANCH   6   7
ATOM      7  C   UNL     1      64.112  28.897  59.553  1.00  0.00     0.053 C 
BRANCH   7   8
ATOM      8  C   UNL     1      65.585  28.641  59.461  1.00  0.00     0.041 C 
ATOM      9  O   UNL     1      66.031  27.468  59.553  1.00  0.00    -0.550 OA
ATOM     10  O   UNL     1      66.463  29.695  59.242  1.00  0.00    -0.550 OA
ENDBRANCH   7   8
ENDBRANCH   6   7
ENDBRANCH   5   6
ENDBRANCH   4   5
ENDBRANCH   3   4
ENDBRANCH   2   3
ENDBRANCH   1   2
BRANCH   1  11
ATOM     11  C   UNL     1      60.114  31.855  58.242  1.00  0.00    -0.031 C 
ATOM     12  C   UNL     1      60.139  33.086  57.698  1.00  0.00    -0.027 C 
BRANCH  12  13
ATOM     13  C   UNL     1      61.247  34.087  57.909  1.00  0.00     0.054 C 
BRANCH  13  14
ATOM     14  C   UNL     1      60.722  35.353  58.539  1.00  0.00    -0.027 C 
ATOM     15  C   UNL     1      61.055  35.760  59.778  1.00  0.00    -0.031 C 
BRANCH  15  16
ATOM     16  C   UNL     1      61.950  34.986  60.713  1.00  0.00     0.027 C 
BRANCH  16  17
ATOM     17  C   UNL     1      63.366  35.578  60.725  1.00  0.00     0.004 C 
BRANCH  17  18
ATOM     18  C   UNL     1      64.447  34.534  61.053  1.00  0.00     0.000 C 
BRANCH  18  19
ATOM     19  C   UNL     1      64.066  33.097  60.641  1.00  0.00    -0.003 C 
ATOM     20  C   UNL     1      64.537  32.750  59.229  1.00  0.00     0.004 C 
ENDBRANCH  18  19
ENDBRANCH  17  18
ENDBRANCH  16  17
ENDBRANCH  15  16
ENDBRANCH  13  14
ENDBRANCH  12  13
ENDBRANCH   1  11
TORSDOF 14
ENDMDL
MODEL 8
REMARK VINA RESULT:    -3.261      2.429      5.135
REMARK INTER + INTRA:          -8.643
REMARK INTER:                  -5.657
REMARK INTRA:                  -2.986
REMARK UNBOUND:                -2.712
REMARK SMILES CCCCCC=CCC=CCCCCCCCC(=O)[O-]
REMARK SMILES IDX 11 1 12 2 13 3 14 4 15 5 16 6 17 7 18 8 19 9 20 10 10 11
REMARK SMILES IDX 9 12 8 13 7 14 6 15 5 16 4 17 3 18 2 19 1 20
REMARK H PARENT
REMARK Flexibility Score: inf
ROOT
ATOM      1  C   UNL     1      61.274  35.411  58.105  1.00  0.00     0.027 C 
ENDROOT
BRANCH   1   2
ATOM      2  C   UNL     1      61.180  33.963  57.604  1.00  0.00     0.004 C 
BRANCH   2   3
ATOM      3  C   UNL     1      60.318  33.075  58.515  1.00  0.00     0.000 C 
BRANCH   3   4
ATOM      4  C   UNL     1      61.101  31.879  59.085  1.00  0.00     0.000 C 
BRANCH   4   5
ATOM      5  C   UNL     1      61.356  32.007  60.596  1.00  0.00     0.000 C 
BRANCH   5   6
ATOM      6  C   UNL     1      60.882  30.773  61.385  1.00  0.00     0.006 C 
BRANCH   6   7
ATOM      7  C   UNL     1      60.415  29.641  60.460  1.00  0.00     0.053 C 
BRANCH   7   8
ATOM      8  C   UNL     1      61.306  28.440  60.553  1.00  0.00     0.041 C 
ATOM      9  O   UNL     1      62.125  28.331  61.503  1.00  0.00    -0.550 OA
ATOM     10  O   UNL     1      61.211  27.427  59.607  1.00  0.00    -0.550 OA
ENDBRANCH   7   8
ENDBRANCH   6   7
ENDBRANCH   5   6
ENDBRANCH   4   5
ENDBRANCH   3   4
ENDBRANCH   2   3
ENDBRANCH   1   2
BRANCH   1  11
ATOM     11  C   UNL     1      60.802  35.516  59.533  1.00  0.00    -0.031 C 
ATOM     12  C   UNL     1      61.613  35.728  60.586  1.00  0.00    -0.027 C 
BRANCH  12  13
ATOM     13  C   UNL     1      63.101  35.945  60.485  1.00  0.00     0.054 C 
BRANCH  13  14
ATOM     14  C   UNL     1      63.860  34.796  61.102  1.00  0.00    -0.027 C 
ATOM     15  C   UNL     1      64.569  33.904  60.386  1.00  0.00    -0.031 C 
BRANCH  15  16
ATOM     16  C   UNL     1      64.656  33.903  58.881  1.00  0.00     0.027 C 
BRANCH  16  17
ATOM     17  C   UNL     1      64.628  32.468  58.336  1.00  0.00     0.004 C 
BRANCH  17  18
ATOM     18  C   UNL     1      64.828  31.408  59.432  1.00  0.00     0.000 C 
BRANCH  18  19
ATOM     19  C   UNL     1      64.295  30.012  59.048  1.00  0.00    -0.003 C 
ATOM     20  C   UNL     1      65.418  29.006  58.800  1.00  0.00     0.004 C 
ENDBRANCH  18  19
ENDBRANCH  17  18
ENDBRANCH  16  17
ENDBRANCH  15  16
ENDBRANCH  13  14
ENDBRANCH  12  13
ENDBRANCH   1  11
TORSDOF 14
ENDMDL
MODEL 9
REMARK VINA RESULT:    -3.260      3.540      4.944
REMARK INTER + INTRA:          -8.640
REMARK INTER:                  -6.096
REMARK INTRA:                  -2.544
REMARK UNBOUND:                -2.712
REMARK SMILES CCCCCC=CCC=CCCCCCCCC(=O)[O-]
REMARK SMILES IDX 11 1 12 2 13 3 14 4 15 5 16 6 17 7 18 8 19 9 20 10 10 11
REMARK SMILES IDX 9 12 8 13 7 14 6 15 5 16 4 17 3 18 2 19 1 20
REMARK H PARENT
REMARK Flexibility Score: inf
ROOT
ATOM      1  C   UNL     1      63.263  28.783  58.520  1.00  0.00     0.027 C 
ENDROOT
BRANCH   1   2
ATOM      2  C   UNL     1      63.229  27.267  58.275  1.00  0.00     0.004 C 
BRANCH   2   3
ATOM      3  C   UNL     1      61.807  26.687  58.347  1.00  0.00     0.000 C 
BRANCH   3   4
ATOM      4  C   UNL     1      61.692  25.533  59.358  1.00  0.00     0.000 C 
BRANCH   4   5
ATOM      5  C   UNL     1      62.905  25.448  60.298  1.00  0.00     0.000 C 
BRANCH   5   6
ATOM      6  C   UNL     1      62.562  24.803  61.653  1.00  0.00     0.006 C 
BRANCH   6   7
ATOM      7  C   UNL     1      61.676  25.710  62.517  1.00  0.00     0.053 C 
BRANCH   7   8
ATOM      8  C   UNL     1      60.402  25.031  62.915  1.00  0.00     0.041 C 
ATOM      9  O   UNL     1      60.385  24.241  63.894  1.00  0.00    -0.550 OA
ATOM     10  O   UNL     1      59.226  25.295  62.224  1.00  0.00    -0.550 OA
ENDBRANCH   7   8
ENDBRANCH   6   7
ENDBRANCH   5   6
ENDBRANCH   4   5
ENDBRANCH   3   4
ENDBRANCH   2   3
ENDBRANCH   1   2
BRANCH   1  11
ATOM     11  C   UNL     1      63.970  29.101  59.812  1.00  0.00    -0.031 C 
ATOM     12  C   UNL     1      63.353  29.243  61.000  1.00  0.00    -0.027 C 
BRANCH  12  13
ATOM     13  C   UNL     1      61.873  29.053  61.218  1.00  0.00     0.054 C 
BRANCH  13  14
ATOM     14  C   UNL     1      61.249  30.290  61.814  1.00  0.00    -0.027 C 
ATOM     15  C   UNL     1      60.758  31.303  61.076  1.00  0.00    -0.031 C 
BRANCH  15  16
ATOM     16  C   UNL     1      60.812  31.359  59.570  1.00  0.00     0.027 C 
BRANCH  16  17
ATOM     17  C   UNL     1      61.473  32.661  59.098  1.00  0.00     0.004 C 
BRANCH  17  18
ATOM     18  C   UNL     1      61.701  33.664  60.241  1.00  0.00     0.000 C 
BRANCH  18  19
ATOM     19  C   UNL     1      63.173  34.099  60.398  1.00  0.00    -0.003 C 
ATOM     20  C   UNL     1      64.126  32.908  60.505  1.00  0.00     0.004 C 
ENDBRANCH  18  19
ENDBRANCH  17  18
ENDBRANCH  16  17
ENDBRANCH  15  16
ENDBRANCH  13  14
ENDBRANCH  12  13
ENDBRANCH   1  11
TORSDOF 14
ENDMDL
