MODEL 1
REMARK VINA RESULT:    -5.145      0.000      0.000
REMARK INTER + INTRA:          -5.623
REMARK INTER:                  -5.596
REMARK INTRA:                  -0.027
REMARK UNBOUND:                -0.027
REMARK SMILES COc1ccccc1O
REMARK SMILES IDX 3 1 4 2 5 3 6 4 7 5 8 6 2 7 1 8 9 9
REMARK H PARENT 9 10
REMARK Flexibility Score: inf
ROOT
ATOM      1  C   UNL     1       9.442  69.129  -1.745  1.00  0.00     0.160 A 
ATOM      2  C   UNL     1      10.417  69.090  -0.728  1.00  0.00     0.050 A 
ATOM      3  C   UNL     1      10.148  68.444   0.482  1.00  0.00     0.004 A 
ATOM      4  C   UNL     1       8.911  67.831   0.689  1.00  0.00     0.004 A 
ATOM      5  C   UNL     1       7.939  67.863  -0.313  1.00  0.00     0.050 A 
ATOM      6  C   UNL     1       8.201  68.510  -1.530  1.00  0.00     0.157 A 
ENDROOT
BRANCH   1   7
ATOM      7  O   UNL     1       9.669  69.766  -2.975  1.00  0.00    -0.493 OA
ATOM      8  C   UNL     1      10.799  70.584  -3.262  1.00  0.00     0.278 C 
ENDBRANCH   1   7
BRANCH   6   9
ATOM      9  O   UNL     1       7.231  68.543  -2.531  1.00  0.00    -0.504 OA
ATOM     10  H   UNL     1       6.275  68.817  -2.334  1.00  0.00     0.293 HD
ENDBRANCH   6   9
TORSDOF 2
ENDMDL
MODEL 2
REMARK VINA RESULT:    -5.135      3.535      4.666
REMARK INTER + INTRA:          -5.613
REMARK INTER:                  -5.586
REMARK INTRA:                  -0.027
REMARK UNBOUND:                -0.027
REMARK SMILES COc1ccccc1O
REMARK SMILES IDX 3 1 4 2 5 3 6 4 7 5 8 6 2 7 1 8 9 9
REMARK H PARENT 9 10
REMARK Flexibility Score: inf
ROOT
ATOM      1  C   UNL     1       9.906  69.116   2.114  1.00  0.00     0.160 A 
ATOM      2  C   UNL     1       8.968  69.266   1.073  1.00  0.00     0.050 A 
ATOM      3  C   UNL     1       9.076  68.496  -0.088  1.00  0.00     0.004 A 
ATOM      4  C   UNL     1      10.113  67.571  -0.223  1.00  0.00     0.004 A 
ATOM      5  C   UNL     1      11.046  67.415   0.804  1.00  0.00     0.050 A 
ATOM      6  C   UNL     1      10.946  68.184   1.973  1.00  0.00     0.157 A 
ENDROOT
BRANCH   1   7
ATOM      7  O   UNL     1       9.837  69.868   3.298  1.00  0.00    -0.493 OA
ATOM      8  C   UNL     1       9.013  71.016   3.476  1.00  0.00     0.278 C 
ENDBRANCH   1   7
BRANCH   6   9
ATOM      9  O   UNL     1      11.877  68.029   2.998  1.00  0.00    -0.504 OA
ATOM     10  H   UNL     1      12.131  68.800   3.606  1.00  0.00     0.293 HD
ENDBRANCH   6   9
TORSDOF 2
ENDMDL
MODEL 3
REMARK VINA RESULT:    -5.068      2.861      3.523
REMARK INTER + INTRA:          -5.539
REMARK INTER:                  -5.512
REMARK INTRA:                  -0.027
REMARK UNBOUND:                -0.027
REMARK SMILES COc1ccccc1O
REMARK SMILES IDX 3 1 4 2 5 3 6 4 7 5 8 6 2 7 1 8 9 9
REMARK H PARENT 9 10
REMARK Flexibility Score: inf
ROOT
ATOM      1  C   UNL     1       9.724  70.080   0.829  1.00  0.00     0.160 A 
ATOM      2  C   UNL     1       9.424  68.874   0.164  1.00  0.00     0.050 A 
ATOM      3  C   UNL     1       9.296  67.684   0.886  1.00  0.00     0.004 A 
ATOM      4  C   UNL     1       9.464  67.683   2.271  1.00  0.00     0.004 A 
ATOM      5  C   UNL     1       9.761  68.873   2.939  1.00  0.00     0.050 A 
ATOM      6  C   UNL     1       9.892  70.072   2.222  1.00  0.00     0.157 A 
ENDROOT
BRANCH   1   7
ATOM      7  O   UNL     1       9.862  71.298   0.144  1.00  0.00    -0.493 OA
ATOM      8  C   UNL     1       9.679  71.458  -1.258  1.00  0.00     0.278 C 
ENDBRANCH   1   7
BRANCH   6   9
ATOM      9  O   UNL     1      10.188  71.260   2.888  1.00  0.00    -0.504 OA
ATOM     10  H   UNL     1      11.140  71.600   2.968  1.00  0.00     0.293 HD
ENDBRANCH   6   9
TORSDOF 2
ENDMDL
MODEL 4
REMARK VINA RESULT:    -5.062      1.895      2.937
REMARK INTER + INTRA:          -5.533
REMARK INTER:                  -5.506
REMARK INTRA:                  -0.027
REMARK UNBOUND:                -0.027
REMARK SMILES COc1ccccc1O
REMARK SMILES IDX 3 1 4 2 5 3 6 4 7 5 8 6 2 7 1 8 9 9
REMARK H PARENT 9 10
REMARK Flexibility Score: inf
ROOT
ATOM      1  C   UNL     1       9.885  70.012  -0.432  1.00  0.00     0.160 A 
ATOM      2  C   UNL     1       9.841  68.762   0.217  1.00  0.00     0.050 A 
ATOM      3  C   UNL     1       9.580  67.599  -0.513  1.00  0.00     0.004 A 
ATOM      4  C   UNL     1       9.361  67.669  -1.890  1.00  0.00     0.004 A 
ATOM      5  C   UNL     1       9.402  68.904  -2.541  1.00  0.00     0.050 A 
ATOM      6  C   UNL     1       9.664  70.076  -1.816  1.00  0.00     0.157 A 
ENDROOT
BRANCH   1   7
ATOM      7  O   UNL     1      10.144  71.206   0.261  1.00  0.00    -0.493 OA
ATOM      8  C   UNL     1      10.211  71.316   1.679  1.00  0.00     0.278 C 
ENDBRANCH   1   7
BRANCH   6   9
ATOM      9  O   UNL     1       9.705  71.309  -2.466  1.00  0.00    -0.504 OA
ATOM     10  H   UNL     1      10.040  71.395  -3.419  1.00  0.00     0.293 HD
ENDBRANCH   6   9
TORSDOF 2
ENDMDL
MODEL 5
REMARK VINA RESULT:    -4.924      2.242      3.038
REMARK INTER + INTRA:          -5.383
REMARK INTER:                  -5.338
REMARK INTRA:                  -0.044
REMARK UNBOUND:                -0.027
REMARK SMILES COc1ccccc1O
REMARK SMILES IDX 3 1 4 2 5 3 6 4 7 5 8 6 2 7 1 8 9 9
REMARK H PARENT 9 10
REMARK Flexibility Score: inf
ROOT
ATOM      1  C   UNL     1       9.012  68.425   0.275  1.00  0.00     0.160 A 
ATOM      2  C   UNL     1       9.506  69.739   0.402  1.00  0.00     0.050 A 
ATOM      3  C   UNL     1      10.043  70.175   1.616  1.00  0.00     0.004 A 
ATOM      4  C   UNL     1      10.095  69.311   2.711  1.00  0.00     0.004 A 
ATOM      5  C   UNL     1       9.608  68.007   2.595  1.00  0.00     0.050 A 
ATOM      6  C   UNL     1       9.067  67.561   1.379  1.00  0.00     0.157 A 
ENDROOT
BRANCH   1   7
ATOM      7  O   UNL     1       8.464  67.944  -0.925  1.00  0.00    -0.493 OA
ATOM      8  C   UNL     1       9.207  67.726  -2.120  1.00  0.00     0.278 C 
ENDBRANCH   1   7
BRANCH   6   9
ATOM      9  O   UNL     1       8.581  66.260   1.263  1.00  0.00    -0.504 OA
ATOM     10  H   UNL     1       7.650  66.011   1.578  1.00  0.00     0.293 HD
ENDBRANCH   6   9
TORSDOF 2
ENDMDL
MODEL 6
REMARK VINA RESULT:    -4.905      1.900      3.029
REMARK INTER + INTRA:          -5.362
REMARK INTER:                  -5.327
REMARK INTRA:                  -0.035
REMARK UNBOUND:                -0.027
REMARK SMILES COc1ccccc1O
REMARK SMILES IDX 3 1 4 2 5 3 6 4 7 5 8 6 2 7 1 8 9 9
REMARK H PARENT 9 10
REMARK Flexibility Score: inf
ROOT
ATOM      1  C   UNL     1       9.173  69.651  -0.870  1.00  0.00     0.160 A 
ATOM      2  C   UNL     1       9.092  69.082   0.417  1.00  0.00     0.050 A 
ATOM      3  C   UNL     1       9.489  69.817   1.538  1.00  0.00     0.004 A 
ATOM      4  C   UNL     1       9.967  71.120   1.390  1.00  0.00     0.004 A 
ATOM      5  C   UNL     1      10.050  71.692   0.118  1.00  0.00     0.050 A 
ATOM      6  C   UNL     1       9.654  70.962  -1.012  1.00  0.00     0.157 A 
ENDROOT
BRANCH   1   7
ATOM      7  O   UNL     1       8.786  68.950  -2.024  1.00  0.00    -0.493 OA
ATOM      8  C   UNL     1       7.564  68.233  -2.158  1.00  0.00     0.278 C 
ENDBRANCH   1   7
BRANCH   6   9
ATOM      9  O   UNL     1       9.737  71.532  -2.281  1.00  0.00    -0.504 OA
ATOM     10  H   UNL     1       8.918  71.641  -2.868  1.00  0.00     0.293 HD
ENDBRANCH   6   9
TORSDOF 2
ENDMDL
MODEL 7
REMARK VINA RESULT:    -4.872      3.420      4.681
REMARK INTER + INTRA:          -5.326
REMARK INTER:                  -5.287
REMARK INTRA:                  -0.039
REMARK UNBOUND:                -0.027
REMARK SMILES COc1ccccc1O
REMARK SMILES IDX 3 1 4 2 5 3 6 4 7 5 8 6 2 7 1 8 9 9
REMARK H PARENT 9 10
REMARK Flexibility Score: inf
ROOT
ATOM      1  C   UNL     1       9.755  69.783   1.231  1.00  0.00     0.160 A 
ATOM      2  C   UNL     1       9.589  69.512  -0.141  1.00  0.00     0.050 A 
ATOM      3  C   UNL     1       9.684  70.542  -1.080  1.00  0.00     0.004 A 
ATOM      4  C   UNL     1       9.947  71.849  -0.664  1.00  0.00     0.004 A 
ATOM      5  C   UNL     1      10.114  72.128   0.694  1.00  0.00     0.050 A 
ATOM      6  C   UNL     1      10.020  71.099   1.644  1.00  0.00     0.157 A 
ENDROOT
BRANCH   1   7
ATOM      7  O   UNL     1       9.668  68.780   2.210  1.00  0.00    -0.493 OA
ATOM      8  C   UNL     1      10.744  67.930   2.590  1.00  0.00     0.278 C 
ENDBRANCH   1   7
BRANCH   6   9
ATOM      9  O   UNL     1      10.186  71.377   2.999  1.00  0.00    -0.504 OA
ATOM     10  H   UNL     1       9.974  70.688   3.712  1.00  0.00     0.293 HD
ENDBRANCH   6   9
TORSDOF 2
ENDMDL
MODEL 8
REMARK VINA RESULT:    -4.869      1.969      2.419
REMARK INTER + INTRA:          -5.323
REMARK INTER:                  -5.292
REMARK INTRA:                  -0.030
REMARK UNBOUND:                -0.027
REMARK SMILES COc1ccccc1O
REMARK SMILES IDX 3 1 4 2 5 3 6 4 7 5 8 6 2 7 1 8 9 9
REMARK H PARENT 9 10
REMARK Flexibility Score: inf
ROOT
ATOM      1  C   UNL     1      10.009  69.015  -0.357  1.00  0.00     0.160 A 
ATOM      2  C   UNL     1       9.942  70.234   0.346  1.00  0.00     0.050 A 
ATOM      3  C   UNL     1       9.956  70.244   1.744  1.00  0.00     0.004 A 
ATOM      4  C   UNL     1      10.037  69.044   2.453  1.00  0.00     0.004 A 
ATOM      5  C   UNL     1      10.105  67.831   1.765  1.00  0.00     0.050 A 
ATOM      6  C   UNL     1      10.091  67.812   0.362  1.00  0.00     0.157 A 
ENDROOT
BRANCH   1   7
ATOM      7  O   UNL     1       9.997  68.957  -1.760  1.00  0.00    -0.493 OA
ATOM      8  C   UNL     1      10.566  69.947  -2.610  1.00  0.00     0.278 C 
ENDBRANCH   1   7
BRANCH   6   9
ATOM      9  O   UNL     1      10.158  66.601  -0.325  1.00  0.00    -0.504 OA
ATOM     10  H   UNL     1      11.036  66.109  -0.449  1.00  0.00     0.293 HD
ENDBRANCH   6   9
TORSDOF 2
ENDMDL
MODEL 9
REMARK VINA RESULT:    -4.858      2.613      3.569
REMARK INTER + INTRA:          -5.311
REMARK INTER:                  -5.284
REMARK INTRA:                  -0.027
REMARK UNBOUND:                -0.027
REMARK SMILES COc1ccccc1O
REMARK SMILES IDX 3 1 4 2 5 3 6 4 7 5 8 6 2 7 1 8 9 9
REMARK H PARENT 9 10
REMARK Flexibility Score: inf
ROOT
ATOM      1  C   UNL     1       9.291  69.075   0.808  1.00  0.00     0.160 A 
ATOM      2  C   UNL     1       9.724  70.136  -0.013  1.00  0.00     0.050 A 
ATOM      3  C   UNL     1       9.887  69.942  -1.387  1.00  0.00     0.004 A 
ATOM      4  C   UNL     1       9.621  68.695  -1.956  1.00  0.00     0.004 A 
ATOM      5  C   UNL     1       9.191  67.638  -1.151  1.00  0.00     0.050 A 
ATOM      6  C   UNL     1       9.025  67.824   0.230  1.00  0.00     0.157 A 
ENDROOT
BRANCH   1   7
ATOM      7  O   UNL     1       9.114  69.224   2.193  1.00  0.00    -0.493 OA
ATOM      8  C   UNL     1       9.236  70.458   2.892  1.00  0.00     0.278 C 
ENDBRANCH   1   7
BRANCH   6   9
ATOM      9  O   UNL     1       8.596  66.769   1.034  1.00  0.00    -0.504 OA
ATOM     10  H   UNL     1       7.886  66.900   1.746  1.00  0.00     0.293 HD
ENDBRANCH   6   9
TORSDOF 2
ENDMDL
