MODEL 1
REMARK VINA RESULT:    -4.715      0.000      0.000
REMARK INTER + INTRA:          -5.139
REMARK INTER:                  -5.129
REMARK INTRA:                  -0.010
REMARK UNBOUND:                -0.010
REMARK SMILES OCc1ccccc1
REMARK SMILES IDX 2 1 3 2 6 3 5 4 7 5 4 6 8 7 1 8
REMARK H PARENT 1 9
REMARK Flexibility Score: inf
ROOT
ATOM      1  C   UNL     1     123.861  -4.681 115.039  1.00  0.00     0.191 C 
ENDROOT
BRANCH   1   2
ATOM      2  C   UNL     1     124.008  -5.426 116.337  1.00  0.00    -0.023 A 
ATOM      3  C   UNL     1     124.331  -6.759 118.785  1.00  0.00     0.000 A 
ATOM      4  C   UNL     1     123.327  -5.796 118.640  1.00  0.00     0.000 A 
ATOM      5  C   UNL     1     125.180  -7.050 117.713  1.00  0.00     0.000 A 
ATOM      6  C   UNL     1     123.169  -5.127 117.422  1.00  0.00     0.006 A 
ATOM      7  C   UNL     1     125.024  -6.384 116.494  1.00  0.00     0.006 A 
ENDBRANCH   1   2
BRANCH   1   8
ATOM      8  O   UNL     1     124.630  -3.511 115.066  1.00  0.00    -0.392 OA
ATOM      9  H   UNL     1     125.435  -3.713 115.611  1.00  0.00     0.211 HD
ENDBRANCH   1   8
TORSDOF 2
ENDMDL
MODEL 2
REMARK VINA RESULT:    -4.384      2.128      3.206
REMARK INTER + INTRA:          -4.779
REMARK INTER:                  -4.765
REMARK INTRA:                  -0.014
REMARK UNBOUND:                -0.010
REMARK SMILES OCc1ccccc1
REMARK SMILES IDX 2 1 3 2 6 3 5 4 7 5 4 6 8 7 1 8
REMARK H PARENT 1 9
REMARK Flexibility Score: inf
ROOT
ATOM      1  C   UNL     1     122.307  -4.868 119.359  1.00  0.00     0.191 C 
ENDROOT
BRANCH   1   2
ATOM      2  C   UNL     1     123.293  -5.559 118.458  1.00  0.00    -0.023 A 
ATOM      3  C   UNL     1     125.184  -6.789 116.788  1.00  0.00     0.000 A 
ATOM      4  C   UNL     1     125.186  -7.054 118.162  1.00  0.00     0.000 A 
ATOM      5  C   UNL     1     124.246  -5.904 116.249  1.00  0.00     0.000 A 
ATOM      6  C   UNL     1     124.247  -6.437 118.995  1.00  0.00     0.006 A 
ATOM      7  C   UNL     1     123.307  -5.286 117.080  1.00  0.00     0.006 A 
ENDBRANCH   1   2
BRANCH   1   8
ATOM      8  O   UNL     1     122.979  -4.247 120.420  1.00  0.00    -0.392 OA
ATOM      9  H   UNL     1     122.612  -3.326 120.488  1.00  0.00     0.211 HD
ENDBRANCH   1   8
TORSDOF 2
ENDMDL
MODEL 3
REMARK VINA RESULT:    -4.364     15.273     16.177
REMARK INTER + INTRA:          -4.757
REMARK INTER:                  -4.746
REMARK INTRA:                  -0.011
REMARK UNBOUND:                -0.010
REMARK SMILES OCc1ccccc1
REMARK SMILES IDX 2 1 3 2 6 3 5 4 7 5 4 6 8 7 1 8
REMARK H PARENT 1 9
REMARK Flexibility Score: inf
ROOT
ATOM      1  C   UNL     1     123.777 -20.488 116.171  1.00  0.00     0.191 C 
ENDROOT
BRANCH   1   2
ATOM      2  C   UNL     1     123.414 -21.246 117.418  1.00  0.00    -0.023 A 
ATOM      3  C   UNL     1     122.793 -22.713 119.728  1.00  0.00     0.000 A 
ATOM      4  C   UNL     1     123.751 -21.694 119.783  1.00  0.00     0.000 A 
ATOM      5  C   UNL     1     122.153 -23.006 118.521  1.00  0.00     0.000 A 
ATOM      6  C   UNL     1     124.065 -20.967 118.630  1.00  0.00     0.006 A 
ATOM      7  C   UNL     1     122.464 -22.280 117.368  1.00  0.00     0.006 A 
ENDBRANCH   1   2
BRANCH   1   8
ATOM      8  O   UNL     1     125.064 -20.846 115.748  1.00  0.00    -0.392 OA
ATOM      9  H   UNL     1     125.008 -21.788 115.437  1.00  0.00     0.211 HD
ENDBRANCH   1   8
TORSDOF 2
ENDMDL
MODEL 4
REMARK VINA RESULT:    -4.303     11.962     12.938
REMARK INTER + INTRA:          -4.691
REMARK INTER:                  -4.681
REMARK INTRA:                  -0.010
REMARK UNBOUND:                -0.010
REMARK SMILES OCc1ccccc1
REMARK SMILES IDX 2 1 3 2 6 3 5 4 7 5 4 6 8 7 1 8
REMARK H PARENT 1 9
REMARK Flexibility Score: inf
ROOT
ATOM      1  C   UNL     1     110.363  -3.967 114.788  1.00  0.00     0.191 C 
ENDROOT
BRANCH   1   2
ATOM      2  C   UNL     1     111.685  -3.799 114.090  1.00  0.00    -0.023 A 
ATOM      3  C   UNL     1     114.124  -3.418 112.756  1.00  0.00     0.000 A 
ATOM      4  C   UNL     1     113.932  -2.876 114.031  1.00  0.00     0.000 A 
ATOM      5  C   UNL     1     113.097  -4.142 112.143  1.00  0.00     0.000 A 
ATOM      6  C   UNL     1     112.714  -3.060 114.694  1.00  0.00     0.006 A 
ATOM      7  C   UNL     1     111.880  -4.328 112.804  1.00  0.00     0.006 A 
ENDBRANCH   1   2
BRANCH   1   8
ATOM      8  O   UNL     1     109.488  -2.938 114.415  1.00  0.00    -0.392 OA
ATOM      9  H   UNL     1     109.374  -3.005 113.431  1.00  0.00     0.211 HD
ENDBRANCH   1   8
TORSDOF 2
ENDMDL
MODEL 5
REMARK VINA RESULT:    -4.275      9.255      9.945
REMARK INTER + INTRA:          -4.660
REMARK INTER:                  -4.650
REMARK INTRA:                  -0.009
REMARK UNBOUND:                -0.010
REMARK SMILES OCc1ccccc1
REMARK SMILES IDX 2 1 3 2 6 3 5 4 7 5 4 6 8 7 1 8
REMARK H PARENT 1 9
REMARK Flexibility Score: inf
ROOT
ATOM      1  C   UNL     1     122.162 -15.939 113.964  1.00  0.00     0.191 C 
ENDROOT
BRANCH   1   2
ATOM      2  C   UNL     1     122.180 -14.497 113.537  1.00  0.00    -0.023 A 
ATOM      3  C   UNL     1     122.196 -11.786 112.815  1.00  0.00     0.000 A 
ATOM      4  C   UNL     1     123.367 -12.392 113.281  1.00  0.00     0.000 A 
ATOM      5  C   UNL     1     121.015 -12.528 112.718  1.00  0.00     0.000 A 
ATOM      6  C   UNL     1     123.358 -13.742 113.646  1.00  0.00     0.006 A 
ATOM      7  C   UNL     1     121.004 -13.878 113.082  1.00  0.00     0.006 A 
ENDBRANCH   1   2
BRANCH   1   8
ATOM      8  O   UNL     1     122.556 -16.761 112.899  1.00  0.00    -0.392 OA
ATOM      9  H   UNL     1     121.878 -16.642 112.183  1.00  0.00     0.211 HD
ENDBRANCH   1   8
TORSDOF 2
ENDMDL
MODEL 6
REMARK VINA RESULT:    -4.270     15.661     16.522
REMARK INTER + INTRA:          -4.655
REMARK INTER:                  -4.645
REMARK INTRA:                  -0.010
REMARK UNBOUND:                -0.010
REMARK SMILES OCc1ccccc1
REMARK SMILES IDX 2 1 3 2 6 3 5 4 7 5 4 6 8 7 1 8
REMARK H PARENT 1 9
REMARK Flexibility Score: inf
ROOT
ATOM      1  C   UNL     1     122.299 -22.532 114.950  1.00  0.00     0.191 C 
ENDROOT
BRANCH   1   2
ATOM      2  C   UNL     1     122.742 -22.100 116.321  1.00  0.00    -0.023 A 
ATOM      3  C   UNL     1     123.504 -21.246 118.883  1.00  0.00     0.000 A 
ATOM      4  C   UNL     1     122.632 -22.330 118.738  1.00  0.00     0.000 A 
ATOM      5  C   UNL     1     123.987 -20.582 117.752  1.00  0.00     0.000 A 
ATOM      6  C   UNL     1     122.247 -22.753 117.462  1.00  0.00     0.006 A 
ATOM      7  C   UNL     1     123.605 -21.003 116.475  1.00  0.00     0.006 A 
ENDBRANCH   1   2
BRANCH   1   8
ATOM      8  O   UNL     1     123.368 -23.125 114.265  1.00  0.00    -0.392 OA
ATOM      9  H   UNL     1     122.976 -23.612 113.494  1.00  0.00     0.211 HD
ENDBRANCH   1   8
TORSDOF 2
ENDMDL
MODEL 7
REMARK VINA RESULT:    -4.262     12.103     12.950
REMARK INTER + INTRA:          -4.646
REMARK INTER:                  -4.636
REMARK INTRA:                  -0.010
REMARK UNBOUND:                -0.010
REMARK SMILES OCc1ccccc1
REMARK SMILES IDX 2 1 3 2 6 3 5 4 7 5 4 6 8 7 1 8
REMARK H PARENT 1 9
REMARK Flexibility Score: inf
ROOT
ATOM      1  C   UNL     1     111.750  -4.970 111.214  1.00  0.00     0.191 C 
ENDROOT
BRANCH   1   2
ATOM      2  C   UNL     1     112.036  -4.296 112.528  1.00  0.00    -0.023 A 
ATOM      3  C   UNL     1     112.539  -2.972 114.950  1.00  0.00     0.000 A 
ATOM      4  C   UNL     1     111.318  -3.625 114.750  1.00  0.00     0.000 A 
ATOM      5  C   UNL     1     113.504  -2.971 113.939  1.00  0.00     0.000 A 
ATOM      6  C   UNL     1     111.064  -4.280 113.541  1.00  0.00     0.006 A 
ATOM      7  C   UNL     1     113.254  -3.625 112.730  1.00  0.00     0.006 A 
ENDBRANCH   1   2
BRANCH   1   8
ATOM      8  O   UNL     1     111.375  -4.017 110.257  1.00  0.00    -0.392 OA
ATOM      9  H   UNL     1     110.401  -3.866 110.374  1.00  0.00     0.211 HD
ENDBRANCH   1   8
TORSDOF 2
ENDMDL
MODEL 8
REMARK VINA RESULT:    -4.252     15.719     16.602
REMARK INTER + INTRA:          -4.634
REMARK INTER:                  -4.623
REMARK INTRA:                  -0.011
REMARK UNBOUND:                -0.010
REMARK SMILES OCc1ccccc1
REMARK SMILES IDX 2 1 3 2 6 3 5 4 7 5 4 6 8 7 1 8
REMARK H PARENT 1 9
REMARK Flexibility Score: inf
ROOT
ATOM      1  C   UNL     1     122.262 -22.629 115.054  1.00  0.00     0.191 C 
ENDROOT
BRANCH   1   2
ATOM      2  C   UNL     1     122.687 -22.155 116.417  1.00  0.00    -0.023 A 
ATOM      3  C   UNL     1     123.544 -21.317 118.954  1.00  0.00     0.000 A 
ATOM      4  C   UNL     1     123.973 -20.635 117.810  1.00  0.00     0.000 A 
ATOM      5  C   UNL     1     122.697 -22.422 118.832  1.00  0.00     0.000 A 
ATOM      6  C   UNL     1     123.551 -21.055 116.545  1.00  0.00     0.006 A 
ATOM      7  C   UNL     1     122.273 -22.844 117.569  1.00  0.00     0.006 A 
ENDBRANCH   1   2
BRANCH   1   8
ATOM      8  O   UNL     1     123.368 -23.125 114.351  1.00  0.00    -0.392 OA
ATOM      9  H   UNL     1     124.109 -23.205 115.007  1.00  0.00     0.211 HD
ENDBRANCH   1   8
TORSDOF 2
ENDMDL
MODEL 9
REMARK VINA RESULT:    -4.088     11.826     12.854
REMARK INTER + INTRA:          -4.456
REMARK INTER:                  -4.446
REMARK INTRA:                  -0.011
REMARK UNBOUND:                -0.010
REMARK SMILES OCc1ccccc1
REMARK SMILES IDX 2 1 3 2 6 3 5 4 7 5 4 6 8 7 1 8
REMARK H PARENT 1 9
REMARK Flexibility Score: inf
ROOT
ATOM      1  C   UNL     1     113.806  -4.406 116.492  1.00  0.00     0.191 C 
ENDROOT
BRANCH   1   2
ATOM      2  C   UNL     1     112.427  -4.328 115.894  1.00  0.00    -0.023 A 
ATOM      3  C   UNL     1     109.836  -4.130 114.836  1.00  0.00     0.000 A 
ATOM      4  C   UNL     1     110.840  -3.261 114.395  1.00  0.00     0.000 A 
ATOM      5  C   UNL     1     110.122  -5.091 115.810  1.00  0.00     0.000 A 
ATOM      6  C   UNL     1     112.130  -3.355 114.926  1.00  0.00     0.006 A 
ATOM      7  C   UNL     1     111.411  -5.188 116.342  1.00  0.00     0.006 A 
ENDBRANCH   1   2
BRANCH   1   8
ATOM      8  O   UNL     1     114.018  -3.322 117.354  1.00  0.00    -0.392 OA
ATOM      9  H   UNL     1     114.696  -2.742 116.919  1.00  0.00     0.211 HD
ENDBRANCH   1   8
TORSDOF 2
ENDMDL
