MODEL 1
REMARK VINA RESULT:    -3.187      0.000      0.000
REMARK INTER + INTRA:          -3.852
REMARK INTER:                  -3.746
REMARK INTRA:                  -0.106
REMARK UNBOUND:                -0.106
REMARK SMILES CCCCC(=O)[O-]
REMARK SMILES IDX 4 1 5 2 6 3 7 4 3 5 2 6 1 7
REMARK H PARENT
REMARK Flexibility Score: inf
ROOT
ATOM      1  C   UNL     1     -44.629  26.804 -17.624  1.00  0.00     0.053 C 
ENDROOT
BRANCH   1   2
ATOM      2  C   UNL     1     -45.686  25.995 -18.304  1.00  0.00     0.041 C 
ATOM      3  O   UNL     1     -45.369  24.998 -19.005  1.00  0.00    -0.550 OA
ATOM      4  O   UNL     1     -47.028  26.310 -18.125  1.00  0.00    -0.550 OA
ENDBRANCH   1   2
BRANCH   1   5
ATOM      5  C   UNL     1     -44.143  27.931 -18.540  1.00  0.00     0.006 C 
BRANCH   5   6
ATOM      6  C   UNL     1     -42.897  27.505 -19.323  1.00  0.00    -0.003 C 
ATOM      7  C   UNL     1     -43.177  27.458 -20.823  1.00  0.00     0.004 C 
ENDBRANCH   5   6
ENDBRANCH   1   5
TORSDOF 3
ENDMDL
MODEL 2
REMARK VINA RESULT:    -3.151      1.065      1.835
REMARK INTER + INTRA:          -3.810
REMARK INTER:                  -3.772
REMARK INTRA:                  -0.038
REMARK UNBOUND:                -0.106
REMARK SMILES CCCCC(=O)[O-]
REMARK SMILES IDX 4 1 5 2 6 3 7 4 3 5 2 6 1 7
REMARK H PARENT
REMARK Flexibility Score: inf
ROOT
ATOM      1  C   UNL     1     -43.806  26.913 -18.651  1.00  0.00     0.053 C 
ENDROOT
BRANCH   1   2
ATOM      2  C   UNL     1     -45.006  26.109 -18.264  1.00  0.00     0.041 C 
ATOM      3  O   UNL     1     -45.724  26.469 -17.294  1.00  0.00    -0.550 OA
ATOM      4  O   UNL     1     -45.362  24.989 -19.005  1.00  0.00    -0.550 OA
ENDBRANCH   1   2
BRANCH   1   5
ATOM      5  C   UNL     1     -43.653  26.950 -20.174  1.00  0.00     0.006 C 
BRANCH   5   6
ATOM      6  C   UNL     1     -42.723  28.090 -20.606  1.00  0.00    -0.003 C 
ATOM      7  C   UNL     1     -42.196  28.859 -19.398  1.00  0.00     0.004 C 
ENDBRANCH   5   6
ENDBRANCH   1   5
TORSDOF 3
ENDMDL
MODEL 3
REMARK VINA RESULT:    -3.142      7.967      8.756
REMARK INTER + INTRA:          -3.799
REMARK INTER:                  -3.777
REMARK INTRA:                  -0.022
REMARK UNBOUND:                -0.106
REMARK SMILES CCCCC(=O)[O-]
REMARK SMILES IDX 4 1 5 2 6 3 7 4 3 5 2 6 1 7
REMARK H PARENT
REMARK Flexibility Score: inf
ROOT
ATOM      1  C   UNL     1     -52.373  24.926 -14.528  1.00  0.00     0.053 C 
ENDROOT
BRANCH   1   2
ATOM      2  C   UNL     1     -51.780  23.593 -14.200  1.00  0.00     0.041 C 
ATOM      3  O   UNL     1     -51.827  23.152 -13.021  1.00  0.00    -0.550 OA
ATOM      4  O   UNL     1     -51.220  22.813 -15.204  1.00  0.00    -0.550 OA
ENDBRANCH   1   2
BRANCH   1   5
ATOM      5  C   UNL     1     -51.320  25.842 -15.158  1.00  0.00     0.006 C 
BRANCH   5   6
ATOM      6  C   UNL     1     -51.977  26.915 -16.033  1.00  0.00    -0.003 C 
ATOM      7  C   UNL     1     -52.747  27.923 -15.184  1.00  0.00     0.004 C 
ENDBRANCH   5   6
ENDBRANCH   1   5
TORSDOF 3
ENDMDL
MODEL 4
REMARK VINA RESULT:    -3.138      1.406      1.667
REMARK INTER + INTRA:          -3.794
REMARK INTER:                  -3.732
REMARK INTRA:                  -0.062
REMARK UNBOUND:                -0.106
REMARK SMILES CCCCC(=O)[O-]
REMARK SMILES IDX 4 1 5 2 6 3 7 4 3 5 2 6 1 7
REMARK H PARENT
REMARK Flexibility Score: inf
ROOT
ATOM      1  C   UNL     1     -45.357  25.562 -18.824  1.00  0.00     0.053 C 
ENDROOT
BRANCH   1   2
ATOM      2  C   UNL     1     -46.589  26.086 -18.158  1.00  0.00     0.041 C 
ATOM      3  O   UNL     1     -46.756  27.327 -18.022  1.00  0.00    -0.550 OA
ATOM      4  O   UNL     1     -47.577  25.208 -17.732  1.00  0.00    -0.550 OA
ENDBRANCH   1   2
BRANCH   1   5
ATOM      5  C   UNL     1     -44.157  26.461 -18.519  1.00  0.00     0.006 C 
BRANCH   5   6
ATOM      6  C   UNL     1     -43.478  26.930 -19.811  1.00  0.00    -0.003 C 
ATOM      7  C   UNL     1     -43.202  28.430 -19.776  1.00  0.00     0.004 C 
ENDBRANCH   5   6
ENDBRANCH   1   5
TORSDOF 3
ENDMDL
MODEL 5
REMARK VINA RESULT:    -3.097      8.829     10.727
REMARK INTER + INTRA:          -3.747
REMARK INTER:                  -3.730
REMARK INTRA:                  -0.016
REMARK UNBOUND:                -0.106
REMARK SMILES CCCCC(=O)[O-]
REMARK SMILES IDX 4 1 5 2 6 3 7 4 3 5 2 6 1 7
REMARK H PARENT
REMARK Flexibility Score: inf
ROOT
ATOM      1  C   UNL     1     -52.978  24.091 -13.826  1.00  0.00     0.053 C 
ENDROOT
BRANCH   1   2
ATOM      2  C   UNL     1     -51.744  24.040 -14.670  1.00  0.00     0.041 C 
ATOM      3  O   UNL     1     -51.086  25.090 -14.895  1.00  0.00    -0.550 OA
ATOM      4  O   UNL     1     -51.290  22.825 -15.167  1.00  0.00    -0.550 OA
ENDBRANCH   1   2
BRANCH   1   5
ATOM      5  C   UNL     1     -52.828  23.186 -12.600  1.00  0.00     0.006 C 
BRANCH   5   6
ATOM      6  C   UNL     1     -54.101  23.201 -11.747  1.00  0.00    -0.003 C 
ATOM      7  C   UNL     1     -53.820  23.736 -10.346  1.00  0.00     0.004 C 
ENDBRANCH   5   6
ENDBRANCH   1   5
TORSDOF 3
ENDMDL
MODEL 6
REMARK VINA RESULT:    -2.967      2.012      3.584
REMARK INTER + INTRA:          -3.593
REMARK INTER:                  -3.546
REMARK INTRA:                  -0.047
REMARK UNBOUND:                -0.106
REMARK SMILES CCCCC(=O)[O-]
REMARK SMILES IDX 4 1 5 2 6 3 7 4 3 5 2 6 1 7
REMARK H PARENT
REMARK Flexibility Score: inf
ROOT
ATOM      1  C   UNL     1     -45.162  26.776 -17.576  1.00  0.00     0.053 C 
ENDROOT
BRANCH   1   2
ATOM      2  C   UNL     1     -45.859  25.655 -18.278  1.00  0.00     0.041 C 
ATOM      3  O   UNL     1     -45.230  24.925 -19.089  1.00  0.00    -0.550 OA
ATOM      4  O   UNL     1     -47.193  25.383 -18.001  1.00  0.00    -0.550 OA
ENDBRANCH   1   2
BRANCH   1   5
ATOM      5  C   UNL     1     -45.860  27.098 -16.252  1.00  0.00     0.006 C 
BRANCH   5   6
ATOM      6  C   UNL     1     -44.984  26.704 -15.058  1.00  0.00    -0.003 C 
ATOM      7  C   UNL     1     -45.827  26.143 -13.916  1.00  0.00     0.004 C 
ENDBRANCH   5   6
ENDBRANCH   1   5
TORSDOF 3
ENDMDL
MODEL 7
REMARK VINA RESULT:    -2.934      1.569      2.121
REMARK INTER + INTRA:          -3.555
REMARK INTER:                  -3.506
REMARK INTRA:                  -0.049
REMARK UNBOUND:                -0.106
REMARK SMILES CCCCC(=O)[O-]
REMARK SMILES IDX 4 1 5 2 6 3 7 4 3 5 2 6 1 7
REMARK H PARENT
REMARK Flexibility Score: inf
ROOT
ATOM      1  C   UNL     1     -46.528  27.109 -17.787  1.00  0.00     0.053 C 
ENDROOT
BRANCH   1   2
ATOM      2  C   UNL     1     -47.572  26.166 -17.279  1.00  0.00     0.041 C 
ATOM      3  O   UNL     1     -47.693  25.020 -17.789  1.00  0.00    -0.550 OA
ATOM      4  O   UNL     1     -48.380  26.532 -16.210  1.00  0.00    -0.550 OA
ENDBRANCH   1   2
BRANCH   1   5
ATOM      5  C   UNL     1     -45.134  26.493 -17.644  1.00  0.00     0.006 C 
BRANCH   5   6
ATOM      6  C   UNL     1     -44.524  26.187 -19.016  1.00  0.00    -0.003 C 
ATOM      7  C   UNL     1     -43.372  27.137 -19.333  1.00  0.00     0.004 C 
ENDBRANCH   5   6
ENDBRANCH   1   5
TORSDOF 3
ENDMDL
MODEL 8
REMARK VINA RESULT:    -2.884      2.824      3.531
REMARK INTER + INTRA:          -3.495
REMARK INTER:                  -3.424
REMARK INTRA:                  -0.072
REMARK UNBOUND:                -0.106
REMARK SMILES CCCCC(=O)[O-]
REMARK SMILES IDX 4 1 5 2 6 3 7 4 3 5 2 6 1 7
REMARK H PARENT
REMARK Flexibility Score: inf
ROOT
ATOM      1  C   UNL     1     -47.804  25.817 -17.740  1.00  0.00     0.053 C 
ENDROOT
BRANCH   1   2
ATOM      2  C   UNL     1     -48.286  25.491 -16.362  1.00  0.00     0.041 C 
ATOM      3  O   UNL     1     -48.370  26.395 -15.490  1.00  0.00    -0.550 OA
ATOM      4  O   UNL     1     -48.692  24.199 -16.054  1.00  0.00    -0.550 OA
ENDBRANCH   1   2
BRANCH   1   5
ATOM      5  C   UNL     1     -46.873  27.032 -17.710  1.00  0.00     0.006 C 
BRANCH   5   6
ATOM      6  C   UNL     1     -45.420  26.618 -17.963  1.00  0.00    -0.003 C 
ATOM      7  C   UNL     1     -45.344  25.407 -18.889  1.00  0.00     0.004 C 
ENDBRANCH   5   6
ENDBRANCH   1   5
TORSDOF 3
ENDMDL
MODEL 9
REMARK VINA RESULT:    -2.874      5.109      6.931
REMARK INTER + INTRA:          -3.484
REMARK INTER:                  -3.369
REMARK INTRA:                  -0.115
REMARK UNBOUND:                -0.106
REMARK SMILES CCCCC(=O)[O-]
REMARK SMILES IDX 4 1 5 2 6 3 7 4 3 5 2 6 1 7
REMARK H PARENT
REMARK Flexibility Score: inf
ROOT
ATOM      1  C   UNL     1     -49.372  26.512 -16.281  1.00  0.00     0.053 C 
ENDROOT
BRANCH   1   2
ATOM      2  C   UNL     1     -48.608  25.227 -16.244  1.00  0.00     0.041 C 
ATOM      3  O   UNL     1     -48.513  24.577 -15.170  1.00  0.00    -0.550 OA
ATOM      4  O   UNL     1     -48.042  24.719 -17.407  1.00  0.00    -0.550 OA
ENDBRANCH   1   2
BRANCH   1   5
ATOM      5  C   UNL     1     -50.330  26.602 -15.090  1.00  0.00     0.006 C 
BRANCH   5   6
ATOM      6  C   UNL     1     -51.737  26.139 -15.480  1.00  0.00    -0.003 C 
ATOM      7  C   UNL     1     -52.099  24.828 -14.787  1.00  0.00     0.004 C 
ENDBRANCH   5   6
ENDBRANCH   1   5
TORSDOF 3
ENDMDL
