MODEL 1
REMARK VINA RESULT:    -3.792      0.000      0.000
REMARK INTER + INTRA:         -15.924
REMARK INTER:                  -9.999
REMARK INTRA:                  -5.925
REMARK UNBOUND:                -5.925
REMARK SMILES CCCCCCCCCCCCCCCCCCCCCCCCCCCCCC(=O)[O-]
REMARK SMILES IDX 16 1 17 2 18 3 19 4 20 5 21 6 22 7 23 8 24 9 25 10 26 11
REMARK SMILES IDX 27 12 28 13 29 14 30 15 31 16 32 17 15 18 14 19 13 20 12 21
REMARK SMILES IDX 11 22 10 23 9 24 8 25 7 26 6 27 5 28 4 29 3 30 2 31 1 32
REMARK H PARENT
REMARK Flexibility Score: inf
ROOT
ATOM      1  C   UNL     1     -14.184  -3.933 -33.123  1.00  0.00     0.000 C 
ENDROOT
BRANCH   1   2
ATOM      2  C   UNL     1     -14.162  -4.885 -31.916  1.00  0.00     0.000 C 
BRANCH   2   3
ATOM      3  C   UNL     1     -15.512  -5.584 -31.693  1.00  0.00     0.000 C 
BRANCH   3   4
ATOM      4  C   UNL     1     -15.336  -6.874 -30.879  1.00  0.00     0.000 C 
BRANCH   4   5
ATOM      5  C   UNL     1     -13.941  -6.992 -30.242  1.00  0.00     0.000 C 
BRANCH   5   6
ATOM      6  C   UNL     1     -13.610  -8.428 -29.800  1.00  0.00     0.000 C 
BRANCH   6   7
ATOM      7  C   UNL     1     -12.751  -8.480 -28.523  1.00  0.00     0.000 C 
BRANCH   7   8
ATOM      8  C   UNL     1     -11.230  -8.533 -28.754  1.00  0.00     0.000 C 
BRANCH   8   9
ATOM      9  C   UNL     1     -10.471  -7.426 -28.002  1.00  0.00     0.000 C 
BRANCH   9  10
ATOM     10  C   UNL     1      -9.433  -6.708 -28.883  1.00  0.00     0.000 C 
BRANCH  10  11
ATOM     11  C   UNL     1      -9.849  -6.491 -30.353  1.00  0.00     0.000 C 
BRANCH  11  12
ATOM     12  C   UNL     1     -10.740  -5.262 -30.612  1.00  0.00     0.000 C 
BRANCH  12  13
ATOM     13  C   UNL     1      -9.984  -3.951 -30.908  1.00  0.00     0.006 C 
BRANCH  13  14
ATOM     14  C   UNL     1     -10.873  -2.695 -30.874  1.00  0.00     0.053 C 
BRANCH  14  15
ATOM     15  C   UNL     1     -10.110  -1.460 -30.504  1.00  0.00     0.041 C 
ATOM     16  O   UNL     1     -10.540  -0.696 -29.600  1.00  0.00    -0.550 OA
ATOM     17  O   UNL     1      -8.943  -1.133 -31.182  1.00  0.00    -0.550 OA
ENDBRANCH  14  15
ENDBRANCH  13  14
ENDBRANCH  12  13
ENDBRANCH  11  12
ENDBRANCH  10  11
ENDBRANCH   9  10
ENDBRANCH   8   9
ENDBRANCH   7   8
ENDBRANCH   6   7
ENDBRANCH   5   6
ENDBRANCH   4   5
ENDBRANCH   3   4
ENDBRANCH   2   3
ENDBRANCH   1   2
BRANCH   1  18
ATOM     18  C   UNL     1     -15.479  -3.106 -33.201  1.00  0.00     0.000 C 
BRANCH  18  19
ATOM     19  C   UNL     1     -15.358  -1.883 -34.130  1.00  0.00     0.000 C 
BRANCH  19  20
ATOM     20  C   UNL     1     -15.128  -0.537 -33.417  1.00  0.00     0.000 C 
BRANCH  20  21
ATOM     21  C   UNL     1     -15.297  -0.627 -31.891  1.00  0.00     0.000 C 
BRANCH  21  22
ATOM     22  C   UNL     1     -13.952  -0.678 -31.144  1.00  0.00     0.000 C 
BRANCH  22  23
ATOM     23  C   UNL     1     -14.043  -1.042 -29.650  1.00  0.00     0.000 C 
BRANCH  23  24
ATOM     24  C   UNL     1     -14.786  -2.366 -29.402  1.00  0.00    -0.000 C 
BRANCH  24  25
ATOM     25  C   UNL     1     -14.348  -3.053 -28.097  1.00  0.00    -0.000 C 
BRANCH  25  26
ATOM     26  C   UNL     1     -13.354  -4.203 -28.344  1.00  0.00    -0.000 C 
BRANCH  26  27
ATOM     27  C   UNL     1     -12.172  -4.181 -27.361  1.00  0.00    -0.000 C 
BRANCH  27  28
ATOM     28  C   UNL     1     -11.857  -2.766 -26.850  1.00  0.00    -0.000 C 
BRANCH  28  29
ATOM     29  C   UNL     1     -10.347  -2.474 -26.784  1.00  0.00    -0.000 C 
BRANCH  29  30
ATOM     30  C   UNL     1      -9.439  -3.593 -27.327  1.00  0.00    -0.000 C 
BRANCH  30  31
ATOM     31  C   UNL     1      -7.944  -3.289 -27.155  1.00  0.00    -0.003 C 
ATOM     32  C   UNL     1      -7.306  -2.898 -28.485  1.00  0.00     0.004 C 
ENDBRANCH  30  31
ENDBRANCH  29  30
ENDBRANCH  28  29
ENDBRANCH  27  28
ENDBRANCH  26  27
ENDBRANCH  25  26
ENDBRANCH  24  25
ENDBRANCH  23  24
ENDBRANCH  22  23
ENDBRANCH  21  22
ENDBRANCH  20  21
ENDBRANCH  19  20
ENDBRANCH  18  19
ENDBRANCH   1  18
TORSDOF 28
ENDMDL
MODEL 2
REMARK VINA RESULT:    -3.722      1.563      6.082
REMARK INTER + INTRA:         -15.740
REMARK INTER:                 -10.448
REMARK INTRA:                  -5.292
REMARK UNBOUND:                -5.925
REMARK SMILES CCCCCCCCCCCCCCCCCCCCCCCCCCCCCC(=O)[O-]
REMARK SMILES IDX 16 1 17 2 18 3 19 4 20 5 21 6 22 7 23 8 24 9 25 10 26 11
REMARK SMILES IDX 27 12 28 13 29 14 30 15 31 16 32 17 15 18 14 19 13 20 12 21
REMARK SMILES IDX 11 22 10 23 9 24 8 25 7 26 6 27 5 28 4 29 3 30 2 31 1 32
REMARK H PARENT
REMARK Flexibility Score: inf
ROOT
ATOM      1  C   UNL     1     -15.006  -5.451 -30.073  1.00  0.00     0.000 C 
ENDROOT
BRANCH   1   2
ATOM      2  C   UNL     1     -14.855  -4.234 -30.999  1.00  0.00     0.000 C 
BRANCH   2   3
ATOM      3  C   UNL     1     -13.858  -4.484 -32.141  1.00  0.00     0.000 C 
BRANCH   3   4
ATOM      4  C   UNL     1     -14.344  -3.840 -33.449  1.00  0.00     0.000 C 
BRANCH   4   5
ATOM      5  C   UNL     1     -15.556  -2.915 -33.242  1.00  0.00     0.000 C 
BRANCH   5   6
ATOM      6  C   UNL     1     -15.423  -1.584 -34.003  1.00  0.00     0.000 C 
BRANCH   6   7
ATOM      7  C   UNL     1     -15.132  -0.389 -33.076  1.00  0.00     0.000 C 
BRANCH   7   8
ATOM      8  C   UNL     1     -15.469  -0.612 -31.591  1.00  0.00     0.000 C 
BRANCH   8   9
ATOM      9  C   UNL     1     -14.392  -0.057 -30.643  1.00  0.00     0.000 C 
BRANCH   9  10
ATOM     10  C   UNL     1     -13.292  -1.085 -30.319  1.00  0.00     0.000 C 
BRANCH  10  11
ATOM     11  C   UNL     1     -11.894  -0.760 -30.884  1.00  0.00     0.000 C 
BRANCH  11  12
ATOM     12  C   UNL     1     -10.708  -1.194 -30.002  1.00  0.00     0.000 C 
BRANCH  12  13
ATOM     13  C   UNL     1      -9.365  -1.361 -30.741  1.00  0.00     0.006 C 
BRANCH  13  14
ATOM     14  C   UNL     1      -8.404  -0.172 -30.568  1.00  0.00     0.053 C 
BRANCH  14  15
ATOM     15  C   UNL     1      -6.979  -0.602 -30.406  1.00  0.00     0.041 C 
ATOM     16  O   UNL     1      -6.700  -1.817 -30.222  1.00  0.00    -0.550 OA
ATOM     17  O   UNL     1      -5.960   0.341 -30.420  1.00  0.00    -0.550 OA
ENDBRANCH  14  15
ENDBRANCH  13  14
ENDBRANCH  12  13
ENDBRANCH  11  12
ENDBRANCH  10  11
ENDBRANCH   9  10
ENDBRANCH   8   9
ENDBRANCH   7   8
ENDBRANCH   6   7
ENDBRANCH   5   6
ENDBRANCH   4   5
ENDBRANCH   3   4
ENDBRANCH   2   3
ENDBRANCH   1   2
BRANCH   1  18
ATOM     18  C   UNL     1     -15.201  -6.766 -30.849  1.00  0.00     0.000 C 
BRANCH  18  19
ATOM     19  C   UNL     1     -14.317  -7.912 -30.323  1.00  0.00     0.000 C 
BRANCH  19  20
ATOM     20  C   UNL     1     -13.053  -7.470 -29.559  1.00  0.00     0.000 C 
BRANCH  20  21
ATOM     21  C   UNL     1     -12.476  -8.577 -28.661  1.00  0.00     0.000 C 
BRANCH  21  22
ATOM     22  C   UNL     1     -11.061  -8.252 -28.147  1.00  0.00     0.000 C 
BRANCH  22  23
ATOM     23  C   UNL     1      -9.916  -8.994 -28.860  1.00  0.00     0.000 C 
BRANCH  23  24
ATOM     24  C   UNL     1      -8.755  -8.064 -29.255  1.00  0.00    -0.000 C 
BRANCH  24  25
ATOM     25  C   UNL     1      -8.983  -7.378 -30.612  1.00  0.00    -0.000 C 
BRANCH  25  26
ATOM     26  C   UNL     1      -8.738  -5.860 -30.552  1.00  0.00    -0.000 C 
BRANCH  26  27
ATOM     27  C   UNL     1      -9.939  -5.048 -31.063  1.00  0.00    -0.000 C 
BRANCH  27  28
ATOM     28  C   UNL     1     -10.959  -4.742 -29.953  1.00  0.00    -0.000 C 
BRANCH  28  29
ATOM     29  C   UNL     1     -10.307  -4.574 -28.569  1.00  0.00    -0.000 C 
BRANCH  29  30
ATOM     30  C   UNL     1     -11.290  -4.531 -27.384  1.00  0.00    -0.000 C 
BRANCH  30  31
ATOM     31  C   UNL     1     -12.742  -4.286 -27.817  1.00  0.00    -0.003 C 
ATOM     32  C   UNL     1     -13.281  -2.985 -27.230  1.00  0.00     0.004 C 
ENDBRANCH  30  31
ENDBRANCH  29  30
ENDBRANCH  28  29
ENDBRANCH  27  28
ENDBRANCH  26  27
ENDBRANCH  25  26
ENDBRANCH  24  25
ENDBRANCH  23  24
ENDBRANCH  22  23
ENDBRANCH  21  22
ENDBRANCH  20  21
ENDBRANCH  19  20
ENDBRANCH  18  19
ENDBRANCH   1  18
TORSDOF 28
ENDMDL
MODEL 3
REMARK VINA RESULT:    -3.666      2.114      6.050
REMARK INTER + INTRA:         -15.592
REMARK INTER:                 -10.319
REMARK INTRA:                  -5.273
REMARK UNBOUND:                -5.925
REMARK SMILES CCCCCCCCCCCCCCCCCCCCCCCCCCCCCC(=O)[O-]
REMARK SMILES IDX 16 1 17 2 18 3 19 4 20 5 21 6 22 7 23 8 24 9 25 10 26 11
REMARK SMILES IDX 27 12 28 13 29 14 30 15 31 16 32 17 15 18 14 19 13 20 12 21
REMARK SMILES IDX 11 22 10 23 9 24 8 25 7 26 6 27 5 28 4 29 3 30 2 31 1 32
REMARK H PARENT
REMARK Flexibility Score: inf
ROOT
ATOM      1  C   UNL     1     -12.131  -7.637 -28.319  1.00  0.00     0.000 C 
ENDROOT
BRANCH   1   2
ATOM      2  C   UNL     1     -10.786  -7.272 -28.968  1.00  0.00     0.000 C 
BRANCH   2   3
ATOM      3  C   UNL     1     -10.888  -6.040 -29.881  1.00  0.00     0.000 C 
BRANCH   3   4
ATOM      4  C   UNL     1      -9.637  -5.901 -30.761  1.00  0.00     0.000 C 
BRANCH   4   5
ATOM      5  C   UNL     1      -9.365  -4.447 -31.184  1.00  0.00     0.000 C 
BRANCH   5   6
ATOM      6  C   UNL     1     -10.588  -3.533 -30.989  1.00  0.00     0.000 C 
BRANCH   6   7
ATOM      7  C   UNL     1     -10.206  -2.055 -30.789  1.00  0.00     0.000 C 
BRANCH   7   8
ATOM      8  C   UNL     1      -8.712  -1.731 -30.965  1.00  0.00     0.000 C 
BRANCH   8   9
ATOM      9  C   UNL     1      -8.144  -0.878 -29.818  1.00  0.00     0.000 C 
BRANCH   9  10
ATOM     10  C   UNL     1      -8.586  -1.373 -28.428  1.00  0.00     0.000 C 
BRANCH  10  11
ATOM     11  C   UNL     1      -7.934  -2.690 -27.956  1.00  0.00     0.000 C 
BRANCH  11  12
ATOM     12  C   UNL     1      -8.917  -3.806 -27.554  1.00  0.00     0.000 C 
BRANCH  12  13
ATOM     13  C   UNL     1      -8.280  -5.190 -27.317  1.00  0.00     0.006 C 
BRANCH  13  14
ATOM     14  C   UNL     1      -7.021  -5.451 -28.163  1.00  0.00     0.053 C 
BRANCH  14  15
ATOM     15  C   UNL     1      -6.925  -6.873 -28.626  1.00  0.00     0.041 C 
ATOM     16  O   UNL     1      -7.391  -7.804 -27.918  1.00  0.00    -0.550 OA
ATOM     17  O   UNL     1      -6.288  -7.173 -29.824  1.00  0.00    -0.550 OA
ENDBRANCH  14  15
ENDBRANCH  13  14
ENDBRANCH  12  13
ENDBRANCH  11  12
ENDBRANCH  10  11
ENDBRANCH   9  10
ENDBRANCH   8   9
ENDBRANCH   7   8
ENDBRANCH   6   7
ENDBRANCH   5   6
ENDBRANCH   4   5
ENDBRANCH   3   4
ENDBRANCH   2   3
ENDBRANCH   1   2
BRANCH   1  18
ATOM     18  C   UNL     1     -12.752  -8.909 -28.921  1.00  0.00     0.000 C 
BRANCH  18  19
ATOM     19  C   UNL     1     -13.915  -8.613 -29.886  1.00  0.00     0.000 C 
BRANCH  19  20
ATOM     20  C   UNL     1     -14.108  -7.128 -30.246  1.00  0.00     0.000 C 
BRANCH  20  21
ATOM     21  C   UNL     1     -15.470  -6.839 -30.899  1.00  0.00     0.000 C 
BRANCH  21  22
ATOM     22  C   UNL     1     -15.485  -5.520 -31.693  1.00  0.00     0.000 C 
BRANCH  22  23
ATOM     23  C   UNL     1     -14.100  -4.981 -32.099  1.00  0.00     0.000 C 
BRANCH  23  24
ATOM     24  C   UNL     1     -14.178  -3.877 -33.168  1.00  0.00    -0.000 C 
BRANCH  24  25
ATOM     25  C   UNL     1     -15.528  -3.138 -33.157  1.00  0.00    -0.000 C 
BRANCH  25  26
ATOM     26  C   UNL     1     -15.382  -1.645 -33.500  1.00  0.00    -0.000 C 
BRANCH  26  27
ATOM     27  C   UNL     1     -15.189  -0.770 -32.251  1.00  0.00    -0.000 C 
BRANCH  27  28
ATOM     28  C   UNL     1     -15.631  -1.479 -30.960  1.00  0.00    -0.000 C 
BRANCH  28  29
ATOM     29  C   UNL     1     -14.449  -1.875 -30.057  1.00  0.00    -0.000 C 
BRANCH  29  30
ATOM     30  C   UNL     1     -14.752  -2.981 -29.029  1.00  0.00    -0.000 C 
BRANCH  30  31
ATOM     31  C   UNL     1     -13.517  -3.816 -28.664  1.00  0.00    -0.003 C 
ATOM     32  C   UNL     1     -13.152  -3.646 -27.192  1.00  0.00     0.004 C 
ENDBRANCH  30  31
ENDBRANCH  29  30
ENDBRANCH  28  29
ENDBRANCH  27  28
ENDBRANCH  26  27
ENDBRANCH  25  26
ENDBRANCH  24  25
ENDBRANCH  23  24
ENDBRANCH  22  23
ENDBRANCH  21  22
ENDBRANCH  20  21
ENDBRANCH  19  20
ENDBRANCH  18  19
ENDBRANCH   1  18
TORSDOF 28
ENDMDL
MODEL 4
REMARK VINA RESULT:    -3.627      1.578      6.277
REMARK INTER + INTRA:         -15.490
REMARK INTER:                 -10.360
REMARK INTRA:                  -5.130
REMARK UNBOUND:                -5.925
REMARK SMILES CCCCCCCCCCCCCCCCCCCCCCCCCCCCCC(=O)[O-]
REMARK SMILES IDX 16 1 17 2 18 3 19 4 20 5 21 6 22 7 23 8 24 9 25 10 26 11
REMARK SMILES IDX 27 12 28 13 29 14 30 15 31 16 32 17 15 18 14 19 13 20 12 21
REMARK SMILES IDX 11 22 10 23 9 24 8 25 7 26 6 27 5 28 4 29 3 30 2 31 1 32
REMARK H PARENT
REMARK Flexibility Score: inf
ROOT
ATOM      1  C   UNL     1     -10.407  -8.132 -28.146  1.00  0.00     0.000 C 
ENDROOT
BRANCH   1   2
ATOM      2  C   UNL     1      -9.677  -9.030 -29.158  1.00  0.00     0.000 C 
BRANCH   2   3
ATOM      3  C   UNL     1      -8.579  -8.279 -29.926  1.00  0.00     0.000 C 
BRANCH   3   4
ATOM      4  C   UNL     1      -7.851  -7.281 -29.013  1.00  0.00     0.000 C 
BRANCH   4   5
ATOM      5  C   UNL     1      -7.632  -5.913 -29.681  1.00  0.00     0.000 C 
BRANCH   5   6
ATOM      6  C   UNL     1      -8.275  -4.758 -28.892  1.00  0.00     0.000 C 
BRANCH   6   7
ATOM      7  C   UNL     1      -9.332  -3.991 -29.707  1.00  0.00     0.000 C 
BRANCH   7   8
ATOM      8  C   UNL     1      -9.834  -4.707 -30.973  1.00  0.00     0.000 C 
BRANCH   8   9
ATOM      9  C   UNL     1     -11.370  -4.757 -31.065  1.00  0.00     0.000 C 
BRANCH   9  10
ATOM     10  C   UNL     1     -12.030  -3.391 -30.801  1.00  0.00     0.000 C 
BRANCH  10  11
ATOM     11  C   UNL     1     -13.001  -3.346 -29.602  1.00  0.00     0.000 C 
BRANCH  11  12
ATOM     12  C   UNL     1     -12.997  -2.031 -28.800  1.00  0.00     0.000 C 
BRANCH  12  13
ATOM     13  C   UNL     1     -11.737  -1.158 -28.972  1.00  0.00     0.006 C 
BRANCH  13  14
ATOM     14  C   UNL     1     -12.026   0.259 -29.498  1.00  0.00     0.053 C 
BRANCH  14  15
ATOM     15  C   UNL     1     -10.889   0.819 -30.296  1.00  0.00     0.041 C 
ATOM     16  O   UNL     1     -10.655   2.056 -30.283  1.00  0.00    -0.550 OA
ATOM     17  O   UNL     1     -10.110  -0.020 -31.082  1.00  0.00    -0.550 OA
ENDBRANCH  14  15
ENDBRANCH  13  14
ENDBRANCH  12  13
ENDBRANCH  11  12
ENDBRANCH  10  11
ENDBRANCH   9  10
ENDBRANCH   8   9
ENDBRANCH   7   8
ENDBRANCH   6   7
ENDBRANCH   5   6
ENDBRANCH   4   5
ENDBRANCH   3   4
ENDBRANCH   2   3
ENDBRANCH   1   2
BRANCH   1  18
ATOM     18  C   UNL     1     -11.744  -7.595 -28.687  1.00  0.00     0.000 C 
BRANCH  18  19
ATOM     19  C   UNL     1     -12.812  -8.692 -28.848  1.00  0.00     0.000 C 
BRANCH  19  20
ATOM     20  C   UNL     1     -13.910  -8.394 -29.887  1.00  0.00     0.000 C 
BRANCH  20  21
ATOM     21  C   UNL     1     -14.050  -6.895 -30.201  1.00  0.00     0.000 C 
BRANCH  21  22
ATOM     22  C   UNL     1     -15.262  -6.583 -31.098  1.00  0.00     0.000 C 
BRANCH  22  23
ATOM     23  C   UNL     1     -16.079  -5.342 -30.692  1.00  0.00     0.000 C 
BRANCH  23  24
ATOM     24  C   UNL     1     -16.009  -4.213 -31.734  1.00  0.00    -0.000 C 
BRANCH  24  25
ATOM     25  C   UNL     1     -14.976  -4.493 -32.839  1.00  0.00    -0.000 C 
BRANCH  25  26
ATOM     26  C   UNL     1     -14.467  -3.203 -33.508  1.00  0.00    -0.000 C 
BRANCH  26  27
ATOM     27  C   UNL     1     -15.591  -2.183 -33.752  1.00  0.00    -0.000 C 
BRANCH  27  28
ATOM     28  C   UNL     1     -15.199  -0.761 -33.318  1.00  0.00    -0.000 C 
BRANCH  28  29
ATOM     29  C   UNL     1     -14.747  -0.684 -31.848  1.00  0.00    -0.000 C 
BRANCH  29  30
ATOM     30  C   UNL     1     -15.883  -0.738 -30.810  1.00  0.00    -0.000 C 
BRANCH  30  31
ATOM     31  C   UNL     1     -15.729   0.307 -29.696  1.00  0.00    -0.003 C 
ATOM     32  C   UNL     1     -15.909   1.722 -30.240  1.00  0.00     0.004 C 
ENDBRANCH  30  31
ENDBRANCH  29  30
ENDBRANCH  28  29
ENDBRANCH  27  28
ENDBRANCH  26  27
ENDBRANCH  25  26
ENDBRANCH  24  25
ENDBRANCH  23  24
ENDBRANCH  22  23
ENDBRANCH  21  22
ENDBRANCH  20  21
ENDBRANCH  19  20
ENDBRANCH  18  19
ENDBRANCH   1  18
TORSDOF 28
ENDMDL
MODEL 5
REMARK VINA RESULT:    -3.535      2.595      6.028
REMARK INTER + INTRA:         -15.247
REMARK INTER:                 -10.543
REMARK INTRA:                  -4.704
REMARK UNBOUND:                -5.925
REMARK SMILES CCCCCCCCCCCCCCCCCCCCCCCCCCCCCC(=O)[O-]
REMARK SMILES IDX 16 1 17 2 18 3 19 4 20 5 21 6 22 7 23 8 24 9 25 10 26 11
REMARK SMILES IDX 27 12 28 13 29 14 30 15 31 16 32 17 15 18 14 19 13 20 12 21
REMARK SMILES IDX 11 22 10 23 9 24 8 25 7 26 6 27 5 28 4 29 3 30 2 31 1 32
REMARK H PARENT
REMARK Flexibility Score: inf
ROOT
ATOM      1  C   UNL     1     -12.041  -7.500 -28.378  1.00  0.00     0.000 C 
ENDROOT
BRANCH   1   2
ATOM      2  C   UNL     1     -10.752  -7.138 -29.132  1.00  0.00     0.000 C 
BRANCH   2   3
ATOM      3  C   UNL     1     -10.907  -5.872 -29.989  1.00  0.00     0.000 C 
BRANCH   3   4
ATOM      4  C   UNL     1      -9.670  -5.648 -30.872  1.00  0.00     0.000 C 
BRANCH   4   5
ATOM      5  C   UNL     1      -9.315  -4.160 -31.034  1.00  0.00     0.000 C 
BRANCH   5   6
ATOM      6  C   UNL     1      -8.240  -3.694 -30.037  1.00  0.00     0.000 C 
BRANCH   6   7
ATOM      7  C   UNL     1      -8.825  -3.273 -28.677  1.00  0.00     0.000 C 
BRANCH   7   8
ATOM      8  C   UNL     1      -8.493  -4.207 -27.500  1.00  0.00     0.000 C 
BRANCH   8   9
ATOM      9  C   UNL     1      -7.113  -4.874 -27.633  1.00  0.00     0.000 C 
BRANCH   9  10
ATOM     10  C   UNL     1      -7.172  -6.406 -27.494  1.00  0.00     0.000 C 
BRANCH  10  11
ATOM     11  C   UNL     1      -7.169  -7.192 -28.822  1.00  0.00     0.000 C 
BRANCH  11  12
ATOM     12  C   UNL     1      -5.814  -7.249 -29.552  1.00  0.00     0.000 C 
BRANCH  12  13
ATOM     13  C   UNL     1      -5.625  -6.207 -30.673  1.00  0.00     0.006 C 
BRANCH  13  14
ATOM     14  C   UNL     1      -4.493  -5.200 -30.405  1.00  0.00     0.053 C 
BRANCH  14  15
ATOM     15  C   UNL     1      -3.523  -5.110 -31.543  1.00  0.00     0.041 C 
ATOM     16  O   UNL     1      -2.484  -4.406 -31.436  1.00  0.00    -0.550 OA
ATOM     17  O   UNL     1      -3.783  -5.773 -32.735  1.00  0.00    -0.550 OA
ENDBRANCH  14  15
ENDBRANCH  13  14
ENDBRANCH  12  13
ENDBRANCH  11  12
ENDBRANCH  10  11
ENDBRANCH   9  10
ENDBRANCH   8   9
ENDBRANCH   7   8
ENDBRANCH   6   7
ENDBRANCH   5   6
ENDBRANCH   4   5
ENDBRANCH   3   4
ENDBRANCH   2   3
ENDBRANCH   1   2
BRANCH   1  18
ATOM     18  C   UNL     1     -12.681  -8.803 -28.890  1.00  0.00     0.000 C 
BRANCH  18  19
ATOM     19  C   UNL     1     -13.839  -8.558 -29.874  1.00  0.00     0.000 C 
BRANCH  19  20
ATOM     20  C   UNL     1     -14.133  -7.079 -30.189  1.00  0.00     0.000 C 
BRANCH  20  21
ATOM     21  C   UNL     1     -15.423  -6.881 -31.003  1.00  0.00     0.000 C 
BRANCH  21  22
ATOM     22  C   UNL     1     -15.474  -5.520 -31.721  1.00  0.00     0.000 C 
BRANCH  22  23
ATOM     23  C   UNL     1     -14.105  -4.915 -32.081  1.00  0.00     0.000 C 
BRANCH  23  24
ATOM     24  C   UNL     1     -14.185  -3.899 -33.234  1.00  0.00    -0.000 C 
BRANCH  24  25
ATOM     25  C   UNL     1     -15.533  -3.159 -33.276  1.00  0.00    -0.000 C 
BRANCH  25  26
ATOM     26  C   UNL     1     -15.373  -1.665 -33.608  1.00  0.00    -0.000 C 
BRANCH  26  27
ATOM     27  C   UNL     1     -15.263  -0.790 -32.348  1.00  0.00    -0.000 C 
BRANCH  27  28
ATOM     28  C   UNL     1     -15.830  -1.483 -31.098  1.00  0.00    -0.000 C 
BRANCH  28  29
ATOM     29  C   UNL     1     -14.756  -1.783 -30.037  1.00  0.00    -0.000 C 
BRANCH  29  30
ATOM     30  C   UNL     1     -15.115  -2.901 -29.041  1.00  0.00    -0.000 C 
BRANCH  30  31
ATOM     31  C   UNL     1     -13.910  -3.772 -28.658  1.00  0.00    -0.003 C 
ATOM     32  C   UNL     1     -12.639  -2.935 -28.543  1.00  0.00     0.004 C 
ENDBRANCH  30  31
ENDBRANCH  29  30
ENDBRANCH  28  29
ENDBRANCH  27  28
ENDBRANCH  26  27
ENDBRANCH  25  26
ENDBRANCH  24  25
ENDBRANCH  23  24
ENDBRANCH  22  23
ENDBRANCH  21  22
ENDBRANCH  20  21
ENDBRANCH  19  20
ENDBRANCH  18  19
ENDBRANCH   1  18
TORSDOF 28
ENDMDL
MODEL 6
REMARK VINA RESULT:    -3.524      1.691      5.677
REMARK INTER + INTRA:         -15.218
REMARK INTER:                  -9.893
REMARK INTRA:                  -5.324
REMARK UNBOUND:                -5.925
REMARK SMILES CCCCCCCCCCCCCCCCCCCCCCCCCCCCCC(=O)[O-]
REMARK SMILES IDX 16 1 17 2 18 3 19 4 20 5 21 6 22 7 23 8 24 9 25 10 26 11
REMARK SMILES IDX 27 12 28 13 29 14 30 15 31 16 32 17 15 18 14 19 13 20 12 21
REMARK SMILES IDX 11 22 10 23 9 24 8 25 7 26 6 27 5 28 4 29 3 30 2 31 1 32
REMARK H PARENT
REMARK Flexibility Score: inf
ROOT
ATOM      1  C   UNL     1     -15.744  -6.487 -30.914  1.00  0.00     0.000 C 
ENDROOT
BRANCH   1   2
ATOM      2  C   UNL     1     -15.734  -5.180 -31.724  1.00  0.00     0.000 C 
BRANCH   2   3
ATOM      3  C   UNL     1     -14.314  -4.732 -32.101  1.00  0.00     0.000 C 
BRANCH   3   4
ATOM      4  C   UNL     1     -14.329  -3.856 -33.363  1.00  0.00     0.000 C 
BRANCH   4   5
ATOM      5  C   UNL     1     -15.632  -3.053 -33.515  1.00  0.00     0.000 C 
BRANCH   5   6
ATOM      6  C   UNL     1     -15.381  -1.586 -33.906  1.00  0.00     0.000 C 
BRANCH   6   7
ATOM      7  C   UNL     1     -15.249  -0.654 -32.687  1.00  0.00     0.000 C 
BRANCH   7   8
ATOM      8  C   UNL     1     -15.702  -1.256 -31.346  1.00  0.00     0.000 C 
BRANCH   8   9
ATOM      9  C   UNL     1     -14.577  -1.301 -30.297  1.00  0.00     0.000 C 
BRANCH   9  10
ATOM     10  C   UNL     1     -13.172  -1.296 -30.927  1.00  0.00     0.000 C 
BRANCH  10  11
ATOM     11  C   UNL     1     -12.269  -0.111 -30.524  1.00  0.00     0.000 C 
BRANCH  11  12
ATOM     12  C   UNL     1     -11.311  -0.382 -29.349  1.00  0.00     0.000 C 
BRANCH  12  13
ATOM     13  C   UNL     1      -9.829  -0.052 -29.619  1.00  0.00     0.006 C 
BRANCH  13  14
ATOM     14  C   UNL     1      -9.030   0.315 -28.356  1.00  0.00     0.053 C 
BRANCH  14  15
ATOM     15  C   UNL     1      -7.752  -0.459 -28.239  1.00  0.00     0.041 C 
ATOM     16  O   UNL     1      -6.800  -0.234 -29.032  1.00  0.00    -0.550 OA
ATOM     17  O   UNL     1      -7.625  -1.453 -27.277  1.00  0.00    -0.550 OA
ENDBRANCH  14  15
ENDBRANCH  13  14
ENDBRANCH  12  13
ENDBRANCH  11  12
ENDBRANCH  10  11
ENDBRANCH   9  10
ENDBRANCH   8   9
ENDBRANCH   7   8
ENDBRANCH   6   7
ENDBRANCH   5   6
ENDBRANCH   4   5
ENDBRANCH   3   4
ENDBRANCH   2   3
ENDBRANCH   1   2
BRANCH   1  18
ATOM     18  C   UNL     1     -14.328  -6.985 -30.577  1.00  0.00     0.000 C 
BRANCH  18  19
ATOM     19  C   UNL     1     -14.288  -8.479 -30.204  1.00  0.00     0.000 C 
BRANCH  19  20
ATOM     20  C   UNL     1     -13.187  -8.877 -29.203  1.00  0.00     0.000 C 
BRANCH  20  21
ATOM     21  C   UNL     1     -12.099  -7.803 -29.045  1.00  0.00     0.000 C 
BRANCH  21  22
ATOM     22  C   UNL     1     -11.891  -7.372 -27.582  1.00  0.00     0.000 C 
BRANCH  22  23
ATOM     23  C   UNL     1     -11.667  -5.864 -27.366  1.00  0.00     0.000 C 
BRANCH  23  24
ATOM     24  C   UNL     1     -12.482  -4.993 -28.338  1.00  0.00    -0.000 C 
BRANCH  24  25
ATOM     25  C   UNL     1     -11.603  -4.010 -29.129  1.00  0.00    -0.000 C 
BRANCH  25  26
ATOM     26  C   UNL     1     -11.216  -4.553 -30.516  1.00  0.00    -0.000 C 
BRANCH  26  27
ATOM     27  C   UNL     1      -9.869  -4.002 -31.011  1.00  0.00    -0.000 C 
BRANCH  27  28
ATOM     28  C   UNL     1      -8.954  -3.560 -29.856  1.00  0.00    -0.000 C 
BRANCH  28  29
ATOM     29  C   UNL     1      -7.840  -4.577 -29.550  1.00  0.00    -0.000 C 
BRANCH  29  30
ATOM     30  C   UNL     1      -8.196  -5.639 -28.493  1.00  0.00    -0.000 C 
BRANCH  30  31
ATOM     31  C   UNL     1      -7.919  -7.073 -28.968  1.00  0.00    -0.003 C 
ATOM     32  C   UNL     1      -8.695  -7.391 -30.242  1.00  0.00     0.004 C 
ENDBRANCH  30  31
ENDBRANCH  29  30
ENDBRANCH  28  29
ENDBRANCH  27  28
ENDBRANCH  26  27
ENDBRANCH  25  26
ENDBRANCH  24  25
ENDBRANCH  23  24
ENDBRANCH  22  23
ENDBRANCH  21  22
ENDBRANCH  20  21
ENDBRANCH  19  20
ENDBRANCH  18  19
ENDBRANCH   1  18
TORSDOF 28
ENDMDL
MODEL 7
REMARK VINA RESULT:    -3.521      1.450      5.080
REMARK INTER + INTRA:         -15.208
REMARK INTER:                 -10.185
REMARK INTRA:                  -5.024
REMARK UNBOUND:                -5.925
REMARK SMILES CCCCCCCCCCCCCCCCCCCCCCCCCCCCCC(=O)[O-]
REMARK SMILES IDX 16 1 17 2 18 3 19 4 20 5 21 6 22 7 23 8 24 9 25 10 26 11
REMARK SMILES IDX 27 12 28 13 29 14 30 15 31 16 32 17 15 18 14 19 13 20 12 21
REMARK SMILES IDX 11 22 10 23 9 24 8 25 7 26 6 27 5 28 4 29 3 30 2 31 1 32
REMARK H PARENT
REMARK Flexibility Score: inf
ROOT
ATOM      1  C   UNL     1     -14.352  -4.828 -32.099  1.00  0.00     0.000 C 
ENDROOT
BRANCH   1   2
ATOM      2  C   UNL     1     -15.349  -3.941 -32.863  1.00  0.00     0.000 C 
BRANCH   2   3
ATOM      3  C   UNL     1     -14.654  -2.841 -33.680  1.00  0.00     0.000 C 
BRANCH   3   4
ATOM      4  C   UNL     1     -15.598  -1.655 -33.924  1.00  0.00     0.000 C 
BRANCH   4   5
ATOM      5  C   UNL     1     -15.123  -0.364 -33.233  1.00  0.00     0.000 C 
BRANCH   5   6
ATOM      6  C   UNL     1     -15.308  -0.407 -31.706  1.00  0.00     0.000 C 
BRANCH   6   7
ATOM      7  C   UNL     1     -13.993  -0.673 -30.950  1.00  0.00     0.000 C 
BRANCH   7   8
ATOM      8  C   UNL     1     -14.070  -1.751 -29.854  1.00  0.00     0.000 C 
BRANCH   8   9
ATOM      9  C   UNL     1     -12.735  -2.484 -29.638  1.00  0.00     0.000 C 
BRANCH   9  10
ATOM     10  C   UNL     1     -11.924  -2.645 -30.937  1.00  0.00     0.000 C 
BRANCH  10  11
ATOM     11  C   UNL     1     -10.694  -3.572 -30.839  1.00  0.00     0.000 C 
BRANCH  11  12
ATOM     12  C   UNL     1      -9.328  -2.871 -30.961  1.00  0.00     0.000 C 
BRANCH  12  13
ATOM     13  C   UNL     1      -9.376  -1.330 -30.952  1.00  0.00     0.006 C 
BRANCH  13  14
ATOM     14  C   UNL     1      -7.993  -0.662 -31.046  1.00  0.00     0.053 C 
BRANCH  14  15
ATOM     15  C   UNL     1      -7.122  -0.974 -29.868  1.00  0.00     0.041 C 
ATOM     16  O   UNL     1      -7.313  -0.394 -28.767  1.00  0.00    -0.550 OA
ATOM     17  O   UNL     1      -6.076  -1.879 -29.995  1.00  0.00    -0.550 OA
ENDBRANCH  14  15
ENDBRANCH  13  14
ENDBRANCH  12  13
ENDBRANCH  11  12
ENDBRANCH  10  11
ENDBRANCH   9  10
ENDBRANCH   8   9
ENDBRANCH   7   8
ENDBRANCH   6   7
ENDBRANCH   5   6
ENDBRANCH   4   5
ENDBRANCH   3   4
ENDBRANCH   2   3
ENDBRANCH   1   2
BRANCH   1  18
ATOM     18  C   UNL     1     -14.947  -5.407 -30.804  1.00  0.00     0.000 C 
BRANCH  18  19
ATOM     19  C   UNL     1     -15.354  -6.887 -30.938  1.00  0.00     0.000 C 
BRANCH  19  20
ATOM     20  C   UNL     1     -14.411  -7.893 -30.251  1.00  0.00     0.000 C 
BRANCH  20  21
ATOM     21  C   UNL     1     -13.094  -7.256 -29.777  1.00  0.00     0.000 C 
BRANCH  21  22
ATOM     22  C   UNL     1     -12.535  -7.917 -28.503  1.00  0.00     0.000 C 
BRANCH  22  23
ATOM     23  C   UNL     1     -12.195  -6.948 -27.355  1.00  0.00     0.000 C 
BRANCH  23  24
ATOM     24  C   UNL     1     -12.401  -5.472 -27.738  1.00  0.00    -0.000 C 
BRANCH  24  25
ATOM     25  C   UNL     1     -12.131  -4.515 -26.564  1.00  0.00    -0.000 C 
BRANCH  25  26
ATOM     26  C   UNL     1     -10.749  -3.845 -26.658  1.00  0.00    -0.000 C 
BRANCH  26  27
ATOM     27  C   UNL     1      -9.728  -4.460 -25.686  1.00  0.00    -0.000 C 
BRANCH  27  28
ATOM     28  C   UNL     1      -8.472  -4.982 -26.403  1.00  0.00    -0.000 C 
BRANCH  28  29
ATOM     29  C   UNL     1      -8.675  -5.158 -27.919  1.00  0.00    -0.000 C 
BRANCH  29  30
ATOM     30  C   UNL     1      -8.587  -6.609 -28.427  1.00  0.00    -0.000 C 
BRANCH  30  31
ATOM     31  C   UNL     1      -9.358  -6.834 -29.736  1.00  0.00    -0.003 C 
ATOM     32  C   UNL     1      -8.503  -6.476 -30.948  1.00  0.00     0.004 C 
ENDBRANCH  30  31
ENDBRANCH  29  30
ENDBRANCH  28  29
ENDBRANCH  27  28
ENDBRANCH  26  27
ENDBRANCH  25  26
ENDBRANCH  24  25
ENDBRANCH  23  24
ENDBRANCH  22  23
ENDBRANCH  21  22
ENDBRANCH  20  21
ENDBRANCH  19  20
ENDBRANCH  18  19
ENDBRANCH   1  18
TORSDOF 28
ENDMDL
MODEL 8
REMARK VINA RESULT:    -3.518     17.238     20.698
REMARK INTER + INTRA:         -15.201
REMARK INTER:                  -8.574
REMARK INTRA:                  -6.626
REMARK UNBOUND:                -5.925
REMARK SMILES CCCCCCCCCCCCCCCCCCCCCCCCCCCCCC(=O)[O-]
REMARK SMILES IDX 16 1 17 2 18 3 19 4 20 5 21 6 22 7 23 8 24 9 25 10 26 11
REMARK SMILES IDX 27 12 28 13 29 14 30 15 31 16 32 17 15 18 14 19 13 20 12 21
REMARK SMILES IDX 11 22 10 23 9 24 8 25 7 26 6 27 5 28 4 29 3 30 2 31 1 32
REMARK H PARENT
REMARK Flexibility Score: inf
ROOT
ATOM      1  C   UNL     1       2.507   8.828 -21.365  1.00  0.00     0.000 C 
ENDROOT
BRANCH   1   2
ATOM      2  C   UNL     1       3.843   8.079 -21.498  1.00  0.00     0.000 C 
BRANCH   2   3
ATOM      3  C   UNL     1       3.760   6.894 -22.472  1.00  0.00     0.000 C 
BRANCH   3   4
ATOM      4  C   UNL     1       3.840   5.557 -21.721  1.00  0.00     0.000 C 
BRANCH   4   5
ATOM      5  C   UNL     1       3.357   5.661 -20.265  1.00  0.00     0.000 C 
BRANCH   5   6
ATOM      6  C   UNL     1       2.966   4.297 -19.670  1.00  0.00     0.000 C 
BRANCH   6   7
ATOM      7  C   UNL     1       2.406   3.322 -20.722  1.00  0.00     0.000 C 
BRANCH   7   8
ATOM      8  C   UNL     1       1.076   2.644 -20.349  1.00  0.00     0.000 C 
BRANCH   8   9
ATOM      9  C   UNL     1       0.547   3.079 -18.971  1.00  0.00     0.000 C 
BRANCH   9  10
ATOM     10  C   UNL     1      -0.752   3.900 -19.061  1.00  0.00     0.000 C 
BRANCH  10  11
ATOM     11  C   UNL     1      -1.161   4.340 -20.482  1.00  0.00     0.000 C 
BRANCH  11  12
ATOM     12  C   UNL     1      -0.798   5.790 -20.855  1.00  0.00     0.000 C 
BRANCH  12  13
ATOM     13  C   UNL     1       0.154   5.942 -22.058  1.00  0.00     0.006 C 
BRANCH  13  14
ATOM     14  C   UNL     1      -0.288   7.010 -23.074  1.00  0.00     0.053 C 
BRANCH  14  15
ATOM     15  C   UNL     1       0.388   6.857 -24.402  1.00  0.00     0.041 C 
ATOM     16  O   UNL     1       0.180   7.693 -25.320  1.00  0.00    -0.550 OA
ATOM     17  O   UNL     1       1.220   5.769 -24.638  1.00  0.00    -0.550 OA
ENDBRANCH  14  15
ENDBRANCH  13  14
ENDBRANCH  12  13
ENDBRANCH  11  12
ENDBRANCH  10  11
ENDBRANCH   9  10
ENDBRANCH   8   9
ENDBRANCH   7   8
ENDBRANCH   6   7
ENDBRANCH   5   6
ENDBRANCH   4   5
ENDBRANCH   3   4
ENDBRANCH   2   3
ENDBRANCH   1   2
BRANCH   1  18
ATOM     18  C   UNL     1       2.211   9.260 -19.918  1.00  0.00     0.000 C 
BRANCH  18  19
ATOM     19  C   UNL     1       3.466   9.270 -19.025  1.00  0.00     0.000 C 
BRANCH  19  20
ATOM     20  C   UNL     1       3.327  10.052 -17.705  1.00  0.00     0.000 C 
BRANCH  20  21
ATOM     21  C   UNL     1       1.906  10.592 -17.472  1.00  0.00     0.000 C 
BRANCH  21  22
ATOM     22  C   UNL     1       1.417  10.382 -16.027  1.00  0.00     0.000 C 
BRANCH  22  23
ATOM     23  C   UNL     1       2.036   9.180 -15.291  1.00  0.00     0.000 C 
BRANCH  23  24
ATOM     24  C   UNL     1       1.192   7.900 -15.420  1.00  0.00    -0.000 C 
BRANCH  24  25
ATOM     25  C   UNL     1       1.585   7.056 -16.645  1.00  0.00    -0.000 C 
BRANCH  25  26
ATOM     26  C   UNL     1       0.477   7.019 -17.713  1.00  0.00    -0.000 C 
BRANCH  26  27
ATOM     27  C   UNL     1      -0.923   7.236 -17.116  1.00  0.00    -0.000 C 
BRANCH  27  28
ATOM     28  C   UNL     1      -1.836   8.056 -18.042  1.00  0.00    -0.000 C 
BRANCH  28  29
ATOM     29  C   UNL     1      -1.653   9.576 -17.875  1.00  0.00    -0.000 C 
BRANCH  29  30
ATOM     30  C   UNL     1      -1.349  10.345 -19.174  1.00  0.00    -0.000 C 
BRANCH  30  31
ATOM     31  C   UNL     1      -1.249   9.431 -20.403  1.00  0.00    -0.003 C 
ATOM     32  C   UNL     1      -2.545   9.447 -21.209  1.00  0.00     0.004 C 
ENDBRANCH  30  31
ENDBRANCH  29  30
ENDBRANCH  28  29
ENDBRANCH  27  28
ENDBRANCH  26  27
ENDBRANCH  25  26
ENDBRANCH  24  25
ENDBRANCH  23  24
ENDBRANCH  22  23
ENDBRANCH  21  22
ENDBRANCH  20  21
ENDBRANCH  19  20
ENDBRANCH  18  19
ENDBRANCH   1  18
TORSDOF 28
ENDMDL
MODEL 9
REMARK VINA RESULT:    -3.508      2.046      4.954
REMARK INTER + INTRA:         -15.176
REMARK INTER:                 -10.967
REMARK INTRA:                  -4.210
REMARK UNBOUND:                -5.925
REMARK SMILES CCCCCCCCCCCCCCCCCCCCCCCCCCCCCC(=O)[O-]
REMARK SMILES IDX 16 1 17 2 18 3 19 4 20 5 21 6 22 7 23 8 24 9 25 10 26 11
REMARK SMILES IDX 27 12 28 13 29 14 30 15 31 16 32 17 15 18 14 19 13 20 12 21
REMARK SMILES IDX 11 22 10 23 9 24 8 25 7 26 6 27 5 28 4 29 3 30 2 31 1 32
REMARK H PARENT
REMARK Flexibility Score: inf
ROOT
ATOM      1  C   UNL     1     -15.629  -2.563 -33.526  1.00  0.00     0.000 C 
ENDROOT
BRANCH   1   2
ATOM      2  C   UNL     1     -15.359  -1.050 -33.569  1.00  0.00     0.000 C 
BRANCH   2   3
ATOM      3  C   UNL     1     -15.011  -0.475 -32.188  1.00  0.00     0.000 C 
BRANCH   3   4
ATOM      4  C   UNL     1     -15.731  -1.246 -31.072  1.00  0.00     0.000 C 
BRANCH   4   5
ATOM      5  C   UNL     1     -14.761  -1.842 -30.037  1.00  0.00     0.000 C 
BRANCH   5   6
ATOM      6  C   UNL     1     -13.290  -1.749 -30.481  1.00  0.00     0.000 C 
BRANCH   6   7
ATOM      7  C   UNL     1     -12.420  -2.885 -29.914  1.00  0.00     0.000 C 
BRANCH   7   8
ATOM      8  C   UNL     1     -11.464  -3.548 -30.923  1.00  0.00     0.000 C 
BRANCH   8   9
ATOM      9  C   UNL     1     -10.275  -4.253 -30.247  1.00  0.00     0.000 C 
BRANCH   9  10
ATOM     10  C   UNL     1      -8.978  -3.425 -30.302  1.00  0.00     0.000 C 
BRANCH  10  11
ATOM     11  C   UNL     1      -9.012  -2.203 -31.242  1.00  0.00     0.000 C 
BRANCH  11  12
ATOM     12  C   UNL     1      -8.201  -0.982 -30.768  1.00  0.00     0.000 C 
BRANCH  12  13
ATOM     13  C   UNL     1      -6.782  -1.296 -30.251  1.00  0.00     0.006 C 
BRANCH  13  14
ATOM     14  C   UNL     1      -6.069  -0.091 -29.613  1.00  0.00     0.053 C 
BRANCH  14  15
ATOM     15  C   UNL     1      -5.889   1.045 -30.572  1.00  0.00     0.041 C 
ATOM     16  O   UNL     1      -5.087   0.939 -31.538  1.00  0.00    -0.550 OA
ATOM     17  O   UNL     1      -6.579   2.235 -30.380  1.00  0.00    -0.550 OA
ENDBRANCH  14  15
ENDBRANCH  13  14
ENDBRANCH  12  13
ENDBRANCH  11  12
ENDBRANCH  10  11
ENDBRANCH   9  10
ENDBRANCH   8   9
ENDBRANCH   7   8
ENDBRANCH   6   7
ENDBRANCH   5   6
ENDBRANCH   4   5
ENDBRANCH   3   4
ENDBRANCH   2   3
ENDBRANCH   1   2
BRANCH   1  18
ATOM     18  C   UNL     1     -14.339  -3.397 -33.616  1.00  0.00     0.000 C 
BRANCH  18  19
ATOM     19  C   UNL     1     -14.355  -4.631 -32.695  1.00  0.00     0.000 C 
BRANCH  19  20
ATOM     20  C   UNL     1     -15.689  -4.892 -31.969  1.00  0.00     0.000 C 
BRANCH  20  21
ATOM     21  C   UNL     1     -15.506  -5.562 -30.597  1.00  0.00     0.000 C 
BRANCH  21  22
ATOM     22  C   UNL     1     -15.401  -7.096 -30.690  1.00  0.00     0.000 C 
BRANCH  22  23
ATOM     23  C   UNL     1     -14.104  -7.702 -30.123  1.00  0.00     0.000 C 
BRANCH  23  24
ATOM     24  C   UNL     1     -13.026  -6.643 -29.833  1.00  0.00    -0.000 C 
BRANCH  24  25
ATOM     25  C   UNL     1     -12.332  -6.863 -28.478  1.00  0.00    -0.000 C 
BRANCH  25  26
ATOM     26  C   UNL     1     -12.201  -8.354 -28.120  1.00  0.00    -0.000 C 
BRANCH  26  27
ATOM     27  C   UNL     1     -10.934  -8.993 -28.711  1.00  0.00    -0.000 C 
BRANCH  27  28
ATOM     28  C   UNL     1      -9.950  -7.949 -29.262  1.00  0.00    -0.000 C 
BRANCH  28  29
ATOM     29  C   UNL     1      -8.634  -7.883 -28.466  1.00  0.00    -0.000 C 
BRANCH  29  30
ATOM     30  C   UNL     1      -7.803  -6.604 -28.679  1.00  0.00    -0.000 C 
BRANCH  30  31
ATOM     31  C   UNL     1      -6.664  -6.791 -29.691  1.00  0.00    -0.003 C 
ATOM     32  C   UNL     1      -6.001  -8.156 -29.529  1.00  0.00     0.004 C 
ENDBRANCH  30  31
ENDBRANCH  29  30
ENDBRANCH  28  29
ENDBRANCH  27  28
ENDBRANCH  26  27
ENDBRANCH  25  26
ENDBRANCH  24  25
ENDBRANCH  23  24
ENDBRANCH  22  23
ENDBRANCH  21  22
ENDBRANCH  20  21
ENDBRANCH  19  20
ENDBRANCH  18  19
ENDBRANCH   1  18
TORSDOF 28
ENDMDL
