MODEL 1
REMARK VINA RESULT:    -5.690      0.000      0.000
REMARK INTER + INTRA:          -8.184
REMARK INTER:                  -7.686
REMARK INTRA:                  -0.498
REMARK UNBOUND:                -0.498
REMARK SMILES COc1ccc(-c2cc(=O)c3c(OC)c(OC)c(OC)c(OC)c3o2)cc1
REMARK SMILES IDX 7 1 8 2 9 3 10 4 11 5 24 6 25 7 21 8 18 9 15 10 12 11 6 12
REMARK SMILES IDX 3 13 4 14 27 15 5 16 26 17 2 18 1 19 22 20 23 21 13 22 14 23
REMARK SMILES IDX 19 24 20 25 16 26 17 27
REMARK H PARENT
REMARK Flexibility Score: inf
ROOT
ATOM      1  C   UNL     1      -4.610   7.183 -18.993  1.00  0.00     0.138 A 
ATOM      2  C   UNL     1      -5.228   6.294 -18.103  1.00  0.00     0.100 A 
ATOM      3  C   UNL     1      -5.307   6.625 -16.751  1.00  0.00     0.197 A 
ATOM      4  O   UNL     1      -5.863   5.811 -15.963  1.00  0.00    -0.289 OA
ATOM      5  C   UNL     1      -4.765   7.848 -16.292  1.00  0.00     0.115 A 
ATOM      6  C   UNL     1      -4.159   8.688 -17.253  1.00  0.00     0.188 A 
ATOM      7  O   UNL     1      -4.107   8.323 -18.532  1.00  0.00    -0.452 OA
ATOM      8  C   UNL     1      -3.611   9.923 -16.888  1.00  0.00     0.209 A 
ATOM      9  C   UNL     1      -3.665  10.335 -15.538  1.00  0.00     0.211 A 
ATOM     10  C   UNL     1      -4.190   9.466 -14.555  1.00  0.00     0.208 A 
ATOM     11  C   UNL     1      -4.794   8.241 -14.932  1.00  0.00     0.179 A 
ENDROOT
BRANCH   1  12
ATOM     12  C   UNL     1      -4.484   6.883 -20.442  1.00  0.00     0.018 A 
ATOM     13  C   UNL     1      -4.302   6.311 -23.202  1.00  0.00     0.118 A 
ATOM     14  C   UNL     1      -5.483   6.851 -22.662  1.00  0.00     0.047 A 
ATOM     15  C   UNL     1      -3.222   6.051 -22.352  1.00  0.00     0.047 A 
ATOM     16  C   UNL     1      -5.573   7.129 -21.296  1.00  0.00     0.016 A 
ATOM     17  C   UNL     1      -3.309   6.329 -20.984  1.00  0.00     0.016 A 
BRANCH  13  18
ATOM     18  O   UNL     1      -4.162   6.017 -24.566  1.00  0.00    -0.497 OA
ATOM     19  C   UNL     1      -3.065   5.301 -25.125  1.00  0.00     0.278 C 
ENDBRANCH  13  18
ENDBRANCH   1  12
BRANCH   8  20
ATOM     20  O   UNL     1      -3.044  10.695 -17.921  1.00  0.00    -0.490 OA
ATOM     21  C   UNL     1      -3.722  11.628 -18.754  1.00  0.00     0.278 C 
ENDBRANCH   8  20
BRANCH  11  22
ATOM     22  O   UNL     1      -5.416   7.382 -14.002  1.00  0.00    -0.492 OA
ATOM     23  C   UNL     1      -6.711   7.533 -13.430  1.00  0.00     0.278 C 
ENDBRANCH  11  22
BRANCH   9  24
ATOM     24  O   UNL     1      -3.208  11.607 -15.178  1.00  0.00    -0.490 OA
ATOM     25  C   UNL     1      -4.046  12.759 -15.198  1.00  0.00     0.279 C 
ENDBRANCH   9  24
BRANCH  10  26
ATOM     26  O   UNL     1      -4.087   9.809 -13.204  1.00  0.00    -0.490 OA
ATOM     27  C   UNL     1      -2.841   9.826 -12.514  1.00  0.00     0.278 C 
ENDBRANCH  10  26
TORSDOF 6
ENDMDL
MODEL 2
REMARK VINA RESULT:    -4.960      1.236      1.752
REMARK INTER + INTRA:          -7.197
REMARK INTER:                  -6.730
REMARK INTRA:                  -0.468
REMARK UNBOUND:                -0.498
REMARK SMILES COc1ccc(-c2cc(=O)c3c(OC)c(OC)c(OC)c(OC)c3o2)cc1
REMARK SMILES IDX 7 1 8 2 9 3 10 4 11 5 24 6 25 7 21 8 18 9 15 10 12 11 6 12
REMARK SMILES IDX 3 13 4 14 27 15 5 16 26 17 2 18 1 19 22 20 23 21 13 22 14 23
REMARK SMILES IDX 19 24 20 25 16 26 17 27
REMARK H PARENT
REMARK Flexibility Score: inf
ROOT
ATOM      1  C   UNL     1      -5.599   7.672 -18.845  1.00  0.00     0.138 A 
ATOM      2  C   UNL     1      -5.800   6.634 -17.924  1.00  0.00     0.100 A 
ATOM      3  C   UNL     1      -5.589   6.873 -16.567  1.00  0.00     0.197 A 
ATOM      4  O   UNL     1      -5.770   5.927 -15.754  1.00  0.00    -0.289 OA
ATOM      5  C   UNL     1      -5.175   8.155 -16.134  1.00  0.00     0.115 A 
ATOM      6  C   UNL     1      -4.995   9.146 -17.125  1.00  0.00     0.188 A 
ATOM      7  O   UNL     1      -5.208   8.864 -18.408  1.00  0.00    -0.452 OA
ATOM      8  C   UNL     1      -4.603  10.445 -16.782  1.00  0.00     0.209 A 
ATOM      9  C   UNL     1      -4.383  10.769 -15.425  1.00  0.00     0.211 A 
ATOM     10  C   UNL     1      -4.475   9.765 -14.436  1.00  0.00     0.208 A 
ATOM     11  C   UNL     1      -4.926   8.465 -14.775  1.00  0.00     0.179 A 
ENDROOT
BRANCH   1  12
ATOM     12  C   UNL     1      -5.796   7.476 -20.304  1.00  0.00     0.018 A 
ATOM     13  C   UNL     1      -6.113   7.116 -23.087  1.00  0.00     0.118 A 
ATOM     14  C   UNL     1      -4.836   7.056 -22.502  1.00  0.00     0.047 A 
ATOM     15  C   UNL     1      -7.223   7.366 -22.274  1.00  0.00     0.047 A 
ATOM     16  C   UNL     1      -4.680   7.238 -21.125  1.00  0.00     0.016 A 
ATOM     17  C   UNL     1      -7.070   7.550 -20.897  1.00  0.00     0.016 A 
BRANCH  13  18
ATOM     18  O   UNL     1      -6.321   6.936 -24.463  1.00  0.00    -0.497 OA
ATOM     19  C   UNL     1      -7.571   7.130 -25.118  1.00  0.00     0.278 C 
ENDBRANCH  13  18
ENDBRANCH   1  12
BRANCH   8  20
ATOM     20  O   UNL     1      -4.466  11.365 -17.841  1.00  0.00    -0.490 OA
ATOM     21  C   UNL     1      -3.275  11.666 -18.557  1.00  0.00     0.278 C 
ENDBRANCH   8  20
BRANCH  11  22
ATOM     22  O   UNL     1      -5.126   7.454 -13.812  1.00  0.00    -0.492 OA
ATOM     23  C   UNL     1      -6.311   7.206 -13.064  1.00  0.00     0.278 C 
ENDBRANCH  11  22
BRANCH   9  24
ATOM     24  O   UNL     1      -4.084  12.087 -15.063  1.00  0.00    -0.490 OA
ATOM     25  C   UNL     1      -2.754  12.594 -15.036  1.00  0.00     0.279 C 
ENDBRANCH   9  24
BRANCH  10  26
ATOM     26  O   UNL     1      -4.094  10.052 -13.123  1.00  0.00    -0.490 OA
ATOM     27  C   UNL     1      -2.773   9.821 -12.644  1.00  0.00     0.278 C 
ENDBRANCH  10  26
TORSDOF 6
ENDMDL
MODEL 3
REMARK VINA RESULT:    -4.612      1.385      3.812
REMARK INTER + INTRA:          -6.727
REMARK INTER:                  -6.344
REMARK INTRA:                  -0.383
REMARK UNBOUND:                -0.498
REMARK SMILES COc1ccc(-c2cc(=O)c3c(OC)c(OC)c(OC)c(OC)c3o2)cc1
REMARK SMILES IDX 7 1 8 2 9 3 10 4 11 5 24 6 25 7 21 8 18 9 15 10 12 11 6 12
REMARK SMILES IDX 3 13 4 14 27 15 5 16 26 17 2 18 1 19 22 20 23 21 13 22 14 23
REMARK SMILES IDX 19 24 20 25 16 26 17 27
REMARK H PARENT
REMARK Flexibility Score: inf
ROOT
ATOM      1  C   UNL     1      -4.992   8.804 -19.347  1.00  0.00     0.138 A 
ATOM      2  C   UNL     1      -4.252   9.991 -19.261  1.00  0.00     0.100 A 
ATOM      3  C   UNL     1      -3.841  10.452 -18.011  1.00  0.00     0.197 A 
ATOM      4  O   UNL     1      -3.179  11.524 -17.952  1.00  0.00    -0.289 OA
ATOM      5  C   UNL     1      -4.174   9.721 -16.847  1.00  0.00     0.115 A 
ATOM      6  C   UNL     1      -4.922   8.535 -17.019  1.00  0.00     0.188 A 
ATOM      7  O   UNL     1      -5.292   8.141 -18.235  1.00  0.00    -0.452 OA
ATOM      8  C   UNL     1      -5.281   7.743 -15.922  1.00  0.00     0.209 A 
ATOM      9  C   UNL     1      -4.889   8.137 -14.624  1.00  0.00     0.211 A 
ATOM     10  C   UNL     1      -4.217   9.364 -14.431  1.00  0.00     0.208 A 
ATOM     11  C   UNL     1      -3.805  10.138 -15.544  1.00  0.00     0.179 A 
ENDROOT
BRANCH   1  12
ATOM     12  C   UNL     1      -5.468   8.268 -20.647  1.00  0.00     0.018 A 
ATOM     13  C   UNL     1      -6.320   7.249 -23.140  1.00  0.00     0.118 A 
ATOM     14  C   UNL     1      -4.976   7.130 -22.744  1.00  0.00     0.047 A 
ATOM     15  C   UNL     1      -7.228   7.888 -22.288  1.00  0.00     0.047 A 
ATOM     16  C   UNL     1      -4.556   7.639 -21.512  1.00  0.00     0.016 A 
ATOM     17  C   UNL     1      -6.809   8.397 -21.055  1.00  0.00     0.016 A 
BRANCH  13  18
ATOM     18  O   UNL     1      -6.791   6.753 -24.365  1.00  0.00    -0.497 OA
ATOM     19  C   UNL     1      -8.158   6.767 -24.764  1.00  0.00     0.278 C 
ENDBRANCH  13  18
ENDBRANCH   1  12
BRANCH   8  20
ATOM     20  O   UNL     1      -6.013   6.571 -16.199  1.00  0.00    -0.490 OA
ATOM     21  C   UNL     1      -7.423   6.466 -16.352  1.00  0.00     0.278 C 
ENDBRANCH   8  20
BRANCH  11  22
ATOM     22  O   UNL     1      -3.050  11.321 -15.410  1.00  0.00    -0.492 OA
ATOM     23  C   UNL     1      -3.486  12.558 -14.856  1.00  0.00     0.278 C 
ENDBRANCH  11  22
BRANCH   9  24
ATOM     24  O   UNL     1      -5.159   7.304 -13.532  1.00  0.00    -0.490 OA
ATOM     25  C   UNL     1      -6.468   7.141 -12.995  1.00  0.00     0.279 C 
ENDBRANCH   9  24
BRANCH  10  26
ATOM     26  O   UNL     1      -3.982   9.826 -13.133  1.00  0.00    -0.490 OA
ATOM     27  C   UNL     1      -2.703   9.735 -12.511  1.00  0.00     0.278 C 
ENDBRANCH  10  26
TORSDOF 6
ENDMDL
MODEL 4
REMARK VINA RESULT:    -4.529      3.146      6.551
REMARK INTER + INTRA:          -6.616
REMARK INTER:                  -6.244
REMARK INTRA:                  -0.372
REMARK UNBOUND:                -0.498
REMARK SMILES COc1ccc(-c2cc(=O)c3c(OC)c(OC)c(OC)c(OC)c3o2)cc1
REMARK SMILES IDX 7 1 8 2 9 3 10 4 11 5 24 6 25 7 21 8 18 9 15 10 12 11 6 12
REMARK SMILES IDX 3 13 4 14 27 15 5 16 26 17 2 18 1 19 22 20 23 21 13 22 14 23
REMARK SMILES IDX 19 24 20 25 16 26 17 27
REMARK H PARENT
REMARK Flexibility Score: inf
ROOT
ATOM      1  C   UNL     1      -3.670  11.417 -16.658  1.00  0.00     0.138 A 
ATOM      2  C   UNL     1      -3.443  10.812 -15.414  1.00  0.00     0.100 A 
ATOM      3  C   UNL     1      -4.211   9.711 -15.038  1.00  0.00     0.197 A 
ATOM      4  O   UNL     1      -3.996   9.182 -13.914  1.00  0.00    -0.289 OA
ATOM      5  C   UNL     1      -5.208   9.217 -15.912  1.00  0.00     0.115 A 
ATOM      6  C   UNL     1      -5.374   9.882 -17.147  1.00  0.00     0.188 A 
ATOM      7  O   UNL     1      -4.616  10.932 -17.456  1.00  0.00    -0.452 OA
ATOM      8  C   UNL     1      -6.327   9.450 -18.076  1.00  0.00     0.209 A 
ATOM      9  C   UNL     1      -7.134   8.331 -17.774  1.00  0.00     0.211 A 
ATOM     10  C   UNL     1      -7.037   7.712 -16.508  1.00  0.00     0.208 A 
ATOM     11  C   UNL     1      -6.036   8.114 -15.589  1.00  0.00     0.179 A 
ENDROOT
BRANCH   1  12
ATOM     12  C   UNL     1      -2.894  12.599 -17.110  1.00  0.00     0.018 A 
ATOM     13  C   UNL     1      -1.407  14.822 -18.020  1.00  0.00     0.118 A 
ATOM     14  C   UNL     1      -1.921  13.886 -18.934  1.00  0.00     0.047 A 
ATOM     15  C   UNL     1      -1.633  14.632 -16.652  1.00  0.00     0.047 A 
ATOM     16  C   UNL     1      -2.653  12.784 -18.483  1.00  0.00     0.016 A 
ATOM     17  C   UNL     1      -2.365  13.531 -16.197  1.00  0.00     0.016 A 
BRANCH  13  18
ATOM     18  O   UNL     1      -0.669  15.944 -18.424  1.00  0.00    -0.497 OA
ATOM     19  C   UNL     1       0.751  15.977 -18.529  1.00  0.00     0.278 C 
ENDBRANCH  13  18
ENDBRANCH   1  12
BRANCH   8  20
ATOM     20  O   UNL     1      -6.404  10.169 -19.286  1.00  0.00    -0.490 OA
ATOM     21  C   UNL     1      -5.524  10.060 -20.398  1.00  0.00     0.278 C 
ENDBRANCH   8  20
BRANCH  11  22
ATOM     22  O   UNL     1      -5.836   7.468 -14.352  1.00  0.00    -0.492 OA
ATOM     23  C   UNL     1      -6.695   7.504 -13.217  1.00  0.00     0.278 C 
ENDBRANCH  11  22
BRANCH   9  24
ATOM     24  O   UNL     1      -8.022   7.832 -18.734  1.00  0.00    -0.490 OA
ATOM     25  C   UNL     1      -7.587   7.094 -19.872  1.00  0.00     0.279 C 
ENDBRANCH   9  24
BRANCH  10  26
ATOM     26  O   UNL     1      -7.952   6.717 -16.154  1.00  0.00    -0.490 OA
ATOM     27  C   UNL     1      -7.586   5.343 -16.061  1.00  0.00     0.278 C 
ENDBRANCH  10  26
TORSDOF 6
ENDMDL
MODEL 5
REMARK VINA RESULT:    -4.221      2.977      6.704
REMARK INTER + INTRA:          -6.199
REMARK INTER:                  -5.696
REMARK INTRA:                  -0.503
REMARK UNBOUND:                -0.498
REMARK SMILES COc1ccc(-c2cc(=O)c3c(OC)c(OC)c(OC)c(OC)c3o2)cc1
REMARK SMILES IDX 7 1 8 2 9 3 10 4 11 5 24 6 25 7 21 8 18 9 15 10 12 11 6 12
REMARK SMILES IDX 3 13 4 14 27 15 5 16 26 17 2 18 1 19 22 20 23 21 13 22 14 23
REMARK SMILES IDX 19 24 20 25 16 26 17 27
REMARK H PARENT
REMARK Flexibility Score: inf
ROOT
ATOM      1  C   UNL     1      -4.054  11.438 -17.969  1.00  0.00     0.138 A 
ATOM      2  C   UNL     1      -4.986  11.303 -19.007  1.00  0.00     0.100 A 
ATOM      3  C   UNL     1      -5.868  10.222 -18.998  1.00  0.00     0.197 A 
ATOM      4  O   UNL     1      -6.697  10.114 -19.941  1.00  0.00    -0.289 OA
ATOM      5  C   UNL     1      -5.812   9.277 -17.947  1.00  0.00     0.115 A 
ATOM      6  C   UNL     1      -4.844   9.486 -16.939  1.00  0.00     0.188 A 
ATOM      7  O   UNL     1      -4.024  10.533 -16.997  1.00  0.00    -0.452 OA
ATOM      8  C   UNL     1      -4.731   8.608 -15.855  1.00  0.00     0.209 A 
ATOM      9  C   UNL     1      -5.598   7.497 -15.768  1.00  0.00     0.211 A 
ATOM     10  C   UNL     1      -6.510   7.230 -16.813  1.00  0.00     0.208 A 
ATOM     11  C   UNL     1      -6.663   8.147 -17.882  1.00  0.00     0.179 A 
ENDROOT
BRANCH   1  12
ATOM     12  C   UNL     1      -3.082  12.560 -17.928  1.00  0.00     0.018 A 
ATOM     13  C   UNL     1      -1.253  14.708 -17.800  1.00  0.00     0.118 A 
ATOM     14  C   UNL     1      -1.861  14.220 -16.630  1.00  0.00     0.047 A 
ATOM     15  C   UNL     1      -1.574  14.124 -19.030  1.00  0.00     0.047 A 
ATOM     16  C   UNL     1      -2.769  13.159 -16.696  1.00  0.00     0.016 A 
ATOM     17  C   UNL     1      -2.482  13.063 -19.098  1.00  0.00     0.016 A 
BRANCH  13  18
ATOM     18  O   UNL     1      -0.334  15.768 -17.786  1.00  0.00    -0.497 OA
ATOM     19  C   UNL     1       0.904  15.767 -18.489  1.00  0.00     0.278 C 
ENDBRANCH  13  18
ENDBRANCH   1  12
BRANCH   8  20
ATOM     20  O   UNL     1      -3.745   8.911 -14.894  1.00  0.00    -0.490 OA
ATOM     21  C   UNL     1      -3.924   9.669 -13.704  1.00  0.00     0.278 C 
ENDBRANCH   8  20
BRANCH  11  22
ATOM     22  O   UNL     1      -7.625   7.976 -18.899  1.00  0.00    -0.492 OA
ATOM     23  C   UNL     1      -7.567   7.060 -19.987  1.00  0.00     0.278 C 
ENDBRANCH  11  22
BRANCH   9  24
ATOM     24  O   UNL     1      -5.559   6.668 -14.641  1.00  0.00    -0.490 OA
ATOM     25  C   UNL     1      -6.321   6.930 -13.467  1.00  0.00     0.279 C 
ENDBRANCH   9  24
BRANCH  10  26
ATOM     26  O   UNL     1      -7.245   6.041 -16.802  1.00  0.00    -0.490 OA
ATOM     27  C   UNL     1      -8.462   5.904 -16.074  1.00  0.00     0.278 C 
ENDBRANCH  10  26
TORSDOF 6
ENDMDL
MODEL 6
REMARK VINA RESULT:    -3.901      1.171      3.382
REMARK INTER + INTRA:          -5.766
REMARK INTER:                  -5.165
REMARK INTRA:                  -0.601
REMARK UNBOUND:                -0.498
REMARK SMILES COc1ccc(-c2cc(=O)c3c(OC)c(OC)c(OC)c(OC)c3o2)cc1
REMARK SMILES IDX 7 1 8 2 9 3 10 4 11 5 24 6 25 7 21 8 18 9 15 10 12 11 6 12
REMARK SMILES IDX 3 13 4 14 27 15 5 16 26 17 2 18 1 19 22 20 23 21 13 22 14 23
REMARK SMILES IDX 19 24 20 25 16 26 17 27
REMARK H PARENT
REMARK Flexibility Score: inf
ROOT
ATOM      1  C   UNL     1      -4.172   8.670 -19.490  1.00  0.00     0.138 A 
ATOM      2  C   UNL     1      -3.978  10.056 -19.403  1.00  0.00     0.100 A 
ATOM      3  C   UNL     1      -3.851  10.651 -18.148  1.00  0.00     0.197 A 
ATOM      4  O   UNL     1      -3.680  11.899 -18.088  1.00  0.00    -0.289 OA
ATOM      5  C   UNL     1      -3.920   9.855 -16.981  1.00  0.00     0.115 A 
ATOM      6  C   UNL     1      -4.118   8.466 -17.155  1.00  0.00     0.188 A 
ATOM      7  O   UNL     1      -4.236   7.949 -18.376  1.00  0.00    -0.452 OA
ATOM      8  C   UNL     1      -4.183   7.604 -16.055  1.00  0.00     0.209 A 
ATOM      9  C   UNL     1      -4.049   8.130 -14.751  1.00  0.00     0.211 A 
ATOM     10  C   UNL     1      -3.937   9.526 -14.561  1.00  0.00     0.208 A 
ATOM     11  C   UNL     1      -3.816  10.393 -15.675  1.00  0.00     0.179 A 
ENDROOT
BRANCH   1  12
ATOM     12  C   UNL     1      -4.327   7.980 -20.796  1.00  0.00     0.018 A 
ATOM     13  C   UNL     1      -4.679   6.673 -23.275  1.00  0.00     0.118 A 
ATOM     14  C   UNL     1      -5.697   7.486 -22.747  1.00  0.00     0.047 A 
ATOM     15  C   UNL     1      -3.493   6.512 -22.551  1.00  0.00     0.047 A 
ATOM     16  C   UNL     1      -5.524   8.128 -21.518  1.00  0.00     0.016 A 
ATOM     17  C   UNL     1      -3.316   7.153 -21.321  1.00  0.00     0.016 A 
BRANCH  13  18
ATOM     18  O   UNL     1      -4.804   6.010 -24.504  1.00  0.00    -0.497 OA
ATOM     19  C   UNL     1      -3.762   5.264 -25.125  1.00  0.00     0.278 C 
ENDBRANCH  13  18
ENDBRANCH   1  12
BRANCH   8  20
ATOM     20  O   UNL     1      -4.367   6.235 -16.333  1.00  0.00    -0.490 OA
ATOM     21  C   UNL     1      -3.347   5.274 -16.578  1.00  0.00     0.278 C 
ENDBRANCH   8  20
BRANCH  11  22
ATOM     22  O   UNL     1      -3.608  11.781 -15.539  1.00  0.00    -0.492 OA
ATOM     23  C   UNL     1      -4.542  12.744 -15.064  1.00  0.00     0.278 C 
ENDBRANCH  11  22
BRANCH   9  24
ATOM     24  O   UNL     1      -4.015   7.267 -13.650  1.00  0.00    -0.490 OA
ATOM     25  C   UNL     1      -2.802   6.738 -13.125  1.00  0.00     0.279 C 
ENDBRANCH   9  24
BRANCH  10  26
ATOM     26  O   UNL     1      -3.974  10.052 -13.267  1.00  0.00    -0.490 OA
ATOM     27  C   UNL     1      -2.796  10.460 -12.576  1.00  0.00     0.278 C 
ENDBRANCH  10  26
TORSDOF 6
ENDMDL
MODEL 7
REMARK VINA RESULT:    -3.694      2.323      7.835
REMARK INTER + INTRA:          -5.488
REMARK INTER:                  -5.049
REMARK INTRA:                  -0.439
REMARK UNBOUND:                -0.498
REMARK SMILES COc1ccc(-c2cc(=O)c3c(OC)c(OC)c(OC)c(OC)c3o2)cc1
REMARK SMILES IDX 7 1 8 2 9 3 10 4 11 5 24 6 25 7 21 8 18 9 15 10 12 11 6 12
REMARK SMILES IDX 3 13 4 14 27 15 5 16 26 17 2 18 1 19 22 20 23 21 13 22 14 23
REMARK SMILES IDX 19 24 20 25 16 26 17 27
REMARK H PARENT
REMARK Flexibility Score: inf
ROOT
ATOM      1  C   UNL     1      -3.734   9.197 -17.639  1.00  0.00     0.138 A 
ATOM      2  C   UNL     1      -2.750   8.215 -17.462  1.00  0.00     0.100 A 
ATOM      3  C   UNL     1      -2.545   7.265 -18.462  1.00  0.00     0.197 A 
ATOM      4  O   UNL     1      -1.658   6.386 -18.285  1.00  0.00    -0.289 OA
ATOM      5  C   UNL     1      -3.329   7.300 -19.639  1.00  0.00     0.115 A 
ATOM      6  C   UNL     1      -4.300   8.322 -19.739  1.00  0.00     0.188 A 
ATOM      7  O   UNL     1      -4.457   9.203 -18.754  1.00  0.00    -0.452 OA
ATOM      8  C   UNL     1      -5.107   8.439 -20.876  1.00  0.00     0.209 A 
ATOM      9  C   UNL     1      -4.949   7.522 -21.938  1.00  0.00     0.211 A 
ATOM     10  C   UNL     1      -4.044   6.446 -21.812  1.00  0.00     0.208 A 
ATOM     11  C   UNL     1      -3.187   6.358 -20.687  1.00  0.00     0.179 A 
ENDROOT
BRANCH   1  12
ATOM     12  C   UNL     1      -4.009  10.228 -16.606  1.00  0.00     0.018 A 
ATOM     13  C   UNL     1      -4.522  12.149 -14.601  1.00  0.00     0.118 A 
ATOM     14  C   UNL     1      -3.832  10.964 -14.292  1.00  0.00     0.047 A 
ATOM     15  C   UNL     1      -4.960  12.360 -15.912  1.00  0.00     0.047 A 
ATOM     16  C   UNL     1      -3.583  10.012 -15.284  1.00  0.00     0.016 A 
ATOM     17  C   UNL     1      -4.712  11.410 -16.907  1.00  0.00     0.016 A 
BRANCH  13  18
ATOM     18  O   UNL     1      -4.794  13.135 -13.641  1.00  0.00    -0.497 OA
ATOM     19  C   UNL     1      -6.074  13.725 -13.436  1.00  0.00     0.278 C 
ENDBRANCH  13  18
ENDBRANCH   1  12
BRANCH   8  20
ATOM     20  O   UNL     1      -6.034   9.501 -20.887  1.00  0.00    -0.490 OA
ATOM     21  C   UNL     1      -7.400   9.440 -20.495  1.00  0.00     0.278 C 
ENDBRANCH   8  20
BRANCH  11  22
ATOM     22  O   UNL     1      -2.201   5.358 -20.557  1.00  0.00    -0.492 OA
ATOM     23  C   UNL     1      -2.392   4.019 -20.114  1.00  0.00     0.278 C 
ENDBRANCH  11  22
BRANCH   9  24
ATOM     24  O   UNL     1      -5.684   7.688 -23.118  1.00  0.00    -0.490 OA
ATOM     25  C   UNL     1      -6.997   7.163 -23.286  1.00  0.00     0.279 C 
ENDBRANCH   9  24
BRANCH  10  26
ATOM     26  O   UNL     1      -4.013   5.450 -22.792  1.00  0.00    -0.490 OA
ATOM     27  C   UNL     1      -3.339   5.624 -24.035  1.00  0.00     0.278 C 
ENDBRANCH  10  26
TORSDOF 6
ENDMDL
MODEL 8
REMARK VINA RESULT:    -3.100      2.333      8.022
REMARK INTER + INTRA:          -4.685
REMARK INTER:                  -4.418
REMARK INTRA:                  -0.266
REMARK UNBOUND:                -0.498
REMARK SMILES COc1ccc(-c2cc(=O)c3c(OC)c(OC)c(OC)c(OC)c3o2)cc1
REMARK SMILES IDX 7 1 8 2 9 3 10 4 11 5 24 6 25 7 21 8 18 9 15 10 12 11 6 12
REMARK SMILES IDX 3 13 4 14 27 15 5 16 26 17 2 18 1 19 22 20 23 21 13 22 14 23
REMARK SMILES IDX 19 24 20 25 16 26 17 27
REMARK H PARENT
REMARK Flexibility Score: inf
ROOT
ATOM      1  C   UNL     1      -4.761   9.621 -18.594  1.00  0.00     0.138 A 
ATOM      2  C   UNL     1      -5.606   9.941 -19.665  1.00  0.00     0.100 A 
ATOM      3  C   UNL     1      -5.613   9.128 -20.798  1.00  0.00     0.197 A 
ATOM      4  O   UNL     1      -6.377   9.433 -21.753  1.00  0.00    -0.289 OA
ATOM      5  C   UNL     1      -4.770   7.994 -20.855  1.00  0.00     0.115 A 
ATOM      6  C   UNL     1      -3.948   7.741 -19.734  1.00  0.00     0.188 A 
ATOM      7  O   UNL     1      -3.978   8.550 -18.678  1.00  0.00    -0.452 OA
ATOM      8  C   UNL     1      -3.095   6.632 -19.701  1.00  0.00     0.209 A 
ATOM      9  C   UNL     1      -3.056   5.753 -20.806  1.00  0.00     0.211 A 
ATOM     10  C   UNL     1      -3.807   6.044 -21.966  1.00  0.00     0.208 A 
ATOM     11  C   UNL     1      -4.711   7.134 -21.979  1.00  0.00     0.179 A 
ENDROOT
BRANCH   1  12
ATOM     12  C   UNL     1      -4.700  10.454 -17.366  1.00  0.00     0.018 A 
ATOM     13  C   UNL     1      -4.565  11.991 -15.001  1.00  0.00     0.118 A 
ATOM     14  C   UNL     1      -3.848  10.787 -15.109  1.00  0.00     0.047 A 
ATOM     15  C   UNL     1      -5.354  12.413 -16.076  1.00  0.00     0.047 A 
ATOM     16  C   UNL     1      -3.919  10.025 -16.278  1.00  0.00     0.016 A 
ATOM     17  C   UNL     1      -5.427  11.653 -17.247  1.00  0.00     0.016 A 
BRANCH  13  18
ATOM     18  O   UNL     1      -4.524  12.792 -13.850  1.00  0.00    -0.497 OA
ATOM     19  C   UNL     1      -5.635  13.522 -13.339  1.00  0.00     0.278 C 
ENDBRANCH  13  18
ENDBRANCH   1  12
BRANCH   8  20
ATOM     20  O   UNL     1      -2.328   6.457 -18.532  1.00  0.00    -0.490 OA
ATOM     21  C   UNL     1      -0.952   6.775 -18.363  1.00  0.00     0.278 C 
ENDBRANCH   8  20
BRANCH  11  22
ATOM     22  O   UNL     1      -5.553   7.412 -23.076  1.00  0.00    -0.492 OA
ATOM     23  C   UNL     1      -6.794   6.785 -23.384  1.00  0.00     0.278 C 
ENDBRANCH  11  22
BRANCH   9  24
ATOM     24  O   UNL     1      -2.280   4.590 -20.745  1.00  0.00    -0.490 OA
ATOM     25  C   UNL     1      -2.393   3.646 -19.685  1.00  0.00     0.279 C 
ENDBRANCH   9  24
BRANCH  10  26
ATOM     26  O   UNL     1      -3.635   5.265 -23.114  1.00  0.00    -0.490 OA
ATOM     27  C   UNL     1      -3.020   5.771 -24.294  1.00  0.00     0.278 C 
ENDBRANCH  10  26
TORSDOF 6
ENDMDL
MODEL 9
REMARK VINA RESULT:    -2.828      3.772      6.639
REMARK INTER + INTRA:          -4.317
REMARK INTER:                  -3.992
REMARK INTRA:                  -0.325
REMARK UNBOUND:                -0.498
REMARK SMILES COc1ccc(-c2cc(=O)c3c(OC)c(OC)c(OC)c(OC)c3o2)cc1
REMARK SMILES IDX 7 1 8 2 9 3 10 4 11 5 24 6 25 7 21 8 18 9 15 10 12 11 6 12
REMARK SMILES IDX 3 13 4 14 27 15 5 16 26 17 2 18 1 19 22 20 23 21 13 22 14 23
REMARK SMILES IDX 19 24 20 25 16 26 17 27
REMARK H PARENT
REMARK Flexibility Score: inf
ROOT
ATOM      1  C   UNL     1      -3.696  11.558 -17.352  1.00  0.00     0.138 A 
ATOM      2  C   UNL     1      -5.093  11.664 -17.315  1.00  0.00     0.100 A 
ATOM      3  C   UNL     1      -5.861  10.520 -17.104  1.00  0.00     0.197 A 
ATOM      4  O   UNL     1      -7.116  10.633 -17.078  1.00  0.00    -0.289 OA
ATOM      5  C   UNL     1      -5.225   9.268 -16.932  1.00  0.00     0.115 A 
ATOM      6  C   UNL     1      -3.813   9.246 -16.983  1.00  0.00     0.188 A 
ATOM      7  O   UNL     1      -3.128  10.368 -17.190  1.00  0.00    -0.452 OA
ATOM      8  C   UNL     1      -3.104   8.053 -16.806  1.00  0.00     0.209 A 
ATOM      9  C   UNL     1      -3.811   6.852 -16.574  1.00  0.00     0.211 A 
ATOM     10  C   UNL     1      -5.223   6.847 -16.608  1.00  0.00     0.208 A 
ATOM     11  C   UNL     1      -5.941   8.062 -16.731  1.00  0.00     0.179 A 
ENDROOT
BRANCH   1  12
ATOM     12  C   UNL     1      -2.825  12.738 -17.585  1.00  0.00     0.018 A 
ATOM     13  C   UNL     1      -1.183  15.003 -17.976  1.00  0.00     0.118 A 
ATOM     14  C   UNL     1      -1.583  14.628 -16.681  1.00  0.00     0.047 A 
ATOM     15  C   UNL     1      -1.617  14.246 -19.069  1.00  0.00     0.047 A 
ATOM     16  C   UNL     1      -2.399  13.509 -16.490  1.00  0.00     0.016 A 
ATOM     17  C   UNL     1      -2.434  13.126 -18.880  1.00  0.00     0.016 A 
BRANCH  13  18
ATOM     18  O   UNL     1      -0.363  16.115 -18.219  1.00  0.00    -0.497 OA
ATOM     19  C   UNL     1       1.016  16.036 -18.564  1.00  0.00     0.278 C 
ENDBRANCH  13  18
ENDBRANCH   1  12
BRANCH   8  20
ATOM     20  O   UNL     1      -1.698   8.138 -16.859  1.00  0.00    -0.490 OA
ATOM     21  C   UNL     1      -0.871   7.855 -17.981  1.00  0.00     0.278 C 
ENDBRANCH   8  20
BRANCH  11  22
ATOM     22  O   UNL     1      -7.349   8.123 -16.675  1.00  0.00    -0.492 OA
ATOM     23  C   UNL     1      -8.265   7.694 -17.676  1.00  0.00     0.278 C 
ENDBRANCH  11  22
BRANCH   9  24
ATOM     24  O   UNL     1      -3.110   5.672 -16.301  1.00  0.00    -0.490 OA
ATOM     25  C   UNL     1      -2.507   4.883 -17.322  1.00  0.00     0.279 C 
ENDBRANCH   9  24
BRANCH  10  26
ATOM     26  O   UNL     1      -5.911   5.632 -16.545  1.00  0.00    -0.490 OA
ATOM     27  C   UNL     1      -6.706   5.264 -15.421  1.00  0.00     0.278 C 
ENDBRANCH  10  26
TORSDOF 6
ENDMDL
