MODEL 1
REMARK VINA RESULT:    -4.191      0.000      0.000
REMARK INTER + INTRA:          -4.320
REMARK INTER:                  -5.171
REMARK INTRA:                   0.851
REMARK UNBOUND:                 0.851
REMARK SMILES CC1=CC=CC(C)(C)CC1=O
REMARK SMILES IDX 1 1 2 2 3 3 10 4 11 5 9 6 4 8 5 9 6 10 7 11 8 12
REMARK H PARENT
REMARK Flexibility Score: 80.00
ROOT
ATOM      1  C   UNL     1     -12.425 -20.684  31.626  1.00  0.00     0.048 C 
ATOM      2  C   UNL     1     -12.733 -19.312  31.072  1.00  0.00    -0.008 C 
ATOM      3  C   UNL     1     -12.897 -18.299  31.950  1.00  0.00     0.007 C 
ENDROOT
BRANCH   2   4
ATOM      4  C   UNL     1     -12.886 -19.206  29.596  1.00  0.00     0.159 C 
ATOM      5  O   UNL     1     -12.704 -20.240  28.896  1.00  0.00    -0.295 OA
BRANCH   4   6
ATOM      6  C   UNL     1     -13.282 -17.949  28.879  1.00  0.00     0.091 CG0
ATOM      7  G   UNL     1     -12.456 -16.709  29.286  1.00  0.00     0.000 G0
ENDBRANCH   4   6
ENDBRANCH   2   4
BRANCH   3   8
ATOM      8  C   UNL     1     -13.191 -16.869  31.702  1.00  0.00    -0.003 C 
ATOM      9  C   UNL     1     -12.998 -16.159  30.584  1.00  0.00    -0.020 C 
BRANCH   9  10
ATOM     10  C   UNL     1     -12.486 -16.693  29.267  1.00  0.00    -0.010 CG0
ATOM     11  C   UNL     1     -12.731 -15.618  28.182  1.00  0.00     0.016 C 
ATOM     12  C   UNL     1     -10.963 -16.949  29.348  1.00  0.00     0.016 C 
ATOM     13  G   UNL     1     -13.285 -17.957  28.880  1.00  0.00     0.000 G0
ENDBRANCH   9  10
ENDBRANCH   3   8
TORSDOF 0
ENDMDL
MODEL 2
REMARK VINA RESULT:    -4.151      1.405      2.186
REMARK INTER + INTRA:          -4.270
REMARK INTER:                  -5.135
REMARK INTRA:                   0.865
REMARK UNBOUND:                 0.851
REMARK SMILES CC1=CC=CC(C)(C)CC1=O
REMARK SMILES IDX 1 1 2 2 3 3 10 4 11 5 9 6 4 8 5 9 6 10 7 11 8 12
REMARK H PARENT
REMARK Flexibility Score: 80.00
ROOT
ATOM      1  C   UNL     1     -13.106 -17.688  32.156  1.00  0.00     0.048 C 
ATOM      2  C   UNL     1     -12.903 -17.387  30.689  1.00  0.00    -0.008 C 
ATOM      3  C   UNL     1     -13.094 -16.117  30.274  1.00  0.00     0.007 C 
ENDROOT
BRANCH   2   4
ATOM      4  C   UNL     1     -12.560 -18.538  29.812  1.00  0.00     0.159 C 
ATOM      5  O   UNL     1     -12.360 -19.664  30.346  1.00  0.00    -0.295 OA
BRANCH   4   6
ATOM      6  C   UNL     1     -12.471 -18.459  28.316  1.00  0.00     0.091 CG0
ATOM      7  G   UNL     1     -11.554 -17.327  27.802  1.00  0.00     0.000 G0
ENDBRANCH   4   6
ENDBRANCH   2   4
BRANCH   3   8
ATOM      8  C   UNL     1     -12.958 -15.532  28.920  1.00  0.00    -0.003 C 
ATOM      9  C   UNL     1     -12.282 -16.011  27.869  1.00  0.00    -0.020 C 
BRANCH   9  10
ATOM     10  C   UNL     1     -11.542 -17.326  27.809  1.00  0.00    -0.010 CG0
ATOM     11  C   UNL     1     -11.192 -17.617  26.331  1.00  0.00     0.016 C 
ATOM     12  C   UNL     1     -10.218 -17.232  28.602  1.00  0.00     0.016 C 
ATOM     13  G   UNL     1     -12.464 -18.457  28.316  1.00  0.00     0.000 G0
ENDBRANCH   9  10
ENDBRANCH   3   8
TORSDOF 0
ENDMDL
MODEL 3
REMARK VINA RESULT:    -4.067      1.619      2.536
REMARK INTER + INTRA:          -4.166
REMARK INTER:                  -5.006
REMARK INTRA:                   0.839
REMARK UNBOUND:                 0.851
REMARK SMILES CC1=CC=CC(C)(C)CC1=O
REMARK SMILES IDX 1 1 2 2 3 3 10 4 11 5 9 6 4 8 5 9 6 10 7 11 8 12
REMARK H PARENT
REMARK Flexibility Score: 80.00
ROOT
ATOM      1  C   UNL     1     -13.852 -20.277  28.534  1.00  0.00     0.048 C 
ATOM      2  C   UNL     1     -13.157 -19.451  29.591  1.00  0.00    -0.008 C 
ATOM      3  C   UNL     1     -12.866 -20.047  30.767  1.00  0.00     0.007 C 
ENDROOT
BRANCH   2   4
ATOM      4  C   UNL     1     -12.901 -18.023  29.262  1.00  0.00     0.159 C 
ATOM      5  O   UNL     1     -13.197 -17.608  28.108  1.00  0.00    -0.295 OA
BRANCH   4   6
ATOM      6  C   UNL     1     -12.343 -17.023  30.232  1.00  0.00     0.091 CG0
ATOM      7  G   UNL     1     -11.048 -17.486  30.934  1.00  0.00     0.000 G0
ENDBRANCH   4   6
ENDBRANCH   2   4
BRANCH   3   8
ATOM      8  C   UNL     1     -12.189 -19.500  31.965  1.00  0.00    -0.003 C 
ATOM      9  C   UNL     1     -11.389 -18.430  32.055  1.00  0.00    -0.020 C 
BRANCH   9  10
ATOM     10  C   UNL     1     -11.045 -17.478  30.934  1.00  0.00    -0.010 CG0
ATOM     11  C   UNL     1     -10.383 -16.224  31.552  1.00  0.00     0.016 C 
ATOM     12  C   UNL     1     -10.026 -18.129  29.972  1.00  0.00     0.016 C 
ATOM     13  G   UNL     1     -12.342 -17.033  30.222  1.00  0.00     0.000 G0
ENDBRANCH   9  10
ENDBRANCH   3   8
TORSDOF 0
ENDMDL
MODEL 4
REMARK VINA RESULT:    -4.002      1.490      3.506
REMARK INTER + INTRA:          -4.086
REMARK INTER:                  -4.937
REMARK INTRA:                   0.851
REMARK UNBOUND:                 0.851
REMARK SMILES CC1=CC=CC(C)(C)CC1=O
REMARK SMILES IDX 1 1 2 2 3 3 10 4 11 5 9 6 4 8 5 9 6 10 7 11 8 12
REMARK H PARENT
REMARK Flexibility Score: 80.00
ROOT
ATOM      1  C   UNL     1     -12.654 -15.070  28.661  1.00  0.00     0.048 C 
ATOM      2  C   UNL     1     -12.561 -16.191  29.670  1.00  0.00    -0.008 C 
ATOM      3  C   UNL     1     -13.274 -16.075  30.811  1.00  0.00     0.007 C 
ENDROOT
BRANCH   2   4
ATOM      4  C   UNL     1     -11.640 -17.313  29.340  1.00  0.00     0.159 C 
ATOM      5  O   UNL     1     -11.065 -17.310  28.217  1.00  0.00    -0.295 OA
BRANCH   4   6
ATOM      6  C   UNL     1     -11.316 -18.438  30.277  1.00  0.00     0.091 CG0
ATOM      7  G   UNL     1     -12.558 -19.143  30.864  1.00  0.00     0.000 G0
ENDBRANCH   4   6
ENDBRANCH   2   4
BRANCH   3   8
ATOM      8  C   UNL     1     -13.387 -17.006  31.957  1.00  0.00    -0.003 C 
ATOM      9  C   UNL     1     -13.118 -18.317  31.996  1.00  0.00    -0.020 C 
BRANCH   9  10
ATOM     10  C   UNL     1     -12.560 -19.146  30.865  1.00  0.00    -0.010 CG0
ATOM     11  C   UNL     1     -12.105 -20.507  31.443  1.00  0.00     0.016 C 
ATOM     12  C   UNL     1     -13.656 -19.420  29.810  1.00  0.00     0.016 C 
ATOM     13  G   UNL     1     -11.322 -18.438  30.271  1.00  0.00     0.000 G0
ENDBRANCH   9  10
ENDBRANCH   3   8
TORSDOF 0
ENDMDL
MODEL 5
REMARK VINA RESULT:    -3.987      1.689      2.937
REMARK INTER + INTRA:          -4.068
REMARK INTER:                  -4.927
REMARK INTRA:                   0.859
REMARK UNBOUND:                 0.851
REMARK SMILES CC1=CC=CC(C)(C)CC1=O
REMARK SMILES IDX 1 1 2 2 3 3 10 4 11 5 9 6 4 8 5 9 6 10 7 11 8 12
REMARK H PARENT
REMARK Flexibility Score: 80.00
ROOT
ATOM      1  C   UNL     1     -13.633 -20.186  28.630  1.00  0.00     0.048 C 
ATOM      2  C   UNL     1     -12.818 -19.107  29.305  1.00  0.00    -0.008 C 
ATOM      3  C   UNL     1     -12.661 -17.935  28.655  1.00  0.00     0.007 C 
ENDROOT
BRANCH   2   4
ATOM      4  C   UNL     1     -12.206 -19.454  30.617  1.00  0.00     0.159 C 
ATOM      5  O   UNL     1     -12.480 -20.573  31.132  1.00  0.00    -0.295 OA
BRANCH   4   6
ATOM      6  C   UNL     1     -11.247 -18.570  31.358  1.00  0.00     0.091 CG0
ATOM      7  G   UNL     1     -11.762 -17.130  31.576  1.00  0.00     0.000 G0
ENDBRANCH   4   6
ENDBRANCH   2   4
BRANCH   3   8
ATOM      8  C   UNL     1     -11.937 -16.711  29.069  1.00  0.00    -0.003 C 
ATOM      9  C   UNL     1     -11.575 -16.332  30.301  1.00  0.00    -0.020 C 
BRANCH   9  10
ATOM     10  C   UNL     1     -11.771 -17.126  31.570  1.00  0.00    -0.010 CG0
ATOM     11  C   UNL     1     -10.923 -16.470  32.686  1.00  0.00     0.016 C 
ATOM     12  C   UNL     1     -13.253 -17.076  32.009  1.00  0.00     0.016 C 
ATOM     13  G   UNL     1     -11.257 -18.567  31.361  1.00  0.00     0.000 G0
ENDBRANCH   9  10
ENDBRANCH   3   8
TORSDOF 0
ENDMDL
MODEL 6
REMARK VINA RESULT:    -3.940      1.930      2.905
REMARK INTER + INTRA:          -4.010
REMARK INTER:                  -4.857
REMARK INTRA:                   0.847
REMARK UNBOUND:                 0.851
REMARK SMILES CC1=CC=CC(C)(C)CC1=O
REMARK SMILES IDX 1 1 2 2 3 3 10 4 11 5 9 6 4 8 5 9 6 10 7 11 8 12
REMARK H PARENT
REMARK Flexibility Score: 80.00
ROOT
ATOM      1  C   UNL     1     -14.299 -16.870  32.765  1.00  0.00     0.048 C 
ATOM      2  C   UNL     1     -13.233 -17.142  31.728  1.00  0.00    -0.008 C 
ATOM      3  C   UNL     1     -12.490 -18.261  31.865  1.00  0.00     0.007 C 
ENDROOT
BRANCH   2   4
ATOM      4  C   UNL     1     -13.056 -16.114  30.667  1.00  0.00     0.159 C 
ATOM      5  O   UNL     1     -13.844 -15.129  30.645  1.00  0.00    -0.295 OA
BRANCH   4   6
ATOM      6  C   UNL     1     -11.969 -16.151  29.634  1.00  0.00     0.091 CG0
ATOM      7  G   UNL     1     -11.861 -17.498  28.885  1.00  0.00     0.000 G0
ENDBRANCH   4   6
ENDBRANCH   2   4
BRANCH   3   8
ATOM      8  C   UNL     1     -11.400 -18.785  31.011  1.00  0.00    -0.003 C 
ATOM      9  C   UNL     1     -11.135 -18.502  29.729  1.00  0.00    -0.020 C 
BRANCH   9  10
ATOM     10  C   UNL     1     -11.870 -17.503  28.867  1.00  0.00    -0.010 CG0
ATOM     11  C   UNL     1     -11.034 -17.262  27.588  1.00  0.00     0.016 C 
ATOM     12  C   UNL     1     -13.242 -18.072  28.439  1.00  0.00     0.016 C 
ATOM     13  G   UNL     1     -11.988 -16.161  29.623  1.00  0.00     0.000 G0
ENDBRANCH   9  10
ENDBRANCH   3   8
TORSDOF 0
ENDMDL
MODEL 7
REMARK VINA RESULT:    -3.939      1.516      3.417
REMARK INTER + INTRA:          -4.009
REMARK INTER:                  -4.863
REMARK INTRA:                   0.853
REMARK UNBOUND:                 0.851
REMARK SMILES CC1=CC=CC(C)(C)CC1=O
REMARK SMILES IDX 1 1 2 2 3 3 10 4 11 5 9 6 4 8 5 9 6 10 7 11 8 12
REMARK H PARENT
REMARK Flexibility Score: 80.00
ROOT
ATOM      1  C   UNL     1     -13.616 -16.280  27.059  1.00  0.00     0.048 C 
ATOM      2  C   UNL     1     -12.656 -16.664  28.161  1.00  0.00    -0.008 C 
ATOM      3  C   UNL     1     -11.759 -15.740  28.567  1.00  0.00     0.007 C 
ENDROOT
BRANCH   2   4
ATOM      4  C   UNL     1     -12.748 -18.059  28.672  1.00  0.00     0.159 C 
ATOM      5  O   UNL     1     -13.671 -18.800  28.236  1.00  0.00    -0.295 OA
BRANCH   4   6
ATOM      6  C   UNL     1     -11.784 -18.661  29.650  1.00  0.00     0.091 CG0
ATOM      7  G   UNL     1     -11.596 -17.829  30.938  1.00  0.00     0.000 G0
ENDBRANCH   4   6
ENDBRANCH   2   4
BRANCH   3   8
ATOM      8  C   UNL     1     -10.719 -15.827  29.618  1.00  0.00    -0.003 C 
ATOM      9  C   UNL     1     -10.643 -16.679  30.648  1.00  0.00    -0.020 C 
BRANCH   9  10
ATOM     10  C   UNL     1     -11.592 -17.818  30.933  1.00  0.00    -0.010 CG0
ATOM     11  C   UNL     1     -10.947 -18.727  32.006  1.00  0.00     0.016 C 
ATOM     12  C   UNL     1     -12.922 -17.277  31.506  1.00  0.00     0.016 C 
ATOM     13  G   UNL     1     -11.790 -18.656  29.651  1.00  0.00     0.000 G0
ENDBRANCH   9  10
ENDBRANCH   3   8
TORSDOF 0
ENDMDL
MODEL 8
REMARK VINA RESULT:    -3.916      2.147      3.615
REMARK INTER + INTRA:          -3.980
REMARK INTER:                  -4.828
REMARK INTRA:                   0.848
REMARK UNBOUND:                 0.851
REMARK SMILES CC1=CC=CC(C)(C)CC1=O
REMARK SMILES IDX 1 1 2 2 3 3 10 4 11 5 9 6 4 8 5 9 6 10 7 11 8 12
REMARK H PARENT
REMARK Flexibility Score: 80.00
ROOT
ATOM      1  C   UNL     1     -14.718 -14.619  31.521  1.00  0.00     0.048 C 
ATOM      2  C   UNL     1     -13.695 -15.539  30.895  1.00  0.00    -0.008 C 
ATOM      3  C   UNL     1     -13.168 -15.180  29.705  1.00  0.00     0.007 C 
ENDROOT
BRANCH   2   4
ATOM      4  C   UNL     1     -13.396 -16.801  31.625  1.00  0.00     0.159 C 
ATOM      5  O   UNL     1     -13.916 -16.977  32.761  1.00  0.00    -0.295 OA
BRANCH   4   6
ATOM      6  C   UNL     1     -12.540 -17.905  31.080  1.00  0.00     0.091 CG0
ATOM      7  G   UNL     1     -11.147 -17.441  30.601  1.00  0.00     0.000 G0
ENDBRANCH   4   6
ENDBRANCH   2   4
BRANCH   3   8
ATOM      8  C   UNL     1     -12.154 -15.867  28.873  1.00  0.00    -0.003 C 
ATOM      9  C   UNL     1     -11.268 -16.801  29.239  1.00  0.00    -0.020 C 
BRANCH   9  10
ATOM     10  C   UNL     1     -11.150 -17.429  30.607  1.00  0.00    -0.010 CG0
ATOM     11  C   UNL     1     -10.244 -18.677  30.489  1.00  0.00     0.016 C 
ATOM     12  C   UNL     1     -10.477 -16.445  31.592  1.00  0.00     0.016 C 
ATOM     13  G   UNL     1     -12.545 -17.892  31.082  1.00  0.00     0.000 G0
ENDBRANCH   9  10
ENDBRANCH   3   8
TORSDOF 0
ENDMDL
MODEL 9
REMARK VINA RESULT:    -3.796      1.869      3.598
REMARK INTER + INTRA:          -3.833
REMARK INTER:                  -4.932
REMARK INTRA:                   1.099
REMARK UNBOUND:                 0.851
REMARK SMILES CC1=CC=CC(C)(C)CC1=O
REMARK SMILES IDX 1 1 2 2 3 3 10 4 11 5 9 6 4 8 5 9 6 10 7 11 8 12
REMARK H PARENT
REMARK Flexibility Score: 80.00
ROOT
ATOM      1  C   UNL     1     -11.116 -17.190  26.054  1.00  0.00     0.048 C 
ATOM      2  C   UNL     1     -11.281 -16.879  27.524  1.00  0.00    -0.008 C 
ATOM      3  C   UNL     1     -10.248 -17.159  28.347  1.00  0.00     0.007 C 
ENDROOT
BRANCH   2   4
ATOM      4  C   UNL     1     -12.600 -16.337  27.949  1.00  0.00     0.159 C 
ATOM      5  O   UNL     1     -13.557 -16.369  27.127  1.00  0.00    -0.295 OA
BRANCH   4   6
ATOM      6  C   UNL     1     -12.882 -15.785  29.314  1.00  0.00     0.091 CG0
ATOM      7  G   UNL     1     -12.588 -16.774  30.464  1.00  0.00     0.000 G0
ENDBRANCH   4   6
ENDBRANCH   2   4
BRANCH   3   8
ATOM      8  C   UNL     1     -10.120 -16.955  29.808  1.00  0.00    -0.003 C 
ATOM      9  C   UNL     1     -11.089 -16.760  30.712  1.00  0.00    -0.020 C 
BRANCH   9  10
ATOM     10  C   UNL     1     -12.574 -16.772  30.442  1.00  0.00    -0.010 CG0
ATOM     11  C   UNL     1     -12.971 -18.197  29.988  1.00  0.00     0.016 C 
ATOM     12  C   UNL     1     -13.356 -16.451  31.736  1.00  0.00     0.016 C 
ATOM     13  G   UNL     1     -12.896 -15.795  29.290  1.00  0.00     0.000 G0
ENDBRANCH   9  10
ENDBRANCH   3   8
TORSDOF 0
ENDMDL
