MODEL 1
REMARK VINA RESULT:    -8.242      0.000      0.000
REMARK INTER + INTRA:          -8.965
REMARK INTER:                  -8.965
REMARK INTRA:                   0.000
REMARK UNBOUND:                 0.000
REMARK SMILES Cc1cc(O)c2c(c1)C(=O)c1cc(O)cc(O)c1C2=O
REMARK SMILES IDX 1 1 2 2 8 3 7 4 6 5 4 6 3 7 19 8 20 9 18 10 11 11 9 12 10 13
REMARK SMILES IDX 12 14 13 15 15 16 16 17 5 18 17 20 14 22
REMARK H PARENT 5 19 17 21 14 23
REMARK Flexibility Score: inf
ROOT
ATOM      1  C   UNL     1      60.502 -13.238  -0.306  1.00  0.00     0.044 C 
ATOM      2  C   UNL     1      60.738 -14.688   0.000  1.00  0.00    -0.047 A 
ATOM      3  C   UNL     1      59.888 -15.371   0.877  1.00  0.00     0.016 A 
ATOM      4  C   UNL     1      60.075 -16.739   1.136  1.00  0.00     0.038 A 
ATOM      5  C   UNL     1      61.115 -17.442   0.487  1.00  0.00     0.076 A 
ATOM      6  C   UNL     1      62.002 -16.735  -0.366  1.00  0.00     0.127 A 
ATOM      7  C   UNL     1      61.784 -15.378  -0.623  1.00  0.00     0.050 A 
ATOM      8  C   UNL     1      61.189 -18.915   0.672  1.00  0.00     0.201 C 
ATOM      9  O   UNL     1      61.655 -19.640  -0.247  1.00  0.00    -0.288 OA
ATOM     10  C   UNL     1      60.542 -19.543   1.853  1.00  0.00     0.076 A 
ATOM     11  C   UNL     1      59.503 -18.836   2.500  1.00  0.00     0.041 A 
ATOM     12  C   UNL     1      59.189 -17.447   2.090  1.00  0.00     0.194 C 
ATOM     13  O   UNL     1      58.183 -16.859   2.573  1.00  0.00    -0.289 OA
ATOM     14  C   UNL     1      58.774 -19.454   3.531  1.00  0.00     0.059 A 
ATOM     15  C   UNL     1      59.081 -20.755   3.934  1.00  0.00     0.120 A 
ATOM     16  C   UNL     1      60.132 -21.441   3.326  1.00  0.00     0.093 A 
ATOM     17  C   UNL     1      60.884 -20.842   2.311  1.00  0.00     0.131 A 
ENDROOT
BRANCH   6  18
ATOM     18  O   UNL     1      63.125 -17.328  -0.947  1.00  0.00    -0.507 OA
ATOM     19  H   UNL     1      63.429 -17.142  -1.892  1.00  0.00     0.293 HD
ENDBRANCH   6  18
BRANCH  17  20
ATOM     20  O   UNL     1      61.978 -21.556   1.813  1.00  0.00    -0.507 OA
ATOM     21  H   UNL     1      62.693 -21.963   2.401  1.00  0.00     0.293 HD
ENDBRANCH  17  20
BRANCH  15  22
ATOM     22  O   UNL     1      58.353 -21.375   4.949  1.00  0.00    -0.508 OA
ATOM     23  H   UNL     1      57.382 -21.144   5.120  1.00  0.00     0.293 HD
ENDBRANCH  15  22
TORSDOF 3
ENDMDL
MODEL 2
REMARK VINA RESULT:    -7.322     17.098     18.798
REMARK INTER + INTRA:          -7.965
REMARK INTER:                  -7.965
REMARK INTRA:                   0.000
REMARK UNBOUND:                 0.000
REMARK SMILES Cc1cc(O)c2c(c1)C(=O)c1cc(O)cc(O)c1C2=O
REMARK SMILES IDX 1 1 2 2 8 3 7 4 6 5 4 6 3 7 19 8 20 9 18 10 11 11 9 12 10 13
REMARK SMILES IDX 12 14 13 15 15 16 16 17 5 18 17 20 14 22
REMARK H PARENT 5 19 17 21 14 23
REMARK Flexibility Score: inf
ROOT
ATOM      1  C   UNL     1      51.499 -29.313  -4.103  1.00  0.00     0.044 C 
ATOM      2  C   UNL     1      50.012 -29.140  -4.216  1.00  0.00    -0.047 A 
ATOM      3  C   UNL     1      49.481 -28.047  -4.909  1.00  0.00     0.016 A 
ATOM      4  C   UNL     1      48.092 -27.899  -5.058  1.00  0.00     0.038 A 
ATOM      5  C   UNL     1      47.220 -28.876  -4.528  1.00  0.00     0.076 A 
ATOM      6  C   UNL     1      47.762 -29.958  -3.787  1.00  0.00     0.127 A 
ATOM      7  C   UNL     1      49.148 -30.094  -3.669  1.00  0.00     0.050 A 
ATOM      8  C   UNL     1      45.769 -28.762  -4.833  1.00  0.00     0.201 C 
ATOM      9  O   UNL     1      45.062 -29.802  -4.912  1.00  0.00    -0.288 OA
ATOM     10  C   UNL     1      45.200 -27.450  -5.231  1.00  0.00     0.076 A 
ATOM     11  C   UNL     1      46.076 -26.475  -5.760  1.00  0.00     0.041 A 
ATOM     12  C   UNL     1      47.538 -26.721  -5.767  1.00  0.00     0.194 C 
ATOM     13  O   UNL     1      48.311 -25.915  -6.353  1.00  0.00    -0.289 OA
ATOM     14  C   UNL     1      45.557 -25.274  -6.276  1.00  0.00     0.059 A 
ATOM     15  C   UNL     1      44.182 -25.030  -6.253  1.00  0.00     0.120 A 
ATOM     16  C   UNL     1      43.318 -25.971  -5.693  1.00  0.00     0.093 A 
ATOM     17  C   UNL     1      43.812 -27.164  -5.157  1.00  0.00     0.131 A 
ENDROOT
BRANCH   6  18
ATOM     18  O   UNL     1      46.964 -30.896  -3.128  1.00  0.00    -0.507 OA
ATOM     19  H   UNL     1      46.622 -30.776  -2.185  1.00  0.00     0.293 HD
ENDBRANCH   6  18
BRANCH  17  20
ATOM     20  O   UNL     1      42.897 -28.017  -4.533  1.00  0.00    -0.507 OA
ATOM     21  H   UNL     1      43.167 -28.760  -3.903  1.00  0.00     0.293 HD
ENDBRANCH  17  20
BRANCH  15  22
ATOM     22  O   UNL     1      43.662 -23.845  -6.773  1.00  0.00    -0.508 OA
ATOM     23  H   UNL     1      42.733 -23.523  -6.528  1.00  0.00     0.293 HD
ENDBRANCH  15  22
TORSDOF 3
ENDMDL
MODEL 3
REMARK VINA RESULT:    -7.268      1.853      6.607
REMARK INTER + INTRA:          -7.905
REMARK INTER:                  -7.905
REMARK INTRA:                   0.000
REMARK UNBOUND:                 0.000
REMARK SMILES Cc1cc(O)c2c(c1)C(=O)c1cc(O)cc(O)c1C2=O
REMARK SMILES IDX 1 1 2 2 8 3 7 4 6 5 4 6 3 7 19 8 20 9 18 10 11 11 9 12 10 13
REMARK SMILES IDX 12 14 13 15 15 16 16 17 5 18 17 20 14 22
REMARK H PARENT 5 19 17 21 14 23
REMARK Flexibility Score: inf
ROOT
ATOM      1  C   UNL     1      60.866 -21.762   1.767  1.00  0.00     0.044 C 
ATOM      2  C   UNL     1      60.669 -20.291   1.546  1.00  0.00    -0.047 A 
ATOM      3  C   UNL     1      61.265 -19.656   0.450  1.00  0.00     0.016 A 
ATOM      4  C   UNL     1      61.051 -18.289   0.209  1.00  0.00     0.038 A 
ATOM      5  C   UNL     1      60.205 -17.549   1.065  1.00  0.00     0.076 A 
ATOM      6  C   UNL     1      59.640 -18.186   2.201  1.00  0.00     0.127 A 
ATOM      7  C   UNL     1      59.852 -19.552   2.408  1.00  0.00     0.050 A 
ATOM      8  C   UNL     1      59.886 -16.145   0.695  1.00  0.00     0.201 C 
ATOM      9  O   UNL     1      58.778 -15.645   1.026  1.00  0.00    -0.288 OA
ATOM     10  C   UNL     1      60.787 -15.402  -0.223  1.00  0.00     0.076 A 
ATOM     11  C   UNL     1      61.632 -16.146  -1.077  1.00  0.00     0.041 A 
ATOM     12  C   UNL     1      61.712 -17.620  -0.936  1.00  0.00     0.194 C 
ATOM     13  O   UNL     1      62.362 -18.300  -1.776  1.00  0.00    -0.289 OA
ATOM     14  C   UNL     1      62.397 -15.485  -2.054  1.00  0.00     0.059 A 
ATOM     15  C   UNL     1      62.340 -14.095  -2.177  1.00  0.00     0.120 A 
ATOM     16  C   UNL     1      61.539 -13.353  -1.309  1.00  0.00     0.093 A 
ATOM     17  C   UNL     1      60.784 -13.985  -0.316  1.00  0.00     0.131 A 
ENDROOT
BRANCH   6  18
ATOM     18  O   UNL     1      58.895 -17.497   3.160  1.00  0.00    -0.507 OA
ATOM     19  H   UNL     1      58.965 -17.671   4.153  1.00  0.00     0.293 HD
ENDBRANCH   6  18
BRANCH  17  20
ATOM     20  O   UNL     1      60.077 -13.171   0.573  1.00  0.00    -0.507 OA
ATOM     21  H   UNL     1      59.499 -13.530   1.320  1.00  0.00     0.293 HD
ENDBRANCH  17  20
BRANCH  15  22
ATOM     22  O   UNL     1      63.088 -13.436  -3.152  1.00  0.00    -0.508 OA
ATOM     23  H   UNL     1      63.437 -12.496  -3.006  1.00  0.00     0.293 HD
ENDBRANCH  15  22
TORSDOF 3
ENDMDL
MODEL 4
REMARK VINA RESULT:    -6.896      1.467      5.512
REMARK INTER + INTRA:          -7.501
REMARK INTER:                  -7.501
REMARK INTRA:                   0.000
REMARK UNBOUND:                 0.000
REMARK SMILES Cc1cc(O)c2c(c1)C(=O)c1cc(O)cc(O)c1C2=O
REMARK SMILES IDX 1 1 2 2 8 3 7 4 6 5 4 6 3 7 19 8 20 9 18 10 11 11 9 12 10 13
REMARK SMILES IDX 12 14 13 15 15 16 16 17 5 18 17 20 14 22
REMARK H PARENT 5 19 17 21 14 23
REMARK Flexibility Score: inf
ROOT
ATOM      1  C   UNL     1      56.838 -20.961   4.298  1.00  0.00     0.044 C 
ATOM      2  C   UNL     1      57.826 -20.472   3.280  1.00  0.00    -0.047 A 
ATOM      3  C   UNL     1      58.029 -19.099   3.097  1.00  0.00     0.016 A 
ATOM      4  C   UNL     1      58.982 -18.632   2.178  1.00  0.00     0.038 A 
ATOM      5  C   UNL     1      59.765 -19.553   1.447  1.00  0.00     0.076 A 
ATOM      6  C   UNL     1      59.524 -20.943   1.602  1.00  0.00     0.127 A 
ATOM      7  C   UNL     1      58.583 -21.384   2.537  1.00  0.00     0.050 A 
ATOM      8  C   UNL     1      60.862 -19.022   0.596  1.00  0.00     0.201 C 
ATOM      9  O   UNL     1      61.896 -19.716   0.401  1.00  0.00    -0.288 OA
ATOM     10  C   UNL     1      60.822 -17.610   0.137  1.00  0.00     0.076 A 
ATOM     11  C   UNL     1      60.037 -16.692   0.871  1.00  0.00     0.041 A 
ATOM     12  C   UNL     1      59.167 -17.176   1.969  1.00  0.00     0.194 C 
ATOM     13  O   UNL     1      58.565 -16.350   2.709  1.00  0.00    -0.289 OA
ATOM     14  C   UNL     1      60.082 -15.323   0.553  1.00  0.00     0.059 A 
ATOM     15  C   UNL     1      60.885 -14.865  -0.494  1.00  0.00     0.120 A 
ATOM     16  C   UNL     1      61.629 -15.773  -1.248  1.00  0.00     0.093 A 
ATOM     17  C   UNL     1      61.586 -17.142  -0.964  1.00  0.00     0.131 A 
ENDROOT
BRANCH   6  18
ATOM     18  O   UNL     1      60.167 -21.912   0.829  1.00  0.00    -0.507 OA
ATOM     19  H   UNL     1      59.731 -22.385   0.049  1.00  0.00     0.293 HD
ENDBRANCH   6  18
BRANCH  17  20
ATOM     20  O   UNL     1      62.287 -17.999  -1.817  1.00  0.00    -0.507 OA
ATOM     21  H   UNL     1      62.462 -18.972  -1.609  1.00  0.00     0.293 HD
ENDBRANCH  17  20
BRANCH  15  22
ATOM     22  O   UNL     1      60.942 -13.507  -0.806  1.00  0.00    -0.508 OA
ATOM     23  H   UNL     1      60.207 -13.055  -1.338  1.00  0.00     0.293 HD
ENDBRANCH  15  22
TORSDOF 3
ENDMDL
MODEL 5
REMARK VINA RESULT:    -6.840      1.857      3.640
REMARK INTER + INTRA:          -7.440
REMARK INTER:                  -7.440
REMARK INTRA:                   0.000
REMARK UNBOUND:                 0.000
REMARK SMILES Cc1cc(O)c2c(c1)C(=O)c1cc(O)cc(O)c1C2=O
REMARK SMILES IDX 1 1 2 2 8 3 7 4 6 5 4 6 3 7 19 8 20 9 18 10 11 11 9 12 10 13
REMARK SMILES IDX 12 14 13 15 15 16 16 17 5 18 17 20 14 22
REMARK H PARENT 5 19 17 21 14 23
REMARK Flexibility Score: inf
ROOT
ATOM      1  C   UNL     1      62.370 -13.764  -3.779  1.00  0.00     0.044 C 
ATOM      2  C   UNL     1      61.805 -14.433  -2.559  1.00  0.00    -0.047 A 
ATOM      3  C   UNL     1      61.942 -15.815  -2.386  1.00  0.00     0.016 A 
ATOM      4  C   UNL     1      61.455 -16.443  -1.228  1.00  0.00     0.038 A 
ATOM      5  C   UNL     1      60.844 -15.672  -0.214  1.00  0.00     0.076 A 
ATOM      6  C   UNL     1      60.666 -14.279  -0.415  1.00  0.00     0.127 A 
ATOM      7  C   UNL     1      61.176 -13.673  -1.566  1.00  0.00     0.050 A 
ATOM      8  C   UNL     1      60.476 -16.350   1.058  1.00  0.00     0.201 C 
ATOM      9  O   UNL     1      60.483 -15.702   2.138  1.00  0.00    -0.288 OA
ATOM     10  C   UNL     1      60.288 -17.823   1.080  1.00  0.00     0.076 A 
ATOM     11  C   UNL     1      60.900 -18.590   0.063  1.00  0.00     0.041 A 
ATOM     12  C   UNL     1      61.577 -17.912  -1.068  1.00  0.00     0.194 C 
ATOM     13  O   UNL     1      62.234 -18.586  -1.907  1.00  0.00    -0.289 OA
ATOM     14  C   UNL     1      60.862 -19.994   0.127  1.00  0.00     0.059 A 
ATOM     15  C   UNL     1      60.208 -20.637   1.180  1.00  0.00     0.120 A 
ATOM     16  C   UNL     1      59.566 -19.884   2.164  1.00  0.00     0.093 A 
ATOM     17  C   UNL     1      59.574 -18.487   2.112  1.00  0.00     0.131 A 
ENDROOT
BRANCH   6  18
ATOM     18  O   UNL     1      59.965 -13.470   0.481  1.00  0.00    -0.507 OA
ATOM     19  H   UNL     1      59.394 -13.831   1.233  1.00  0.00     0.293 HD
ENDBRANCH   6  18
BRANCH  17  20
ATOM     20  O   UNL     1      58.835 -17.803   3.081  1.00  0.00    -0.507 OA
ATOM     21  H   UNL     1      59.142 -16.942   3.512  1.00  0.00     0.293 HD
ENDBRANCH  17  20
BRANCH  15  22
ATOM     22  O   UNL     1      60.177 -22.029   1.254  1.00  0.00    -0.508 OA
ATOM     23  H   UNL     1      59.418 -22.518   1.713  1.00  0.00     0.293 HD
ENDBRANCH  15  22
TORSDOF 3
ENDMDL
MODEL 6
REMARK VINA RESULT:    -6.453      1.278      6.285
REMARK INTER + INTRA:          -7.019
REMARK INTER:                  -7.019
REMARK INTRA:                   0.000
REMARK UNBOUND:                 0.000
REMARK SMILES Cc1cc(O)c2c(c1)C(=O)c1cc(O)cc(O)c1C2=O
REMARK SMILES IDX 1 1 2 2 8 3 7 4 6 5 4 6 3 7 19 8 20 9 18 10 11 11 9 12 10 13
REMARK SMILES IDX 12 14 13 15 15 16 16 17 5 18 17 20 14 22
REMARK H PARENT 5 19 17 21 14 23
REMARK Flexibility Score: inf
ROOT
ATOM      1  C   UNL     1      60.878 -23.726   2.578  1.00  0.00     0.044 C 
ATOM      2  C   UNL     1      60.367 -22.316   2.524  1.00  0.00    -0.047 A 
ATOM      3  C   UNL     1      60.928 -21.396   1.631  1.00  0.00     0.016 A 
ATOM      4  C   UNL     1      60.428 -20.087   1.543  1.00  0.00     0.038 A 
ATOM      5  C   UNL     1      59.331 -19.698   2.343  1.00  0.00     0.076 A 
ATOM      6  C   UNL     1      58.795 -20.620   3.280  1.00  0.00     0.127 A 
ATOM      7  C   UNL     1      59.297 -21.923   3.335  1.00  0.00     0.050 A 
ATOM      8  C   UNL     1      58.737 -18.354   2.115  1.00  0.00     0.201 C 
ATOM      9  O   UNL     1      57.509 -18.166   2.329  1.00  0.00    -0.288 OA
ATOM     10  C   UNL     1      59.543 -17.293   1.459  1.00  0.00     0.076 A 
ATOM     11  C   UNL     1      60.641 -17.686   0.660  1.00  0.00     0.041 A 
ATOM     12  C   UNL     1      61.049 -19.111   0.616  1.00  0.00     0.194 C 
ATOM     13  O   UNL     1      61.942 -19.487  -0.192  1.00  0.00    -0.289 OA
ATOM     14  C   UNL     1      61.343 -16.724  -0.087  1.00  0.00     0.059 A 
ATOM     15  C   UNL     1      60.974 -15.378  -0.031  1.00  0.00     0.120 A 
ATOM     16  C   UNL     1      59.918 -14.980   0.788  1.00  0.00     0.093 A 
ATOM     17  C   UNL     1      59.217 -15.915   1.555  1.00  0.00     0.131 A 
ENDROOT
BRANCH   6  18
ATOM     18  O   UNL     1      57.795 -20.276   4.191  1.00  0.00    -0.507 OA
ATOM     19  H   UNL     1      57.980 -19.903   5.112  1.00  0.00     0.293 HD
ENDBRANCH   6  18
BRANCH  17  20
ATOM     20  O   UNL     1      58.232 -15.430   2.420  1.00  0.00    -0.507 OA
ATOM     21  H   UNL     1      57.604 -14.674   2.182  1.00  0.00     0.293 HD
ENDBRANCH  17  20
BRANCH  15  22
ATOM     22  O   UNL     1      61.660 -14.422  -0.779  1.00  0.00    -0.508 OA
ATOM     23  H   UNL     1      61.847 -13.496  -0.412  1.00  0.00     0.293 HD
ENDBRANCH  15  22
TORSDOF 3
ENDMDL
MODEL 7
REMARK VINA RESULT:    -6.376     17.232     18.113
REMARK INTER + INTRA:          -6.935
REMARK INTER:                  -6.935
REMARK INTRA:                   0.000
REMARK UNBOUND:                 0.000
REMARK SMILES Cc1cc(O)c2c(c1)C(=O)c1cc(O)cc(O)c1C2=O
REMARK SMILES IDX 1 1 2 2 8 3 7 4 6 5 4 6 3 7 19 8 20 9 18 10 11 11 9 12 10 13
REMARK SMILES IDX 12 14 13 15 15 16 16 17 5 18 17 20 14 22
REMARK H PARENT 5 19 17 21 14 23
REMARK Flexibility Score: inf
ROOT
ATOM      1  C   UNL     1      42.967 -22.081  -6.857  1.00  0.00     0.044 C 
ATOM      2  C   UNL     1      44.063 -23.037  -6.486  1.00  0.00    -0.047 A 
ATOM      3  C   UNL     1      43.779 -24.394  -6.294  1.00  0.00     0.016 A 
ATOM      4  C   UNL     1      44.805 -25.304  -5.990  1.00  0.00     0.038 A 
ATOM      5  C   UNL     1      46.141 -24.854  -5.901  1.00  0.00     0.076 A 
ATOM      6  C   UNL     1      46.417 -23.470  -6.051  1.00  0.00     0.127 A 
ATOM      7  C   UNL     1      45.383 -22.587  -6.373  1.00  0.00     0.050 A 
ATOM      8  C   UNL     1      47.213 -25.869  -5.724  1.00  0.00     0.201 C 
ATOM      9  O   UNL     1      48.363 -25.655  -6.193  1.00  0.00    -0.288 OA
ATOM     10  C   UNL     1      46.879 -27.205  -5.166  1.00  0.00     0.076 A 
ATOM     11  C   UNL     1      45.541 -27.650  -5.256  1.00  0.00     0.041 A 
ATOM     12  C   UNL     1      44.490 -26.734  -5.757  1.00  0.00     0.194 C 
ATOM     13  O   UNL     1      43.321 -27.165  -5.961  1.00  0.00    -0.289 OA
ATOM     14  C   UNL     1      45.213 -28.961  -4.867  1.00  0.00     0.059 A 
ATOM     15  C   UNL     1      46.198 -29.821  -4.375  1.00  0.00     0.120 A 
ATOM     16  C   UNL     1      47.511 -29.371  -4.245  1.00  0.00     0.093 A 
ATOM     17  C   UNL     1      47.859 -28.066  -4.608  1.00  0.00     0.131 A 
ENDROOT
BRANCH   6  18
ATOM     18  O   UNL     1      47.689 -22.929  -5.856  1.00  0.00    -0.507 OA
ATOM     19  H   UNL     1      48.010 -22.079  -6.300  1.00  0.00     0.293 HD
ENDBRANCH   6  18
BRANCH  17  20
ATOM     20  O   UNL     1      49.174 -27.660  -4.365  1.00  0.00    -0.507 OA
ATOM     21  H   UNL     1      49.428 -26.990  -3.652  1.00  0.00     0.293 HD
ENDBRANCH  17  20
BRANCH  15  22
ATOM     22  O   UNL     1      45.878 -31.125  -3.999  1.00  0.00    -0.508 OA
ATOM     23  H   UNL     1      45.333 -31.731  -4.600  1.00  0.00     0.293 HD
ENDBRANCH  15  22
TORSDOF 3
ENDMDL
MODEL 8
REMARK VINA RESULT:    -6.318      9.015     10.287
REMARK INTER + INTRA:          -6.872
REMARK INTER:                  -6.872
REMARK INTRA:                   0.000
REMARK UNBOUND:                 0.000
REMARK SMILES Cc1cc(O)c2c(c1)C(=O)c1cc(O)cc(O)c1C2=O
REMARK SMILES IDX 1 1 2 2 8 3 7 4 6 5 4 6 3 7 19 8 20 9 18 10 11 11 9 12 10 13
REMARK SMILES IDX 12 14 13 15 15 16 16 17 5 18 17 20 14 22
REMARK H PARENT 5 19 17 21 14 23
REMARK Flexibility Score: inf
ROOT
ATOM      1  C   UNL     1      51.637 -16.584  -3.245  1.00  0.00     0.044 C 
ATOM      2  C   UNL     1      51.173 -17.672  -2.321  1.00  0.00    -0.047 A 
ATOM      3  C   UNL     1      51.567 -17.673  -0.978  1.00  0.00     0.016 A 
ATOM      4  C   UNL     1      51.103 -18.662  -0.096  1.00  0.00     0.038 A 
ATOM      5  C   UNL     1      50.209 -19.653  -0.558  1.00  0.00     0.076 A 
ATOM      6  C   UNL     1      49.849 -19.675  -1.931  1.00  0.00     0.127 A 
ATOM      7  C   UNL     1      50.308 -18.669  -2.785  1.00  0.00     0.050 A 
ATOM      8  C   UNL     1      49.626 -20.592   0.437  1.00  0.00     0.201 C 
ATOM      9  O   UNL     1      48.476 -21.071   0.247  1.00  0.00    -0.288 OA
ATOM     10  C   UNL     1      50.314 -20.812   1.734  1.00  0.00     0.076 A 
ATOM     11  C   UNL     1      51.208 -19.818   2.193  1.00  0.00     0.041 A 
ATOM     12  C   UNL     1      51.551 -18.672   1.317  1.00  0.00     0.194 C 
ATOM     13  O   UNL     1      52.245 -17.719   1.767  1.00  0.00    -0.289 OA
ATOM     14  C   UNL     1      51.772 -19.923   3.477  1.00  0.00     0.059 A 
ATOM     15  C   UNL     1      51.467 -21.012   4.297  1.00  0.00     0.120 A 
ATOM     16  C   UNL     1      50.618 -22.016   3.832  1.00  0.00     0.093 A 
ATOM     17  C   UNL     1      50.060 -21.944   2.552  1.00  0.00     0.131 A 
ENDROOT
BRANCH   6  18
ATOM     18  O   UNL     1      49.070 -20.690  -2.491  1.00  0.00    -0.507 OA
ATOM     19  H   UNL     1      49.457 -21.499  -2.957  1.00  0.00     0.293 HD
ENDBRANCH   6  18
BRANCH  17  20
ATOM     20  O   UNL     1      49.291 -23.030   2.123  1.00  0.00    -0.507 OA
ATOM     21  H   UNL     1      49.571 -23.650   1.375  1.00  0.00     0.293 HD
ENDBRANCH  17  20
BRANCH  15  22
ATOM     22  O   UNL     1      52.015 -21.114   5.575  1.00  0.00    -0.508 OA
ATOM     23  H   UNL     1      52.661 -20.419   5.931  1.00  0.00     0.293 HD
ENDBRANCH  15  22
TORSDOF 3
ENDMDL
MODEL 9
REMARK VINA RESULT:    -6.185      1.320      3.266
REMARK INTER + INTRA:          -6.727
REMARK INTER:                  -6.727
REMARK INTRA:                   0.000
REMARK UNBOUND:                 0.000
REMARK SMILES Cc1cc(O)c2c(c1)C(=O)c1cc(O)cc(O)c1C2=O
REMARK SMILES IDX 1 1 2 2 8 3 7 4 6 5 4 6 3 7 19 8 20 9 18 10 11 11 9 12 10 13
REMARK SMILES IDX 12 14 13 15 15 16 16 17 5 18 17 20 14 22
REMARK H PARENT 5 19 17 21 14 23
REMARK Flexibility Score: inf
ROOT
ATOM      1  C   UNL     1      61.377 -15.135  -2.411  1.00  0.00     0.044 C 
ATOM      2  C   UNL     1      60.787 -15.922  -1.278  1.00  0.00    -0.047 A 
ATOM      3  C   UNL     1      61.305 -17.180  -0.949  1.00  0.00     0.016 A 
ATOM      4  C   UNL     1      60.789 -17.906   0.138  1.00  0.00     0.038 A 
ATOM      5  C   UNL     1      59.753 -17.353   0.923  1.00  0.00     0.076 A 
ATOM      6  C   UNL     1      59.200 -16.098   0.558  1.00  0.00     0.127 A 
ATOM      7  C   UNL     1      59.744 -15.386  -0.515  1.00  0.00     0.050 A 
ATOM      8  C   UNL     1      59.336 -18.084   2.149  1.00  0.00     0.201 C 
ATOM      9  O   UNL     1      58.893 -17.444   3.141  1.00  0.00    -0.288 OA
ATOM     10  C   UNL     1      59.617 -19.537   2.273  1.00  0.00     0.076 A 
ATOM     11  C   UNL     1      60.654 -20.086   1.484  1.00  0.00     0.041 A 
ATOM     12  C   UNL     1      61.323 -19.250   0.459  1.00  0.00     0.194 C 
ATOM     13  O   UNL     1      62.332 -19.693  -0.156  1.00  0.00    -0.289 OA
ATOM     14  C   UNL     1      61.042 -21.424   1.673  1.00  0.00     0.059 A 
ATOM     15  C   UNL     1      60.400 -22.220   2.623  1.00  0.00     0.120 A 
ATOM     16  C   UNL     1      59.349 -21.695   3.375  1.00  0.00     0.093 A 
ATOM     17  C   UNL     1      58.931 -20.373   3.192  1.00  0.00     0.131 A 
ENDROOT
BRANCH   6  18
ATOM     18  O   UNL     1      58.096 -15.542   1.206  1.00  0.00    -0.507 OA
ATOM     19  H   UNL     1      58.166 -14.950   2.022  1.00  0.00     0.293 HD
ENDBRANCH   6  18
BRANCH  17  20
ATOM     20  O   UNL     1      57.815 -19.945   3.916  1.00  0.00    -0.507 OA
ATOM     21  H   UNL     1      57.720 -20.060   4.915  1.00  0.00     0.293 HD
ENDBRANCH  17  20
BRANCH  15  22
ATOM     22  O   UNL     1      60.790 -23.544   2.821  1.00  0.00    -0.508 OA
ATOM     23  H   UNL     1      60.279 -24.314   2.405  1.00  0.00     0.293 HD
ENDBRANCH  15  22
TORSDOF 3
ENDMDL
