MODEL 1
REMARK VINA RESULT:    -4.619      0.000      0.000
REMARK INTER + INTRA:          -7.466
REMARK INTER:                  -6.239
REMARK INTRA:                  -1.227
REMARK UNBOUND:                -1.227
REMARK SMILES CC(=O)CCC=C(C)CCC=C(C)C
REMARK SMILES IDX 7 1 6 2 8 3 9 4 10 5 11 6 13 7 12 8 14 9 5 10 4 11 2 12 3 13
REMARK SMILES IDX 1 14
REMARK H PARENT
REMARK Flexibility Score: inf
ROOT
ATOM      1  C   UNL     1     -16.588 -37.901 209.863  1.00  0.00    -0.077 C 
ATOM      2  C   UNL     1     -15.712 -38.823 209.399  1.00  0.00    -0.028 C 
ATOM      3  C   UNL     1     -17.790 -37.465 209.058  1.00  0.00     0.039 C 
ENDROOT
BRANCH   1   4
ATOM      4  C   UNL     1     -16.368 -37.305 211.237  1.00  0.00     0.034 C 
BRANCH   4   5
ATOM      5  C   UNL     1     -17.281 -37.969 212.272  1.00  0.00     0.032 C 
BRANCH   5   6
ATOM      6  C   UNL     1     -16.578 -39.122 212.943  1.00  0.00    -0.028 C 
ATOM      7  C   UNL     1     -16.065 -41.470 213.455  1.00  0.00     0.039 C 
ATOM      8  C   UNL     1     -16.817 -40.424 212.674  1.00  0.00    -0.080 C 
ATOM      9  C   UNL     1     -17.799 -40.854 211.609  1.00  0.00     0.039 C 
ENDBRANCH   5   6
ENDBRANCH   4   5
ENDBRANCH   1   4
BRANCH   2  10
ATOM     10  C   UNL     1     -15.794 -39.469 208.039  1.00  0.00     0.035 C 
BRANCH  10  11
ATOM     11  C   UNL     1     -15.743 -40.995 208.158  1.00  0.00     0.079 C 
BRANCH  11  12
ATOM     12  C   UNL     1     -14.462 -41.437 208.814  1.00  0.00     0.130 C 
ATOM     13  O   UNL     1     -13.396 -41.228 208.253  1.00  0.00    -0.300 OA
ATOM     14  C   UNL     1     -14.462 -42.119 210.150  1.00  0.00     0.087 C 
ENDBRANCH  11  12
ENDBRANCH  10  11
ENDBRANCH   2  10
TORSDOF 6
ENDMDL
MODEL 2
REMARK VINA RESULT:    -4.271      1.736      2.197
REMARK INTER + INTRA:          -6.996
REMARK INTER:                  -5.773
REMARK INTRA:                  -1.223
REMARK UNBOUND:                -1.227
REMARK SMILES CC(=O)CCC=C(C)CCC=C(C)C
REMARK SMILES IDX 7 1 6 2 8 3 9 4 10 5 11 6 13 7 12 8 14 9 5 10 4 11 2 12 3 13
REMARK SMILES IDX 1 14
REMARK H PARENT
REMARK Flexibility Score: inf
ROOT
ATOM      1  C   UNL     1     -16.623 -37.834 209.747  1.00  0.00    -0.077 C 
ATOM      2  C   UNL     1     -15.867 -38.818 209.208  1.00  0.00    -0.028 C 
ATOM      3  C   UNL     1     -17.831 -37.273 209.034  1.00  0.00     0.039 C 
ENDROOT
BRANCH   1   4
ATOM      4  C   UNL     1     -16.260 -37.295 211.114  1.00  0.00     0.034 C 
BRANCH   4   5
ATOM      5  C   UNL     1     -17.186 -37.870 212.190  1.00  0.00     0.032 C 
BRANCH   5   6
ATOM      6  C   UNL     1     -16.539 -39.046 212.878  1.00  0.00    -0.028 C 
ATOM      7  C   UNL     1     -16.144 -41.409 213.428  1.00  0.00     0.039 C 
ATOM      8  C   UNL     1     -16.846 -40.339 212.632  1.00  0.00    -0.080 C 
ATOM      9  C   UNL     1     -17.854 -40.736 211.578  1.00  0.00     0.039 C 
ENDBRANCH   5   6
ENDBRANCH   4   5
ENDBRANCH   1   4
BRANCH   2  10
ATOM     10  C   UNL     1     -16.096 -39.420 207.844  1.00  0.00     0.035 C 
BRANCH  10  11
ATOM     11  C   UNL     1     -16.489 -40.896 207.960  1.00  0.00     0.079 C 
BRANCH  11  12
ATOM     12  C   UNL     1     -17.852 -41.134 207.366  1.00  0.00     0.130 C 
ATOM     13  O   UNL     1     -17.951 -41.758 206.320  1.00  0.00    -0.300 OA
ATOM     14  C   UNL     1     -19.096 -40.630 208.036  1.00  0.00     0.087 C 
ENDBRANCH  11  12
ENDBRANCH  10  11
ENDBRANCH   2  10
TORSDOF 6
ENDMDL
MODEL 3
REMARK VINA RESULT:    -4.243      1.602      2.222
REMARK INTER + INTRA:          -6.958
REMARK INTER:                  -5.805
REMARK INTRA:                  -1.153
REMARK UNBOUND:                -1.227
REMARK SMILES CC(=O)CCC=C(C)CCC=C(C)C
REMARK SMILES IDX 7 1 6 2 8 3 9 4 10 5 11 6 13 7 12 8 14 9 5 10 4 11 2 12 3 13
REMARK SMILES IDX 1 14
REMARK H PARENT
REMARK Flexibility Score: inf
ROOT
ATOM      1  C   UNL     1     -18.093 -38.267 210.768  1.00  0.00    -0.077 C 
ATOM      2  C   UNL     1     -17.480 -37.784 209.662  1.00  0.00    -0.028 C 
ATOM      3  C   UNL     1     -19.247 -39.239 210.682  1.00  0.00     0.039 C 
ENDROOT
BRANCH   1   4
ATOM      4  C   UNL     1     -17.594 -37.838 212.131  1.00  0.00     0.034 C 
BRANCH   4   5
ATOM      5  C   UNL     1     -16.229 -38.464 212.433  1.00  0.00     0.032 C 
BRANCH   5   6
ATOM      6  C   UNL     1     -16.385 -39.711 213.266  1.00  0.00    -0.028 C 
ATOM      7  C   UNL     1     -16.462 -42.122 213.739  1.00  0.00     0.039 C 
ATOM      8  C   UNL     1     -16.234 -40.969 212.796  1.00  0.00    -0.080 C 
ATOM      9  C   UNL     1     -15.831 -41.245 211.366  1.00  0.00     0.039 C 
ENDBRANCH   5   6
ENDBRANCH   4   5
ENDBRANCH   1   4
BRANCH   2  10
ATOM     10  C   UNL     1     -17.896 -38.102 208.248  1.00  0.00     0.035 C 
BRANCH  10  11
ATOM     11  C   UNL     1     -16.673 -38.397 207.374  1.00  0.00     0.079 C 
BRANCH  11  12
ATOM     12  C   UNL     1     -16.126 -39.769 207.667  1.00  0.00     0.130 C 
ATOM     13  O   UNL     1     -16.890 -40.722 207.720  1.00  0.00    -0.300 OA
ATOM     14  C   UNL     1     -14.660 -39.996 207.885  1.00  0.00     0.087 C 
ENDBRANCH  11  12
ENDBRANCH  10  11
ENDBRANCH   2  10
TORSDOF 6
ENDMDL
MODEL 4
REMARK VINA RESULT:    -4.182     11.322     12.864
REMARK INTER + INTRA:          -6.876
REMARK INTER:                  -5.775
REMARK INTRA:                  -1.101
REMARK UNBOUND:                -1.227
REMARK SMILES CC(=O)CCC=C(C)CCC=C(C)C
REMARK SMILES IDX 7 1 6 2 8 3 9 4 10 5 11 6 13 7 12 8 14 9 5 10 4 11 2 12 3 13
REMARK SMILES IDX 1 14
REMARK H PARENT
REMARK Flexibility Score: inf
ROOT
ATOM      1  C   UNL     1      -4.457 -38.308 215.699  1.00  0.00    -0.077 C 
ATOM      2  C   UNL     1      -5.346 -38.492 214.695  1.00  0.00    -0.028 C 
ATOM      3  C   UNL     1      -4.823 -38.547 217.145  1.00  0.00     0.039 C 
ENDROOT
BRANCH   1   4
ATOM      4  C   UNL     1      -3.047 -37.872 215.361  1.00  0.00     0.034 C 
BRANCH   4   5
ATOM      5  C   UNL     1      -2.135 -39.085 215.158  1.00  0.00     0.032 C 
BRANCH   5   6
ATOM      6  C   UNL     1      -2.082 -39.478 213.703  1.00  0.00    -0.028 C 
ATOM      7  C   UNL     1      -2.471 -40.879 211.722  1.00  0.00     0.039 C 
ATOM      8  C   UNL     1      -2.641 -40.597 213.193  1.00  0.00    -0.080 C 
ATOM      9  C   UNL     1      -3.436 -41.556 214.048  1.00  0.00     0.039 C 
ENDBRANCH   5   6
ENDBRANCH   4   5
ENDBRANCH   1   4
BRANCH   2  10
ATOM     10  C   UNL     1      -6.786 -38.891 214.894  1.00  0.00     0.035 C 
BRANCH  10  11
ATOM     11  C   UNL     1      -6.974 -40.392 214.652  1.00  0.00     0.079 C 
BRANCH  11  12
ATOM     12  C   UNL     1      -7.757 -41.019 215.775  1.00  0.00     0.130 C 
ATOM     13  O   UNL     1      -8.931 -41.309 215.600  1.00  0.00    -0.300 OA
ATOM     14  C   UNL     1      -7.124 -41.309 217.103  1.00  0.00     0.087 C 
ENDBRANCH  11  12
ENDBRANCH  10  11
ENDBRANCH   2  10
TORSDOF 6
ENDMDL
MODEL 5
REMARK VINA RESULT:    -4.104      1.571      2.263
REMARK INTER + INTRA:          -6.771
REMARK INTER:                  -5.531
REMARK INTRA:                  -1.240
REMARK UNBOUND:                -1.227
REMARK SMILES CC(=O)CCC=C(C)CCC=C(C)C
REMARK SMILES IDX 7 1 6 2 8 3 9 4 10 5 11 6 13 7 12 8 14 9 5 10 4 11 2 12 3 13
REMARK SMILES IDX 1 14
REMARK H PARENT
REMARK Flexibility Score: inf
ROOT
ATOM      1  C   UNL     1     -18.042 -38.861 208.573  1.00  0.00    -0.077 C 
ATOM      2  C   UNL     1     -17.157 -39.648 207.918  1.00  0.00    -0.028 C 
ATOM      3  C   UNL     1     -17.850 -37.367 208.690  1.00  0.00     0.039 C 
ENDROOT
BRANCH   1   4
ATOM      4  C   UNL     1     -19.273 -39.494 209.186  1.00  0.00     0.034 C 
BRANCH   4   5
ATOM      5  C   UNL     1     -19.398 -39.120 210.667  1.00  0.00     0.032 C 
BRANCH   5   6
ATOM      6  C   UNL     1     -18.352 -39.831 211.487  1.00  0.00    -0.028 C 
ATOM      7  C   UNL     1     -16.391 -40.053 212.953  1.00  0.00     0.039 C 
ATOM      8  C   UNL     1     -17.397 -39.209 212.213  1.00  0.00    -0.080 C 
ATOM      9  C   UNL     1     -17.321 -37.703 212.312  1.00  0.00     0.039 C 
ENDBRANCH   5   6
ENDBRANCH   4   5
ENDBRANCH   1   4
BRANCH   2  10
ATOM     10  C   UNL     1     -15.877 -39.154 207.292  1.00  0.00     0.035 C 
BRANCH  10  11
ATOM     11  C   UNL     1     -14.677 -39.964 207.794  1.00  0.00     0.079 C 
BRANCH  11  12
ATOM     12  C   UNL     1     -14.681 -40.047 209.297  1.00  0.00     0.130 C 
ATOM     13  O   UNL     1     -14.649 -39.018 209.956  1.00  0.00    -0.300 OA
ATOM     14  C   UNL     1     -14.737 -41.367 210.007  1.00  0.00     0.087 C 
ENDBRANCH  11  12
ENDBRANCH  10  11
ENDBRANCH   2  10
TORSDOF 6
ENDMDL
MODEL 6
REMARK VINA RESULT:    -4.102      1.937      4.191
REMARK INTER + INTRA:          -6.769
REMARK INTER:                  -5.608
REMARK INTRA:                  -1.161
REMARK UNBOUND:                -1.227
REMARK SMILES CC(=O)CCC=C(C)CCC=C(C)C
REMARK SMILES IDX 7 1 6 2 8 3 9 4 10 5 11 6 13 7 12 8 14 9 5 10 4 11 2 12 3 13
REMARK SMILES IDX 1 14
REMARK H PARENT
REMARK Flexibility Score: inf
ROOT
ATOM      1  C   UNL     1     -18.284 -37.966 209.484  1.00  0.00    -0.077 C 
ATOM      2  C   UNL     1     -17.490 -37.585 210.512  1.00  0.00    -0.028 C 
ATOM      3  C   UNL     1     -19.514 -38.816 209.697  1.00  0.00     0.039 C 
ENDROOT
BRANCH   1   4
ATOM      4  C   UNL     1     -17.940 -37.508 208.083  1.00  0.00     0.034 C 
BRANCH   4   5
ATOM      5  C   UNL     1     -17.191 -38.604 207.319  1.00  0.00     0.032 C 
BRANCH   5   6
ATOM      6  C   UNL     1     -15.945 -39.016 208.062  1.00  0.00    -0.028 C 
ATOM      7  C   UNL     1     -14.442 -40.512 209.305  1.00  0.00     0.039 C 
ATOM      8  C   UNL     1     -15.719 -40.257 208.547  1.00  0.00    -0.080 C 
ATOM      9  C   UNL     1     -16.699 -41.389 208.336  1.00  0.00     0.039 C 
ENDBRANCH   5   6
ENDBRANCH   4   5
ENDBRANCH   1   4
BRANCH   2  10
ATOM     10  C   UNL     1     -17.697 -37.997 211.948  1.00  0.00     0.035 C 
BRANCH  10  11
ATOM     11  C   UNL     1     -16.425 -38.627 212.523  1.00  0.00     0.079 C 
BRANCH  11  12
ATOM     12  C   UNL     1     -16.618 -40.101 212.757  1.00  0.00     0.130 C 
ATOM     13  O   UNL     1     -16.046 -40.641 213.693  1.00  0.00    -0.300 OA
ATOM     14  C   UNL     1     -17.508 -40.924 211.874  1.00  0.00     0.087 C 
ENDBRANCH  11  12
ENDBRANCH  10  11
ENDBRANCH   2  10
TORSDOF 6
ENDMDL
MODEL 7
REMARK VINA RESULT:    -4.057      2.659      4.868
REMARK INTER + INTRA:          -6.707
REMARK INTER:                  -5.754
REMARK INTRA:                  -0.953
REMARK UNBOUND:                -1.227
REMARK SMILES CC(=O)CCC=C(C)CCC=C(C)C
REMARK SMILES IDX 7 1 6 2 8 3 9 4 10 5 11 6 13 7 12 8 14 9 5 10 4 11 2 12 3 13
REMARK SMILES IDX 1 14
REMARK H PARENT
REMARK Flexibility Score: inf
ROOT
ATOM      1  C   UNL     1     -16.523 -38.350 211.496  1.00  0.00    -0.077 C 
ATOM      2  C   UNL     1     -16.394 -39.696 211.442  1.00  0.00    -0.028 C 
ATOM      3  C   UNL     1     -17.235 -37.660 212.636  1.00  0.00     0.039 C 
ENDROOT
BRANCH   1   4
ATOM      4  C   UNL     1     -15.916 -37.510 210.393  1.00  0.00     0.034 C 
BRANCH   4   5
ATOM      5  C   UNL     1     -16.437 -37.953 209.022  1.00  0.00     0.032 C 
BRANCH   5   6
ATOM      6  C   UNL     1     -17.875 -37.542 208.837  1.00  0.00    -0.028 C 
ATOM      7  C   UNL     1     -19.951 -37.054 207.614  1.00  0.00     0.039 C 
ATOM      8  C   UNL     1     -18.521 -37.529 207.651  1.00  0.00    -0.080 C 
ATOM      9  C   UNL     1     -17.857 -37.990 206.374  1.00  0.00     0.039 C 
ENDBRANCH   5   6
ENDBRANCH   4   5
ENDBRANCH   1   4
BRANCH   2  10
ATOM     10  C   UNL     1     -16.978 -40.650 212.454  1.00  0.00     0.035 C 
BRANCH  10  11
ATOM     11  C   UNL     1     -17.928 -41.645 211.780  1.00  0.00     0.079 C 
BRANCH  11  12
ATOM     12  C   UNL     1     -18.892 -40.929 210.871  1.00  0.00     0.130 C 
ATOM     13  O   UNL     1     -19.708 -40.156 211.350  1.00  0.00    -0.300 OA
ATOM     14  C   UNL     1     -18.866 -41.136 209.386  1.00  0.00     0.087 C 
ENDBRANCH  11  12
ENDBRANCH  10  11
ENDBRANCH   2  10
TORSDOF 6
ENDMDL
MODEL 8
REMARK VINA RESULT:    -4.021     11.391     13.183
REMARK INTER + INTRA:          -6.659
REMARK INTER:                  -5.743
REMARK INTRA:                  -0.916
REMARK UNBOUND:                -1.227
REMARK SMILES CC(=O)CCC=C(C)CCC=C(C)C
REMARK SMILES IDX 7 1 6 2 8 3 9 4 10 5 11 6 13 7 12 8 14 9 5 10 4 11 2 12 3 13
REMARK SMILES IDX 1 14
REMARK H PARENT
REMARK Flexibility Score: inf
ROOT
ATOM      1  C   UNL     1      -5.523 -38.803 215.588  1.00  0.00    -0.077 C 
ATOM      2  C   UNL     1      -5.753 -39.357 216.802  1.00  0.00    -0.028 C 
ATOM      3  C   UNL     1      -4.227 -38.099 215.263  1.00  0.00     0.039 C 
ENDROOT
BRANCH   1   4
ATOM      4  C   UNL     1      -6.589 -38.912 214.518  1.00  0.00     0.034 C 
BRANCH   4   5
ATOM      5  C   UNL     1      -6.835 -40.376 214.141  1.00  0.00     0.032 C 
BRANCH   5   6
ATOM      6  C   UNL     1      -6.042 -40.753 212.916  1.00  0.00    -0.028 C 
ATOM      7  C   UNL     1      -4.174 -41.708 211.633  1.00  0.00     0.039 C 
ATOM      8  C   UNL     1      -4.877 -41.437 212.939  1.00  0.00    -0.080 C 
ATOM      9  C   UNL     1      -4.274 -41.947 214.228  1.00  0.00     0.039 C 
ENDBRANCH   5   6
ENDBRANCH   4   5
ENDBRANCH   1   4
BRANCH   2  10
ATOM     10  C   UNL     1      -4.794 -39.292 217.964  1.00  0.00     0.035 C 
BRANCH  10  11
ATOM     11  C   UNL     1      -5.101 -38.086 218.857  1.00  0.00     0.079 C 
BRANCH  11  12
ATOM     12  C   UNL     1      -5.815 -38.519 220.110  1.00  0.00     0.130 C 
ATOM     13  O   UNL     1      -7.022 -38.708 220.079  1.00  0.00    -0.300 OA
ATOM     14  C   UNL     1      -5.074 -38.735 221.397  1.00  0.00     0.087 C 
ENDBRANCH  11  12
ENDBRANCH  10  11
ENDBRANCH   2  10
TORSDOF 6
ENDMDL
MODEL 9
REMARK VINA RESULT:    -3.396      2.371      3.378
REMARK INTER + INTRA:          -5.815
REMARK INTER:                  -4.648
REMARK INTRA:                  -1.167
REMARK UNBOUND:                -1.227
REMARK SMILES CC(=O)CCC=C(C)CCC=C(C)C
REMARK SMILES IDX 7 1 6 2 8 3 9 4 10 5 11 6 13 7 12 8 14 9 5 10 4 11 2 12 3 13
REMARK SMILES IDX 1 14
REMARK H PARENT
REMARK Flexibility Score: inf
ROOT
ATOM      1  C   UNL     1     -16.743 -37.847 209.600  1.00  0.00    -0.077 C 
ATOM      2  C   UNL     1     -17.907 -37.263 209.233  1.00  0.00    -0.028 C 
ATOM      3  C   UNL     1     -16.103 -38.940 208.777  1.00  0.00     0.039 C 
ENDROOT
BRANCH   1   4
ATOM      4  C   UNL     1     -16.052 -37.376 210.862  1.00  0.00     0.034 C 
BRANCH   4   5
ATOM      5  C   UNL     1     -16.882 -37.725 212.101  1.00  0.00     0.032 C 
BRANCH   5   6
ATOM      6  C   UNL     1     -16.329 -38.948 212.788  1.00  0.00    -0.028 C 
ATOM      7  C   UNL     1     -16.160 -41.326 213.385  1.00  0.00     0.039 C 
ATOM      8  C   UNL     1     -16.785 -40.204 212.596  1.00  0.00    -0.080 C 
ATOM      9  C   UNL     1     -17.885 -40.514 211.606  1.00  0.00     0.039 C 
ENDBRANCH   5   6
ENDBRANCH   4   5
ENDBRANCH   1   4
BRANCH   2  10
ATOM     10  C   UNL     1     -18.715 -37.658 208.022  1.00  0.00     0.035 C 
BRANCH  10  11
ATOM     11  C   UNL     1     -19.928 -38.500 208.428  1.00  0.00     0.079 C 
BRANCH  11  12
ATOM     12  C   UNL     1     -19.710 -39.950 208.085  1.00  0.00     0.130 C 
ATOM     13  O   UNL     1     -20.125 -40.816 208.841  1.00  0.00    -0.300 OA
ATOM     14  C   UNL     1     -19.002 -40.358 206.826  1.00  0.00     0.087 C 
ENDBRANCH  11  12
ENDBRANCH  10  11
ENDBRANCH   2  10
TORSDOF 6
ENDMDL
