MODEL 1
REMARK VINA RESULT:    -5.997      0.000      0.000
REMARK INTER + INTRA:          -5.997
REMARK INTER:                  -5.997
REMARK INTRA:                   0.000
REMARK UNBOUND:                 0.000
REMARK SMILES CC1=CC[C@@]2(C)CCCC(C)(C)[C@]23C[C@@H]13
REMARK SMILES IDX 1 1 2 2 3 3 4 4 5 5 7 6 8 7 9 8 10 9 13 10 15 11 14 12 11 13
REMARK SMILES IDX 12 14 6 15
REMARK H PARENT
REMARK Flexibility Score: inf
ROOT
ATOM      1  C   UNL     1     100.383 107.222 129.284  1.00  0.00     0.039 C 
ATOM      2  C   UNL     1     101.629 106.532 128.807  1.00  0.00    -0.074 C 
ATOM      3  C   UNL     1     101.829 105.220 129.084  1.00  0.00    -0.027 C 
ATOM      4  C   UNL     1     103.034 104.433 128.573  1.00  0.00     0.034 C 
ATOM      5  C   UNL     1     104.002 105.232 127.620  1.00  0.00    -0.022 C 
ATOM      6  C   UNL     1     104.541 104.321 126.477  1.00  0.00     0.008 C 
ATOM      7  C   UNL     1     103.543 104.028 125.359  1.00  0.00     0.001 C 
ATOM      8  C   UNL     1     103.026 105.328 124.745  1.00  0.00     0.007 C 
ATOM      9  C   UNL     1     102.241 106.199 125.758  1.00  0.00    -0.029 C 
ATOM     10  C   UNL     1     103.205 106.465 127.028  1.00  0.00    -0.012 C 
ATOM     11  C   UNL     1     102.757 107.359 128.256  1.00  0.00     0.022 C 
ATOM     12  C   UNL     1     103.669 107.884 127.138  1.00  0.00     0.017 C 
ATOM     13  C   UNL     1     100.911 105.471 126.096  1.00  0.00     0.012 C 
ATOM     14  C   UNL     1     101.818 107.480 124.984  1.00  0.00     0.012 C 
ATOM     15  C   UNL     1     105.269 105.623 128.443  1.00  0.00     0.012 C 
ENDROOT
TORSDOF 0
ENDMDL
MODEL 2
REMARK VINA RESULT:    -5.962      3.272      5.741
REMARK INTER + INTRA:          -5.962
REMARK INTER:                  -5.962
REMARK INTRA:                   0.000
REMARK UNBOUND:                 0.000
REMARK SMILES CC1=CC[C@@]2(C)CCCC(C)(C)[C@]23C[C@@H]13
REMARK SMILES IDX 1 1 2 2 3 3 4 4 5 5 7 6 8 7 9 8 10 9 13 10 15 11 14 12 11 13
REMARK SMILES IDX 12 14 6 15
REMARK H PARENT
REMARK Flexibility Score: inf
ROOT
ATOM      1  C   UNL     1     107.819 100.600 129.357  1.00  0.00     0.039 C 
ATOM      2  C   UNL     1     107.576 101.388 128.101  1.00  0.00    -0.074 C 
ATOM      3  C   UNL     1     107.117 100.767 126.987  1.00  0.00    -0.027 C 
ATOM      4  C   UNL     1     106.777 101.511 125.697  1.00  0.00     0.034 C 
ATOM      5  C   UNL     1     106.919 103.078 125.769  1.00  0.00    -0.022 C 
ATOM      6  C   UNL     1     105.788 103.781 124.959  1.00  0.00     0.008 C 
ATOM      7  C   UNL     1     104.419 103.787 125.634  1.00  0.00     0.001 C 
ATOM      8  C   UNL     1     104.503 104.434 127.016  1.00  0.00     0.007 C 
ATOM      9  C   UNL     1     105.418 103.649 127.989  1.00  0.00    -0.029 C 
ATOM     10  C   UNL     1     106.871 103.509 127.292  1.00  0.00    -0.012 C 
ATOM     11  C   UNL     1     108.089 102.798 128.012  1.00  0.00     0.022 C 
ATOM     12  C   UNL     1     107.934 104.325 127.958  1.00  0.00     0.017 C 
ATOM     13  C   UNL     1     104.729 102.299 128.324  1.00  0.00     0.012 C 
ATOM     14  C   UNL     1     105.414 104.450 129.322  1.00  0.00     0.012 C 
ATOM     15  C   UNL     1     108.236 103.475 125.032  1.00  0.00     0.012 C 
ENDROOT
TORSDOF 0
ENDMDL
MODEL 3
REMARK VINA RESULT:    -5.935      1.199      3.756
REMARK INTER + INTRA:          -5.935
REMARK INTER:                  -5.935
REMARK INTRA:                   0.000
REMARK UNBOUND:                 0.000
REMARK SMILES CC1=CC[C@@]2(C)CCCC(C)(C)[C@]23C[C@@H]13
REMARK SMILES IDX 1 1 2 2 3 3 4 4 5 5 7 6 8 7 9 8 10 9 13 10 15 11 14 12 11 13
REMARK SMILES IDX 12 14 6 15
REMARK H PARENT
REMARK Flexibility Score: inf
ROOT
ATOM      1  C   UNL     1     103.913 103.852 124.762  1.00  0.00     0.039 C 
ATOM      2  C   UNL     1     103.271 104.505 125.953  1.00  0.00    -0.074 C 
ATOM      3  C   UNL     1     103.572 104.082 127.205  1.00  0.00    -0.027 C 
ATOM      4  C   UNL     1     103.016 104.743 128.465  1.00  0.00     0.034 C 
ATOM      5  C   UNL     1     102.123 106.016 128.217  1.00  0.00    -0.022 C 
ATOM      6  C   UNL     1     102.375 107.099 129.309  1.00  0.00     0.008 C 
ATOM      7  C   UNL     1     103.680 107.878 129.158  1.00  0.00     0.001 C 
ATOM      8  C   UNL     1     103.753 108.544 127.785  1.00  0.00     0.007 C 
ATOM      9  C   UNL     1     103.768 107.520 126.623  1.00  0.00    -0.029 C 
ATOM     10  C   UNL     1     102.460 106.582 126.777  1.00  0.00    -0.012 C 
ATOM     11  C   UNL     1     102.112 105.438 125.738  1.00  0.00     0.022 C 
ATOM     12  C   UNL     1     101.430 106.814 125.715  1.00  0.00     0.017 C 
ATOM     13  C   UNL     1     105.119 106.755 126.664  1.00  0.00     0.012 C 
ATOM     14  C   UNL     1     103.815 108.357 125.313  1.00  0.00     0.012 C 
ATOM     15  C   UNL     1     100.631 105.602 128.411  1.00  0.00     0.012 C 
ENDROOT
TORSDOF 0
ENDMDL
MODEL 4
REMARK VINA RESULT:    -5.931      3.593      5.868
REMARK INTER + INTRA:          -5.931
REMARK INTER:                  -5.931
REMARK INTRA:                   0.000
REMARK UNBOUND:                 0.000
REMARK SMILES CC1=CC[C@@]2(C)CCCC(C)(C)[C@]23C[C@@H]13
REMARK SMILES IDX 1 1 2 2 3 3 4 4 5 5 7 6 8 7 9 8 10 9 13 10 15 11 14 12 11 13
REMARK SMILES IDX 12 14 6 15
REMARK H PARENT
REMARK Flexibility Score: inf
ROOT
ATOM      1  C   UNL     1     104.738 111.917 129.316  1.00  0.00     0.039 C 
ATOM      2  C   UNL     1     104.958 111.107 128.070  1.00  0.00    -0.074 C 
ATOM      3  C   UNL     1     105.445 111.699 126.952  1.00  0.00    -0.027 C 
ATOM      4  C   UNL     1     105.763 110.929 125.671  1.00  0.00     0.034 C 
ATOM      5  C   UNL     1     105.564 109.369 125.759  1.00  0.00    -0.022 C 
ATOM      6  C   UNL     1     106.672 108.617 124.963  1.00  0.00     0.008 C 
ATOM      7  C   UNL     1     108.038 108.568 125.644  1.00  0.00     0.001 C 
ATOM      8  C   UNL     1     107.925 107.941 127.032  1.00  0.00     0.007 C 
ATOM      9  C   UNL     1     107.034 108.768 127.992  1.00  0.00    -0.029 C 
ATOM     10  C   UNL     1     105.590 108.954 127.287  1.00  0.00    -0.012 C 
ATOM     11  C   UNL     1     104.396 109.715 127.994  1.00  0.00     0.022 C 
ATOM     12  C   UNL     1     104.495 108.183 127.957  1.00  0.00     0.017 C 
ATOM     13  C   UNL     1     107.770 110.097 128.316  1.00  0.00     0.012 C 
ATOM     14  C   UNL     1     107.004 107.982 129.334  1.00  0.00     0.012 C 
ATOM     15  C   UNL     1     104.237 109.012 125.021  1.00  0.00     0.012 C 
ENDROOT
TORSDOF 0
ENDMDL
MODEL 5
REMARK VINA RESULT:    -5.920      3.645      5.464
REMARK INTER + INTRA:          -5.920
REMARK INTER:                  -5.920
REMARK INTRA:                   0.000
REMARK UNBOUND:                 0.000
REMARK SMILES CC1=CC[C@@]2(C)CCCC(C)(C)[C@]23C[C@@H]13
REMARK SMILES IDX 1 1 2 2 3 3 4 4 5 5 7 6 8 7 9 8 10 9 13 10 15 11 14 12 11 13
REMARK SMILES IDX 12 14 6 15
REMARK H PARENT
REMARK Flexibility Score: inf
ROOT
ATOM      1  C   UNL     1     107.246 112.004 129.262  1.00  0.00     0.039 C 
ATOM      2  C   UNL     1     106.558 110.765 128.763  1.00  0.00    -0.074 C 
ATOM      3  C   UNL     1     105.248 110.556 129.041  1.00  0.00    -0.027 C 
ATOM      4  C   UNL     1     104.462 109.360 128.508  1.00  0.00     0.034 C 
ATOM      5  C   UNL     1     105.259 108.414 127.534  1.00  0.00    -0.022 C 
ATOM      6  C   UNL     1     104.345 107.896 126.383  1.00  0.00     0.008 C 
ATOM      7  C   UNL     1     104.046 108.915 125.287  1.00  0.00     0.001 C 
ATOM      8  C   UNL     1     105.343 109.447 124.678  1.00  0.00     0.007 C 
ATOM      9  C   UNL     1     106.215 110.214 125.703  1.00  0.00    -0.029 C 
ATOM     10  C   UNL     1     106.489 109.226 126.953  1.00  0.00    -0.012 C 
ATOM     11  C   UNL     1     107.386 109.651 128.186  1.00  0.00     0.022 C 
ATOM     12  C   UNL     1     107.909 108.763 127.048  1.00  0.00     0.017 C 
ATOM     13  C   UNL     1     105.485 111.535 126.071  1.00  0.00     0.012 C 
ATOM     14  C   UNL     1     107.492 110.656 124.934  1.00  0.00     0.012 C 
ATOM     15  C   UNL     1     105.657 107.131 128.329  1.00  0.00     0.012 C 
ENDROOT
TORSDOF 0
ENDMDL
MODEL 6
REMARK VINA RESULT:    -5.899      2.953      5.623
REMARK INTER + INTRA:          -5.899
REMARK INTER:                  -5.899
REMARK INTRA:                   0.000
REMARK UNBOUND:                 0.000
REMARK SMILES CC1=CC[C@@]2(C)CCCC(C)(C)[C@]23C[C@@H]13
REMARK SMILES IDX 1 1 2 2 3 3 4 4 5 5 7 6 8 7 9 8 10 9 13 10 15 11 14 12 11 13
REMARK SMILES IDX 12 14 6 15
REMARK H PARENT
REMARK Flexibility Score: inf
ROOT
ATOM      1  C   UNL     1     108.614 103.646 124.755  1.00  0.00     0.039 C 
ATOM      2  C   UNL     1     107.872 103.174 125.973  1.00  0.00    -0.074 C 
ATOM      3  C   UNL     1     108.228 103.623 127.202  1.00  0.00    -0.027 C 
ATOM      4  C   UNL     1     107.477 103.246 128.477  1.00  0.00     0.034 C 
ATOM      5  C   UNL     1     106.195 102.357 128.263  1.00  0.00    -0.022 C 
ATOM      6  C   UNL     1     105.057 102.769 129.245  1.00  0.00     0.008 C 
ATOM      7  C   UNL     1     104.328 104.060 128.882  1.00  0.00     0.001 C 
ATOM      8  C   UNL     1     103.747 103.973 127.471  1.00  0.00     0.007 C 
ATOM      9  C   UNL     1     104.839 103.818 126.383  1.00  0.00    -0.029 C 
ATOM     10  C   UNL     1     105.727 102.520 126.759  1.00  0.00    -0.012 C 
ATOM     11  C   UNL     1     106.920 102.018 125.847  1.00  0.00     0.022 C 
ATOM     12  C   UNL     1     105.529 101.369 125.822  1.00  0.00     0.017 C 
ATOM     13  C   UNL     1     105.639 105.147 126.304  1.00  0.00     0.012 C 
ATOM     14  C   UNL     1     104.083 103.716 125.028  1.00  0.00     0.012 C 
ATOM     15  C   UNL     1     106.553 100.893 128.668  1.00  0.00     0.012 C 
ENDROOT
TORSDOF 0
ENDMDL
MODEL 7
REMARK VINA RESULT:    -5.894      5.212      7.268
REMARK INTER + INTRA:          -5.894
REMARK INTER:                  -5.894
REMARK INTRA:                   0.000
REMARK UNBOUND:                 0.000
REMARK SMILES CC1=CC[C@@]2(C)CCCC(C)(C)[C@]23C[C@@H]13
REMARK SMILES IDX 1 1 2 2 3 3 4 4 5 5 7 6 8 7 9 8 10 9 13 10 15 11 14 12 11 13
REMARK SMILES IDX 12 14 6 15
REMARK H PARENT
REMARK Flexibility Score: inf
ROOT
ATOM      1  C   UNL     1     108.927 108.604 124.740  1.00  0.00     0.039 C 
ATOM      2  C   UNL     1     109.382 107.863 125.966  1.00  0.00    -0.074 C 
ATOM      3  C   UNL     1     108.932 108.232 127.190  1.00  0.00    -0.027 C 
ATOM      4  C   UNL     1     109.292 107.484 128.472  1.00  0.00     0.034 C 
ATOM      5  C   UNL     1     110.165 106.188 128.270  1.00  0.00    -0.022 C 
ATOM      6  C   UNL     1     109.732 105.062 129.256  1.00  0.00     0.008 C 
ATOM      7  C   UNL     1     108.433 104.348 128.891  1.00  0.00     0.001 C 
ATOM      8  C   UNL     1     108.520 103.758 127.484  1.00  0.00     0.007 C 
ATOM      9  C   UNL     1     108.695 104.841 126.391  1.00  0.00    -0.029 C 
ATOM     10  C   UNL     1     110.003 105.714 126.768  1.00  0.00    -0.012 C 
ATOM     11  C   UNL     1     110.526 106.894 125.851  1.00  0.00     0.022 C 
ATOM     12  C   UNL     1     111.156 105.494 125.838  1.00  0.00     0.017 C 
ATOM     13  C   UNL     1     107.378 105.659 126.299  1.00  0.00     0.012 C 
ATOM     14  C   UNL     1     108.794 104.076 125.041  1.00  0.00     0.012 C 
ATOM     15  C   UNL     1     111.632 106.529 128.680  1.00  0.00     0.012 C 
ENDROOT
TORSDOF 0
ENDMDL
MODEL 8
REMARK VINA RESULT:    -5.889      3.728      5.826
REMARK INTER + INTRA:          -5.889
REMARK INTER:                  -5.889
REMARK INTRA:                   0.000
REMARK UNBOUND:                 0.000
REMARK SMILES CC1=CC[C@@]2(C)CCCC(C)(C)[C@]23C[C@@H]13
REMARK SMILES IDX 1 1 2 2 3 3 4 4 5 5 7 6 8 7 9 8 10 9 13 10 15 11 14 12 11 13
REMARK SMILES IDX 12 14 6 15
REMARK H PARENT
REMARK Flexibility Score: inf
ROOT
ATOM      1  C   UNL     1     103.756 108.666 124.808  1.00  0.00     0.039 C 
ATOM      2  C   UNL     1     104.487 109.224 125.996  1.00  0.00    -0.074 C 
ATOM      3  C   UNL     1     104.164 108.813 127.247  1.00  0.00    -0.027 C 
ATOM      4  C   UNL     1     104.908 109.279 128.497  1.00  0.00     0.034 C 
ATOM      5  C   UNL     1     106.145 110.217 128.230  1.00  0.00    -0.022 C 
ATOM      6  C   UNL     1     107.310 109.901 129.215  1.00  0.00     0.008 C 
ATOM      7  C   UNL     1     108.096 108.631 128.900  1.00  0.00     0.001 C 
ATOM      8  C   UNL     1     108.659 108.684 127.480  1.00  0.00     0.007 C 
ATOM      9  C   UNL     1     107.550 108.741 126.399  1.00  0.00    -0.029 C 
ATOM     10  C   UNL     1     106.606 110.011 126.729  1.00  0.00    -0.012 C 
ATOM     11  C   UNL     1     105.382 110.416 125.810  1.00  0.00     0.022 C 
ATOM     12  C   UNL     1     106.741 111.128 125.742  1.00  0.00     0.017 C 
ATOM     13  C   UNL     1     106.813 107.374 126.385  1.00  0.00     0.012 C 
ATOM     14  C   UNL     1     108.288 108.819 125.032  1.00  0.00     0.012 C 
ATOM     15  C   UNL     1     105.722 111.679 128.576  1.00  0.00     0.012 C 
ENDROOT
TORSDOF 0
ENDMDL
MODEL 9
REMARK VINA RESULT:    -5.865      1.255      3.221
REMARK INTER + INTRA:          -5.865
REMARK INTER:                  -5.865
REMARK INTRA:                   0.000
REMARK UNBOUND:                 0.000
REMARK SMILES CC1=CC[C@@]2(C)CCCC(C)(C)[C@]23C[C@@H]13
REMARK SMILES IDX 1 1 2 2 3 3 4 4 5 5 7 6 8 7 9 8 10 9 13 10 15 11 14 12 11 13
REMARK SMILES IDX 12 14 6 15
REMARK H PARENT
REMARK Flexibility Score: inf
ROOT
ATOM      1  C   UNL     1     100.570 104.748 129.304  1.00  0.00     0.039 C 
ATOM      2  C   UNL     1     101.377 104.932 128.050  1.00  0.00    -0.074 C 
ATOM      3  C   UNL     1     100.791 105.420 126.930  1.00  0.00    -0.027 C 
ATOM      4  C   UNL     1     101.561 105.703 125.641  1.00  0.00     0.034 C 
ATOM      5  C   UNL     1     103.116 105.464 125.722  1.00  0.00    -0.022 C 
ATOM      6  C   UNL     1     103.891 106.542 124.908  1.00  0.00     0.008 C 
ATOM      7  C   UNL     1     103.980 107.914 125.572  1.00  0.00     0.001 C 
ATOM      8  C   UNL     1     104.614 107.801 126.958  1.00  0.00     0.007 C 
ATOM      9  C   UNL     1     103.769 106.943 127.934  1.00  0.00    -0.029 C 
ATOM     10  C   UNL     1     103.541 105.497 127.247  1.00  0.00    -0.012 C 
ATOM     11  C   UNL     1     102.753 104.332 127.973  1.00  0.00     0.022 C 
ATOM     12  C   UNL     1     104.287 104.390 127.926  1.00  0.00     0.017 C 
ATOM     13  C   UNL     1     102.462 107.718 128.257  1.00  0.00     0.012 C 
ATOM     14  C   UNL     1     104.562 106.909 129.271  1.00  0.00     0.012 C 
ATOM     15  C   UNL     1     103.433 104.119 124.998  1.00  0.00     0.012 C 
ENDROOT
TORSDOF 0
ENDMDL
