MODEL 1
REMARK VINA RESULT:    -4.024      0.000      0.000
REMARK INTER + INTRA:          -4.142
REMARK INTER:                  -4.142
REMARK INTRA:                   0.000
REMARK UNBOUND:                 0.000
REMARK SMILES Oc1ccc2[nH]ccc2c1
REMARK SMILES IDX 3 1 4 2 5 3 9 4 8 5 7 6 6 7 10 8 2 9 1 11
REMARK H PARENT 6 10 1 12
REMARK Flexibility Score: inf
ROOT
ATOM      1  C   UNL     1     167.081 170.275 168.213  1.00  0.00     0.048 A 
ATOM      2  C   UNL     1     168.483 170.252 168.336  1.00  0.00     0.030 A 
ATOM      3  C   UNL     1     169.124 169.017 168.232  1.00  0.00     0.046 A 
ATOM      4  C   UNL     1     168.426 167.860 168.019  1.00  0.00     0.003 A 
ATOM      5  C   UNL     1     169.339 166.830 167.966  1.00  0.00     0.028 A 
ATOM      6  C   UNL     1     170.579 167.435 168.156  1.00  0.00     0.083 A 
ATOM      7  N   UNL     1     170.441 168.771 168.318  1.00  0.00    -0.361 N 
ATOM      8  C   UNL     1     167.038 167.848 167.892  1.00  0.00     0.056 A 
ATOM      9  C   UNL     1     166.357 169.081 167.992  1.00  0.00     0.116 A 
ATOM     10  H   UNL     1     171.205 169.465 168.477  1.00  0.00     0.166 HD
ENDROOT
BRANCH   9  11
ATOM     11  O   UNL     1     164.971 169.134 167.875  1.00  0.00    -0.508 OA
ATOM     12  H   UNL     1     164.369 169.061 168.687  1.00  0.00     0.293 HD
ENDBRANCH   9  11
TORSDOF 1
ENDMDL
MODEL 2
REMARK VINA RESULT:    -3.998      2.054      3.373
REMARK INTER + INTRA:          -4.115
REMARK INTER:                  -4.115
REMARK INTRA:                   0.000
REMARK UNBOUND:                 0.000
REMARK SMILES Oc1ccc2[nH]ccc2c1
REMARK SMILES IDX 3 1 4 2 5 3 9 4 8 5 7 6 6 7 10 8 2 9 1 11
REMARK H PARENT 6 10 1 12
REMARK Flexibility Score: inf
ROOT
ATOM      1  C   UNL     1     170.219 166.803 167.941  1.00  0.00     0.048 A 
ATOM      2  C   UNL     1     170.366 168.200 168.018  1.00  0.00     0.030 A 
ATOM      3  C   UNL     1     169.207 168.972 168.106  1.00  0.00     0.046 A 
ATOM      4  C   UNL     1     167.963 168.402 168.117  1.00  0.00     0.003 A 
ATOM      5  C   UNL     1     167.042 169.422 168.212  1.00  0.00     0.028 A 
ATOM      6  C   UNL     1     167.799 170.590 168.253  1.00  0.00     0.083 A 
ATOM      7  N   UNL     1     169.120 170.309 168.188  1.00  0.00    -0.361 N 
ATOM      8  C   UNL     1     167.783 167.022 168.043  1.00  0.00     0.056 A 
ATOM      9  C   UNL     1     168.935 166.212 167.953  1.00  0.00     0.116 A 
ATOM     10  H   UNL     1     169.908 170.995 168.200  1.00  0.00     0.166 HD
ENDROOT
BRANCH   9  11
ATOM     11  O   UNL     1     168.819 164.826 167.875  1.00  0.00    -0.508 OA
ATOM     12  H   UNL     1     168.770 164.253 168.709  1.00  0.00     0.293 HD
ENDBRANCH   9  11
TORSDOF 1
ENDMDL
MODEL 3
REMARK VINA RESULT:    -3.974      2.589      3.605
REMARK INTER + INTRA:          -4.090
REMARK INTER:                  -4.090
REMARK INTRA:                   0.000
REMARK UNBOUND:                 0.000
REMARK SMILES Oc1ccc2[nH]ccc2c1
REMARK SMILES IDX 3 1 4 2 5 3 9 4 8 5 7 6 6 7 10 8 2 9 1 11
REMARK H PARENT 6 10 1 12
REMARK Flexibility Score: inf
ROOT
ATOM      1  C   UNL     1     168.508 170.164 168.198  1.00  0.00     0.048 A 
ATOM      2  C   UNL     1     167.109 170.302 168.243  1.00  0.00     0.030 A 
ATOM      3  C   UNL     1     166.337 169.146 168.125  1.00  0.00     0.046 A 
ATOM      4  C   UNL     1     166.909 167.913 167.968  1.00  0.00     0.003 A 
ATOM      5  C   UNL     1     165.887 166.992 167.882  1.00  0.00     0.028 A 
ATOM      6  C   UNL     1     164.717 167.738 167.993  1.00  0.00     0.083 A 
ATOM      7  N   UNL     1     164.998 169.053 168.140  1.00  0.00    -0.361 N 
ATOM      8  C   UNL     1     168.291 167.741 167.921  1.00  0.00     0.056 A 
ATOM      9  C   UNL     1     169.102 168.890 168.038  1.00  0.00     0.116 A 
ATOM     10  H   UNL     1     164.310 169.832 168.246  1.00  0.00     0.166 HD
ENDROOT
BRANCH   9  11
ATOM     11  O   UNL     1     170.489 168.783 167.997  1.00  0.00    -0.508 OA
ATOM     12  H   UNL     1     171.030 168.601 168.835  1.00  0.00     0.293 HD
ENDBRANCH   9  11
TORSDOF 1
ENDMDL
MODEL 4
REMARK VINA RESULT:    -3.974      2.322      3.356
REMARK INTER + INTRA:          -4.090
REMARK INTER:                  -4.090
REMARK INTRA:                   0.000
REMARK UNBOUND:                 0.000
REMARK SMILES Oc1ccc2[nH]ccc2c1
REMARK SMILES IDX 3 1 4 2 5 3 9 4 8 5 7 6 6 7 10 8 2 9 1 11
REMARK H PARENT 6 10 1 12
REMARK Flexibility Score: inf
ROOT
ATOM      1  C   UNL     1     164.962 166.993 168.204  1.00  0.00     0.048 A 
ATOM      2  C   UNL     1     164.959 168.396 168.320  1.00  0.00     0.030 A 
ATOM      3  C   UNL     1     166.191 169.051 168.318  1.00  0.00     0.046 A 
ATOM      4  C   UNL     1     167.370 168.364 168.209  1.00  0.00     0.003 A 
ATOM      5  C   UNL     1     168.391 169.289 168.239  1.00  0.00     0.028 A 
ATOM      6  C   UNL     1     167.758 170.522 168.370  1.00  0.00     0.083 A 
ATOM      7  N   UNL     1     166.415 170.370 168.418  1.00  0.00    -0.361 N 
ATOM      8  C   UNL     1     167.407 166.976 168.091  1.00  0.00     0.056 A 
ATOM      9  C   UNL     1     166.179 166.282 168.090  1.00  0.00     0.116 A 
ATOM     10  H   UNL     1     165.702 171.128 168.513  1.00  0.00     0.166 HD
ENDROOT
BRANCH   9  11
ATOM     11  O   UNL     1     166.151 164.895 167.976  1.00  0.00    -0.508 OA
ATOM     12  H   UNL     1     165.726 164.439 167.177  1.00  0.00     0.293 HD
ENDBRANCH   9  11
TORSDOF 1
ENDMDL
MODEL 5
REMARK VINA RESULT:    -3.966      2.218      3.216
REMARK INTER + INTRA:          -4.082
REMARK INTER:                  -4.082
REMARK INTRA:                   0.000
REMARK UNBOUND:                 0.000
REMARK SMILES Oc1ccc2[nH]ccc2c1
REMARK SMILES IDX 3 1 4 2 5 3 9 4 8 5 7 6 6 7 10 8 2 9 1 11
REMARK H PARENT 6 10 1 12
REMARK Flexibility Score: inf
ROOT
ATOM      1  C   UNL     1     170.406 168.376 168.153  1.00  0.00     0.048 A 
ATOM      2  C   UNL     1     170.480 166.974 168.254  1.00  0.00     0.030 A 
ATOM      3  C   UNL     1     169.284 166.257 168.242  1.00  0.00     0.046 A 
ATOM      4  C   UNL     1     168.071 166.883 168.137  1.00  0.00     0.003 A 
ATOM      5  C   UNL     1     167.100 165.906 168.154  1.00  0.00     0.028 A 
ATOM      6  C   UNL     1     167.795 164.706 168.275  1.00  0.00     0.083 A 
ATOM      7  N   UNL     1     169.128 164.927 168.328  1.00  0.00    -0.361 N 
ATOM      8  C   UNL     1     167.963 168.268 168.034  1.00  0.00     0.056 A 
ATOM      9  C   UNL     1     169.154 169.025 168.042  1.00  0.00     0.116 A 
ATOM     10  H   UNL     1     169.880 164.206 168.417  1.00  0.00     0.166 HD
ENDROOT
BRANCH   9  11
ATOM     11  O   UNL     1     169.110 170.413 167.943  1.00  0.00    -0.508 OA
ATOM     12  H   UNL     1     169.274 171.005 168.749  1.00  0.00     0.293 HD
ENDBRANCH   9  11
TORSDOF 1
ENDMDL
MODEL 6
REMARK VINA RESULT:    -3.937      1.599      2.871
REMARK INTER + INTRA:          -4.052
REMARK INTER:                  -4.052
REMARK INTRA:                   0.000
REMARK UNBOUND:                 0.000
REMARK SMILES Oc1ccc2[nH]ccc2c1
REMARK SMILES IDX 3 1 4 2 5 3 9 4 8 5 7 6 6 7 10 8 2 9 1 11
REMARK H PARENT 6 10 1 12
REMARK Flexibility Score: inf
ROOT
ATOM      1  C   UNL     1     165.888 166.433 168.068  1.00  0.00     0.048 A 
ATOM      2  C   UNL     1     167.250 166.764 168.194  1.00  0.00     0.030 A 
ATOM      3  C   UNL     1     167.586 168.116 168.273  1.00  0.00     0.046 A 
ATOM      4  C   UNL     1     166.633 169.097 168.231  1.00  0.00     0.003 A 
ATOM      5  C   UNL     1     167.282 170.308 168.332  1.00  0.00     0.028 A 
ATOM      6  C   UNL     1     168.633 169.987 168.431  1.00  0.00     0.083 A 
ATOM      7  N   UNL     1     168.813 168.647 168.394  1.00  0.00    -0.361 N 
ATOM      8  C   UNL     1     165.276 168.803 168.109  1.00  0.00     0.056 A 
ATOM      9  C   UNL     1     164.902 167.445 168.026  1.00  0.00     0.116 A 
ATOM     10  H   UNL     1     169.721 168.135 168.450  1.00  0.00     0.166 HD
ENDROOT
BRANCH   9  11
ATOM     11  O   UNL     1     163.561 167.088 167.901  1.00  0.00    -0.508 OA
ATOM     12  H   UNL     1     163.006 166.833 168.710  1.00  0.00     0.293 HD
ENDBRANCH   9  11
TORSDOF 1
ENDMDL
MODEL 7
REMARK VINA RESULT:    -3.921      3.113      4.641
REMARK INTER + INTRA:          -4.036
REMARK INTER:                  -4.036
REMARK INTRA:                   0.000
REMARK UNBOUND:                 0.000
REMARK SMILES Oc1ccc2[nH]ccc2c1
REMARK SMILES IDX 3 1 4 2 5 3 9 4 8 5 7 6 6 7 10 8 2 9 1 11
REMARK H PARENT 6 10 1 12
REMARK Flexibility Score: inf
ROOT
ATOM      1  C   UNL     1     168.594 164.952 168.423  1.00  0.00     0.048 A 
ATOM      2  C   UNL     1     167.199 164.938 168.611  1.00  0.00     0.030 A 
ATOM      3  C   UNL     1     166.506 166.133 168.424  1.00  0.00     0.046 A 
ATOM      4  C   UNL     1     167.148 167.289 168.070  1.00  0.00     0.003 A 
ATOM      5  C   UNL     1     166.193 168.277 167.965  1.00  0.00     0.028 A 
ATOM      6  C   UNL     1     164.988 167.649 168.271  1.00  0.00     0.083 A 
ATOM      7  N   UNL     1     165.186 166.341 168.551  1.00  0.00    -0.361 N 
ATOM      8  C   UNL     1     168.527 167.337 167.875  1.00  0.00     0.056 A 
ATOM      9  C   UNL     1     169.259 166.144 168.057  1.00  0.00     0.116 A 
ATOM     10  H   UNL     1     164.457 165.639 168.811  1.00  0.00     0.166 HD
ENDROOT
BRANCH   9  11
ATOM     11  O   UNL     1     170.640 166.129 167.877  1.00  0.00    -0.508 OA
ATOM     12  H   UNL     1     171.269 165.909 168.641  1.00  0.00     0.293 HD
ENDBRANCH   9  11
TORSDOF 1
ENDMDL
MODEL 8
REMARK VINA RESULT:    -3.908      1.553      2.187
REMARK INTER + INTRA:          -4.022
REMARK INTER:                  -4.022
REMARK INTRA:                   0.000
REMARK UNBOUND:                 0.000
REMARK SMILES Oc1ccc2[nH]ccc2c1
REMARK SMILES IDX 3 1 4 2 5 3 9 4 8 5 7 6 6 7 10 8 2 9 1 11
REMARK H PARENT 6 10 1 12
REMARK Flexibility Score: inf
ROOT
ATOM      1  C   UNL     1     166.380 169.474 168.267  1.00  0.00     0.048 A 
ATOM      2  C   UNL     1     166.625 168.095 168.403  1.00  0.00     0.030 A 
ATOM      3  C   UNL     1     167.941 167.653 168.271  1.00  0.00     0.046 A 
ATOM      4  C   UNL     1     168.969 168.520 168.016  1.00  0.00     0.003 A 
ATOM      5  C   UNL     1     170.127 167.777 167.943  1.00  0.00     0.028 A 
ATOM      6  C   UNL     1     169.728 166.462 168.162  1.00  0.00     0.083 A 
ATOM      7  N   UNL     1     168.392 166.392 168.362  1.00  0.00    -0.361 N 
ATOM      8  C   UNL     1     168.760 169.890 167.876  1.00  0.00     0.056 A 
ATOM      9  C   UNL     1     167.440 170.372 168.005  1.00  0.00     0.116 A 
ATOM     10  H   UNL     1     167.831 165.531 168.549  1.00  0.00     0.166 HD
ENDROOT
BRANCH   9  11
ATOM     11  O   UNL     1     167.168 171.731 167.875  1.00  0.00    -0.508 OA
ATOM     12  H   UNL     1     167.602 172.417 168.482  1.00  0.00     0.293 HD
ENDBRANCH   9  11
TORSDOF 1
ENDMDL
MODEL 9
REMARK VINA RESULT:    -3.902      2.433      3.236
REMARK INTER + INTRA:          -4.016
REMARK INTER:                  -4.016
REMARK INTRA:                   0.000
REMARK UNBOUND:                 0.000
REMARK SMILES Oc1ccc2[nH]ccc2c1
REMARK SMILES IDX 3 1 4 2 5 3 9 4 8 5 7 6 6 7 10 8 2 9 1 11
REMARK H PARENT 6 10 1 12
REMARK Flexibility Score: inf
ROOT
ATOM      1  C   UNL     1     165.101 168.486 168.247  1.00  0.00     0.048 A 
ATOM      2  C   UNL     1     164.954 167.086 168.236  1.00  0.00     0.030 A 
ATOM      3  C   UNL     1     166.112 166.310 168.259  1.00  0.00     0.046 A 
ATOM      4  C   UNL     1     167.358 166.877 168.289  1.00  0.00     0.003 A 
ATOM      5  C   UNL     1     168.278 165.853 168.305  1.00  0.00     0.028 A 
ATOM      6  C   UNL     1     167.521 164.685 168.282  1.00  0.00     0.083 A 
ATOM      7  N   UNL     1     166.199 164.971 168.254  1.00  0.00    -0.361 N 
ATOM      8  C   UNL     1     167.538 168.259 168.301  1.00  0.00     0.056 A 
ATOM      9  C   UNL     1     166.386 169.074 168.279  1.00  0.00     0.116 A 
ATOM     10  H   UNL     1     165.410 164.286 168.232  1.00  0.00     0.166 HD
ENDROOT
BRANCH   9  11
ATOM     11  O   UNL     1     166.502 170.462 168.288  1.00  0.00    -0.508 OA
ATOM     12  H   UNL     1     166.955 170.949 169.054  1.00  0.00     0.293 HD
ENDBRANCH   9  11
TORSDOF 1
ENDMDL
