MODEL 1
REMARK VINA RESULT:    -3.226      0.000      0.000
REMARK INTER + INTRA:         -13.212
REMARK INTER:                  -8.506
REMARK INTRA:                  -4.706
REMARK UNBOUND:                -4.706
REMARK SMILES CCCCCCCCCCCCCCCCCCCCCCCCCCCCCC(=O)[O-]
REMARK SMILES IDX 16 1 17 2 18 3 19 4 20 5 21 6 22 7 23 8 24 9 25 10 26 11
REMARK SMILES IDX 27 12 28 13 29 14 30 15 31 16 32 17 15 18 14 19 13 20 12 21
REMARK SMILES IDX 11 22 10 23 9 24 8 25 7 26 6 27 5 28 4 29 3 30 2 31 1 32
REMARK H PARENT
REMARK Flexibility Score: inf
ROOT
ATOM      1  C   UNL     1      11.616   4.135  32.215  1.00  0.00     0.000 C 
ENDROOT
BRANCH   1   2
ATOM      2  C   UNL     1      10.795   3.041  32.918  1.00  0.00     0.000 C 
BRANCH   2   3
ATOM      3  C   UNL     1       9.391   2.875  32.313  1.00  0.00     0.000 C 
BRANCH   3   4
ATOM      4  C   UNL     1       8.274   3.129  33.342  1.00  0.00     0.000 C 
BRANCH   4   5
ATOM      5  C   UNL     1       6.929   3.465  32.680  1.00  0.00     0.000 C 
BRANCH   5   6
ATOM      6  C   UNL     1       6.993   4.749  31.834  1.00  0.00     0.000 C 
BRANCH   6   7
ATOM      7  C   UNL     1       6.823   4.471  30.333  1.00  0.00     0.000 C 
BRANCH   7   8
ATOM      8  C   UNL     1       5.470   4.967  29.791  1.00  0.00     0.000 C 
BRANCH   8   9
ATOM      9  C   UNL     1       5.485   5.172  28.269  1.00  0.00     0.000 C 
BRANCH   9  10
ATOM     10  C   UNL     1       4.082   5.080  27.648  1.00  0.00     0.000 C 
BRANCH  10  11
ATOM     11  C   UNL     1       3.030   5.893  28.424  1.00  0.00     0.000 C 
BRANCH  11  12
ATOM     12  C   UNL     1       2.469   7.091  27.632  1.00  0.00     0.000 C 
BRANCH  12  13
ATOM     13  C   UNL     1       2.708   8.430  28.353  1.00  0.00     0.006 C 
BRANCH  13  14
ATOM     14  C   UNL     1       3.368   9.471  27.441  1.00  0.00     0.053 C 
BRANCH  14  15
ATOM     15  C   UNL     1       2.351  10.324  26.748  1.00  0.00     0.041 C 
ATOM     16  O   UNL     1       2.154  11.509  27.125  1.00  0.00    -0.550 OA
ATOM     17  O   UNL     1       1.593   9.798  25.709  1.00  0.00    -0.550 OA
ENDBRANCH  14  15
ENDBRANCH  13  14
ENDBRANCH  12  13
ENDBRANCH  11  12
ENDBRANCH  10  11
ENDBRANCH   9  10
ENDBRANCH   8   9
ENDBRANCH   7   8
ENDBRANCH   6   7
ENDBRANCH   5   6
ENDBRANCH   4   5
ENDBRANCH   3   4
ENDBRANCH   2   3
ENDBRANCH   1   2
BRANCH   1  18
ATOM     18  C   UNL     1      10.738   5.253  31.623  1.00  0.00     0.000 C 
BRANCH  18  19
ATOM     19  C   UNL     1      10.758   6.581  32.404  1.00  0.00     0.000 C 
BRANCH  19  20
ATOM     20  C   UNL     1       9.725   6.690  33.547  1.00  0.00     0.000 C 
BRANCH  20  21
ATOM     21  C   UNL     1      10.146   6.035  34.877  1.00  0.00     0.000 C 
BRANCH  21  22
ATOM     22  C   UNL     1       8.974   5.663  35.815  1.00  0.00     0.000 C 
BRANCH  22  23
ATOM     23  C   UNL     1       7.646   6.362  35.463  1.00  0.00     0.000 C 
BRANCH  23  24
ATOM     24  C   UNL     1       6.388   5.493  35.644  1.00  0.00    -0.000 C 
BRANCH  24  25
ATOM     25  C   UNL     1       5.095   6.075  35.034  1.00  0.00    -0.000 C 
BRANCH  25  26
ATOM     26  C   UNL     1       4.026   5.034  34.656  1.00  0.00    -0.000 C 
BRANCH  26  27
ATOM     27  C   UNL     1       3.584   5.137  33.189  1.00  0.00    -0.000 C 
BRANCH  27  28
ATOM     28  C   UNL     1       3.796   6.560  32.649  1.00  0.00    -0.000 C 
BRANCH  28  29
ATOM     29  C   UNL     1       2.562   7.083  31.885  1.00  0.00    -0.000 C 
BRANCH  29  30
ATOM     30  C   UNL     1       1.710   8.078  32.692  1.00  0.00    -0.000 C 
BRANCH  30  31
ATOM     31  C   UNL     1       2.515   9.282  33.198  1.00  0.00    -0.003 C 
ATOM     32  C   UNL     1       2.252   9.538  34.680  1.00  0.00     0.004 C 
ENDBRANCH  30  31
ENDBRANCH  29  30
ENDBRANCH  28  29
ENDBRANCH  27  28
ENDBRANCH  26  27
ENDBRANCH  25  26
ENDBRANCH  24  25
ENDBRANCH  23  24
ENDBRANCH  22  23
ENDBRANCH  21  22
ENDBRANCH  20  21
ENDBRANCH  19  20
ENDBRANCH  18  19
ENDBRANCH   1  18
TORSDOF 28
ENDMDL
MODEL 2
REMARK VINA RESULT:    -3.184     12.610     18.721
REMARK INTER + INTRA:         -13.102
REMARK INTER:                  -8.283
REMARK INTRA:                  -4.818
REMARK UNBOUND:                -4.706
REMARK SMILES CCCCCCCCCCCCCCCCCCCCCCCCCCCCCC(=O)[O-]
REMARK SMILES IDX 16 1 17 2 18 3 19 4 20 5 21 6 22 7 23 8 24 9 25 10 26 11
REMARK SMILES IDX 27 12 28 13 29 14 30 15 31 16 32 17 15 18 14 19 13 20 12 21
REMARK SMILES IDX 11 22 10 23 9 24 8 25 7 26 6 27 5 28 4 29 3 30 2 31 1 32
REMARK H PARENT
REMARK Flexibility Score: inf
ROOT
ATOM      1  C   UNL     1       5.556  20.981  24.321  1.00  0.00     0.000 C 
ENDROOT
BRANCH   1   2
ATOM      2  C   UNL     1       5.438  19.462  24.111  1.00  0.00     0.000 C 
BRANCH   2   3
ATOM      3  C   UNL     1       4.021  19.030  23.702  1.00  0.00     0.000 C 
BRANCH   3   4
ATOM      4  C   UNL     1       2.927  19.809  24.456  1.00  0.00     0.000 C 
BRANCH   4   5
ATOM      5  C   UNL     1       1.757  20.212  23.546  1.00  0.00     0.000 C 
BRANCH   5   6
ATOM      6  C   UNL     1       2.117  21.372  22.602  1.00  0.00     0.000 C 
BRANCH   6   7
ATOM      7  C   UNL     1       1.856  21.031  21.127  1.00  0.00     0.000 C 
BRANCH   7   8
ATOM      8  C   UNL     1       3.098  20.450  20.428  1.00  0.00     0.000 C 
BRANCH   8   9
ATOM      9  C   UNL     1       2.903  18.989  20.000  1.00  0.00     0.000 C 
BRANCH   9  10
ATOM     10  C   UNL     1       1.419  18.600  19.887  1.00  0.00     0.000 C 
BRANCH  10  11
ATOM     11  C   UNL     1       1.097  17.261  20.572  1.00  0.00     0.000 C 
BRANCH  11  12
ATOM     12  C   UNL     1       2.108  16.870  21.670  1.00  0.00     0.000 C 
BRANCH  12  13
ATOM     13  C   UNL     1       1.413  16.454  22.979  1.00  0.00     0.006 C 
BRANCH  13  14
ATOM     14  C   UNL     1       1.704  14.994  23.352  1.00  0.00     0.053 C 
BRANCH  14  15
ATOM     15  C   UNL     1       2.709  14.894  24.457  1.00  0.00     0.041 C 
ATOM     16  O   UNL     1       3.711  15.656  24.475  1.00  0.00    -0.550 OA
ATOM     17  O   UNL     1       2.560  13.932  25.448  1.00  0.00    -0.550 OA
ENDBRANCH  14  15
ENDBRANCH  13  14
ENDBRANCH  12  13
ENDBRANCH  11  12
ENDBRANCH  10  11
ENDBRANCH   9  10
ENDBRANCH   8   9
ENDBRANCH   7   8
ENDBRANCH   6   7
ENDBRANCH   5   6
ENDBRANCH   4   5
ENDBRANCH   3   4
ENDBRANCH   2   3
ENDBRANCH   1   2
BRANCH   1  18
ATOM     18  C   UNL     1       5.661  21.761  22.998  1.00  0.00     0.000 C 
BRANCH  18  19
ATOM     19  C   UNL     1       6.528  21.092  21.914  1.00  0.00     0.000 C 
BRANCH  19  20
ATOM     20  C   UNL     1       7.935  21.699  21.727  1.00  0.00     0.000 C 
BRANCH  20  21
ATOM     21  C   UNL     1       8.095  22.623  20.503  1.00  0.00     0.000 C 
BRANCH  21  22
ATOM     22  C   UNL     1       9.515  22.646  19.890  1.00  0.00     0.000 C 
BRANCH  22  23
ATOM     23  C   UNL     1      10.489  21.639  20.532  1.00  0.00     0.000 C 
BRANCH  23  24
ATOM     24  C   UNL     1      11.932  21.700  19.998  1.00  0.00    -0.000 C 
BRANCH  24  25
ATOM     25  C   UNL     1      12.173  22.733  18.877  1.00  0.00    -0.000 C 
BRANCH  25  26
ATOM     26  C   UNL     1      12.628  22.141  17.531  1.00  0.00    -0.000 C 
BRANCH  26  27
ATOM     27  C   UNL     1      11.522  22.156  16.467  1.00  0.00    -0.000 C 
BRANCH  27  28
ATOM     28  C   UNL     1      11.168  20.729  16.021  1.00  0.00    -0.000 C 
BRANCH  28  29
ATOM     29  C   UNL     1      10.449  19.932  17.129  1.00  0.00    -0.000 C 
BRANCH  29  30
ATOM     30  C   UNL     1       8.921  20.100  17.121  1.00  0.00    -0.000 C 
BRANCH  30  31
ATOM     31  C   UNL     1       8.247  19.517  18.370  1.00  0.00    -0.003 C 
ATOM     32  C   UNL     1       6.762  19.867  18.412  1.00  0.00     0.004 C 
ENDBRANCH  30  31
ENDBRANCH  29  30
ENDBRANCH  28  29
ENDBRANCH  27  28
ENDBRANCH  26  27
ENDBRANCH  25  26
ENDBRANCH  24  25
ENDBRANCH  23  24
ENDBRANCH  22  23
ENDBRANCH  21  22
ENDBRANCH  20  21
ENDBRANCH  19  20
ENDBRANCH  18  19
ENDBRANCH   1  18
TORSDOF 28
ENDMDL
MODEL 3
REMARK VINA RESULT:    -3.114      7.138     13.665
REMARK INTER + INTRA:         -12.916
REMARK INTER:                  -9.057
REMARK INTRA:                  -3.858
REMARK UNBOUND:                -4.706
REMARK SMILES CCCCCCCCCCCCCCCCCCCCCCCCCCCCCC(=O)[O-]
REMARK SMILES IDX 16 1 17 2 18 3 19 4 20 5 21 6 22 7 23 8 24 9 25 10 26 11
REMARK SMILES IDX 27 12 28 13 29 14 30 15 31 16 32 17 15 18 14 19 13 20 12 21
REMARK SMILES IDX 11 22 10 23 9 24 8 25 7 26 6 27 5 28 4 29 3 30 2 31 1 32
REMARK H PARENT
REMARK Flexibility Score: inf
ROOT
ATOM      1  C   UNL     1      -0.010  12.232  20.724  1.00  0.00     0.000 C 
ENDROOT
BRANCH   1   2
ATOM      2  C   UNL     1       0.242  12.974  19.400  1.00  0.00     0.000 C 
BRANCH   2   3
ATOM      3  C   UNL     1      -0.066  12.107  18.169  1.00  0.00     0.000 C 
BRANCH   3   4
ATOM      4  C   UNL     1       1.010  12.237  17.074  1.00  0.00     0.000 C 
BRANCH   4   5
ATOM      5  C   UNL     1       0.644  13.284  16.011  1.00  0.00     0.000 C 
BRANCH   5   6
ATOM      6  C   UNL     1       1.589  14.498  16.030  1.00  0.00     0.000 C 
BRANCH   6   7
ATOM      7  C   UNL     1       2.680  14.376  17.104  1.00  0.00     0.000 C 
BRANCH   7   8
ATOM      8  C   UNL     1       2.765  15.623  18.002  1.00  0.00     0.000 C 
BRANCH   8   9
ATOM      9  C   UNL     1       1.402  16.305  18.192  1.00  0.00     0.000 C 
BRANCH   9  10
ATOM     10  C   UNL     1       1.305  17.068  19.523  1.00  0.00     0.000 C 
BRANCH  10  11
ATOM     11  C   UNL     1       1.674  16.200  20.739  1.00  0.00     0.000 C 
BRANCH  11  12
ATOM     12  C   UNL     1       0.679  16.326  21.911  1.00  0.00     0.000 C 
BRANCH  12  13
ATOM     13  C   UNL     1       1.162  17.325  22.979  1.00  0.00     0.006 C 
BRANCH  13  14
ATOM     14  C   UNL     1       2.691  17.368  23.084  1.00  0.00     0.053 C 
BRANCH  14  15
ATOM     15  C   UNL     1       3.157  18.520  23.921  1.00  0.00     0.041 C 
ATOM     16  O   UNL     1       2.327  19.353  24.371  1.00  0.00    -0.550 OA
ATOM     17  O   UNL     1       4.512  18.694  24.172  1.00  0.00    -0.550 OA
ENDBRANCH  14  15
ENDBRANCH  13  14
ENDBRANCH  12  13
ENDBRANCH  11  12
ENDBRANCH  10  11
ENDBRANCH   9  10
ENDBRANCH   8   9
ENDBRANCH   7   8
ENDBRANCH   6   7
ENDBRANCH   5   6
ENDBRANCH   4   5
ENDBRANCH   3   4
ENDBRANCH   2   3
ENDBRANCH   1   2
BRANCH   1  18
ATOM     18  C   UNL     1       0.989  12.625  21.828  1.00  0.00     0.000 C 
BRANCH  18  19
ATOM     19  C   UNL     1       0.525  12.323  23.266  1.00  0.00     0.000 C 
BRANCH  19  20
ATOM     20  C   UNL     1       0.633  13.502  24.256  1.00  0.00     0.000 C 
BRANCH  20  21
ATOM     21  C   UNL     1       2.067  13.990  24.543  1.00  0.00     0.000 C 
BRANCH  21  22
ATOM     22  C   UNL     1       2.205  14.900  25.786  1.00  0.00     0.000 C 
BRANCH  22  23
ATOM     23  C   UNL     1       0.985  14.862  26.726  1.00  0.00     0.000 C 
BRANCH  23  24
ATOM     24  C   UNL     1       1.311  14.564  28.201  1.00  0.00    -0.000 C 
BRANCH  24  25
ATOM     25  C   UNL     1       1.028  13.117  28.657  1.00  0.00    -0.000 C 
BRANCH  25  26
ATOM     26  C   UNL     1       1.592  12.021  27.735  1.00  0.00    -0.000 C 
BRANCH  26  27
ATOM     27  C   UNL     1       0.498  11.134  27.124  1.00  0.00    -0.000 C 
BRANCH  27  28
ATOM     28  C   UNL     1       0.911   9.654  27.153  1.00  0.00    -0.000 C 
BRANCH  28  29
ATOM     29  C   UNL     1       2.321   9.452  27.744  1.00  0.00    -0.000 C 
BRANCH  29  30
ATOM     30  C   UNL     1       2.330   8.685  29.077  1.00  0.00    -0.000 C 
BRANCH  30  31
ATOM     31  C   UNL     1       2.568   7.180  28.899  1.00  0.00    -0.003 C 
ATOM     32  C   UNL     1       3.531   6.905  27.747  1.00  0.00     0.004 C 
ENDBRANCH  30  31
ENDBRANCH  29  30
ENDBRANCH  28  29
ENDBRANCH  27  28
ENDBRANCH  26  27
ENDBRANCH  25  26
ENDBRANCH  24  25
ENDBRANCH  23  24
ENDBRANCH  22  23
ENDBRANCH  21  22
ENDBRANCH  20  21
ENDBRANCH  19  20
ENDBRANCH  18  19
ENDBRANCH   1  18
TORSDOF 28
ENDMDL
MODEL 4
REMARK VINA RESULT:    -3.106      1.463      2.247
REMARK INTER + INTRA:         -12.895
REMARK INTER:                  -9.081
REMARK INTRA:                  -3.814
REMARK UNBOUND:                -4.706
REMARK SMILES CCCCCCCCCCCCCCCCCCCCCCCCCCCCCC(=O)[O-]
REMARK SMILES IDX 16 1 17 2 18 3 19 4 20 5 21 6 22 7 23 8 24 9 25 10 26 11
REMARK SMILES IDX 27 12 28 13 29 14 30 15 31 16 32 17 15 18 14 19 13 20 12 21
REMARK SMILES IDX 11 22 10 23 9 24 8 25 7 26 6 27 5 28 4 29 3 30 2 31 1 32
REMARK H PARENT
REMARK Flexibility Score: inf
ROOT
ATOM      1  C   UNL     1      11.851   4.024  32.977  1.00  0.00     0.000 C 
ENDROOT
BRANCH   1   2
ATOM      2  C   UNL     1      12.277   3.208  31.745  1.00  0.00     0.000 C 
BRANCH   2   3
ATOM      3  C   UNL     1      11.758   3.810  30.430  1.00  0.00     0.000 C 
BRANCH   3   4
ATOM      4  C   UNL     1      10.565   4.758  30.647  1.00  0.00     0.000 C 
BRANCH   4   5
ATOM      5  C   UNL     1       9.346   4.377  29.794  1.00  0.00     0.000 C 
BRANCH   5   6
ATOM      6  C   UNL     1       8.517   3.244  30.424  1.00  0.00     0.000 C 
BRANCH   6   7
ATOM      7  C   UNL     1       7.025   3.340  30.067  1.00  0.00     0.000 C 
BRANCH   7   8
ATOM      8  C   UNL     1       6.731   4.471  29.066  1.00  0.00     0.000 C 
BRANCH   8   9
ATOM      9  C   UNL     1       5.265   4.483  28.607  1.00  0.00     0.000 C 
BRANCH   9  10
ATOM     10  C   UNL     1       4.857   5.824  27.973  1.00  0.00     0.000 C 
BRANCH  10  11
ATOM     11  C   UNL     1       3.427   5.807  27.406  1.00  0.00     0.000 C 
BRANCH  11  12
ATOM     12  C   UNL     1       2.375   6.396  28.368  1.00  0.00     0.000 C 
BRANCH  12  13
ATOM     13  C   UNL     1       1.912   7.800  27.936  1.00  0.00     0.006 C 
BRANCH  13  14
ATOM     14  C   UNL     1       2.981   8.869  28.196  1.00  0.00     0.053 C 
BRANCH  14  15
ATOM     15  C   UNL     1       2.714  10.120  27.419  1.00  0.00     0.041 C 
ATOM     16  O   UNL     1       3.292  10.320  26.319  1.00  0.00    -0.550 OA
ATOM     17  O   UNL     1       1.853  11.085  27.928  1.00  0.00    -0.550 OA
ENDBRANCH  14  15
ENDBRANCH  13  14
ENDBRANCH  12  13
ENDBRANCH  11  12
ENDBRANCH  10  11
ENDBRANCH   9  10
ENDBRANCH   8   9
ENDBRANCH   7   8
ENDBRANCH   6   7
ENDBRANCH   5   6
ENDBRANCH   4   5
ENDBRANCH   3   4
ENDBRANCH   2   3
ENDBRANCH   1   2
BRANCH   1  18
ATOM     18  C   UNL     1      11.872   3.198  34.277  1.00  0.00     0.000 C 
BRANCH  18  19
ATOM     19  C   UNL     1      12.442   3.931  35.507  1.00  0.00     0.000 C 
BRANCH  19  20
ATOM     20  C   UNL     1      11.517   5.001  36.125  1.00  0.00     0.000 C 
BRANCH  20  21
ATOM     21  C   UNL     1      10.014   4.656  36.115  1.00  0.00     0.000 C 
BRANCH  21  22
ATOM     22  C   UNL     1       9.090   5.801  35.640  1.00  0.00     0.000 C 
BRANCH  22  23
ATOM     23  C   UNL     1       9.292   6.195  34.163  1.00  0.00     0.000 C 
BRANCH  23  24
ATOM     24  C   UNL     1       8.090   5.906  33.245  1.00  0.00    -0.000 C 
BRANCH  24  25
ATOM     25  C   UNL     1       7.257   4.663  33.625  1.00  0.00    -0.000 C 
BRANCH  25  26
ATOM     26  C   UNL     1       5.737   4.814  33.437  1.00  0.00    -0.000 C 
BRANCH  26  27
ATOM     27  C   UNL     1       5.369   5.723  32.255  1.00  0.00    -0.000 C 
BRANCH  27  28
ATOM     28  C   UNL     1       3.933   5.454  31.781  1.00  0.00    -0.000 C 
BRANCH  28  29
ATOM     29  C   UNL     1       2.973   6.607  32.142  1.00  0.00    -0.000 C 
BRANCH  29  30
ATOM     30  C   UNL     1       3.318   7.307  33.467  1.00  0.00    -0.000 C 
BRANCH  30  31
ATOM     31  C   UNL     1       2.662   8.688  33.602  1.00  0.00    -0.003 C 
ATOM     32  C   UNL     1       1.175   8.629  33.261  1.00  0.00     0.004 C 
ENDBRANCH  30  31
ENDBRANCH  29  30
ENDBRANCH  28  29
ENDBRANCH  27  28
ENDBRANCH  26  27
ENDBRANCH  25  26
ENDBRANCH  24  25
ENDBRANCH  23  24
ENDBRANCH  22  23
ENDBRANCH  21  22
ENDBRANCH  20  21
ENDBRANCH  19  20
ENDBRANCH  18  19
ENDBRANCH   1  18
TORSDOF 28
ENDMDL
MODEL 5
REMARK VINA RESULT:    -3.086      2.398      7.301
REMARK INTER + INTRA:         -12.843
REMARK INTER:                  -8.757
REMARK INTRA:                  -4.085
REMARK UNBOUND:                -4.706
REMARK SMILES CCCCCCCCCCCCCCCCCCCCCCCCCCCCCC(=O)[O-]
REMARK SMILES IDX 16 1 17 2 18 3 19 4 20 5 21 6 22 7 23 8 24 9 25 10 26 11
REMARK SMILES IDX 27 12 28 13 29 14 30 15 31 16 32 17 15 18 14 19 13 20 12 21
REMARK SMILES IDX 11 22 10 23 9 24 8 25 7 26 6 27 5 28 4 29 3 30 2 31 1 32
REMARK H PARENT
REMARK Flexibility Score: inf
ROOT
ATOM      1  C   UNL     1       5.073   5.710  27.846  1.00  0.00     0.000 C 
ENDROOT
BRANCH   1   2
ATOM      2  C   UNL     1       3.773   6.196  28.509  1.00  0.00     0.000 C 
BRANCH   2   3
ATOM      3  C   UNL     1       3.145   7.390  27.772  1.00  0.00     0.000 C 
BRANCH   3   4
ATOM      4  C   UNL     1       1.635   7.520  28.043  1.00  0.00     0.000 C 
BRANCH   4   5
ATOM      5  C   UNL     1       1.222   6.905  29.388  1.00  0.00     0.000 C 
BRANCH   5   6
ATOM      6  C   UNL     1       0.854   7.971  30.435  1.00  0.00     0.000 C 
BRANCH   6   7
ATOM      7  C   UNL     1       1.937   8.134  31.513  1.00  0.00     0.000 C 
BRANCH   7   8
ATOM      8  C   UNL     1       2.195   6.832  32.291  1.00  0.00     0.000 C 
BRANCH   8   9
ATOM      9  C   UNL     1       3.679   6.635  32.631  1.00  0.00     0.000 C 
BRANCH   9  10
ATOM     10  C   UNL     1       3.922   6.477  34.141  1.00  0.00     0.000 C 
BRANCH  10  11
ATOM     11  C   UNL     1       2.902   7.251  34.995  1.00  0.00     0.000 C 
BRANCH  11  12
ATOM     12  C   UNL     1       3.482   8.520  35.651  1.00  0.00     0.000 C 
BRANCH  12  13
ATOM     13  C   UNL     1       2.421   9.621  35.829  1.00  0.00     0.006 C 
BRANCH  13  14
ATOM     14  C   UNL     1       1.949  10.195  34.487  1.00  0.00     0.053 C 
BRANCH  14  15
ATOM     15  C   UNL     1       2.378  11.619  34.313  1.00  0.00     0.041 C 
ATOM     16  O   UNL     1       3.559  11.890  33.972  1.00  0.00    -0.550 OA
ATOM     17  O   UNL     1       1.481  12.651  34.565  1.00  0.00    -0.550 OA
ENDBRANCH  14  15
ENDBRANCH  13  14
ENDBRANCH  12  13
ENDBRANCH  11  12
ENDBRANCH  10  11
ENDBRANCH   9  10
ENDBRANCH   8   9
ENDBRANCH   7   8
ENDBRANCH   6   7
ENDBRANCH   5   6
ENDBRANCH   4   5
ENDBRANCH   3   4
ENDBRANCH   2   3
ENDBRANCH   1   2
BRANCH   1  18
ATOM     18  C   UNL     1       5.860   4.723  28.728  1.00  0.00     0.000 C 
BRANCH  18  19
ATOM     19  C   UNL     1       5.775   4.991  30.243  1.00  0.00     0.000 C 
BRANCH  19  20
ATOM     20  C   UNL     1       6.112   3.785  31.147  1.00  0.00     0.000 C 
BRANCH  20  21
ATOM     21  C   UNL     1       6.672   4.143  32.538  1.00  0.00     0.000 C 
BRANCH  21  22
ATOM     22  C   UNL     1       7.204   5.590  32.669  1.00  0.00     0.000 C 
BRANCH  22  23
ATOM     23  C   UNL     1       7.786   5.918  34.057  1.00  0.00     0.000 C 
BRANCH  23  24
ATOM     24  C   UNL     1       9.055   6.791  34.039  1.00  0.00    -0.000 C 
BRANCH  24  25
ATOM     25  C   UNL     1      10.308   6.139  34.662  1.00  0.00    -0.000 C 
BRANCH  25  26
ATOM     26  C   UNL     1      10.025   4.982  35.636  1.00  0.00    -0.000 C 
BRANCH  26  27
ATOM     27  C   UNL     1      10.726   3.677  35.232  1.00  0.00    -0.000 C 
BRANCH  27  28
ATOM     28  C   UNL     1      11.765   3.929  34.129  1.00  0.00    -0.000 C 
BRANCH  28  29
ATOM     29  C   UNL     1      11.442   3.153  32.835  1.00  0.00    -0.000 C 
BRANCH  29  30
ATOM     30  C   UNL     1      11.803   3.916  31.549  1.00  0.00    -0.000 C 
BRANCH  30  31
ATOM     31  C   UNL     1      10.749   4.960  31.157  1.00  0.00    -0.003 C 
ATOM     32  C   UNL     1       9.689   4.356  30.238  1.00  0.00     0.004 C 
ENDBRANCH  30  31
ENDBRANCH  29  30
ENDBRANCH  28  29
ENDBRANCH  27  28
ENDBRANCH  26  27
ENDBRANCH  25  26
ENDBRANCH  24  25
ENDBRANCH  23  24
ENDBRANCH  22  23
ENDBRANCH  21  22
ENDBRANCH  20  21
ENDBRANCH  19  20
ENDBRANCH  18  19
ENDBRANCH   1  18
TORSDOF 28
ENDMDL
MODEL 6
REMARK VINA RESULT:    -3.054      2.377      6.262
REMARK INTER + INTRA:         -12.757
REMARK INTER:                  -8.038
REMARK INTRA:                  -4.720
REMARK UNBOUND:                -4.706
REMARK SMILES CCCCCCCCCCCCCCCCCCCCCCCCCCCCCC(=O)[O-]
REMARK SMILES IDX 16 1 17 2 18 3 19 4 20 5 21 6 22 7 23 8 24 9 25 10 26 11
REMARK SMILES IDX 27 12 28 13 29 14 30 15 31 16 32 17 15 18 14 19 13 20 12 21
REMARK SMILES IDX 11 22 10 23 9 24 8 25 7 26 6 27 5 28 4 29 3 30 2 31 1 32
REMARK H PARENT
REMARK Flexibility Score: inf
ROOT
ATOM      1  C   UNL     1      10.282   3.519  30.431  1.00  0.00     0.000 C 
ENDROOT
BRANCH   1   2
ATOM      2  C   UNL     1      11.218   4.637  30.922  1.00  0.00     0.000 C 
BRANCH   2   3
ATOM      3  C   UNL     1      10.888   5.099  32.350  1.00  0.00     0.000 C 
BRANCH   3   4
ATOM      4  C   UNL     1      10.652   6.618  32.438  1.00  0.00     0.000 C 
BRANCH   4   5
ATOM      5  C   UNL     1      10.060   7.046  33.789  1.00  0.00     0.000 C 
BRANCH   5   6
ATOM      6  C   UNL     1       8.582   6.645  33.938  1.00  0.00     0.000 C 
BRANCH   6   7
ATOM      7  C   UNL     1       8.381   5.513  34.956  1.00  0.00     0.000 C 
BRANCH   7   8
ATOM      8  C   UNL     1       7.099   5.690  35.789  1.00  0.00     0.000 C 
BRANCH   8   9
ATOM      9  C   UNL     1       5.921   6.208  34.951  1.00  0.00     0.000 C 
BRANCH   9  10
ATOM     10  C   UNL     1       4.630   5.408  35.191  1.00  0.00     0.000 C 
BRANCH  10  11
ATOM     11  C   UNL     1       3.357   6.240  34.955  1.00  0.00     0.000 C 
BRANCH  11  12
ATOM     12  C   UNL     1       3.640   7.681  34.486  1.00  0.00     0.000 C 
BRANCH  12  13
ATOM     13  C   UNL     1       3.400   8.715  35.601  1.00  0.00     0.006 C 
BRANCH  13  14
ATOM     14  C   UNL     1       2.219   9.643  35.288  1.00  0.00     0.053 C 
BRANCH  14  15
ATOM     15  C   UNL     1       2.453  10.435  34.039  1.00  0.00     0.041 C 
ATOM     16  O   UNL     1       1.697  10.288  33.044  1.00  0.00    -0.550 OA
ATOM     17  O   UNL     1       3.531  11.308  33.961  1.00  0.00    -0.550 OA
ENDBRANCH  14  15
ENDBRANCH  13  14
ENDBRANCH  12  13
ENDBRANCH  11  12
ENDBRANCH  10  11
ENDBRANCH   9  10
ENDBRANCH   8   9
ENDBRANCH   7   8
ENDBRANCH   6   7
ENDBRANCH   5   6
ENDBRANCH   4   5
ENDBRANCH   3   4
ENDBRANCH   2   3
ENDBRANCH   1   2
BRANCH   1  18
ATOM     18  C   UNL     1       8.856   4.020  30.137  1.00  0.00     0.000 C 
BRANCH  18  19
ATOM     19  C   UNL     1       7.783   3.560  31.142  1.00  0.00     0.000 C 
BRANCH  19  20
ATOM     20  C   UNL     1       6.843   4.671  31.659  1.00  0.00     0.000 C 
BRANCH  20  21
ATOM     21  C   UNL     1       5.353   4.284  31.744  1.00  0.00     0.000 C 
BRANCH  21  22
ATOM     22  C   UNL     1       4.367   5.436  31.443  1.00  0.00     0.000 C 
BRANCH  22  23
ATOM     23  C   UNL     1       2.883   5.028  31.528  1.00  0.00     0.000 C 
BRANCH  23  24
ATOM     24  C   UNL     1       1.912   5.947  30.765  1.00  0.00    -0.000 C 
BRANCH  24  25
ATOM     25  C   UNL     1       2.480   6.576  29.474  1.00  0.00    -0.000 C 
BRANCH  25  26
ATOM     26  C   UNL     1       2.024   5.904  28.167  1.00  0.00    -0.000 C 
BRANCH  26  27
ATOM     27  C   UNL     1       3.194   5.559  27.234  1.00  0.00    -0.000 C 
BRANCH  27  28
ATOM     28  C   UNL     1       4.456   6.345  27.619  1.00  0.00    -0.000 C 
BRANCH  28  29
ATOM     29  C   UNL     1       5.592   5.422  28.108  1.00  0.00    -0.000 C 
BRANCH  29  30
ATOM     30  C   UNL     1       5.225   3.929  28.096  1.00  0.00    -0.000 C 
BRANCH  30  31
ATOM     31  C   UNL     1       6.368   3.036  27.595  1.00  0.00    -0.003 C 
ATOM     32  C   UNL     1       6.636   3.263  26.110  1.00  0.00     0.004 C 
ENDBRANCH  30  31
ENDBRANCH  29  30
ENDBRANCH  28  29
ENDBRANCH  27  28
ENDBRANCH  26  27
ENDBRANCH  25  26
ENDBRANCH  24  25
ENDBRANCH  23  24
ENDBRANCH  22  23
ENDBRANCH  21  22
ENDBRANCH  20  21
ENDBRANCH  19  20
ENDBRANCH  18  19
ENDBRANCH   1  18
TORSDOF 28
ENDMDL
MODEL 7
REMARK VINA RESULT:    -3.044      8.119     15.757
REMARK INTER + INTRA:         -12.731
REMARK INTER:                  -8.049
REMARK INTRA:                  -4.682
REMARK UNBOUND:                -4.706
REMARK SMILES CCCCCCCCCCCCCCCCCCCCCCCCCCCCCC(=O)[O-]
REMARK SMILES IDX 16 1 17 2 18 3 19 4 20 5 21 6 22 7 23 8 24 9 25 10 26 11
REMARK SMILES IDX 27 12 28 13 29 14 30 15 31 16 32 17 15 18 14 19 13 20 12 21
REMARK SMILES IDX 11 22 10 23 9 24 8 25 7 26 6 27 5 28 4 29 3 30 2 31 1 32
REMARK H PARENT
REMARK Flexibility Score: inf
ROOT
ATOM      1  C   UNL     1       1.563  16.002  22.110  1.00  0.00     0.000 C 
ENDROOT
BRANCH   1   2
ATOM      2  C   UNL     1       2.567  16.909  22.841  1.00  0.00     0.000 C 
BRANCH   2   3
ATOM      3  C   UNL     1       1.953  17.601  24.069  1.00  0.00     0.000 C 
BRANCH   3   4
ATOM      4  C   UNL     1       0.491  17.183  24.310  1.00  0.00     0.000 C 
BRANCH   4   5
ATOM      5  C   UNL     1       0.285  16.524  25.683  1.00  0.00     0.000 C 
BRANCH   5   6
ATOM      6  C   UNL     1       0.231  14.989  25.598  1.00  0.00     0.000 C 
BRANCH   6   7
ATOM      7  C   UNL     1       1.594  14.338  25.879  1.00  0.00     0.000 C 
BRANCH   7   8
ATOM      8  C   UNL     1       2.102  13.499  24.693  1.00  0.00     0.000 C 
BRANCH   8   9
ATOM      9  C   UNL     1       0.963  13.020  23.781  1.00  0.00     0.000 C 
BRANCH   9  10
ATOM     10  C   UNL     1       1.257  11.654  23.139  1.00  0.00     0.000 C 
BRANCH  10  11
ATOM     11  C   UNL     1       1.959  10.679  24.100  1.00  0.00     0.000 C 
BRANCH  11  12
ATOM     12  C   UNL     1       0.987   9.752  24.858  1.00  0.00     0.000 C 
BRANCH  12  13
ATOM     13  C   UNL     1       0.764  10.206  26.313  1.00  0.00     0.006 C 
BRANCH  13  14
ATOM     14  C   UNL     1       2.060  10.690  26.974  1.00  0.00     0.053 C 
BRANCH  14  15
ATOM     15  C   UNL     1       2.706   9.609  27.785  1.00  0.00     0.041 C 
ATOM     16  O   UNL     1       2.404   9.458  28.997  1.00  0.00    -0.550 OA
ATOM     17  O   UNL     1       3.672   8.792  27.210  1.00  0.00    -0.550 OA
ENDBRANCH  14  15
ENDBRANCH  13  14
ENDBRANCH  12  13
ENDBRANCH  11  12
ENDBRANCH  10  11
ENDBRANCH   9  10
ENDBRANCH   8   9
ENDBRANCH   7   8
ENDBRANCH   6   7
ENDBRANCH   5   6
ENDBRANCH   4   5
ENDBRANCH   3   4
ENDBRANCH   2   3
ENDBRANCH   1   2
BRANCH   1  18
ATOM     18  C   UNL     1       1.589  16.192  20.582  1.00  0.00     0.000 C 
BRANCH  18  19
ATOM     19  C   UNL     1       0.285  15.810  19.855  1.00  0.00     0.000 C 
BRANCH  19  20
ATOM     20  C   UNL     1      -0.049  14.303  19.846  1.00  0.00     0.000 C 
BRANCH  20  21
ATOM     21  C   UNL     1      -0.111  13.652  18.449  1.00  0.00     0.000 C 
BRANCH  21  22
ATOM     22  C   UNL     1       1.088  12.738  18.108  1.00  0.00     0.000 C 
BRANCH  22  23
ATOM     23  C   UNL     1       2.007  13.299  17.005  1.00  0.00     0.000 C 
BRANCH  23  24
ATOM     24  C   UNL     1       2.849  14.520  17.420  1.00  0.00    -0.000 C 
BRANCH  24  25
ATOM     25  C   UNL     1       2.398  15.866  16.814  1.00  0.00    -0.000 C 
BRANCH  25  26
ATOM     26  C   UNL     1       3.536  16.757  16.286  1.00  0.00    -0.000 C 
BRANCH  26  27
ATOM     27  C   UNL     1       3.418  18.216  16.752  1.00  0.00    -0.000 C 
BRANCH  27  28
ATOM     28  C   UNL     1       3.459  18.309  18.285  1.00  0.00    -0.000 C 
BRANCH  28  29
ATOM     29  C   UNL     1       2.452  19.340  18.835  1.00  0.00    -0.000 C 
BRANCH  29  30
ATOM     30  C   UNL     1       2.603  19.611  20.341  1.00  0.00    -0.000 C 
BRANCH  30  31
ATOM     31  C   UNL     1       1.456  20.453  20.915  1.00  0.00    -0.003 C 
ATOM     32  C   UNL     1       0.281  19.573  21.336  1.00  0.00     0.004 C 
ENDBRANCH  30  31
ENDBRANCH  29  30
ENDBRANCH  28  29
ENDBRANCH  27  28
ENDBRANCH  26  27
ENDBRANCH  25  26
ENDBRANCH  24  25
ENDBRANCH  23  24
ENDBRANCH  22  23
ENDBRANCH  21  22
ENDBRANCH  20  21
ENDBRANCH  19  20
ENDBRANCH  18  19
ENDBRANCH   1  18
TORSDOF 28
ENDMDL
MODEL 8
REMARK VINA RESULT:    -3.009     13.450     19.719
REMARK INTER + INTRA:         -12.639
REMARK INTER:                  -7.646
REMARK INTRA:                  -4.992
REMARK UNBOUND:                -4.706
REMARK SMILES CCCCCCCCCCCCCCCCCCCCCCCCCCCCCC(=O)[O-]
REMARK SMILES IDX 16 1 17 2 18 3 19 4 20 5 21 6 22 7 23 8 24 9 25 10 26 11
REMARK SMILES IDX 27 12 28 13 29 14 30 15 31 16 32 17 15 18 14 19 13 20 12 21
REMARK SMILES IDX 11 22 10 23 9 24 8 25 7 26 6 27 5 28 4 29 3 30 2 31 1 32
REMARK H PARENT
REMARK Flexibility Score: inf
ROOT
ATOM      1  C   UNL     1       7.974  21.354  20.557  1.00  0.00     0.000 C 
ENDROOT
BRANCH   1   2
ATOM      2  C   UNL     1       7.071  21.486  21.794  1.00  0.00     0.000 C 
BRANCH   2   3
ATOM      3  C   UNL     1       5.663  21.996  21.447  1.00  0.00     0.000 C 
BRANCH   3   4
ATOM      4  C   UNL     1       4.578  20.927  21.672  1.00  0.00     0.000 C 
BRANCH   4   5
ATOM      5  C   UNL     1       4.256  20.136  20.395  1.00  0.00     0.000 C 
BRANCH   5   6
ATOM      6  C   UNL     1       3.173  20.814  19.538  1.00  0.00     0.000 C 
BRANCH   6   7
ATOM      7  C   UNL     1       2.582  19.867  18.482  1.00  0.00     0.000 C 
BRANCH   7   8
ATOM      8  C   UNL     1       3.258  18.484  18.487  1.00  0.00     0.000 C 
BRANCH   8   9
ATOM      9  C   UNL     1       2.251  17.338  18.665  1.00  0.00     0.000 C 
BRANCH   9  10
ATOM     10  C   UNL     1       0.959  17.793  19.365  1.00  0.00     0.000 C 
BRANCH  10  11
ATOM     11  C   UNL     1       0.782  17.165  20.759  1.00  0.00     0.000 C 
BRANCH  11  12
ATOM     12  C   UNL     1       2.111  16.749  21.422  1.00  0.00     0.000 C 
BRANCH  12  13
ATOM     13  C   UNL     1       2.403  17.557  22.699  1.00  0.00     0.006 C 
BRANCH  13  14
ATOM     14  C   UNL     1       3.192  16.744  23.733  1.00  0.00     0.053 C 
BRANCH  14  15
ATOM     15  C   UNL     1       2.311  15.790  24.478  1.00  0.00     0.041 C 
ATOM     16  O   UNL     1       2.545  14.553  24.446  1.00  0.00    -0.550 OA
ATOM     17  O   UNL     1       1.208  16.263  25.177  1.00  0.00    -0.550 OA
ENDBRANCH  14  15
ENDBRANCH  13  14
ENDBRANCH  12  13
ENDBRANCH  11  12
ENDBRANCH  10  11
ENDBRANCH   9  10
ENDBRANCH   8   9
ENDBRANCH   7   8
ENDBRANCH   6   7
ENDBRANCH   5   6
ENDBRANCH   4   5
ENDBRANCH   3   4
ENDBRANCH   2   3
ENDBRANCH   1   2
BRANCH   1  18
ATOM     18  C   UNL     1       7.969  22.617  19.676  1.00  0.00     0.000 C 
BRANCH  18  19
ATOM     19  C   UNL     1       7.824  22.358  18.164  1.00  0.00     0.000 C 
BRANCH  19  20
ATOM     20  C   UNL     1       6.404  22.562  17.593  1.00  0.00     0.000 C 
BRANCH  20  21
ATOM     21  C   UNL     1       5.768  21.312  16.952  1.00  0.00     0.000 C 
BRANCH  21  22
ATOM     22  C   UNL     1       6.412  19.971  17.371  1.00  0.00     0.000 C 
BRANCH  22  23
ATOM     23  C   UNL     1       6.976  19.153  16.193  1.00  0.00     0.000 C 
BRANCH  23  24
ATOM     24  C   UNL     1       8.492  19.303  15.965  1.00  0.00    -0.000 C 
BRANCH  24  25
ATOM     25  C   UNL     1       9.351  19.307  17.247  1.00  0.00    -0.000 C 
BRANCH  25  26
ATOM     26  C   UNL     1      10.816  19.733  17.048  1.00  0.00    -0.000 C 
BRANCH  26  27
ATOM     27  C   UNL     1      10.954  21.099  16.359  1.00  0.00    -0.000 C 
BRANCH  27  28
ATOM     28  C   UNL     1      12.423  21.545  16.311  1.00  0.00    -0.000 C 
BRANCH  28  29
ATOM     29  C   UNL     1      12.768  22.541  17.438  1.00  0.00    -0.000 C 
BRANCH  29  30
ATOM     30  C   UNL     1      11.537  23.080  18.186  1.00  0.00    -0.000 C 
BRANCH  30  31
ATOM     31  C   UNL     1      11.676  22.987  19.711  1.00  0.00    -0.003 C 
ATOM     32  C   UNL     1      11.738  21.532  20.172  1.00  0.00     0.004 C 
ENDBRANCH  30  31
ENDBRANCH  29  30
ENDBRANCH  28  29
ENDBRANCH  27  28
ENDBRANCH  26  27
ENDBRANCH  25  26
ENDBRANCH  24  25
ENDBRANCH  23  24
ENDBRANCH  22  23
ENDBRANCH  21  22
ENDBRANCH  20  21
ENDBRANCH  19  20
ENDBRANCH  18  19
ENDBRANCH   1  18
TORSDOF 28
ENDMDL
MODEL 9
REMARK VINA RESULT:    -3.004      3.309      7.961
REMARK INTER + INTRA:         -12.627
REMARK INTER:                  -6.794
REMARK INTRA:                  -5.834
REMARK UNBOUND:                -4.706
REMARK SMILES CCCCCCCCCCCCCCCCCCCCCCCCCCCCCC(=O)[O-]
REMARK SMILES IDX 16 1 17 2 18 3 19 4 20 5 21 6 22 7 23 8 24 9 25 10 26 11
REMARK SMILES IDX 27 12 28 13 29 14 30 15 31 16 32 17 15 18 14 19 13 20 12 21
REMARK SMILES IDX 11 22 10 23 9 24 8 25 7 26 6 27 5 28 4 29 3 30 2 31 1 32
REMARK H PARENT
REMARK Flexibility Score: inf
ROOT
ATOM      1  C   UNL     1       2.900   4.595  31.471  1.00  0.00     0.000 C 
ENDROOT
BRANCH   1   2
ATOM      2  C   UNL     1       2.725   6.098  31.197  1.00  0.00     0.000 C 
BRANCH   2   3
ATOM      3  C   UNL     1       1.266   6.559  31.346  1.00  0.00     0.000 C 
BRANCH   3   4
ATOM      4  C   UNL     1       1.156   8.002  31.875  1.00  0.00     0.000 C 
BRANCH   4   5
ATOM      5  C   UNL     1       2.524   8.607  32.226  1.00  0.00     0.000 C 
BRANCH   5   6
ATOM      6  C   UNL     1       2.477   9.471  33.498  1.00  0.00     0.000 C 
BRANCH   6   7
ATOM      7  C   UNL     1       1.751   8.770  34.657  1.00  0.00     0.000 C 
BRANCH   7   8
ATOM      8  C   UNL     1       2.660   7.785  35.412  1.00  0.00     0.000 C 
BRANCH   8   9
ATOM      9  C   UNL     1       2.317   6.319  35.111  1.00  0.00     0.000 C 
BRANCH   9  10
ATOM     10  C   UNL     1       3.570   5.444  34.939  1.00  0.00     0.000 C 
BRANCH  10  11
ATOM     11  C   UNL     1       4.778   6.228  34.396  1.00  0.00     0.000 C 
BRANCH  11  12
ATOM     12  C   UNL     1       6.127   5.773  34.990  1.00  0.00     0.000 C 
BRANCH  12  13
ATOM     13  C   UNL     1       7.246   5.739  33.934  1.00  0.00     0.006 C 
BRANCH  13  14
ATOM     14  C   UNL     1       8.639   5.879  34.560  1.00  0.00     0.053 C 
BRANCH  14  15
ATOM     15  C   UNL     1       9.666   6.271  33.543  1.00  0.00     0.041 C 
ATOM     16  O   UNL     1      10.035   5.449  32.664  1.00  0.00    -0.550 OA
ATOM     17  O   UNL     1      10.245   7.534  33.589  1.00  0.00    -0.550 OA
ENDBRANCH  14  15
ENDBRANCH  13  14
ENDBRANCH  12  13
ENDBRANCH  11  12
ENDBRANCH  10  11
ENDBRANCH   9  10
ENDBRANCH   8   9
ENDBRANCH   7   8
ENDBRANCH   6   7
ENDBRANCH   5   6
ENDBRANCH   4   5
ENDBRANCH   3   4
ENDBRANCH   2   3
ENDBRANCH   1   2
BRANCH   1  18
ATOM     18  C   UNL     1       4.373   4.147  31.420  1.00  0.00     0.000 C 
BRANCH  18  19
ATOM     19  C   UNL     1       5.332   5.135  30.729  1.00  0.00     0.000 C 
BRANCH  19  20
ATOM     20  C   UNL     1       6.320   4.504  29.724  1.00  0.00     0.000 C 
BRANCH  20  21
ATOM     21  C   UNL     1       5.929   4.647  28.240  1.00  0.00     0.000 C 
BRANCH  21  22
ATOM     22  C   UNL     1       5.045   5.875  27.919  1.00  0.00     0.000 C 
BRANCH  22  23
ATOM     23  C   UNL     1       3.689   5.520  27.280  1.00  0.00     0.000 C 
BRANCH  23  24
ATOM     24  C   UNL     1       3.046   4.221  27.802  1.00  0.00    -0.000 C 
BRANCH  24  25
ATOM     25  C   UNL     1       1.536   4.313  28.110  1.00  0.00    -0.000 C 
BRANCH  25  26
ATOM     26  C   UNL     1       0.724   5.180  27.133  1.00  0.00    -0.000 C 
BRANCH  26  27
ATOM     27  C   UNL     1       0.137   6.437  27.793  1.00  0.00    -0.000 C 
BRANCH  27  28
ATOM     28  C   UNL     1       0.680   7.712  27.129  1.00  0.00    -0.000 C 
BRANCH  28  29
ATOM     29  C   UNL     1       1.142   8.758  28.165  1.00  0.00    -0.000 C 
BRANCH  29  30
ATOM     30  C   UNL     1       2.647   8.700  28.475  1.00  0.00    -0.000 C 
BRANCH  30  31
ATOM     31  C   UNL     1       3.506   9.372  27.396  1.00  0.00    -0.003 C 
ATOM     32  C   UNL     1       2.805  10.599  26.816  1.00  0.00     0.004 C 
ENDBRANCH  30  31
ENDBRANCH  29  30
ENDBRANCH  28  29
ENDBRANCH  27  28
ENDBRANCH  26  27
ENDBRANCH  25  26
ENDBRANCH  24  25
ENDBRANCH  23  24
ENDBRANCH  22  23
ENDBRANCH  21  22
ENDBRANCH  20  21
ENDBRANCH  19  20
ENDBRANCH  18  19
ENDBRANCH   1  18
TORSDOF 28
ENDMDL
