MODEL 1
REMARK VINA RESULT:    -4.277      0.000      0.000
REMARK INTER + INTRA:          -4.277
REMARK INTER:                  -4.277
REMARK INTRA:                   0.000
REMARK UNBOUND:                 0.000
REMARK SMILES CC(C)=C1CC[C@@H](C)CC1=O
REMARK SMILES IDX 8 1 7 2 6 3 5 4 4 5 2 6 1 7 3 8 10 9 11 10 9 11
REMARK H PARENT
REMARK Flexibility Score: inf
ROOT
ATOM      1  C   UNL     1      36.218  72.202 106.207  1.00  0.00     0.008 C 
ATOM      2  C   UNL     1      34.756  71.904 105.855  1.00  0.00    -0.006 C 
ATOM      3  C   UNL     1      33.853  72.099 107.084  1.00  0.00     0.008 C 
ATOM      4  C   UNL     1      32.374  71.904 106.725  1.00  0.00     0.039 C 
ATOM      5  C   UNL     1      32.115  70.582 106.013  1.00  0.00    -0.006 C 
ATOM      6  C   UNL     1      30.934  69.914 106.165  1.00  0.00    -0.070 C 
ATOM      7  C   UNL     1      29.826  70.468 107.033  1.00  0.00     0.039 C 
ATOM      8  C   UNL     1      30.687  68.576 105.509  1.00  0.00     0.039 C 
ATOM      9  C   UNL     1      33.174  70.133 105.061  1.00  0.00     0.159 C 
ATOM     10  O   UNL     1      32.886  69.473 104.027  1.00  0.00    -0.295 OA
ATOM     11  C   UNL     1      34.613  70.470 105.322  1.00  0.00     0.084 C 
ENDROOT
TORSDOF 0
ENDMDL
MODEL 2
REMARK VINA RESULT:    -4.261      1.959      3.845
REMARK INTER + INTRA:          -4.261
REMARK INTER:                  -4.261
REMARK INTRA:                   0.000
REMARK UNBOUND:                 0.000
REMARK SMILES CC(C)=C1CC[C@@H](C)CC1=O
REMARK SMILES IDX 8 1 7 2 6 3 5 4 4 5 2 6 1 7 3 8 10 9 11 10 9 11
REMARK H PARENT
REMARK Flexibility Score: inf
ROOT
ATOM      1  C   UNL     1      33.212  66.951 102.662  1.00  0.00     0.008 C 
ATOM      2  C   UNL     1      33.140  68.374 103.227  1.00  0.00    -0.006 C 
ATOM      3  C   UNL     1      34.202  68.578 104.319  1.00  0.00     0.008 C 
ATOM      4  C   UNL     1      34.212  70.027 104.824  1.00  0.00     0.039 C 
ATOM      5  C   UNL     1      32.832  70.505 105.255  1.00  0.00    -0.006 C 
ATOM      6  C   UNL     1      32.678  71.413 106.262  1.00  0.00    -0.070 C 
ATOM      7  C   UNL     1      33.874  71.995 106.982  1.00  0.00     0.039 C 
ATOM      8  C   UNL     1      31.313  71.852 106.736  1.00  0.00     0.039 C 
ATOM      9  C   UNL     1      31.684  70.013 104.436  1.00  0.00     0.159 C 
ATOM     10  O   UNL     1      30.655  70.720 104.262  1.00  0.00    -0.295 OA
ATOM     11  C   UNL     1      31.742  68.657 103.797  1.00  0.00     0.084 C 
ENDROOT
TORSDOF 0
ENDMDL
MODEL 3
REMARK VINA RESULT:    -4.049      1.552      2.340
REMARK INTER + INTRA:          -4.049
REMARK INTER:                  -4.049
REMARK INTRA:                   0.000
REMARK UNBOUND:                 0.000
REMARK SMILES CC(C)=C1CC[C@@H](C)CC1=O
REMARK SMILES IDX 8 1 7 2 6 3 5 4 4 5 2 6 1 7 3 8 10 9 11 10 9 11
REMARK H PARENT
REMARK Flexibility Score: inf
ROOT
ATOM      1  C   UNL     1      34.874  72.627 108.012  1.00  0.00     0.008 C 
ATOM      2  C   UNL     1      34.260  72.149 106.691  1.00  0.00    -0.006 C 
ATOM      3  C   UNL     1      32.906  71.466 106.939  1.00  0.00     0.008 C 
ATOM      4  C   UNL     1      32.230  71.073 105.618  1.00  0.00     0.039 C 
ATOM      5  C   UNL     1      33.142  70.252 104.716  1.00  0.00    -0.006 C 
ATOM      6  C   UNL     1      32.640  69.301 103.876  1.00  0.00    -0.070 C 
ATOM      7  C   UNL     1      31.154  69.034 103.793  1.00  0.00     0.039 C 
ATOM      8  C   UNL     1      33.540  68.442 103.018  1.00  0.00     0.039 C 
ATOM      9  C   UNL     1      34.587  70.633 104.725  1.00  0.00     0.159 C 
ATOM     10  O   UNL     1      35.302  70.510 103.695  1.00  0.00    -0.295 OA
ATOM     11  C   UNL     1      35.213  71.180 105.974  1.00  0.00     0.084 C 
ENDROOT
TORSDOF 0
ENDMDL
MODEL 4
REMARK VINA RESULT:    -4.003      1.696      4.365
REMARK INTER + INTRA:          -4.003
REMARK INTER:                  -4.003
REMARK INTRA:                   0.000
REMARK UNBOUND:                 0.000
REMARK SMILES CC(C)=C1CC[C@@H](C)CC1=O
REMARK SMILES IDX 8 1 7 2 6 3 5 4 4 5 2 6 1 7 3 8 10 9 11 10 9 11
REMARK H PARENT
REMARK Flexibility Score: inf
ROOT
ATOM      1  C   UNL     1      29.885  70.758 107.062  1.00  0.00     0.008 C 
ATOM      2  C   UNL     1      31.003  70.885 106.021  1.00  0.00    -0.006 C 
ATOM      3  C   UNL     1      31.227  69.546 105.300  1.00  0.00     0.008 C 
ATOM      4  C   UNL     1      32.271  69.681 104.184  1.00  0.00     0.039 C 
ATOM      5  C   UNL     1      33.571  70.307 104.673  1.00  0.00    -0.006 C 
ATOM      6  C   UNL     1      34.773  69.966 104.124  1.00  0.00    -0.070 C 
ATOM      7  C   UNL     1      34.862  68.965 102.994  1.00  0.00     0.039 C 
ATOM      8  C   UNL     1      36.074  70.537 104.637  1.00  0.00     0.039 C 
ATOM      9  C   UNL     1      33.434  71.387 105.695  1.00  0.00     0.159 C 
ATOM     10  O   UNL     1      34.248  72.348 105.744  1.00  0.00    -0.295 OA
ATOM     11  C   UNL     1      32.308  71.347 106.686  1.00  0.00     0.084 C 
ENDROOT
TORSDOF 0
ENDMDL
MODEL 5
REMARK VINA RESULT:    -3.989      1.925      4.550
REMARK INTER + INTRA:          -3.989
REMARK INTER:                  -3.989
REMARK INTRA:                   0.000
REMARK UNBOUND:                 0.000
REMARK SMILES CC(C)=C1CC[C@@H](C)CC1=O
REMARK SMILES IDX 8 1 7 2 6 3 5 4 4 5 2 6 1 7 3 8 10 9 11 10 9 11
REMARK H PARENT
REMARK Flexibility Score: inf
ROOT
ATOM      1  C   UNL     1      31.457  66.538 102.945  1.00  0.00     0.008 C 
ATOM      2  C   UNL     1      31.901  67.972 103.253  1.00  0.00    -0.006 C 
ATOM      3  C   UNL     1      33.402  68.015 103.584  1.00  0.00     0.008 C 
ATOM      4  C   UNL     1      33.886  69.455 103.795  1.00  0.00     0.039 C 
ATOM      5  C   UNL     1      33.041  70.213 104.812  1.00  0.00    -0.006 C 
ATOM      6  C   UNL     1      33.586  71.178 105.608  1.00  0.00    -0.070 C 
ATOM      7  C   UNL     1      35.048  71.548 105.503  1.00  0.00     0.039 C 
ATOM      8  C   UNL     1      32.771  71.896 106.658  1.00  0.00     0.039 C 
ATOM      9  C   UNL     1      31.577  69.917 104.796  1.00  0.00     0.159 C 
ATOM     10  O   UNL     1      30.729  70.802 105.088  1.00  0.00    -0.295 OA
ATOM     11  C   UNL     1      31.090  68.548 104.423  1.00  0.00     0.084 C 
ENDROOT
TORSDOF 0
ENDMDL
MODEL 6
REMARK VINA RESULT:    -3.977      1.697      4.734
REMARK INTER + INTRA:          -3.977
REMARK INTER:                  -3.977
REMARK INTRA:                   0.000
REMARK UNBOUND:                 0.000
REMARK SMILES CC(C)=C1CC[C@@H](C)CC1=O
REMARK SMILES IDX 8 1 7 2 6 3 5 4 4 5 2 6 1 7 3 8 10 9 11 10 9 11
REMARK H PARENT
REMARK Flexibility Score: inf
ROOT
ATOM      1  C   UNL     1      29.419  67.455 107.142  1.00  0.00     0.008 C 
ATOM      2  C   UNL     1      30.251  68.523 106.424  1.00  0.00    -0.006 C 
ATOM      3  C   UNL     1      31.535  67.909 105.842  1.00  0.00     0.008 C 
ATOM      4  C   UNL     1      32.329  68.942 105.031  1.00  0.00     0.039 C 
ATOM      5  C   UNL     1      32.597  70.220 105.816  1.00  0.00    -0.006 C 
ATOM      6  C   UNL     1      33.730  70.953 105.613  1.00  0.00    -0.070 C 
ATOM      7  C   UNL     1      34.760  70.536 104.587  1.00  0.00     0.039 C 
ATOM      8  C   UNL     1      34.033  72.191 106.424  1.00  0.00     0.039 C 
ATOM      9  C   UNL     1      31.499  70.674 106.722  1.00  0.00     0.159 C 
ATOM     10  O   UNL     1      31.297  71.897 106.942  1.00  0.00    -0.295 OA
ATOM     11  C   UNL     1      30.607  69.666 107.386  1.00  0.00     0.084 C 
ENDROOT
TORSDOF 0
ENDMDL
MODEL 7
REMARK VINA RESULT:    -3.963      1.899      3.926
REMARK INTER + INTRA:          -3.963
REMARK INTER:                  -3.963
REMARK INTRA:                   0.000
REMARK UNBOUND:                 0.000
REMARK SMILES CC(C)=C1CC[C@@H](C)CC1=O
REMARK SMILES IDX 8 1 7 2 6 3 5 4 4 5 2 6 1 7 3 8 10 9 11 10 9 11
REMARK H PARENT
REMARK Flexibility Score: inf
ROOT
ATOM      1  C   UNL     1      32.406  66.784 102.623  1.00  0.00     0.008 C 
ATOM      2  C   UNL     1      32.445  67.668 103.874  1.00  0.00    -0.006 C 
ATOM      3  C   UNL     1      31.211  68.584 103.930  1.00  0.00     0.008 C 
ATOM      4  C   UNL     1      31.182  69.403 105.227  1.00  0.00     0.039 C 
ATOM      5  C   UNL     1      32.482  70.159 105.469  1.00  0.00    -0.006 C 
ATOM      6  C   UNL     1      32.493  71.362 106.115  1.00  0.00    -0.070 C 
ATOM      7  C   UNL     1      31.217  71.985 106.632  1.00  0.00     0.039 C 
ATOM      8  C   UNL     1      33.769  72.147 106.311  1.00  0.00     0.039 C 
ATOM      9  C   UNL     1      33.735  69.454 105.066  1.00  0.00     0.159 C 
ATOM     10  O   UNL     1      34.813  69.624 105.695  1.00  0.00    -0.295 OA
ATOM     11  C   UNL     1      33.726  68.515 103.894  1.00  0.00     0.084 C 
ENDROOT
TORSDOF 0
ENDMDL
MODEL 8
REMARK VINA RESULT:    -3.957      1.388      3.960
REMARK INTER + INTRA:          -3.957
REMARK INTER:                  -3.957
REMARK INTRA:                   0.000
REMARK UNBOUND:                 0.000
REMARK SMILES CC(C)=C1CC[C@@H](C)CC1=O
REMARK SMILES IDX 8 1 7 2 6 3 5 4 4 5 2 6 1 7 3 8 10 9 11 10 9 11
REMARK H PARENT
REMARK Flexibility Score: inf
ROOT
ATOM      1  C   UNL     1      29.619  70.790 107.123  1.00  0.00     0.008 C 
ATOM      2  C   UNL     1      31.022  70.356 106.686  1.00  0.00    -0.006 C 
ATOM      3  C   UNL     1      31.872  71.579 106.303  1.00  0.00     0.008 C 
ATOM      4  C   UNL     1      33.311  71.172 105.961  1.00  0.00     0.039 C 
ATOM      5  C   UNL     1      33.374  70.066 104.915  1.00  0.00    -0.006 C 
ATOM      6  C   UNL     1      34.406  69.988 104.026  1.00  0.00    -0.070 C 
ATOM      7  C   UNL     1      35.541  70.987 104.053  1.00  0.00     0.039 C 
ATOM      8  C   UNL     1      34.450  68.929 102.949  1.00  0.00     0.039 C 
ATOM      9  C   UNL     1      32.309  69.022 105.003  1.00  0.00     0.159 C 
ATOM     10  O   UNL     1      32.536  67.828 104.669  1.00  0.00    -0.295 OA
ATOM     11  C   UNL     1      30.940  69.383 105.501  1.00  0.00     0.084 C 
ENDROOT
TORSDOF 0
ENDMDL
MODEL 9
REMARK VINA RESULT:    -3.911     10.969     12.259
REMARK INTER + INTRA:          -3.911
REMARK INTER:                  -3.911
REMARK INTRA:                   0.000
REMARK UNBOUND:                 0.000
REMARK SMILES CC(C)=C1CC[C@@H](C)CC1=O
REMARK SMILES IDX 8 1 7 2 6 3 5 4 4 5 2 6 1 7 3 8 10 9 11 10 9 11
REMARK H PARENT
REMARK Flexibility Score: inf
ROOT
ATOM      1  C   UNL     1      30.002  64.878  96.615  1.00  0.00     0.008 C 
ATOM      2  C   UNL     1      29.605  63.805  97.635  1.00  0.00    -0.006 C 
ATOM      3  C   UNL     1      30.755  63.543  98.621  1.00  0.00     0.008 C 
ATOM      4  C   UNL     1      30.340  62.546  99.710  1.00  0.00     0.039 C 
ATOM      5  C   UNL     1      29.760  61.260  99.135  1.00  0.00    -0.006 C 
ATOM      6  C   UNL     1      29.918  60.063  99.772  1.00  0.00    -0.070 C 
ATOM      7  C   UNL     1      30.661  59.966 101.085  1.00  0.00     0.039 C 
ATOM      8  C   UNL     1      29.395  58.774  99.183  1.00  0.00     0.039 C 
ATOM      9  C   UNL     1      28.919  61.412  97.910  1.00  0.00     0.159 C 
ATOM     10  O   UNL     1      27.948  60.643  97.684  1.00  0.00    -0.295 OA
ATOM     11  C   UNL     1      29.221  62.500  96.921  1.00  0.00     0.084 C 
ENDROOT
TORSDOF 0
ENDMDL
