MODEL 1
REMARK VINA RESULT:    -5.981      0.000      0.000
REMARK INTER + INTRA:         -19.922
REMARK INTER:                 -15.072
REMARK INTRA:                  -4.850
REMARK UNBOUND:                -4.850
REMARK SMILES CCCCCCCCCCCCCCCCCCCCCCCCCCCC(=O)[O-]
REMARK SMILES IDX 15 1 16 2 17 3 18 4 19 5 20 6 21 7 22 8 23 9 24 10 25 11
REMARK SMILES IDX 26 12 27 13 28 14 29 15 30 16 14 17 13 18 12 19 11 20 10 21
REMARK SMILES IDX 9 22 8 23 7 24 6 25 5 26 4 27 3 28 2 29 1 30
REMARK H PARENT
REMARK Flexibility Score: inf
ROOT
ATOM      1  C   UNL     1     103.323  23.339 197.988  1.00  0.00     0.000 C 
ENDROOT
BRANCH   1   2
ATOM      2  C   UNL     1     102.694  24.695 197.592  1.00  0.00     0.000 C 
BRANCH   2   3
ATOM      3  C   UNL     1     103.483  25.452 196.508  1.00  0.00     0.000 C 
BRANCH   3   4
ATOM      4  C   UNL     1     105.009  25.459 196.713  1.00  0.00     0.000 C 
BRANCH   4   5
ATOM      5  C   UNL     1     105.767  24.514 195.753  1.00  0.00     0.000 C 
BRANCH   5   6
ATOM      6  C   UNL     1     104.854  23.924 194.665  1.00  0.00     0.000 C 
BRANCH   6   7
ATOM      7  C   UNL     1     104.812  22.388 194.695  1.00  0.00     0.000 C 
BRANCH   7   8
ATOM      8  C   UNL     1     105.045  21.760 193.309  1.00  0.00     0.000 C 
BRANCH   8   9
ATOM      9  C   UNL     1     106.360  20.968 193.236  1.00  0.00     0.000 C 
BRANCH   9  10
ATOM     10  C   UNL     1     107.063  20.865 194.601  1.00  0.00     0.000 C 
BRANCH  10  11
ATOM     11  C   UNL     1     108.571  20.600 194.468  1.00  0.00     0.000 C 
BRANCH  11  12
ATOM     12  C   UNL     1     109.260  20.421 195.833  1.00  0.00     0.006 C 
BRANCH  12  13
ATOM     13  C   UNL     1     110.788  20.501 195.726  1.00  0.00     0.053 C 
BRANCH  13  14
ATOM     14  C   UNL     1     111.384  21.292 196.851  1.00  0.00     0.041 C 
ATOM     15  O   UNL     1     112.593  21.134 197.168  1.00  0.00    -0.550 OA
ATOM     16  O   UNL     1     110.603  22.206 197.548  1.00  0.00    -0.550 OA
ENDBRANCH  13  14
ENDBRANCH  12  13
ENDBRANCH  11  12
ENDBRANCH  10  11
ENDBRANCH   9  10
ENDBRANCH   8   9
ENDBRANCH   7   8
ENDBRANCH   6   7
ENDBRANCH   5   6
ENDBRANCH   4   5
ENDBRANCH   3   4
ENDBRANCH   2   3
ENDBRANCH   1   2
BRANCH   1  17
ATOM     17  C   UNL     1     102.982  22.924 199.429  1.00  0.00     0.000 C 
BRANCH  17  18
ATOM     18  C   UNL     1     104.127  23.213 200.413  1.00  0.00     0.000 C 
BRANCH  18  19
ATOM     19  C   UNL     1     105.442  23.580 199.702  1.00  0.00     0.000 C 
BRANCH  19  20
ATOM     20  C   UNL     1     106.505  22.474 199.818  1.00  0.00     0.000 C 
BRANCH  20  21
ATOM     21  C   UNL     1     106.628  21.639 198.532  1.00  0.00     0.000 C 
BRANCH  21  22
ATOM     22  C   UNL     1     106.919  20.157 198.818  1.00  0.00    -0.000 C 
BRANCH  22  23
ATOM     23  C   UNL     1     106.244  19.212 197.811  1.00  0.00    -0.000 C 
BRANCH  23  24
ATOM     24  C   UNL     1     104.915  19.769 197.271  1.00  0.00    -0.000 C 
BRANCH  24  25
ATOM     25  C   UNL     1     103.858  18.679 196.993  1.00  0.00    -0.000 C 
BRANCH  25  26
ATOM     26  C   UNL     1     102.573  18.893 197.807  1.00  0.00    -0.000 C 
BRANCH  26  27
ATOM     27  C   UNL     1     101.371  19.141 196.882  1.00  0.00    -0.000 C 
BRANCH  27  28
ATOM     28  C   UNL     1     101.119  20.635 196.627  1.00  0.00    -0.000 C 
BRANCH  28  29
ATOM     29  C   UNL     1     101.231  21.009 195.141  1.00  0.00    -0.003 C 
ATOM     30  C   UNL     1     101.219  22.525 194.955  1.00  0.00     0.004 C 
ENDBRANCH  28  29
ENDBRANCH  27  28
ENDBRANCH  26  27
ENDBRANCH  25  26
ENDBRANCH  24  25
ENDBRANCH  23  24
ENDBRANCH  22  23
ENDBRANCH  21  22
ENDBRANCH  20  21
ENDBRANCH  19  20
ENDBRANCH  18  19
ENDBRANCH  17  18
ENDBRANCH   1  17
TORSDOF 26
ENDMDL
MODEL 2
REMARK VINA RESULT:    -5.954      1.703      4.365
REMARK INTER + INTRA:         -19.854
REMARK INTER:                 -15.721
REMARK INTRA:                  -4.133
REMARK UNBOUND:                -4.850
REMARK SMILES CCCCCCCCCCCCCCCCCCCCCCCCCCCC(=O)[O-]
REMARK SMILES IDX 15 1 16 2 17 3 18 4 19 5 20 6 21 7 22 8 23 9 24 10 25 11
REMARK SMILES IDX 26 12 27 13 28 14 29 15 30 16 14 17 13 18 12 19 11 20 10 21
REMARK SMILES IDX 9 22 8 23 7 24 6 25 5 26 4 27 3 28 2 29 1 30
REMARK H PARENT
REMARK Flexibility Score: inf
ROOT
ATOM      1  C   UNL     1     103.540  22.877 193.559  1.00  0.00     0.000 C 
ENDROOT
BRANCH   1   2
ATOM      2  C   UNL     1     102.137  22.421 194.022  1.00  0.00     0.000 C 
BRANCH   2   3
ATOM      3  C   UNL     1     102.097  21.924 195.479  1.00  0.00     0.000 C 
BRANCH   3   4
ATOM      4  C   UNL     1     101.207  20.688 195.710  1.00  0.00     0.000 C 
BRANCH   4   5
ATOM      5  C   UNL     1     101.792  19.688 196.733  1.00  0.00     0.000 C 
BRANCH   5   6
ATOM      6  C   UNL     1     103.095  20.195 197.373  1.00  0.00     0.000 C 
BRANCH   6   7
ATOM      7  C   UNL     1     104.216  19.144 197.349  1.00  0.00     0.000 C 
BRANCH   7   8
ATOM      8  C   UNL     1     105.533  19.692 196.770  1.00  0.00     0.000 C 
BRANCH   8   9
ATOM      9  C   UNL     1     106.484  20.210 197.860  1.00  0.00     0.000 C 
BRANCH   9  10
ATOM     10  C   UNL     1     107.787  20.788 197.281  1.00  0.00     0.000 C 
BRANCH  10  11
ATOM     11  C   UNL     1     108.268  20.025 196.037  1.00  0.00     0.000 C 
BRANCH  11  12
ATOM     12  C   UNL     1     109.742  19.595 196.142  1.00  0.00     0.006 C 
BRANCH  12  13
ATOM     13  C   UNL     1     110.683  20.571 195.423  1.00  0.00     0.053 C 
BRANCH  13  14
ATOM     14  C   UNL     1     111.600  21.267 196.383  1.00  0.00     0.041 C 
ATOM     15  O   UNL     1     111.129  21.909 197.360  1.00  0.00    -0.550 OA
ATOM     16  O   UNL     1     112.976  21.203 196.201  1.00  0.00    -0.550 OA
ENDBRANCH  13  14
ENDBRANCH  12  13
ENDBRANCH  11  12
ENDBRANCH  10  11
ENDBRANCH   9  10
ENDBRANCH   8   9
ENDBRANCH   7   8
ENDBRANCH   6   7
ENDBRANCH   5   6
ENDBRANCH   4   5
ENDBRANCH   3   4
ENDBRANCH   2   3
ENDBRANCH   1   2
BRANCH   1  17
ATOM     17  C   UNL     1     104.675  22.187 194.335  1.00  0.00     0.000 C 
BRANCH  17  18
ATOM     18  C   UNL     1     105.398  23.143 195.298  1.00  0.00     0.000 C 
BRANCH  18  19
ATOM     19  C   UNL     1     105.082  24.622 195.014  1.00  0.00     0.000 C 
BRANCH  19  20
ATOM     20  C   UNL     1     104.572  25.367 196.260  1.00  0.00     0.000 C 
BRANCH  20  21
ATOM     21  C   UNL     1     104.070  24.409 197.354  1.00  0.00     0.000 C 
BRANCH  21  22
ATOM     22  C   UNL     1     105.095  24.219 198.484  1.00  0.00    -0.000 C 
BRANCH  22  23
ATOM     23  C   UNL     1     104.800  22.985 199.353  1.00  0.00    -0.000 C 
BRANCH  23  24
ATOM     24  C   UNL     1     103.788  23.275 200.474  1.00  0.00    -0.000 C 
BRANCH  24  25
ATOM     25  C   UNL     1     102.333  22.918 200.100  1.00  0.00    -0.000 C 
BRANCH  25  26
ATOM     26  C   UNL     1     101.326  23.956 200.616  1.00  0.00    -0.000 C 
BRANCH  26  27
ATOM     27  C   UNL     1     100.000  23.866 199.846  1.00  0.00    -0.000 C 
BRANCH  27  28
ATOM     28  C   UNL     1     100.123  23.050 198.550  1.00  0.00    -0.000 C 
BRANCH  28  29
ATOM     29  C   UNL     1      98.758  22.634 197.979  1.00  0.00    -0.003 C 
ATOM     30  C   UNL     1      97.622  23.383 198.673  1.00  0.00     0.004 C 
ENDBRANCH  28  29
ENDBRANCH  27  28
ENDBRANCH  26  27
ENDBRANCH  25  26
ENDBRANCH  24  25
ENDBRANCH  23  24
ENDBRANCH  22  23
ENDBRANCH  21  22
ENDBRANCH  20  21
ENDBRANCH  19  20
ENDBRANCH  18  19
ENDBRANCH  17  18
ENDBRANCH   1  17
TORSDOF 26
ENDMDL
MODEL 3
REMARK VINA RESULT:    -5.920      3.719      7.598
REMARK INTER + INTRA:         -19.769
REMARK INTER:                 -14.933
REMARK INTRA:                  -4.836
REMARK UNBOUND:                -4.850
REMARK SMILES CCCCCCCCCCCCCCCCCCCCCCCCCCCC(=O)[O-]
REMARK SMILES IDX 15 1 16 2 17 3 18 4 19 5 20 6 21 7 22 8 23 9 24 10 25 11
REMARK SMILES IDX 26 12 27 13 28 14 29 15 30 16 14 17 13 18 12 19 11 20 10 21
REMARK SMILES IDX 9 22 8 23 7 24 6 25 5 26 4 27 3 28 2 29 1 30
REMARK H PARENT
REMARK Flexibility Score: inf
ROOT
ATOM      1  C   UNL     1     105.313  18.929 197.860  1.00  0.00     0.000 C 
ENDROOT
BRANCH   1   2
ATOM      2  C   UNL     1     106.749  18.377 197.707  1.00  0.00     0.000 C 
BRANCH   2   3
ATOM      3  C   UNL     1     107.814  19.470 197.503  1.00  0.00     0.000 C 
BRANCH   3   4
ATOM      4  C   UNL     1     107.341  20.680 196.678  1.00  0.00     0.000 C 
BRANCH   4   5
ATOM      5  C   UNL     1     107.223  21.983 197.503  1.00  0.00     0.000 C 
BRANCH   5   6
ATOM      6  C   UNL     1     107.335  21.733 199.016  1.00  0.00     0.000 C 
BRANCH   6   7
ATOM      7  C   UNL     1     106.391  22.628 199.836  1.00  0.00     0.000 C 
BRANCH   7   8
ATOM      8  C   UNL     1     104.940  22.586 199.325  1.00  0.00     0.000 C 
BRANCH   8   9
ATOM      9  C   UNL     1     103.942  23.168 200.340  1.00  0.00     0.000 C 
BRANCH   9  10
ATOM     10  C   UNL     1     102.585  23.512 199.702  1.00  0.00     0.000 C 
BRANCH  10  11
ATOM     11  C   UNL     1     101.514  23.858 200.748  1.00  0.00     0.000 C 
BRANCH  11  12
ATOM     12  C   UNL     1     100.097  23.902 200.149  1.00  0.00     0.006 C 
BRANCH  12  13
ATOM     13  C   UNL     1     100.046  23.310 198.735  1.00  0.00     0.053 C 
BRANCH  13  14
ATOM     14  C   UNL     1      98.670  22.831 198.382  1.00  0.00     0.041 C 
ATOM     15  O   UNL     1      98.515  21.734 197.781  1.00  0.00    -0.550 OA
ATOM     16  O   UNL     1      97.560  23.594 198.721  1.00  0.00    -0.550 OA
ENDBRANCH  13  14
ENDBRANCH  12  13
ENDBRANCH  11  12
ENDBRANCH  10  11
ENDBRANCH   9  10
ENDBRANCH   8   9
ENDBRANCH   7   8
ENDBRANCH   6   7
ENDBRANCH   5   6
ENDBRANCH   4   5
ENDBRANCH   3   4
ENDBRANCH   2   3
ENDBRANCH   1   2
BRANCH   1  17
ATOM     17  C   UNL     1     104.357  18.403 196.776  1.00  0.00     0.000 C 
BRANCH  17  18
ATOM     18  C   UNL     1     102.890  18.772 197.053  1.00  0.00     0.000 C 
BRANCH  18  19
ATOM     19  C   UNL     1     102.746  20.098 197.821  1.00  0.00     0.000 C 
BRANCH  19  20
ATOM     20  C   UNL     1     102.618  21.312 196.885  1.00  0.00     0.000 C 
BRANCH  20  21
ATOM     21  C   UNL     1     101.418  21.195 195.930  1.00  0.00     0.000 C 
BRANCH  21  22
ATOM     22  C   UNL     1     101.272  22.424 195.017  1.00  0.00    -0.000 C 
BRANCH  22  23
ATOM     23  C   UNL     1     101.746  22.156 193.579  1.00  0.00    -0.000 C 
BRANCH  23  24
ATOM     24  C   UNL     1     103.010  22.953 193.211  1.00  0.00    -0.000 C 
BRANCH  24  25
ATOM     25  C   UNL     1     104.316  22.145 193.365  1.00  0.00    -0.000 C 
BRANCH  25  26
ATOM     26  C   UNL     1     105.229  22.716 194.459  1.00  0.00    -0.000 C 
BRANCH  26  27
ATOM     27  C   UNL     1     104.707  24.071 194.959  1.00  0.00    -0.000 C 
BRANCH  27  28
ATOM     28  C   UNL     1     105.659  24.738 195.964  1.00  0.00    -0.000 C 
BRANCH  28  29
ATOM     29  C   UNL     1     104.923  25.327 197.177  1.00  0.00    -0.003 C 
ATOM     30  C   UNL     1     103.414  25.355 196.943  1.00  0.00     0.004 C 
ENDBRANCH  28  29
ENDBRANCH  27  28
ENDBRANCH  26  27
ENDBRANCH  25  26
ENDBRANCH  24  25
ENDBRANCH  23  24
ENDBRANCH  22  23
ENDBRANCH  21  22
ENDBRANCH  20  21
ENDBRANCH  19  20
ENDBRANCH  18  19
ENDBRANCH  17  18
ENDBRANCH   1  17
TORSDOF 26
ENDMDL
MODEL 4
REMARK VINA RESULT:    -5.912      1.625      5.105
REMARK INTER + INTRA:         -19.749
REMARK INTER:                 -15.300
REMARK INTRA:                  -4.449
REMARK UNBOUND:                -4.850
REMARK SMILES CCCCCCCCCCCCCCCCCCCCCCCCCCCC(=O)[O-]
REMARK SMILES IDX 15 1 16 2 17 3 18 4 19 5 20 6 21 7 22 8 23 9 24 10 25 11
REMARK SMILES IDX 26 12 27 13 28 14 29 15 30 16 14 17 13 18 12 19 11 20 10 21
REMARK SMILES IDX 9 22 8 23 7 24 6 25 5 26 4 27 3 28 2 29 1 30
REMARK H PARENT
REMARK Flexibility Score: inf
ROOT
ATOM      1  C   UNL     1     101.541  21.009 195.321  1.00  0.00     0.000 C 
ENDROOT
BRANCH   1   2
ATOM      2  C   UNL     1     102.244  20.689 196.660  1.00  0.00     0.000 C 
BRANCH   2   3
ATOM      3  C   UNL     1     102.072  19.229 197.118  1.00  0.00     0.000 C 
BRANCH   3   4
ATOM      4  C   UNL     1     103.382  18.424 197.197  1.00  0.00     0.000 C 
BRANCH   4   5
ATOM      5  C   UNL     1     104.648  19.309 197.268  1.00  0.00     0.000 C 
BRANCH   5   6
ATOM      6  C   UNL     1     105.938  18.482 197.393  1.00  0.00     0.000 C 
BRANCH   6   7
ATOM      7  C   UNL     1     107.051  19.229 198.146  1.00  0.00     0.000 C 
BRANCH   7   8
ATOM      8  C   UNL     1     106.613  20.626 198.621  1.00  0.00     0.000 C 
BRANCH   8   9
ATOM      9  C   UNL     1     107.747  21.660 198.531  1.00  0.00     0.000 C 
BRANCH   9  10
ATOM     10  C   UNL     1     108.570  21.522 197.239  1.00  0.00     0.000 C 
BRANCH  10  11
ATOM     11  C   UNL     1     110.009  22.037 197.399  1.00  0.00     0.000 C 
BRANCH  11  12
ATOM     12  C   UNL     1     111.042  21.122 196.718  1.00  0.00     0.006 C 
BRANCH  12  13
ATOM     13  C   UNL     1     110.381  19.960 195.966  1.00  0.00     0.053 C 
BRANCH  13  14
ATOM     14  C   UNL     1     110.851  19.878 194.545  1.00  0.00     0.041 C 
ATOM     15  O   UNL     1     111.770  19.078 194.225  1.00  0.00    -0.550 OA
ATOM     16  O   UNL     1     110.271  20.684 193.574  1.00  0.00    -0.550 OA
ENDBRANCH  13  14
ENDBRANCH  12  13
ENDBRANCH  11  12
ENDBRANCH  10  11
ENDBRANCH   9  10
ENDBRANCH   8   9
ENDBRANCH   7   8
ENDBRANCH   6   7
ENDBRANCH   5   6
ENDBRANCH   4   5
ENDBRANCH   3   4
ENDBRANCH   2   3
ENDBRANCH   1   2
BRANCH   1  17
ATOM     17  C   UNL     1     101.804  22.445 194.840  1.00  0.00     0.000 C 
BRANCH  17  18
ATOM     18  C   UNL     1     102.374  22.495 193.413  1.00  0.00     0.000 C 
BRANCH  18  19
ATOM     19  C   UNL     1     103.828  22.999 193.372  1.00  0.00     0.000 C 
BRANCH  19  20
ATOM     20  C   UNL     1     104.851  21.863 193.538  1.00  0.00     0.000 C 
BRANCH  20  21
ATOM     21  C   UNL     1     105.912  22.178 194.607  1.00  0.00     0.000 C 
BRANCH  21  22
ATOM     22  C   UNL     1     105.291  22.669 195.924  1.00  0.00    -0.000 C 
BRANCH  22  23
ATOM     23  C   UNL     1     105.835  24.038 196.364  1.00  0.00    -0.000 C 
BRANCH  23  24
ATOM     24  C   UNL     1     104.976  24.696 197.458  1.00  0.00    -0.000 C 
BRANCH  24  25
ATOM     25  C   UNL     1     103.592  25.162 196.958  1.00  0.00    -0.000 C 
BRANCH  25  26
ATOM     26  C   UNL     1     102.440  24.425 197.658  1.00  0.00    -0.000 C 
BRANCH  26  27
ATOM     27  C   UNL     1     102.969  23.518 198.780  1.00  0.00    -0.000 C 
BRANCH  27  28
ATOM     28  C   UNL     1     101.844  22.927 199.643  1.00  0.00    -0.000 C 
BRANCH  28  29
ATOM     29  C   UNL     1     101.270  23.941 200.644  1.00  0.00    -0.003 C 
ATOM     30  C   UNL     1      99.777  24.159 200.409  1.00  0.00     0.004 C 
ENDBRANCH  28  29
ENDBRANCH  27  28
ENDBRANCH  26  27
ENDBRANCH  25  26
ENDBRANCH  24  25
ENDBRANCH  23  24
ENDBRANCH  22  23
ENDBRANCH  21  22
ENDBRANCH  20  21
ENDBRANCH  19  20
ENDBRANCH  18  19
ENDBRANCH  17  18
ENDBRANCH   1  17
TORSDOF 26
ENDMDL
MODEL 5
REMARK VINA RESULT:    -5.911      2.731      6.972
REMARK INTER + INTRA:         -19.745
REMARK INTER:                 -15.380
REMARK INTRA:                  -4.365
REMARK UNBOUND:                -4.850
REMARK SMILES CCCCCCCCCCCCCCCCCCCCCCCCCCCC(=O)[O-]
REMARK SMILES IDX 15 1 16 2 17 3 18 4 19 5 20 6 21 7 22 8 23 9 24 10 25 11
REMARK SMILES IDX 26 12 27 13 28 14 29 15 30 16 14 17 13 18 12 19 11 20 10 21
REMARK SMILES IDX 9 22 8 23 7 24 6 25 5 26 4 27 3 28 2 29 1 30
REMARK H PARENT
REMARK Flexibility Score: inf
ROOT
ATOM      1  C   UNL     1     105.561  25.655 196.483  1.00  0.00     0.000 C 
ENDROOT
BRANCH   1   2
ATOM      2  C   UNL     1     104.807  24.836 197.556  1.00  0.00     0.000 C 
BRANCH   2   3
ATOM      3  C   UNL     1     105.734  24.036 198.490  1.00  0.00     0.000 C 
BRANCH   3   4
ATOM      4  C   UNL     1     105.074  23.563 199.798  1.00  0.00     0.000 C 
BRANCH   4   5
ATOM      5  C   UNL     1     103.640  23.019 199.605  1.00  0.00     0.000 C 
BRANCH   5   6
ATOM      6  C   UNL     1     102.780  23.163 200.872  1.00  0.00     0.000 C 
BRANCH   6   7
ATOM      7  C   UNL     1     101.344  23.614 200.565  1.00  0.00     0.000 C 
BRANCH   7   8
ATOM      8  C   UNL     1     101.111  23.879 199.066  1.00  0.00     0.000 C 
BRANCH   8   9
ATOM      9  C   UNL     1      99.905  23.102 198.513  1.00  0.00     0.000 C 
BRANCH   9  10
ATOM     10  C   UNL     1     100.323  21.875 197.684  1.00  0.00     0.000 C 
BRANCH  10  11
ATOM     11  C   UNL     1     101.326  22.228 196.574  1.00  0.00     0.000 C 
BRANCH  11  12
ATOM     12  C   UNL     1     102.462  21.196 196.456  1.00  0.00     0.006 C 
BRANCH  12  13
ATOM     13  C   UNL     1     102.546  20.282 197.685  1.00  0.00     0.053 C 
BRANCH  13  14
ATOM     14  C   UNL     1     102.537  18.833 197.302  1.00  0.00     0.041 C 
ATOM     15  O   UNL     1     101.471  18.165 197.373  1.00  0.00    -0.550 OA
ATOM     16  O   UNL     1     103.705  18.223 196.862  1.00  0.00    -0.550 OA
ENDBRANCH  13  14
ENDBRANCH  12  13
ENDBRANCH  11  12
ENDBRANCH  10  11
ENDBRANCH   9  10
ENDBRANCH   8   9
ENDBRANCH   7   8
ENDBRANCH   6   7
ENDBRANCH   5   6
ENDBRANCH   4   5
ENDBRANCH   3   4
ENDBRANCH   2   3
ENDBRANCH   1   2
BRANCH   1  17
ATOM     17  C   UNL     1     105.309  25.139 195.057  1.00  0.00     0.000 C 
BRANCH  17  18
ATOM     18  C   UNL     1     104.374  23.918 195.027  1.00  0.00     0.000 C 
BRANCH  18  19
ATOM     19  C   UNL     1     104.075  23.433 193.597  1.00  0.00     0.000 C 
BRANCH  19  20
ATOM     20  C   UNL     1     104.367  21.935 193.409  1.00  0.00     0.000 C 
BRANCH  20  21
ATOM     21  C   UNL     1     105.829  21.665 193.013  1.00  0.00     0.000 C 
BRANCH  21  22
ATOM     22  C   UNL     1     106.527  20.689 193.974  1.00  0.00    -0.000 C 
BRANCH  22  23
ATOM     23  C   UNL     1     105.829  20.597 195.340  1.00  0.00    -0.000 C 
BRANCH  23  24
ATOM     24  C   UNL     1     106.601  21.325 196.454  1.00  0.00    -0.000 C 
BRANCH  24  25
ATOM     25  C   UNL     1     108.048  20.819 196.635  1.00  0.00    -0.000 C 
BRANCH  25  26
ATOM     26  C   UNL     1     108.915  21.802 197.434  1.00  0.00    -0.000 C 
BRANCH  26  27
ATOM     27  C   UNL     1     110.398  21.660 197.057  1.00  0.00    -0.000 C 
BRANCH  27  28
ATOM     28  C   UNL     1     110.687  20.371 196.272  1.00  0.00    -0.000 C 
BRANCH  28  29
ATOM     29  C   UNL     1     111.460  20.632 194.970  1.00  0.00    -0.003 C 
ATOM     30  C   UNL     1     110.544  20.510 193.754  1.00  0.00     0.004 C 
ENDBRANCH  28  29
ENDBRANCH  27  28
ENDBRANCH  26  27
ENDBRANCH  25  26
ENDBRANCH  24  25
ENDBRANCH  23  24
ENDBRANCH  22  23
ENDBRANCH  21  22
ENDBRANCH  20  21
ENDBRANCH  19  20
ENDBRANCH  18  19
ENDBRANCH  17  18
ENDBRANCH   1  17
TORSDOF 26
ENDMDL
MODEL 6
REMARK VINA RESULT:    -5.851      2.951      6.805
REMARK INTER + INTRA:         -19.594
REMARK INTER:                 -15.231
REMARK INTRA:                  -4.362
REMARK UNBOUND:                -4.850
REMARK SMILES CCCCCCCCCCCCCCCCCCCCCCCCCCCC(=O)[O-]
REMARK SMILES IDX 15 1 16 2 17 3 18 4 19 5 20 6 21 7 22 8 23 9 24 10 25 11
REMARK SMILES IDX 26 12 27 13 28 14 29 15 30 16 14 17 13 18 12 19 11 20 10 21
REMARK SMILES IDX 9 22 8 23 7 24 6 25 5 26 4 27 3 28 2 29 1 30
REMARK H PARENT
REMARK Flexibility Score: inf
ROOT
ATOM      1  C   UNL     1     103.049  23.228 198.808  1.00  0.00     0.000 C 
ENDROOT
BRANCH   1   2
ATOM      2  C   UNL     1     103.869  23.214 200.119  1.00  0.00     0.000 C 
BRANCH   2   3
ATOM      3  C   UNL     1     105.393  23.200 199.897  1.00  0.00     0.000 C 
BRANCH   3   4
ATOM      4  C   UNL     1     105.850  22.442 198.637  1.00  0.00     0.000 C 
BRANCH   4   5
ATOM      5  C   UNL     1     107.001  21.444 198.900  1.00  0.00     0.000 C 
BRANCH   5   6
ATOM      6  C   UNL     1     107.368  20.626 197.650  1.00  0.00     0.000 C 
BRANCH   6   7
ATOM      7  C   UNL     1     106.604  19.295 197.567  1.00  0.00     0.000 C 
BRANCH   7   8
ATOM      8  C   UNL     1     105.333  19.393 196.704  1.00  0.00     0.000 C 
BRANCH   8   9
ATOM      9  C   UNL     1     104.226  18.436 197.177  1.00  0.00     0.000 C 
BRANCH   9  10
ATOM     10  C   UNL     1     103.052  19.176 197.842  1.00  0.00     0.000 C 
BRANCH  10  11
ATOM     11  C   UNL     1     101.782  19.163 196.977  1.00  0.00     0.000 C 
BRANCH  11  12
ATOM     12  C   UNL     1     101.211  20.573 196.746  1.00  0.00     0.006 C 
BRANCH  12  13
ATOM     13  C   UNL     1     102.051  21.382 195.750  1.00  0.00     0.053 C 
BRANCH  13  14
ATOM     14  C   UNL     1     101.229  22.416 195.042  1.00  0.00     0.041 C 
ATOM     15  O   UNL     1     100.520  23.224 195.699  1.00  0.00    -0.550 OA
ATOM     16  O   UNL     1     101.250  22.491 193.654  1.00  0.00    -0.550 OA
ENDBRANCH  13  14
ENDBRANCH  12  13
ENDBRANCH  11  12
ENDBRANCH  10  11
ENDBRANCH   9  10
ENDBRANCH   8   9
ENDBRANCH   7   8
ENDBRANCH   6   7
ENDBRANCH   5   6
ENDBRANCH   4   5
ENDBRANCH   3   4
ENDBRANCH   2   3
ENDBRANCH   1   2
BRANCH   1  17
ATOM     17  C   UNL     1     102.776  24.652 198.295  1.00  0.00     0.000 C 
BRANCH  17  18
ATOM     18  C   UNL     1     103.328  24.885 196.879  1.00  0.00     0.000 C 
BRANCH  18  19
ATOM     19  C   UNL     1     104.753  25.467 196.886  1.00  0.00     0.000 C 
BRANCH  19  20
ATOM     20  C   UNL     1     105.644  24.862 195.788  1.00  0.00     0.000 C 
BRANCH  20  21
ATOM     21  C   UNL     1     104.852  23.982 194.806  1.00  0.00     0.000 C 
BRANCH  21  22
ATOM     22  C   UNL     1     105.363  22.532 194.773  1.00  0.00    -0.000 C 
BRANCH  22  23
ATOM     23  C   UNL     1     105.365  21.934 193.357  1.00  0.00    -0.000 C 
BRANCH  23  24
ATOM     24  C   UNL     1     106.282  20.705 193.231  1.00  0.00    -0.000 C 
BRANCH  24  25
ATOM     25  C   UNL     1     107.757  21.061 192.947  1.00  0.00    -0.000 C 
BRANCH  25  26
ATOM     26  C   UNL     1     108.689  20.645 194.095  1.00  0.00    -0.000 C 
BRANCH  26  27
ATOM     27  C   UNL     1     110.155  20.639 193.638  1.00  0.00    -0.000 C 
BRANCH  27  28
ATOM     28  C   UNL     1     111.086  19.942 194.643  1.00  0.00    -0.000 C 
BRANCH  28  29
ATOM     29  C   UNL     1     110.835  20.389 196.091  1.00  0.00    -0.003 C 
ATOM     30  C   UNL     1     111.822  21.477 196.509  1.00  0.00     0.004 C 
ENDBRANCH  28  29
ENDBRANCH  27  28
ENDBRANCH  26  27
ENDBRANCH  25  26
ENDBRANCH  24  25
ENDBRANCH  23  24
ENDBRANCH  22  23
ENDBRANCH  21  22
ENDBRANCH  20  21
ENDBRANCH  19  20
ENDBRANCH  18  19
ENDBRANCH  17  18
ENDBRANCH   1  17
TORSDOF 26
ENDMDL
MODEL 7
REMARK VINA RESULT:    -5.812      1.351      4.466
REMARK INTER + INTRA:         -19.496
REMARK INTER:                 -14.940
REMARK INTRA:                  -4.556
REMARK UNBOUND:                -4.850
REMARK SMILES CCCCCCCCCCCCCCCCCCCCCCCCCCCC(=O)[O-]
REMARK SMILES IDX 15 1 16 2 17 3 18 4 19 5 20 6 21 7 22 8 23 9 24 10 25 11
REMARK SMILES IDX 26 12 27 13 28 14 29 15 30 16 14 17 13 18 12 19 11 20 10 21
REMARK SMILES IDX 9 22 8 23 7 24 6 25 5 26 4 27 3 28 2 29 1 30
REMARK H PARENT
REMARK Flexibility Score: inf
ROOT
ATOM      1  C   UNL     1     101.489  22.268 195.142  1.00  0.00     0.000 C 
ENDROOT
BRANCH   1   2
ATOM      2  C   UNL     1     101.319  20.813 195.638  1.00  0.00     0.000 C 
BRANCH   2   3
ATOM      3  C   UNL     1     101.962  20.548 197.012  1.00  0.00     0.000 C 
BRANCH   3   4
ATOM      4  C   UNL     1     102.952  19.369 197.040  1.00  0.00     0.000 C 
BRANCH   4   5
ATOM      5  C   UNL     1     104.426  19.795 196.850  1.00  0.00     0.000 C 
BRANCH   5   6
ATOM      6  C   UNL     1     105.366  19.134 197.871  1.00  0.00     0.000 C 
BRANCH   6   7
ATOM      7  C   UNL     1     106.664  19.929 198.083  1.00  0.00     0.000 C 
BRANCH   7   8
ATOM      8  C   UNL     1     106.850  21.051 197.046  1.00  0.00     0.000 C 
BRANCH   8   9
ATOM      9  C   UNL     1     108.132  20.878 196.216  1.00  0.00     0.000 C 
BRANCH   9  10
ATOM     10  C   UNL     1     108.834  19.536 196.487  1.00  0.00     0.000 C 
BRANCH  10  11
ATOM     11  C   UNL     1     110.118  19.364 195.660  1.00  0.00     0.000 C 
BRANCH  11  12
ATOM     12  C   UNL     1     110.667  20.704 195.138  1.00  0.00     0.006 C 
BRANCH  12  13
ATOM     13  C   UNL     1     112.056  21.022 195.704  1.00  0.00     0.053 C 
BRANCH  13  14
ATOM     14  C   UNL     1     111.986  21.467 197.134  1.00  0.00     0.041 C 
ATOM     15  O   UNL     1     112.885  21.128 197.949  1.00  0.00    -0.550 OA
ATOM     16  O   UNL     1     110.929  22.260 197.564  1.00  0.00    -0.550 OA
ENDBRANCH  13  14
ENDBRANCH  12  13
ENDBRANCH  11  12
ENDBRANCH  10  11
ENDBRANCH   9  10
ENDBRANCH   8   9
ENDBRANCH   7   8
ENDBRANCH   6   7
ENDBRANCH   5   6
ENDBRANCH   4   5
ENDBRANCH   3   4
ENDBRANCH   2   3
ENDBRANCH   1   2
BRANCH   1  17
ATOM     17  C   UNL     1     102.382  22.368 193.893  1.00  0.00     0.000 C 
BRANCH  17  18
ATOM     18  C   UNL     1     103.879  22.277 194.229  1.00  0.00     0.000 C 
BRANCH  18  19
ATOM     19  C   UNL     1     104.599  23.632 194.109  1.00  0.00     0.000 C 
BRANCH  19  20
ATOM     20  C   UNL     1     105.358  24.013 195.390  1.00  0.00     0.000 C 
BRANCH  20  21
ATOM     21  C   UNL     1     104.818  25.302 196.034  1.00  0.00     0.000 C 
BRANCH  21  22
ATOM     22  C   UNL     1     103.824  25.019 197.172  1.00  0.00    -0.000 C 
BRANCH  22  23
ATOM     23  C   UNL     1     103.950  23.593 197.732  1.00  0.00    -0.000 C 
BRANCH  23  24
ATOM     24  C   UNL     1     104.813  23.527 199.004  1.00  0.00    -0.000 C 
BRANCH  24  25
ATOM     25  C   UNL     1     104.010  23.182 200.276  1.00  0.00    -0.000 C 
BRANCH  25  26
ATOM     26  C   UNL     1     102.553  22.812 199.965  1.00  0.00    -0.000 C 
BRANCH  26  27
ATOM     27  C   UNL     1     101.580  23.774 200.663  1.00  0.00    -0.000 C 
BRANCH  27  28
ATOM     28  C   UNL     1     100.227  23.873 199.942  1.00  0.00    -0.000 C 
BRANCH  28  29
ATOM     29  C   UNL     1     100.291  23.374 198.490  1.00  0.00    -0.003 C 
ATOM     30  C   UNL     1      99.008  22.640 198.104  1.00  0.00     0.004 C 
ENDBRANCH  28  29
ENDBRANCH  27  28
ENDBRANCH  26  27
ENDBRANCH  25  26
ENDBRANCH  24  25
ENDBRANCH  23  24
ENDBRANCH  22  23
ENDBRANCH  21  22
ENDBRANCH  20  21
ENDBRANCH  19  20
ENDBRANCH  18  19
ENDBRANCH  17  18
ENDBRANCH   1  17
TORSDOF 26
ENDMDL
MODEL 8
REMARK VINA RESULT:    -5.794      1.196      4.367
REMARK INTER + INTRA:         -19.451
REMARK INTER:                 -15.431
REMARK INTRA:                  -4.020
REMARK UNBOUND:                -4.850
REMARK SMILES CCCCCCCCCCCCCCCCCCCCCCCCCCCC(=O)[O-]
REMARK SMILES IDX 15 1 16 2 17 3 18 4 19 5 20 6 21 7 22 8 23 9 24 10 25 11
REMARK SMILES IDX 26 12 27 13 28 14 29 15 30 16 14 17 13 18 12 19 11 20 10 21
REMARK SMILES IDX 9 22 8 23 7 24 6 25 5 26 4 27 3 28 2 29 1 30
REMARK H PARENT
REMARK Flexibility Score: inf
ROOT
ATOM      1  C   UNL     1     101.344  22.759 197.416  1.00  0.00     0.000 C 
ENDROOT
BRANCH   1   2
ATOM      2  C   UNL     1     100.537  21.840 196.469  1.00  0.00     0.000 C 
BRANCH   2   3
ATOM      3  C   UNL     1     101.185  20.461 196.244  1.00  0.00     0.000 C 
BRANCH   3   4
ATOM      4  C   UNL     1     102.510  20.245 196.997  1.00  0.00     0.000 C 
BRANCH   4   5
ATOM      5  C   UNL     1     102.937  18.761 197.081  1.00  0.00     0.000 C 
BRANCH   5   6
ATOM      6  C   UNL     1     104.413  18.596 197.481  1.00  0.00     0.000 C 
BRANCH   6   7
ATOM      7  C   UNL     1     105.292  19.761 197.000  1.00  0.00     0.000 C 
BRANCH   7   8
ATOM      8  C   UNL     1     106.504  20.009 197.917  1.00  0.00     0.000 C 
BRANCH   8   9
ATOM      9  C   UNL     1     107.131  21.395 197.699  1.00  0.00     0.000 C 
BRANCH   9  10
ATOM     10  C   UNL     1     108.476  21.324 196.953  1.00  0.00     0.000 C 
BRANCH  10  11
ATOM     11  C   UNL     1     108.601  20.064 196.084  1.00  0.00     0.000 C 
BRANCH  11  12
ATOM     12  C   UNL     1     110.034  19.502 196.063  1.00  0.00     0.006 C 
BRANCH  12  13
ATOM     13  C   UNL     1     110.989  20.379 195.244  1.00  0.00     0.053 C 
BRANCH  13  14
ATOM     14  C   UNL     1     111.959  21.113 196.120  1.00  0.00     0.041 C 
ATOM     15  O   UNL     1     112.008  20.871 197.356  1.00  0.00    -0.550 OA
ATOM     16  O   UNL     1     112.811  22.063 195.571  1.00  0.00    -0.550 OA
ENDBRANCH  13  14
ENDBRANCH  12  13
ENDBRANCH  11  12
ENDBRANCH  10  11
ENDBRANCH   9  10
ENDBRANCH   8   9
ENDBRANCH   7   8
ENDBRANCH   6   7
ENDBRANCH   5   6
ENDBRANCH   4   5
ENDBRANCH   3   4
ENDBRANCH   2   3
ENDBRANCH   1   2
BRANCH   1  17
ATOM     17  C   UNL     1     100.552  23.159 198.672  1.00  0.00     0.000 C 
BRANCH  17  18
ATOM     18  C   UNL     1     101.431  23.844 199.731  1.00  0.00     0.000 C 
BRANCH  18  19
ATOM     19  C   UNL     1     102.301  22.846 200.516  1.00  0.00     0.000 C 
BRANCH  19  20
ATOM     20  C   UNL     1     103.792  23.221 200.499  1.00  0.00     0.000 C 
BRANCH  20  21
ATOM     21  C   UNL     1     104.446  22.974 199.129  1.00  0.00     0.000 C 
BRANCH  21  22
ATOM     22  C   UNL     1     105.020  24.260 198.511  1.00  0.00    -0.000 C 
BRANCH  22  23
ATOM     23  C   UNL     1     104.118  24.847 197.414  1.00  0.00    -0.000 C 
BRANCH  23  24
ATOM     24  C   UNL     1     104.916  25.475 196.259  1.00  0.00    -0.000 C 
BRANCH  24  25
ATOM     25  C   UNL     1     105.059  24.550 195.032  1.00  0.00    -0.000 C 
BRANCH  25  26
ATOM     26  C   UNL     1     104.919  23.066 195.401  1.00  0.00    -0.000 C 
BRANCH  26  27
ATOM     27  C   UNL     1     104.182  22.293 194.297  1.00  0.00    -0.000 C 
BRANCH  27  28
ATOM     28  C   UNL     1     105.106  21.898 193.134  1.00  0.00    -0.000 C 
BRANCH  28  29
ATOM     29  C   UNL     1     106.253  20.977 193.574  1.00  0.00    -0.003 C 
ATOM     30  C   UNL     1     107.468  21.138 192.663  1.00  0.00     0.004 C 
ENDBRANCH  28  29
ENDBRANCH  27  28
ENDBRANCH  26  27
ENDBRANCH  25  26
ENDBRANCH  24  25
ENDBRANCH  23  24
ENDBRANCH  22  23
ENDBRANCH  21  22
ENDBRANCH  20  21
ENDBRANCH  19  20
ENDBRANCH  18  19
ENDBRANCH  17  18
ENDBRANCH   1  17
TORSDOF 26
ENDMDL
MODEL 9
REMARK VINA RESULT:    -5.691      1.273      2.585
REMARK INTER + INTRA:         -19.192
REMARK INTER:                 -14.870
REMARK INTRA:                  -4.322
REMARK UNBOUND:                -4.850
REMARK SMILES CCCCCCCCCCCCCCCCCCCCCCCCCCCC(=O)[O-]
REMARK SMILES IDX 15 1 16 2 17 3 18 4 19 5 20 6 21 7 22 8 23 9 24 10 25 11
REMARK SMILES IDX 26 12 27 13 28 14 29 15 30 16 14 17 13 18 12 19 11 20 10 21
REMARK SMILES IDX 9 22 8 23 7 24 6 25 5 26 4 27 3 28 2 29 1 30
REMARK H PARENT
REMARK Flexibility Score: inf
ROOT
ATOM      1  C   UNL     1     105.007  23.150 198.975  1.00  0.00     0.000 C 
ENDROOT
BRANCH   1   2
ATOM      2  C   UNL     1     105.002  24.546 198.309  1.00  0.00     0.000 C 
BRANCH   2   3
ATOM      3  C   UNL     1     104.105  24.634 197.060  1.00  0.00     0.000 C 
BRANCH   3   4
ATOM      4  C   UNL     1     104.725  25.401 195.878  1.00  0.00     0.000 C 
BRANCH   4   5
ATOM      5  C   UNL     1     105.329  24.480 194.793  1.00  0.00     0.000 C 
BRANCH   5   6
ATOM      6  C   UNL     1     105.136  22.988 195.112  1.00  0.00     0.000 C 
BRANCH   6   7
ATOM      7  C   UNL     1     105.082  22.114 193.850  1.00  0.00     0.000 C 
BRANCH   7   8
ATOM      8  C   UNL     1     106.141  20.996 193.855  1.00  0.00     0.000 C 
BRANCH   8   9
ATOM      9  C   UNL     1     107.085  21.076 192.645  1.00  0.00     0.000 C 
BRANCH   9  10
ATOM     10  C   UNL     1     108.564  20.917 193.039  1.00  0.00     0.000 C 
BRANCH  10  11
ATOM     11  C   UNL     1     108.749  20.659 194.542  1.00  0.00     0.000 C 
BRANCH  11  12
ATOM     12  C   UNL     1     110.198  20.286 194.903  1.00  0.00     0.006 C 
BRANCH  12  13
ATOM     13  C   UNL     1     110.522  20.572 196.374  1.00  0.00     0.053 C 
BRANCH  13  14
ATOM     14  C   UNL     1     111.877  21.192 196.535  1.00  0.00     0.041 C 
ATOM     15  O   UNL     1     112.419  21.792 195.568  1.00  0.00    -0.550 OA
ATOM     16  O   UNL     1     112.540  21.110 197.753  1.00  0.00    -0.550 OA
ENDBRANCH  13  14
ENDBRANCH  12  13
ENDBRANCH  11  12
ENDBRANCH  10  11
ENDBRANCH   9  10
ENDBRANCH   8   9
ENDBRANCH   7   8
ENDBRANCH   6   7
ENDBRANCH   5   6
ENDBRANCH   4   5
ENDBRANCH   3   4
ENDBRANCH   2   3
ENDBRANCH   1   2
BRANCH   1  17
ATOM     17  C   UNL     1     106.081  23.018 200.068  1.00  0.00     0.000 C 
BRANCH  17  18
ATOM     18  C   UNL     1     107.125  21.938 199.741  1.00  0.00     0.000 C 
BRANCH  18  19
ATOM     19  C   UNL     1     107.172  21.591 198.242  1.00  0.00     0.000 C 
BRANCH  19  20
ATOM     20  C   UNL     1     106.921  20.098 197.973  1.00  0.00     0.000 C 
BRANCH  20  21
ATOM     21  C   UNL     1     105.769  19.863 196.982  1.00  0.00     0.000 C 
BRANCH  21  22
ATOM     22  C   UNL     1     104.816  18.748 197.441  1.00  0.00    -0.000 C 
BRANCH  22  23
ATOM     23  C   UNL     1     103.345  19.195 197.466  1.00  0.00    -0.000 C 
BRANCH  23  24
ATOM     24  C   UNL     1     103.151  20.634 196.959  1.00  0.00    -0.000 C 
BRANCH  24  25
ATOM     25  C   UNL     1     101.768  20.883 196.322  1.00  0.00    -0.000 C 
BRANCH  25  26
ATOM     26  C   UNL     1     101.540  22.363 195.981  1.00  0.00    -0.000 C 
BRANCH  26  27
ATOM     27  C   UNL     1     100.288  22.904 196.687  1.00  0.00    -0.000 C 
BRANCH  27  28
ATOM     28  C   UNL     1     100.304  22.644 198.201  1.00  0.00    -0.000 C 
BRANCH  28  29
ATOM     29  C   UNL     1     101.296  23.549 198.948  1.00  0.00    -0.003 C 
ATOM     30  C   UNL     1     100.764  23.924 200.330  1.00  0.00     0.004 C 
ENDBRANCH  28  29
ENDBRANCH  27  28
ENDBRANCH  26  27
ENDBRANCH  25  26
ENDBRANCH  24  25
ENDBRANCH  23  24
ENDBRANCH  22  23
ENDBRANCH  21  22
ENDBRANCH  20  21
ENDBRANCH  19  20
ENDBRANCH  18  19
ENDBRANCH  17  18
ENDBRANCH   1  17
TORSDOF 26
ENDMDL
