MODEL 1
REMARK VINA RESULT:    -2.868      0.000      0.000
REMARK INTER + INTRA:          -3.059
REMARK INTER:                  -3.036
REMARK INTRA:                  -0.024
REMARK UNBOUND:                -0.024
REMARK SMILES O=C([O-])c1cccnc1
REMARK SMILES IDX 4 1 5 2 9 3 6 4 8 5 7 6 2 7 1 8 3 9
REMARK H PARENT
REMARK Flexibility Score: inf
ROOT
ATOM      1  C   UNL     1      30.948  21.709  34.513  1.00  0.00     0.016 A 
ATOM      2  C   UNL     1      29.712  21.109  34.221  1.00  0.00     0.013 A 
ATOM      3  C   UNL     1      32.124  21.006  34.198  1.00  0.00     0.120 A 
ATOM      4  C   UNL     1      29.669  19.843  33.632  1.00  0.00     0.021 A 
ATOM      5  N   UNL     1      32.054  19.774  33.625  1.00  0.00    -0.264 NA
ATOM      6  C   UNL     1      30.863  19.184  33.338  1.00  0.00     0.111 A 
ENDROOT
BRANCH   1   7
ATOM      7  C   UNL     1      31.016  23.048  35.136  1.00  0.00     0.073 C 
ATOM      8  O   UNL     1      32.125  23.627  35.293  1.00  0.00    -0.545 OA
ATOM      9  O   UNL     1      29.856  23.689  35.556  1.00  0.00    -0.545 OA
ENDBRANCH   1   7
TORSDOF 1
ENDMDL
MODEL 2
REMARK VINA RESULT:    -2.682      2.731      3.648
REMARK INTER + INTRA:          -2.862
REMARK INTER:                  -2.845
REMARK INTRA:                  -0.017
REMARK UNBOUND:                -0.024
REMARK SMILES O=C([O-])c1cccnc1
REMARK SMILES IDX 4 1 5 2 9 3 6 4 8 5 7 6 2 7 1 8 3 9
REMARK H PARENT
REMARK Flexibility Score: inf
ROOT
ATOM      1  C   UNL     1      29.616  20.162  33.892  1.00  0.00     0.016 A 
ATOM      2  C   UNL     1      29.790  21.360  34.605  1.00  0.00     0.013 A 
ATOM      3  C   UNL     1      30.733  19.598  33.251  1.00  0.00     0.120 A 
ATOM      4  C   UNL     1      31.046  21.965  34.664  1.00  0.00     0.021 A 
ATOM      5  N   UNL     1      31.947  20.208  33.325  1.00  0.00    -0.264 NA
ATOM      6  C   UNL     1      32.125  21.368  34.011  1.00  0.00     0.111 A 
ENDROOT
BRANCH   1   7
ATOM      7  C   UNL     1      28.294  19.504  33.818  1.00  0.00     0.073 C 
ATOM      8  O   UNL     1      27.326  20.076  33.248  1.00  0.00    -0.545 OA
ATOM      9  O   UNL     1      28.101  18.245  34.373  1.00  0.00    -0.545 OA
ENDBRANCH   1   7
TORSDOF 1
ENDMDL
MODEL 3
REMARK VINA RESULT:    -2.472     21.143     21.926
REMARK INTER + INTRA:          -2.640
REMARK INTER:                  -2.618
REMARK INTRA:                  -0.022
REMARK UNBOUND:                -0.024
REMARK SMILES O=C([O-])c1cccnc1
REMARK SMILES IDX 4 1 5 2 9 3 6 4 8 5 7 6 2 7 1 8 3 9
REMARK H PARENT
REMARK Flexibility Score: inf
ROOT
ATOM      1  C   UNL     1      15.563  36.895  32.841  1.00  0.00     0.016 A 
ATOM      2  C   UNL     1      15.184  36.905  34.194  1.00  0.00     0.013 A 
ATOM      3  C   UNL     1      16.929  37.001  32.528  1.00  0.00     0.120 A 
ATOM      4  C   UNL     1      16.153  37.021  35.192  1.00  0.00     0.021 A 
ATOM      5  N   UNL     1      17.853  37.113  33.521  1.00  0.00    -0.264 NA
ATOM      6  C   UNL     1      17.497  37.125  34.833  1.00  0.00     0.111 A 
ENDROOT
BRANCH   1   7
ATOM      7  C   UNL     1      14.553  36.772  31.768  1.00  0.00     0.073 C 
ATOM      8  O   UNL     1      14.878  36.347  30.627  1.00  0.00    -0.545 OA
ATOM      9  O   UNL     1      13.229  37.123  32.004  1.00  0.00    -0.545 OA
ENDBRANCH   1   7
TORSDOF 1
ENDMDL
MODEL 4
REMARK VINA RESULT:    -2.304     12.628     13.576
REMARK INTER + INTRA:          -2.462
REMARK INTER:                  -2.439
REMARK INTRA:                  -0.023
REMARK UNBOUND:                -0.024
REMARK SMILES O=C([O-])c1cccnc1
REMARK SMILES IDX 4 1 5 2 9 3 6 4 8 5 7 6 2 7 1 8 3 9
REMARK H PARENT
REMARK Flexibility Score: inf
ROOT
ATOM      1  C   UNL     1      19.000  26.391  35.702  1.00  0.00     0.016 A 
ATOM      2  C   UNL     1      19.694  26.216  36.911  1.00  0.00     0.013 A 
ATOM      3  C   UNL     1      17.611  26.604  35.752  1.00  0.00     0.120 A 
ATOM      4  C   UNL     1      19.006  26.252  38.125  1.00  0.00     0.021 A 
ATOM      5  N   UNL     1      16.966  26.635  36.949  1.00  0.00    -0.264 NA
ATOM      6  C   UNL     1      17.627  26.465  38.125  1.00  0.00     0.111 A 
ENDROOT
BRANCH   1   7
ATOM      7  C   UNL     1      19.710  26.357  34.405  1.00  0.00     0.073 C 
ATOM      8  O   UNL     1      20.873  25.877  34.323  1.00  0.00    -0.545 OA
ATOM      9  O   UNL     1      19.103  26.852  33.256  1.00  0.00    -0.545 OA
ENDBRANCH   1   7
TORSDOF 1
ENDMDL
MODEL 5
REMARK VINA RESULT:    -2.286     12.279     13.186
REMARK INTER + INTRA:          -2.443
REMARK INTER:                  -2.419
REMARK INTRA:                  -0.024
REMARK UNBOUND:                -0.024
REMARK SMILES O=C([O-])c1cccnc1
REMARK SMILES IDX 4 1 5 2 9 3 6 4 8 5 7 6 2 7 1 8 3 9
REMARK H PARENT
REMARK Flexibility Score: inf
ROOT
ATOM      1  C   UNL     1      18.995  26.429  35.850  1.00  0.00     0.016 A 
ATOM      2  C   UNL     1      20.199  25.877  35.380  1.00  0.00     0.013 A 
ATOM      3  C   UNL     1      18.106  26.989  34.916  1.00  0.00     0.120 A 
ATOM      4  C   UNL     1      20.492  25.894  34.015  1.00  0.00     0.021 A 
ATOM      5  N   UNL     1      18.416  26.992  33.592  1.00  0.00    -0.264 NA
ATOM      6  C   UNL     1      19.578  26.461  33.126  1.00  0.00     0.111 A 
ENDROOT
BRANCH   1   7
ATOM      7  C   UNL     1      18.666  26.421  37.292  1.00  0.00     0.073 C 
ATOM      8  O   UNL     1      19.447  25.888  38.125  1.00  0.00    -0.545 OA
ATOM      9  O   UNL     1      17.489  27.003  37.749  1.00  0.00    -0.545 OA
ENDBRANCH   1   7
TORSDOF 1
ENDMDL
MODEL 6
REMARK VINA RESULT:    -2.161     12.001     12.795
REMARK INTER + INTRA:          -2.310
REMARK INTER:                  -2.293
REMARK INTRA:                  -0.018
REMARK UNBOUND:                -0.024
REMARK SMILES O=C([O-])c1cccnc1
REMARK SMILES IDX 4 1 5 2 9 3 6 4 8 5 7 6 2 7 1 8 3 9
REMARK H PARENT
REMARK Flexibility Score: inf
ROOT
ATOM      1  C   UNL     1      19.723  26.166  33.970  1.00  0.00     0.016 A 
ATOM      2  C   UNL     1      20.342  25.775  35.169  1.00  0.00     0.013 A 
ATOM      3  C   UNL     1      18.468  26.795  34.040  1.00  0.00     0.120 A 
ATOM      4  C   UNL     1      19.713  26.010  36.393  1.00  0.00     0.021 A 
ATOM      5  N   UNL     1      17.877  27.014  35.246  1.00  0.00    -0.264 NA
ATOM      6  C   UNL     1      18.467  26.638  36.412  1.00  0.00     0.111 A 
ENDROOT
BRANCH   1   7
ATOM      7  C   UNL     1      20.373  25.926  32.664  1.00  0.00     0.073 C 
ATOM      8  O   UNL     1      20.636  26.887  31.892  1.00  0.00    -0.545 OA
ATOM      9  O   UNL     1      20.704  24.635  32.269  1.00  0.00    -0.545 OA
ENDBRANCH   1   7
TORSDOF 1
ENDMDL
MODEL 7
REMARK VINA RESULT:    -2.023     21.974     22.798
REMARK INTER + INTRA:          -2.165
REMARK INTER:                  -2.148
REMARK INTRA:                  -0.016
REMARK UNBOUND:                -0.024
REMARK SMILES O=C([O-])c1cccnc1
REMARK SMILES IDX 4 1 5 2 9 3 6 4 8 5 7 6 2 7 1 8 3 9
REMARK H PARENT
REMARK Flexibility Score: inf
ROOT
ATOM      1  C   UNL     1      14.079  36.380  31.495  1.00  0.00     0.016 A 
ATOM      2  C   UNL     1      15.164  36.362  30.604  1.00  0.00     0.013 A 
ATOM      3  C   UNL     1      14.312  36.773  32.825  1.00  0.00     0.120 A 
ATOM      4  C   UNL     1      16.438  36.726  31.043  1.00  0.00     0.021 A 
ATOM      5  N   UNL     1      15.563  37.124  33.227  1.00  0.00    -0.264 NA
ATOM      6  C   UNL     1      16.621  37.109  32.372  1.00  0.00     0.111 A 
ENDROOT
BRANCH   1   7
ATOM      7  C   UNL     1      12.721  35.998  31.050  1.00  0.00     0.073 C 
ATOM      8  O   UNL     1      12.222  34.893  31.394  1.00  0.00    -0.545 OA
ATOM      9  O   UNL     1      11.976  36.855  30.249  1.00  0.00    -0.545 OA
ENDBRANCH   1   7
TORSDOF 1
ENDMDL
MODEL 8
REMARK VINA RESULT:    -1.464      2.770      3.741
REMARK INTER + INTRA:          -1.573
REMARK INTER:                  -1.552
REMARK INTRA:                  -0.022
REMARK UNBOUND:                -0.024
REMARK SMILES O=C([O-])c1cccnc1
REMARK SMILES IDX 4 1 5 2 9 3 6 4 8 5 7 6 2 7 1 8 3 9
REMARK H PARENT
REMARK Flexibility Score: inf
ROOT
ATOM      1  C   UNL     1      30.571  20.770  34.134  1.00  0.00     0.016 A 
ATOM      2  C   UNL     1      29.850  21.476  35.111  1.00  0.00     0.013 A 
ATOM      3  C   UNL     1      31.726  21.364  33.595  1.00  0.00     0.120 A 
ATOM      4  C   UNL     1      30.281  22.737  35.526  1.00  0.00     0.021 A 
ATOM      5  N   UNL     1      32.125  22.594  34.017  1.00  0.00    -0.264 NA
ATOM      6  C   UNL     1      31.434  23.286  34.962  1.00  0.00     0.111 A 
ENDROOT
BRANCH   1   7
ATOM      7  C   UNL     1      30.132  19.432  33.680  1.00  0.00     0.073 C 
ATOM      8  O   UNL     1      28.909  19.128  33.673  1.00  0.00    -0.545 OA
ATOM      9  O   UNL     1      31.062  18.492  33.254  1.00  0.00    -0.545 OA
ENDBRANCH   1   7
TORSDOF 1
ENDMDL
MODEL 9
REMARK VINA RESULT:    -1.424      8.784      9.651
REMARK INTER + INTRA:          -1.531
REMARK INTER:                  -1.512
REMARK INTRA:                  -0.020
REMARK UNBOUND:                -0.024
REMARK SMILES O=C([O-])c1cccnc1
REMARK SMILES IDX 4 1 5 2 9 3 6 4 8 5 7 6 2 7 1 8 3 9
REMARK H PARENT
REMARK Flexibility Score: inf
ROOT
ATOM      1  C   UNL     1      22.747  19.354  36.995  1.00  0.00     0.016 A 
ATOM      2  C   UNL     1      22.699  20.142  35.833  1.00  0.00     0.013 A 
ATOM      3  C   UNL     1      22.021  19.778  38.121  1.00  0.00     0.120 A 
ATOM      4  C   UNL     1      21.946  21.317  35.813  1.00  0.00     0.021 A 
ATOM      5  N   UNL     1      21.294  20.927  38.075  1.00  0.00    -0.264 NA
ATOM      6  C   UNL     1      21.242  21.698  36.956  1.00  0.00     0.111 A 
ENDROOT
BRANCH   1   7
ATOM      7  C   UNL     1      23.538  18.105  37.036  1.00  0.00     0.073 C 
ATOM      8  O   UNL     1      23.060  17.060  37.554  1.00  0.00    -0.545 OA
ATOM      9  O   UNL     1      24.821  18.066  36.502  1.00  0.00    -0.545 OA
ENDBRANCH   1   7
TORSDOF 1
ENDMDL
