MODEL 1
REMARK VINA RESULT:    -4.988      0.000      0.000
REMARK INTER + INTRA:          -7.183
REMARK INTER:                  -6.737
REMARK INTRA:                  -0.446
REMARK UNBOUND:                -0.446
REMARK SMILES CC(=O)CCC=C(C)CCC=C(C)C
REMARK SMILES IDX 7 1 6 2 8 3 9 4 10 5 11 6 13 7 12 8 14 9 5 10 4 11 2 12 3 13
REMARK SMILES IDX 1 14
REMARK H PARENT
REMARK Flexibility Score: inf
ROOT
ATOM      1  C   UNL     1      34.500  41.719 148.911  1.00  0.00    -0.077 C 
ATOM      2  C   UNL     1      33.225  42.051 149.217  1.00  0.00    -0.028 C 
ATOM      3  C   UNL     1      35.091  40.396 149.338  1.00  0.00     0.039 C 
ENDROOT
BRANCH   1   4
ATOM      4  C   UNL     1      35.346  42.688 148.115  1.00  0.00     0.034 C 
BRANCH   4   5
ATOM      5  C   UNL     1      36.373  41.940 147.257  1.00  0.00     0.032 C 
BRANCH   5   6
ATOM      6  C   UNL     1      37.365  42.893 146.635  1.00  0.00    -0.028 C 
ATOM      7  C   UNL     1      36.390  42.563 144.359  1.00  0.00     0.039 C 
ATOM      8  C   UNL     1      37.380  43.182 145.317  1.00  0.00    -0.080 C 
ATOM      9  C   UNL     1      38.416  44.148 144.799  1.00  0.00     0.039 C 
ENDBRANCH   5   6
ENDBRANCH   4   5
ENDBRANCH   1   4
BRANCH   2  10
ATOM     10  C   UNL     1      32.306  41.150 150.006  1.00  0.00     0.035 C 
BRANCH  10  11
ATOM     11  C   UNL     1      31.100  40.716 149.166  1.00  0.00     0.079 C 
BRANCH  11  12
ATOM     12  C   UNL     1      30.116  39.943 150.002  1.00  0.00     0.130 C 
ATOM     13  O   UNL     1      28.918  40.082 149.813  1.00  0.00    -0.300 OA
ATOM     14  C   UNL     1      30.598  38.988 151.052  1.00  0.00     0.087 C 
ENDBRANCH  11  12
ENDBRANCH  10  11
ENDBRANCH   2  10
TORSDOF 6
ENDMDL
MODEL 2
REMARK VINA RESULT:    -4.851      4.310      6.871
REMARK INTER + INTRA:          -6.997
REMARK INTER:                  -5.929
REMARK INTRA:                  -1.069
REMARK UNBOUND:                -0.446
REMARK SMILES CC(=O)CCC=C(C)CCC=C(C)C
REMARK SMILES IDX 7 1 6 2 8 3 9 4 10 5 11 6 13 7 12 8 14 9 5 10 4 11 2 12 3 13
REMARK SMILES IDX 1 14
REMARK H PARENT
REMARK Flexibility Score: inf
ROOT
ATOM      1  C   UNL     1      39.937  43.405 144.718  1.00  0.00    -0.077 C 
ATOM      2  C   UNL     1      38.713  43.975 144.646  1.00  0.00    -0.028 C 
ATOM      3  C   UNL     1      40.146  42.080 145.413  1.00  0.00     0.039 C 
ENDROOT
BRANCH   1   4
ATOM      4  C   UNL     1      41.117  44.104 144.080  1.00  0.00     0.034 C 
BRANCH   4   5
ATOM      5  C   UNL     1      40.946  44.186 142.559  1.00  0.00     0.032 C 
BRANCH   5   6
ATOM      6  C   UNL     1      41.346  42.891 141.892  1.00  0.00    -0.028 C 
ATOM      7  C   UNL     1      38.987  42.397 141.237  1.00  0.00     0.039 C 
ATOM      8  C   UNL     1      40.461  42.071 141.289  1.00  0.00    -0.080 C 
ATOM      9  C   UNL     1      40.968  40.800 140.654  1.00  0.00     0.039 C 
ENDBRANCH   5   6
ENDBRANCH   4   5
ENDBRANCH   1   4
BRANCH   2  10
ATOM     10  C   UNL     1      37.477  43.354 145.251  1.00  0.00     0.035 C 
BRANCH  10  11
ATOM     11  C   UNL     1      36.639  42.636 144.187  1.00  0.00     0.079 C 
BRANCH  11  12
ATOM     12  C   UNL     1      35.239  42.395 144.683  1.00  0.00     0.130 C 
ATOM     13  O   UNL     1      34.288  42.630 143.954  1.00  0.00    -0.300 OA
ATOM     14  C   UNL     1      35.005  41.845 146.057  1.00  0.00     0.087 C 
ENDBRANCH  11  12
ENDBRANCH  10  11
ENDBRANCH   2  10
TORSDOF 6
ENDMDL
MODEL 3
REMARK VINA RESULT:    -4.745      1.449      2.304
REMARK INTER + INTRA:          -6.855
REMARK INTER:                  -6.385
REMARK INTRA:                  -0.470
REMARK UNBOUND:                -0.446
REMARK SMILES CC(=O)CCC=C(C)CCC=C(C)C
REMARK SMILES IDX 7 1 6 2 8 3 9 4 10 5 11 6 13 7 12 8 14 9 5 10 4 11 2 12 3 13
REMARK SMILES IDX 1 14
REMARK H PARENT
REMARK Flexibility Score: inf
ROOT
ATOM      1  C   UNL     1      36.375  42.180 147.938  1.00  0.00    -0.077 C 
ATOM      2  C   UNL     1      35.033  42.302 148.054  1.00  0.00    -0.028 C 
ATOM      3  C   UNL     1      37.106  40.985 148.502  1.00  0.00     0.039 C 
ENDROOT
BRANCH   1   4
ATOM      4  C   UNL     1      37.156  43.258 147.219  1.00  0.00     0.034 C 
BRANCH   4   5
ATOM      5  C   UNL     1      37.110  43.046 145.701  1.00  0.00     0.032 C 
BRANCH   5   6
ATOM      6  C   UNL     1      38.205  43.819 145.007  1.00  0.00    -0.028 C 
ATOM      7  C   UNL     1      39.726  41.837 145.005  1.00  0.00     0.039 C 
ATOM      8  C   UNL     1      39.399  43.277 144.687  1.00  0.00    -0.080 C 
ATOM      9  C   UNL     1      40.424  44.140 143.994  1.00  0.00     0.039 C 
ENDBRANCH   5   6
ENDBRANCH   4   5
ENDBRANCH   1   4
BRANCH   2  10
ATOM     10  C   UNL     1      34.170  41.280 148.752  1.00  0.00     0.035 C 
BRANCH  10  11
ATOM     11  C   UNL     1      32.953  41.939 149.411  1.00  0.00     0.079 C 
BRANCH  11  12
ATOM     12  C   UNL     1      31.715  41.112 149.195  1.00  0.00     0.130 C 
ATOM     13  O   UNL     1      31.088  41.219 148.152  1.00  0.00    -0.300 OA
ATOM     14  C   UNL     1      31.257  40.143 150.242  1.00  0.00     0.087 C 
ENDBRANCH  11  12
ENDBRANCH  10  11
ENDBRANCH   2  10
TORSDOF 6
ENDMDL
MODEL 4
REMARK VINA RESULT:    -4.730      8.496      9.673
REMARK INTER + INTRA:          -6.834
REMARK INTER:                  -5.662
REMARK INTRA:                  -1.173
REMARK UNBOUND:                -0.446
REMARK SMILES CC(=O)CCC=C(C)CCC=C(C)C
REMARK SMILES IDX 7 1 6 2 8 3 9 4 10 5 11 6 13 7 12 8 14 9 5 10 4 11 2 12 3 13
REMARK SMILES IDX 1 14
REMARK H PARENT
REMARK Flexibility Score: inf
ROOT
ATOM      1  C   UNL     1      27.339  43.780 143.178  1.00  0.00    -0.077 C 
ATOM      2  C   UNL     1      26.462  42.762 143.032  1.00  0.00    -0.028 C 
ATOM      3  C   UNL     1      27.433  44.889 142.157  1.00  0.00     0.039 C 
ENDROOT
BRANCH   1   4
ATOM      4  C   UNL     1      28.237  43.814 144.396  1.00  0.00     0.034 C 
BRANCH   4   5
ATOM      5  C   UNL     1      29.206  42.626 144.394  1.00  0.00     0.032 C 
BRANCH   5   6
ATOM      6  C   UNL     1      30.356  42.859 143.444  1.00  0.00    -0.028 C 
ATOM      7  C   UNL     1      29.551  41.077 141.890  1.00  0.00     0.039 C 
ATOM      8  C   UNL     1      30.522  42.158 142.303  1.00  0.00    -0.080 C 
ATOM      9  C   UNL     1      31.708  42.471 141.427  1.00  0.00     0.039 C 
ENDBRANCH   5   6
ENDBRANCH   4   5
ENDBRANCH   1   4
BRANCH   2  10
ATOM     10  C   UNL     1      25.528  42.642 141.853  1.00  0.00     0.035 C 
BRANCH  10  11
ATOM     11  C   UNL     1      24.110  43.093 142.221  1.00  0.00     0.079 C 
BRANCH  11  12
ATOM     12  C   UNL     1      23.795  44.427 141.599  1.00  0.00     0.130 C 
ATOM     13  O   UNL     1      23.499  44.490 140.416  1.00  0.00    -0.300 OA
ATOM     14  C   UNL     1      23.821  45.676 142.427  1.00  0.00     0.087 C 
ENDBRANCH  11  12
ENDBRANCH  10  11
ENDBRANCH   2  10
TORSDOF 6
ENDMDL
MODEL 5
REMARK VINA RESULT:    -4.701      3.487      7.532
REMARK INTER + INTRA:          -6.795
REMARK INTER:                  -6.192
REMARK INTRA:                  -0.604
REMARK UNBOUND:                -0.446
REMARK SMILES CC(=O)CCC=C(C)CCC=C(C)C
REMARK SMILES IDX 7 1 6 2 8 3 9 4 10 5 11 6 13 7 12 8 14 9 5 10 4 11 2 12 3 13
REMARK SMILES IDX 1 14
REMARK H PARENT
REMARK Flexibility Score: inf
ROOT
ATOM      1  C   UNL     1      34.855  41.453 147.583  1.00  0.00    -0.077 C 
ATOM      2  C   UNL     1      35.866  42.313 147.328  1.00  0.00    -0.028 C 
ATOM      3  C   UNL     1      34.151  40.715 146.469  1.00  0.00     0.039 C 
ENDROOT
BRANCH   1   4
ATOM      4  C   UNL     1      34.428  41.218 149.016  1.00  0.00     0.034 C 
BRANCH   4   5
ATOM      5  C   UNL     1      33.115  41.949 149.322  1.00  0.00     0.032 C 
BRANCH   5   6
ATOM      6  C   UNL     1      32.114  41.028 149.977  1.00  0.00    -0.028 C 
ATOM      7  C   UNL     1      30.549  41.205 148.039  1.00  0.00     0.039 C 
ATOM      8  C   UNL     1      30.944  40.685 149.401  1.00  0.00    -0.080 C 
ATOM      9  C   UNL     1      30.016  39.758 150.144  1.00  0.00     0.039 C 
ENDBRANCH   5   6
ENDBRANCH   4   5
ENDBRANCH   1   4
BRANCH   2  10
ATOM     10  C   UNL     1      36.362  42.612 145.934  1.00  0.00     0.035 C 
BRANCH  10  11
ATOM     11  C   UNL     1      37.655  43.434 145.970  1.00  0.00     0.079 C 
BRANCH  11  12
ATOM     12  C   UNL     1      38.303  43.470 144.613  1.00  0.00     0.130 C 
ATOM     13  O   UNL     1      39.272  44.189 144.421  1.00  0.00    -0.300 OA
ATOM     14  C   UNL     1      37.781  42.613 143.499  1.00  0.00     0.087 C 
ENDBRANCH  11  12
ENDBRANCH  10  11
ENDBRANCH   2  10
TORSDOF 6
ENDMDL
MODEL 6
REMARK VINA RESULT:    -4.689     14.800     16.100
REMARK INTER + INTRA:          -6.779
REMARK INTER:                  -5.270
REMARK INTRA:                  -1.510
REMARK UNBOUND:                -0.446
REMARK SMILES CC(=O)CCC=C(C)CCC=C(C)C
REMARK SMILES IDX 7 1 6 2 8 3 9 4 10 5 11 6 13 7 12 8 14 9 5 10 4 11 2 12 3 13
REMARK SMILES IDX 1 14
REMARK H PARENT
REMARK Flexibility Score: inf
ROOT
ATOM      1  C   UNL     1      26.857  30.253 140.722  1.00  0.00    -0.077 C 
ATOM      2  C   UNL     1      26.130  29.491 139.873  1.00  0.00    -0.028 C 
ATOM      3  C   UNL     1      26.214  31.342 141.547  1.00  0.00     0.039 C 
ENDROOT
BRANCH   1   4
ATOM      4  C   UNL     1      28.343  29.999 140.854  1.00  0.00     0.034 C 
BRANCH   4   5
ATOM      5  C   UNL     1      29.007  29.912 139.475  1.00  0.00     0.032 C 
BRANCH   5   6
ATOM      6  C   UNL     1      29.160  31.279 138.852  1.00  0.00    -0.028 C 
ATOM      7  C   UNL     1      27.900  30.586 136.809  1.00  0.00     0.039 C 
ATOM      8  C   UNL     1      28.659  31.594 137.639  1.00  0.00    -0.080 C 
ATOM      9  C   UNL     1      28.870  32.990 137.111  1.00  0.00     0.039 C 
ENDBRANCH   5   6
ENDBRANCH   4   5
ENDBRANCH   1   4
BRANCH   2  10
ATOM     10  C   UNL     1      24.645  29.669 139.674  1.00  0.00     0.035 C 
BRANCH  10  11
ATOM     11  C   UNL     1      24.342  30.329 138.324  1.00  0.00     0.079 C 
BRANCH  11  12
ATOM     12  C   UNL     1      24.068  31.798 138.497  1.00  0.00     0.130 C 
ATOM     13  O   UNL     1      22.964  32.171 138.864  1.00  0.00    -0.300 OA
ATOM     14  C   UNL     1      25.147  32.807 138.243  1.00  0.00     0.087 C 
ENDBRANCH  11  12
ENDBRANCH  10  11
ENDBRANCH   2  10
TORSDOF 6
ENDMDL
MODEL 7
REMARK VINA RESULT:    -4.671      1.768      2.697
REMARK INTER + INTRA:          -6.755
REMARK INTER:                  -5.982
REMARK INTRA:                  -0.773
REMARK UNBOUND:                -0.446
REMARK SMILES CC(=O)CCC=C(C)CCC=C(C)C
REMARK SMILES IDX 7 1 6 2 8 3 9 4 10 5 11 6 13 7 12 8 14 9 5 10 4 11 2 12 3 13
REMARK SMILES IDX 1 14
REMARK H PARENT
REMARK Flexibility Score: inf
ROOT
ATOM      1  C   UNL     1      36.894  41.969 147.958  1.00  0.00    -0.077 C 
ATOM      2  C   UNL     1      35.708  42.615 147.909  1.00  0.00    -0.028 C 
ATOM      3  C   UNL     1      37.142  40.856 148.949  1.00  0.00     0.039 C 
ENDROOT
BRANCH   1   4
ATOM      4  C   UNL     1      37.991  42.362 146.992  1.00  0.00     0.034 C 
BRANCH   4   5
ATOM      5  C   UNL     1      37.507  43.455 146.032  1.00  0.00     0.032 C 
BRANCH   5   6
ATOM      6  C   UNL     1      37.698  43.042 144.592  1.00  0.00    -0.028 C 
ATOM      7  C   UNL     1      35.281  42.460 144.346  1.00  0.00     0.039 C 
ATOM      8  C   UNL     1      36.690  42.588 143.818  1.00  0.00    -0.080 C 
ATOM      9  C   UNL     1      36.990  42.202 142.392  1.00  0.00     0.039 C 
ENDBRANCH   5   6
ENDBRANCH   4   5
ENDBRANCH   1   4
BRANCH   2  10
ATOM     10  C   UNL     1      34.556  42.294 148.830  1.00  0.00     0.035 C 
BRANCH  10  11
ATOM     11  C   UNL     1      33.551  41.354 148.155  1.00  0.00     0.079 C 
BRANCH  11  12
ATOM     12  C   UNL     1      32.264  41.300 148.932  1.00  0.00     0.130 C 
ATOM     13  O   UNL     1      32.281  41.435 150.146  1.00  0.00    -0.300 OA
ATOM     14  C   UNL     1      30.958  41.104 148.224  1.00  0.00     0.087 C 
ENDBRANCH  11  12
ENDBRANCH  10  11
ENDBRANCH   2  10
TORSDOF 6
ENDMDL
MODEL 8
REMARK VINA RESULT:    -4.671      8.484     10.272
REMARK INTER + INTRA:          -6.755
REMARK INTER:                  -5.328
REMARK INTRA:                  -1.428
REMARK UNBOUND:                -0.446
REMARK SMILES CC(=O)CCC=C(C)CCC=C(C)C
REMARK SMILES IDX 7 1 6 2 8 3 9 4 10 5 11 6 13 7 12 8 14 9 5 10 4 11 2 12 3 13
REMARK SMILES IDX 1 14
REMARK H PARENT
REMARK Flexibility Score: inf
ROOT
ATOM      1  C   UNL     1      28.479  43.570 143.317  1.00  0.00    -0.077 C 
ATOM      2  C   UNL     1      27.939  44.013 142.159  1.00  0.00    -0.028 C 
ATOM      3  C   UNL     1      28.138  44.215 144.639  1.00  0.00     0.039 C 
ENDROOT
BRANCH   1   4
ATOM      4  C   UNL     1      29.435  42.397 143.286  1.00  0.00     0.034 C 
BRANCH   4   5
ATOM      5  C   UNL     1      28.852  41.239 142.468  1.00  0.00     0.032 C 
BRANCH   5   6
ATOM      6  C   UNL     1      27.670  40.614 143.170  1.00  0.00    -0.028 C 
ATOM      7  C   UNL     1      26.193  40.967 141.186  1.00  0.00     0.039 C 
ATOM      8  C   UNL     1      26.456  40.487 142.594  1.00  0.00    -0.080 C 
ATOM      9  C   UNL     1      25.343  39.847 143.385  1.00  0.00     0.039 C 
ENDBRANCH   5   6
ENDBRANCH   4   5
ENDBRANCH   1   4
BRANCH   2  10
ATOM     10  C   UNL     1      26.977  45.174 142.089  1.00  0.00     0.035 C 
BRANCH  10  11
ATOM     11  C   UNL     1      25.645  44.754 141.460  1.00  0.00     0.079 C 
BRANCH  11  12
ATOM     12  C   UNL     1      24.556  44.700 142.497  1.00  0.00     0.130 C 
ATOM     13  O   UNL     1      23.664  45.534 142.485  1.00  0.00    -0.300 OA
ATOM     14  C   UNL     1      24.547  43.617 143.533  1.00  0.00     0.087 C 
ENDBRANCH  11  12
ENDBRANCH  10  11
ENDBRANCH   2  10
TORSDOF 6
ENDMDL
MODEL 9
REMARK VINA RESULT:    -4.666      4.211      8.415
REMARK INTER + INTRA:          -6.748
REMARK INTER:                  -6.285
REMARK INTRA:                  -0.463
REMARK UNBOUND:                -0.446
REMARK SMILES CC(=O)CCC=C(C)CCC=C(C)C
REMARK SMILES IDX 7 1 6 2 8 3 9 4 10 5 11 6 13 7 12 8 14 9 5 10 4 11 2 12 3 13
REMARK SMILES IDX 1 14
REMARK H PARENT
REMARK Flexibility Score: inf
ROOT
ATOM      1  C   UNL     1      36.539  42.740 145.041  1.00  0.00    -0.077 C 
ATOM      2  C   UNL     1      37.496  43.561 145.528  1.00  0.00    -0.028 C 
ATOM      3  C   UNL     1      36.575  42.254 143.611  1.00  0.00     0.039 C 
ENDROOT
BRANCH   1   4
ATOM      4  C   UNL     1      35.417  42.291 145.950  1.00  0.00     0.034 C 
BRANCH   4   5
ATOM      5  C   UNL     1      35.864  42.303 147.417  1.00  0.00     0.032 C 
BRANCH   5   6
ATOM      6  C   UNL     1      34.683  42.438 148.348  1.00  0.00    -0.028 C 
ATOM      7  C   UNL     1      34.511  39.963 148.634  1.00  0.00     0.039 C 
ATOM      8  C   UNL     1      34.061  41.379 148.906  1.00  0.00    -0.080 C 
ATOM      9  C   UNL     1      32.890  41.627 149.822  1.00  0.00     0.039 C 
ENDBRANCH   5   6
ENDBRANCH   4   5
ENDBRANCH   1   4
BRANCH   2  10
ATOM     10  C   UNL     1      38.653  44.062 144.698  1.00  0.00     0.035 C 
BRANCH  10  11
ATOM     11  C   UNL     1      39.850  43.108 144.783  1.00  0.00     0.079 C 
BRANCH  11  12
ATOM     12  C   UNL     1      41.059  43.707 144.116  1.00  0.00     0.130 C 
ATOM     13  O   UNL     1      42.095  43.843 144.749  1.00  0.00    -0.300 OA
ATOM     14  C   UNL     1      41.007  44.116 142.676  1.00  0.00     0.087 C 
ENDBRANCH  11  12
ENDBRANCH  10  11
ENDBRANCH   2  10
TORSDOF 6
ENDMDL
