MODEL 1
REMARK VINA RESULT:    -7.112      0.000      0.000
REMARK INTER + INTRA:          -8.642
REMARK INTER:                  -8.567
REMARK INTRA:                  -0.074
REMARK UNBOUND:                -0.074
REMARK SMILES O=c1c(O)c(-c2ccc(O)c(O)c2)oc2cc(O)cc(O)c12
REMARK SMILES IDX 5 1 3 2 2 3 1 4 22 5 20 6 19 7 17 8 16 9 15 10 14 11 6 12
REMARK SMILES IDX 7 13 8 14 9 15 13 16 11 17 10 18 12 20 4 22 21 24 18 26
REMARK H PARENT 10 19 12 21 4 23 21 25 18 27
REMARK Flexibility Score: inf
ROOT
ATOM      1  C   UNL     1      29.164 -36.317  13.444  1.00  0.00     0.180 A 
ATOM      2  C   UNL     1      29.277 -37.093  12.274  1.00  0.00     0.208 A 
ATOM      3  C   UNL     1      28.822 -38.420  12.293  1.00  0.00     0.238 A 
ATOM      4  O   UNL     1      28.908 -39.121  11.249  1.00  0.00    -0.285 OA
ATOM      5  C   UNL     1      28.284 -38.955  13.482  1.00  0.00     0.111 A 
ATOM      6  C   UNL     1      27.806 -40.283  13.586  1.00  0.00     0.134 A 
ATOM      7  C   UNL     1      27.293 -40.744  14.808  1.00  0.00     0.093 A 
ATOM      8  C   UNL     1      27.247 -39.906  15.924  1.00  0.00     0.123 A 
ATOM      9  C   UNL     1      27.716 -38.592  15.826  1.00  0.00     0.094 A 
ATOM     10  C   UNL     1      28.230 -38.113  14.618  1.00  0.00     0.146 A 
ATOM     11  O   UNL     1      28.664 -36.860  14.550  1.00  0.00    -0.452 OA
ENDROOT
BRANCH   1  12
ATOM     12  C   UNL     1      29.604 -34.904  13.497  1.00  0.00     0.025 A 
ATOM     13  C   UNL     1      29.128 -33.955  12.576  1.00  0.00     0.016 A 
ATOM     14  C   UNL     1      29.538 -32.621  12.660  1.00  0.00     0.051 A 
ATOM     15  C   UNL     1      30.415 -32.214  13.670  1.00  0.00     0.157 A 
ATOM     16  C   UNL     1      30.468 -34.487  14.522  1.00  0.00     0.062 A 
ATOM     17  C   UNL     1      30.881 -33.149  14.609  1.00  0.00     0.158 A 
BRANCH  15  18
ATOM     18  O   UNL     1      30.808 -30.876  13.728  1.00  0.00    -0.504 OA
ATOM     19  H   UNL     1      31.037 -30.347  12.895  1.00  0.00     0.293 HD
ENDBRANCH  15  18
BRANCH  17  20
ATOM     20  O   UNL     1      31.750 -32.749  15.623  1.00  0.00    -0.504 OA
ATOM     21  H   UNL     1      32.286 -33.421  16.158  1.00  0.00     0.293 HD
ENDBRANCH  17  20
ENDBRANCH   1  12
BRANCH   2  22
ATOM     22  O   UNL     1      29.859 -36.554  11.123  1.00  0.00    -0.502 OA
ATOM     23  H   UNL     1      30.446 -35.730  11.147  1.00  0.00     0.293 HD
ENDBRANCH   2  22
BRANCH   6  24
ATOM     24  O   UNL     1      27.839 -41.147  12.491  1.00  0.00    -0.507 OA
ATOM     25  H   UNL     1      28.482 -41.930  12.448  1.00  0.00     0.293 HD
ENDBRANCH   6  24
BRANCH   8  26
ATOM     26  O   UNL     1      26.733 -40.388  17.125  1.00  0.00    -0.508 OA
ATOM     27  H   UNL     1      26.082 -41.165  17.148  1.00  0.00     0.293 HD
ENDBRANCH   8  26
TORSDOF 6
ENDMDL
MODEL 2
REMARK VINA RESULT:    -6.634      2.731      7.071
REMARK INTER + INTRA:          -8.066
REMARK INTER:                  -7.853
REMARK INTRA:                  -0.212
REMARK UNBOUND:                -0.074
REMARK SMILES O=c1c(O)c(-c2ccc(O)c(O)c2)oc2cc(O)cc(O)c12
REMARK SMILES IDX 5 1 3 2 2 3 1 4 22 5 20 6 19 7 17 8 16 9 15 10 14 11 6 12
REMARK SMILES IDX 7 13 8 14 9 15 13 16 11 17 10 18 12 20 4 22 21 24 18 26
REMARK H PARENT 10 19 12 21 4 23 21 25 18 27
REMARK Flexibility Score: inf
ROOT
ATOM      1  C   UNL     1      30.759 -36.672  13.269  1.00  0.00     0.180 A 
ATOM      2  C   UNL     1      30.522 -35.697  12.281  1.00  0.00     0.208 A 
ATOM      3  C   UNL     1      31.503 -34.723  12.039  1.00  0.00     0.238 A 
ATOM      4  O   UNL     1      31.307 -33.852  11.149  1.00  0.00    -0.285 OA
ATOM      5  C   UNL     1      32.691 -34.727  12.799  1.00  0.00     0.111 A 
ATOM      6  C   UNL     1      33.728 -33.780  12.620  1.00  0.00     0.134 A 
ATOM      7  C   UNL     1      34.876 -33.846  13.423  1.00  0.00     0.093 A 
ATOM      8  C   UNL     1      35.008 -34.837  14.398  1.00  0.00     0.123 A 
ATOM      9  C   UNL     1      33.988 -35.776  14.579  1.00  0.00     0.094 A 
ATOM     10  C   UNL     1      32.836 -35.729  13.788  1.00  0.00     0.146 A 
ATOM     11  O   UNL     1      31.885 -36.635  13.976  1.00  0.00    -0.452 OA
ENDROOT
BRANCH   1  12
ATOM     12  C   UNL     1      29.780 -37.742  13.570  1.00  0.00     0.025 A 
ATOM     13  C   UNL     1      29.042 -37.742  14.766  1.00  0.00     0.016 A 
ATOM     14  C   UNL     1      28.106 -38.749  15.019  1.00  0.00     0.051 A 
ATOM     15  C   UNL     1      27.884 -39.759  14.079  1.00  0.00     0.157 A 
ATOM     16  C   UNL     1      29.540 -38.746  12.620  1.00  0.00     0.062 A 
ATOM     17  C   UNL     1      28.601 -39.758  12.871  1.00  0.00     0.158 A 
BRANCH  15  18
ATOM     18  O   UNL     1      26.945 -40.753  14.360  1.00  0.00    -0.504 OA
ATOM     19  H   UNL     1      26.025 -40.756  13.939  1.00  0.00     0.293 HD
ENDBRANCH  15  18
BRANCH  17  20
ATOM     20  O   UNL     1      28.380 -40.758  11.925  1.00  0.00    -0.504 OA
ATOM     21  H   UNL     1      28.112 -41.696  12.197  1.00  0.00     0.293 HD
ENDBRANCH  17  20
ENDBRANCH   1  12
BRANCH   2  22
ATOM     22  O   UNL     1      29.315 -35.685  11.576  1.00  0.00    -0.502 OA
ATOM     23  H   UNL     1      29.277 -35.619  10.567  1.00  0.00     0.293 HD
ENDBRANCH   2  22
BRANCH   6  24
ATOM     24  O   UNL     1      33.626 -32.777  11.655  1.00  0.00    -0.507 OA
ATOM     25  H   UNL     1      33.136 -31.909  11.838  1.00  0.00     0.293 HD
ENDBRANCH   6  24
BRANCH   8  26
ATOM     26  O   UNL     1      36.159 -34.879  15.182  1.00  0.00    -0.508 OA
ATOM     27  H   UNL     1      36.158 -34.554  16.142  1.00  0.00     0.293 HD
ENDBRANCH   8  26
TORSDOF 6
ENDMDL
MODEL 3
REMARK VINA RESULT:    -6.615      2.444      2.956
REMARK INTER + INTRA:          -8.042
REMARK INTER:                  -7.752
REMARK INTRA:                  -0.290
REMARK UNBOUND:                -0.074
REMARK SMILES O=c1c(O)c(-c2ccc(O)c(O)c2)oc2cc(O)cc(O)c12
REMARK SMILES IDX 5 1 3 2 2 3 1 4 22 5 20 6 19 7 17 8 16 9 15 10 14 11 6 12
REMARK SMILES IDX 7 13 8 14 9 15 13 16 11 17 10 18 12 20 4 22 21 24 18 26
REMARK H PARENT 10 19 12 21 4 23 21 25 18 27
REMARK Flexibility Score: inf
ROOT
ATOM      1  C   UNL     1      30.996 -36.507  13.917  1.00  0.00     0.180 A 
ATOM      2  C   UNL     1      32.067 -37.208  14.503  1.00  0.00     0.208 A 
ATOM      3  C   UNL     1      31.967 -38.601  14.650  1.00  0.00     0.238 A 
ATOM      4  O   UNL     1      32.925 -39.240  15.162  1.00  0.00    -0.285 OA
ATOM      5  C   UNL     1      30.796 -39.263  14.230  1.00  0.00     0.111 A 
ATOM      6  C   UNL     1      30.613 -40.662  14.346  1.00  0.00     0.134 A 
ATOM      7  C   UNL     1      29.413 -41.246  13.913  1.00  0.00     0.093 A 
ATOM      8  C   UNL     1      28.395 -40.461  13.368  1.00  0.00     0.123 A 
ATOM      9  C   UNL     1      28.569 -39.078  13.250  1.00  0.00     0.094 A 
ATOM     10  C   UNL     1      29.758 -38.477  13.674  1.00  0.00     0.146 A 
ATOM     11  O   UNL     1      29.900 -37.164  13.546  1.00  0.00    -0.452 OA
ENDROOT
BRANCH   1  12
ATOM     12  C   UNL     1      31.033 -35.041  13.711  1.00  0.00     0.025 A 
ATOM     13  C   UNL     1      31.771 -34.469  12.661  1.00  0.00     0.016 A 
ATOM     14  C   UNL     1      31.773 -33.084  12.470  1.00  0.00     0.051 A 
ATOM     15  C   UNL     1      31.030 -32.254  13.314  1.00  0.00     0.157 A 
ATOM     16  C   UNL     1      30.272 -34.206  14.544  1.00  0.00     0.062 A 
ATOM     17  C   UNL     1      30.272 -32.816  14.355  1.00  0.00     0.158 A 
BRANCH  15  18
ATOM     18  O   UNL     1      31.052 -30.875  13.101  1.00  0.00    -0.504 OA
ATOM     19  H   UNL     1      30.349 -30.259  13.491  1.00  0.00     0.293 HD
ENDBRANCH  15  18
BRANCH  17  20
ATOM     20  O   UNL     1      29.523 -31.995  15.197  1.00  0.00    -0.504 OA
ATOM     21  H   UNL     1      29.485 -32.153  16.197  1.00  0.00     0.293 HD
ENDBRANCH  17  20
ENDBRANCH   1  12
BRANCH   2  22
ATOM     22  O   UNL     1      33.197 -36.522  14.956  1.00  0.00    -0.502 OA
ATOM     23  H   UNL     1      33.134 -35.707  15.553  1.00  0.00     0.293 HD
ENDBRANCH   2  22
BRANCH   6  24
ATOM     24  O   UNL     1      31.611 -41.474  14.886  1.00  0.00    -0.507 OA
ATOM     25  H   UNL     1      32.556 -41.134  15.029  1.00  0.00     0.293 HD
ENDBRANCH   6  24
BRANCH   8  26
ATOM     26  O   UNL     1      27.213 -41.066  12.946  1.00  0.00    -0.508 OA
ATOM     27  H   UNL     1      27.211 -41.988  12.526  1.00  0.00     0.293 HD
ENDBRANCH   8  26
TORSDOF 6
ENDMDL
MODEL 4
REMARK VINA RESULT:    -6.565      1.828      6.955
REMARK INTER + INTRA:          -7.983
REMARK INTER:                  -7.698
REMARK INTRA:                  -0.286
REMARK UNBOUND:                -0.074
REMARK SMILES O=c1c(O)c(-c2ccc(O)c(O)c2)oc2cc(O)cc(O)c12
REMARK SMILES IDX 5 1 3 2 2 3 1 4 22 5 20 6 19 7 17 8 16 9 15 10 14 11 6 12
REMARK SMILES IDX 7 13 8 14 9 15 13 16 11 17 10 18 12 20 4 22 21 24 18 26
REMARK H PARENT 10 19 12 21 4 23 21 25 18 27
REMARK Flexibility Score: inf
ROOT
ATOM      1  C   UNL     1      28.650 -39.096  13.857  1.00  0.00     0.180 A 
ATOM      2  C   UNL     1      28.762 -38.942  12.462  1.00  0.00     0.208 A 
ATOM      3  C   UNL     1      28.958 -37.657  11.934  1.00  0.00     0.238 A 
ATOM      4  O   UNL     1      29.070 -37.508  10.687  1.00  0.00    -0.285 OA
ATOM      5  C   UNL     1      29.016 -36.548  12.803  1.00  0.00     0.111 A 
ATOM      6  C   UNL     1      29.207 -35.220  12.353  1.00  0.00     0.134 A 
ATOM      7  C   UNL     1      29.245 -34.169  13.281  1.00  0.00     0.093 A 
ATOM      8  C   UNL     1      29.097 -34.418  14.647  1.00  0.00     0.123 A 
ATOM      9  C   UNL     1      28.909 -35.729  15.098  1.00  0.00     0.094 A 
ATOM     10  C   UNL     1      28.870 -36.791  14.190  1.00  0.00     0.146 A 
ATOM     11  O   UNL     1      28.696 -38.025  14.645  1.00  0.00    -0.452 OA
ENDROOT
BRANCH   1  12
ATOM     12  C   UNL     1      28.461 -40.421  14.491  1.00  0.00     0.025 A 
ATOM     13  C   UNL     1      29.524 -41.083  15.130  1.00  0.00     0.016 A 
ATOM     14  C   UNL     1      29.317 -42.322  15.743  1.00  0.00     0.051 A 
ATOM     15  C   UNL     1      28.049 -42.910  15.739  1.00  0.00     0.157 A 
ATOM     16  C   UNL     1      27.185 -41.004  14.507  1.00  0.00     0.062 A 
ATOM     17  C   UNL     1      26.975 -42.248  15.122  1.00  0.00     0.158 A 
BRANCH  15  18
ATOM     18  O   UNL     1      27.874 -44.149  16.357  1.00  0.00    -0.504 OA
ATOM     19  H   UNL     1      26.985 -44.633  16.346  1.00  0.00     0.293 HD
ENDBRANCH  15  18
BRANCH  17  20
ATOM     20  O   UNL     1      25.706 -42.824  15.120  1.00  0.00    -0.504 OA
ATOM     21  H   UNL     1      25.127 -42.836  15.951  1.00  0.00     0.293 HD
ENDBRANCH  17  20
ENDBRANCH   1  12
BRANCH   2  22
ATOM     22  O   UNL     1      28.651 -40.051  11.618  1.00  0.00    -0.502 OA
ATOM     23  H   UNL     1      29.056 -40.070  10.690  1.00  0.00     0.293 HD
ENDBRANCH   2  22
BRANCH   6  24
ATOM     24  O   UNL     1      29.357 -34.937  10.994  1.00  0.00    -0.507 OA
ATOM     25  H   UNL     1      28.607 -34.527  10.449  1.00  0.00     0.293 HD
ENDBRANCH   6  24
BRANCH   8  26
ATOM     26  O   UNL     1      29.138 -33.356  15.547  1.00  0.00    -0.508 OA
ATOM     27  H   UNL     1      29.331 -33.503  16.531  1.00  0.00     0.293 HD
ENDBRANCH   8  26
TORSDOF 6
ENDMDL
MODEL 5
REMARK VINA RESULT:    -6.478      4.762      6.502
REMARK INTER + INTRA:          -7.878
REMARK INTER:                  -7.554
REMARK INTRA:                  -0.324
REMARK UNBOUND:                -0.074
REMARK SMILES O=c1c(O)c(-c2ccc(O)c(O)c2)oc2cc(O)cc(O)c12
REMARK SMILES IDX 5 1 3 2 2 3 1 4 22 5 20 6 19 7 17 8 16 9 15 10 14 11 6 12
REMARK SMILES IDX 7 13 8 14 9 15 13 16 11 17 10 18 12 20 4 22 21 24 18 26
REMARK H PARENT 10 19 12 21 4 23 21 25 18 27
REMARK Flexibility Score: inf
ROOT
ATOM      1  C   UNL     1      33.355 -34.261  14.465  1.00  0.00     0.180 A 
ATOM      2  C   UNL     1      33.042 -34.585  13.131  1.00  0.00     0.208 A 
ATOM      3  C   UNL     1      31.744 -34.337  12.658  1.00  0.00     0.238 A 
ATOM      4  O   UNL     1      31.456 -34.613  11.463  1.00  0.00    -0.285 OA
ATOM      5  C   UNL     1      30.778 -33.791  13.529  1.00  0.00     0.111 A 
ATOM      6  C   UNL     1      29.447 -33.515  13.133  1.00  0.00     0.134 A 
ATOM      7  C   UNL     1      28.542 -32.980  14.062  1.00  0.00     0.093 A 
ATOM      8  C   UNL     1      28.940 -32.716  15.375  1.00  0.00     0.123 A 
ATOM      9  C   UNL     1      30.254 -32.986  15.771  1.00  0.00     0.094 A 
ATOM     10  C   UNL     1      31.171 -33.519  14.861  1.00  0.00     0.146 A 
ATOM     11  O   UNL     1      32.414 -33.760  15.261  1.00  0.00    -0.452 OA
ENDROOT
BRANCH   1  12
ATOM     12  C   UNL     1      34.706 -34.475  15.032  1.00  0.00     0.025 A 
ATOM     13  C   UNL     1      35.046 -35.677  15.677  1.00  0.00     0.016 A 
ATOM     14  C   UNL     1      36.335 -35.867  16.183  1.00  0.00     0.051 A 
ATOM     15  C   UNL     1      37.304 -34.870  16.041  1.00  0.00     0.157 A 
ATOM     16  C   UNL     1      35.687 -33.485  14.872  1.00  0.00     0.062 A 
ATOM     17  C   UNL     1      36.982 -33.673  15.379  1.00  0.00     0.158 A 
BRANCH  15  18
ATOM     18  O   UNL     1      38.582 -35.087  16.558  1.00  0.00    -0.504 OA
ATOM     19  H   UNL     1      39.419 -34.889  16.024  1.00  0.00     0.293 HD
ENDBRANCH  15  18
BRANCH  17  20
ATOM     20  O   UNL     1      37.945 -32.677  15.227  1.00  0.00    -0.504 OA
ATOM     21  H   UNL     1      38.646 -32.502  15.938  1.00  0.00     0.293 HD
ENDBRANCH  17  20
ENDBRANCH   1  12
BRANCH   2  22
ATOM     22  O   UNL     1      34.003 -35.170  12.302  1.00  0.00    -0.502 OA
ATOM     23  H   UNL     1      34.967 -34.863  12.288  1.00  0.00     0.293 HD
ENDBRANCH   2  22
BRANCH   6  24
ATOM     24  O   UNL     1      29.018 -33.767  11.830  1.00  0.00    -0.507 OA
ATOM     25  H   UNL     1      28.461 -33.096  11.312  1.00  0.00     0.293 HD
ENDBRANCH   6  24
BRANCH   8  26
ATOM     26  O   UNL     1      28.021 -32.185  16.277  1.00  0.00    -0.508 OA
ATOM     27  H   UNL     1      27.064 -32.515  16.314  1.00  0.00     0.293 HD
ENDBRANCH   8  26
TORSDOF 6
ENDMDL
MODEL 6
REMARK VINA RESULT:    -6.328      2.043      6.756
REMARK INTER + INTRA:          -7.697
REMARK INTER:                  -7.368
REMARK INTRA:                  -0.329
REMARK UNBOUND:                -0.074
REMARK SMILES O=c1c(O)c(-c2ccc(O)c(O)c2)oc2cc(O)cc(O)c12
REMARK SMILES IDX 5 1 3 2 2 3 1 4 22 5 20 6 19 7 17 8 16 9 15 10 14 11 6 12
REMARK SMILES IDX 7 13 8 14 9 15 13 16 11 17 10 18 12 20 4 22 21 24 18 26
REMARK H PARENT 10 19 12 21 4 23 21 25 18 27
REMARK Flexibility Score: inf
ROOT
ATOM      1  C   UNL     1      29.889 -37.564  13.545  1.00  0.00     0.180 A 
ATOM      2  C   UNL     1      30.767 -37.069  12.561  1.00  0.00     0.208 A 
ATOM      3  C   UNL     1      30.941 -35.681  12.442  1.00  0.00     0.238 A 
ATOM      4  O   UNL     1      31.732 -35.228  11.572  1.00  0.00    -0.285 OA
ATOM      5  C   UNL     1      30.222 -34.814  13.290  1.00  0.00     0.111 A 
ATOM      6  C   UNL     1      30.337 -33.404  13.233  1.00  0.00     0.134 A 
ATOM      7  C   UNL     1      29.580 -32.608  14.105  1.00  0.00     0.093 A 
ATOM      8  C   UNL     1      28.713 -33.192  15.032  1.00  0.00     0.123 A 
ATOM      9  C   UNL     1      28.596 -34.585  15.094  1.00  0.00     0.094 A 
ATOM     10  C   UNL     1      29.342 -35.396  14.234  1.00  0.00     0.146 A 
ATOM     11  O   UNL     1      29.217 -36.714  14.317  1.00  0.00    -0.452 OA
ENDROOT
BRANCH   1  12
ATOM     12  C   UNL     1      29.667 -39.014  13.744  1.00  0.00     0.025 A 
ATOM     13  C   UNL     1      30.502 -39.773  14.583  1.00  0.00     0.016 A 
ATOM     14  C   UNL     1      30.259 -41.135  14.776  1.00  0.00     0.051 A 
ATOM     15  C   UNL     1      29.174 -41.756  14.149  1.00  0.00     0.157 A 
ATOM     16  C   UNL     1      28.566 -39.635  13.133  1.00  0.00     0.062 A 
ATOM     17  C   UNL     1      28.320 -41.003  13.325  1.00  0.00     0.158 A 
BRANCH  15  18
ATOM     18  O   UNL     1      28.958 -43.118  14.358  1.00  0.00    -0.504 OA
ATOM     19  H   UNL     1      28.167 -43.461  14.889  1.00  0.00     0.293 HD
ENDBRANCH  15  18
BRANCH  17  20
ATOM     20  O   UNL     1      27.233 -41.613  12.702  1.00  0.00    -0.504 OA
ATOM     21  H   UNL     1      26.320 -41.646  13.140  1.00  0.00     0.293 HD
ENDBRANCH  17  20
ENDBRANCH   1  12
BRANCH   2  22
ATOM     22  O   UNL     1      31.430 -37.948  11.700  1.00  0.00    -0.502 OA
ATOM     23  H   UNL     1      31.022 -38.268  10.832  1.00  0.00     0.293 HD
ENDBRANCH   2  22
BRANCH   6  24
ATOM     24  O   UNL     1      31.193 -32.790  12.318  1.00  0.00    -0.507 OA
ATOM     25  H   UNL     1      32.003 -32.259  12.619  1.00  0.00     0.293 HD
ENDBRANCH   6  24
BRANCH   8  26
ATOM     26  O   UNL     1      27.973 -32.379  15.887  1.00  0.00    -0.508 OA
ATOM     27  H   UNL     1      27.367 -31.648  15.531  1.00  0.00     0.293 HD
ENDBRANCH   8  26
TORSDOF 6
ENDMDL
MODEL 7
REMARK VINA RESULT:    -6.326      3.196      4.867
REMARK INTER + INTRA:          -7.695
REMARK INTER:                  -7.549
REMARK INTRA:                  -0.146
REMARK UNBOUND:                -0.074
REMARK SMILES O=c1c(O)c(-c2ccc(O)c(O)c2)oc2cc(O)cc(O)c12
REMARK SMILES IDX 5 1 3 2 2 3 1 4 22 5 20 6 19 7 17 8 16 9 15 10 14 11 6 12
REMARK SMILES IDX 7 13 8 14 9 15 13 16 11 17 10 18 12 20 4 22 21 24 18 26
REMARK H PARENT 10 19 12 21 4 23 21 25 18 27
REMARK Flexibility Score: inf
ROOT
ATOM      1  C   UNL     1      32.279 -35.592  13.929  1.00  0.00     0.180 A 
ATOM      2  C   UNL     1      31.419 -35.387  15.025  1.00  0.00     0.208 A 
ATOM      3  C   UNL     1      30.144 -35.973  15.006  1.00  0.00     0.238 A 
ATOM      4  O   UNL     1      29.370 -35.805  15.987  1.00  0.00    -0.285 OA
ATOM      5  C   UNL     1      29.742 -36.732  13.889  1.00  0.00     0.111 A 
ATOM      6  C   UNL     1      28.473 -37.352  13.789  1.00  0.00     0.134 A 
ATOM      7  C   UNL     1      28.145 -38.085  12.639  1.00  0.00     0.093 A 
ATOM      8  C   UNL     1      29.057 -38.210  11.589  1.00  0.00     0.123 A 
ATOM      9  C   UNL     1      30.313 -37.600  11.682  1.00  0.00     0.094 A 
ATOM     10  C   UNL     1      30.660 -36.867  12.820  1.00  0.00     0.146 A 
ATOM     11  O   UNL     1      31.860 -36.304  12.885  1.00  0.00    -0.452 OA
ENDROOT
BRANCH   1  12
ATOM     12  C   UNL     1      33.645 -35.024  13.882  1.00  0.00     0.025 A 
ATOM     13  C   UNL     1      34.000 -34.050  12.933  1.00  0.00     0.016 A 
ATOM     14  C   UNL     1      35.289 -33.509  12.923  1.00  0.00     0.051 A 
ATOM     15  C   UNL     1      36.236 -33.921  13.865  1.00  0.00     0.157 A 
ATOM     16  C   UNL     1      34.592 -35.420  14.840  1.00  0.00     0.062 A 
ATOM     17  C   UNL     1      35.887 -34.879  14.832  1.00  0.00     0.158 A 
BRANCH  15  18
ATOM     18  O   UNL     1      37.515 -33.366  13.829  1.00  0.00    -0.504 OA
ATOM     19  H   UNL     1      37.746 -32.516  14.329  1.00  0.00     0.293 HD
ENDBRANCH  15  18
BRANCH  17  20
ATOM     20  O   UNL     1      36.823 -35.290  15.779  1.00  0.00    -0.504 OA
ATOM     21  H   UNL     1      37.121 -36.256  15.847  1.00  0.00     0.293 HD
ENDBRANCH  17  20
ENDBRANCH   1  12
BRANCH   2  22
ATOM     22  O   UNL     1      31.823 -34.589  16.099  1.00  0.00    -0.502 OA
ATOM     23  H   UNL     1      32.464 -33.814  15.988  1.00  0.00     0.293 HD
ENDBRANCH   2  22
BRANCH   6  24
ATOM     24  O   UNL     1      27.539 -37.245  14.820  1.00  0.00    -0.507 OA
ATOM     25  H   UNL     1      26.916 -36.449  14.896  1.00  0.00     0.293 HD
ENDBRANCH   6  24
BRANCH   8  26
ATOM     26  O   UNL     1      28.706 -38.943  10.457  1.00  0.00    -0.508 OA
ATOM     27  H   UNL     1      27.811 -38.814  10.000  1.00  0.00     0.293 HD
ENDBRANCH   8  26
TORSDOF 6
ENDMDL
MODEL 8
REMARK VINA RESULT:    -6.292      3.236      4.076
REMARK INTER + INTRA:          -7.654
REMARK INTER:                  -7.371
REMARK INTRA:                  -0.284
REMARK UNBOUND:                -0.074
REMARK SMILES O=c1c(O)c(-c2ccc(O)c(O)c2)oc2cc(O)cc(O)c12
REMARK SMILES IDX 5 1 3 2 2 3 1 4 22 5 20 6 19 7 17 8 16 9 15 10 14 11 6 12
REMARK SMILES IDX 7 13 8 14 9 15 13 16 11 17 10 18 12 20 4 22 21 24 18 26
REMARK H PARENT 10 19 12 21 4 23 21 25 18 27
REMARK Flexibility Score: inf
ROOT
ATOM      1  C   UNL     1      32.191 -36.099  14.017  1.00  0.00     0.180 A 
ATOM      2  C   UNL     1      31.103 -35.590  13.284  1.00  0.00     0.208 A 
ATOM      3  C   UNL     1      30.053 -36.455  12.938  1.00  0.00     0.238 A 
ATOM      4  O   UNL     1      29.068 -36.008  12.291  1.00  0.00    -0.285 OA
ATOM      5  C   UNL     1      30.119 -37.813  13.310  1.00  0.00     0.111 A 
ATOM      6  C   UNL     1      29.106 -38.751  12.998  1.00  0.00     0.134 A 
ATOM      7  C   UNL     1      29.249 -40.089  13.396  1.00  0.00     0.093 A 
ATOM      8  C   UNL     1      30.382 -40.506  14.099  1.00  0.00     0.123 A 
ATOM      9  C   UNL     1      31.385 -39.583  14.412  1.00  0.00     0.094 A 
ATOM     10  C   UNL     1      31.261 -38.245  14.025  1.00  0.00     0.146 A 
ATOM     11  O   UNL     1      32.225 -37.389  14.339  1.00  0.00    -0.452 OA
ENDROOT
BRANCH   1  12
ATOM     12  C   UNL     1      33.327 -35.245  14.436  1.00  0.00     0.025 A 
ATOM     13  C   UNL     1      33.454 -34.797  15.762  1.00  0.00     0.016 A 
ATOM     14  C   UNL     1      34.547 -34.012  16.140  1.00  0.00     0.051 A 
ATOM     15  C   UNL     1      35.534 -33.677  15.208  1.00  0.00     0.157 A 
ATOM     16  C   UNL     1      34.329 -34.924  13.507  1.00  0.00     0.062 A 
ATOM     17  C   UNL     1      35.428 -34.137  13.884  1.00  0.00     0.158 A 
BRANCH  15  18
ATOM     18  O   UNL     1      36.612 -32.890  15.614  1.00  0.00    -0.504 OA
ATOM     19  H   UNL     1      37.386 -33.272  16.143  1.00  0.00     0.293 HD
ENDBRANCH  15  18
BRANCH  17  20
ATOM     20  O   UNL     1      36.410 -33.813  12.950  1.00  0.00    -0.504 OA
ATOM     21  H   UNL     1      36.254 -33.110  12.238  1.00  0.00     0.293 HD
ENDBRANCH  17  20
ENDBRANCH   1  12
BRANCH   2  22
ATOM     22  O   UNL     1      31.085 -34.250  12.884  1.00  0.00    -0.502 OA
ATOM     23  H   UNL     1      30.476 -33.911  12.150  1.00  0.00     0.293 HD
ENDBRANCH   2  22
BRANCH   6  24
ATOM     24  O   UNL     1      27.963 -38.367  12.296  1.00  0.00    -0.507 OA
ATOM     25  H   UNL     1      27.973 -37.591  11.643  1.00  0.00     0.293 HD
ENDBRANCH   6  24
BRANCH   8  26
ATOM     26  O   UNL     1      30.500 -41.840  14.483  1.00  0.00    -0.508 OA
ATOM     27  H   UNL     1      31.147 -42.127  15.208  1.00  0.00     0.293 HD
ENDBRANCH   8  26
TORSDOF 6
ENDMDL
MODEL 9
REMARK VINA RESULT:    -6.250      4.552      9.486
REMARK INTER + INTRA:          -7.603
REMARK INTER:                  -7.271
REMARK INTRA:                  -0.332
REMARK UNBOUND:                -0.074
REMARK SMILES O=c1c(O)c(-c2ccc(O)c(O)c2)oc2cc(O)cc(O)c12
REMARK SMILES IDX 5 1 3 2 2 3 1 4 22 5 20 6 19 7 17 8 16 9 15 10 14 11 6 12
REMARK SMILES IDX 7 13 8 14 9 15 13 16 11 17 10 18 12 20 4 22 21 24 18 26
REMARK H PARENT 10 19 12 21 4 23 21 25 18 27
REMARK Flexibility Score: inf
ROOT
ATOM      1  C   UNL     1      28.690 -43.904  14.729  1.00  0.00     0.180 A 
ATOM      2  C   UNL     1      27.546 -43.915  15.549  1.00  0.00     0.208 A 
ATOM      3  C   UNL     1      27.084 -42.703  16.087  1.00  0.00     0.238 A 
ATOM      4  O   UNL     1      26.054 -42.700  16.814  1.00  0.00    -0.285 OA
ATOM      5  C   UNL     1      27.782 -41.509  15.814  1.00  0.00     0.111 A 
ATOM      6  C   UNL     1      27.386 -40.248  16.319  1.00  0.00     0.134 A 
ATOM      7  C   UNL     1      28.139 -39.106  16.010  1.00  0.00     0.093 A 
ATOM      8  C   UNL     1      29.278 -39.200  15.207  1.00  0.00     0.123 A 
ATOM      9  C   UNL     1      29.674 -40.443  14.704  1.00  0.00     0.094 A 
ATOM     10  C   UNL     1      28.936 -41.593  15.000  1.00  0.00     0.146 A 
ATOM     11  O   UNL     1      29.331 -42.760  14.505  1.00  0.00    -0.452 OA
ENDROOT
BRANCH   1  12
ATOM     12  C   UNL     1      29.228 -45.137  14.110  1.00  0.00     0.025 A 
ATOM     13  C   UNL     1      28.793 -45.569  12.845  1.00  0.00     0.016 A 
ATOM     14  C   UNL     1      29.332 -46.723  12.269  1.00  0.00     0.051 A 
ATOM     15  C   UNL     1      30.319 -47.453  12.938  1.00  0.00     0.157 A 
ATOM     16  C   UNL     1      30.233 -45.860  14.770  1.00  0.00     0.062 A 
ATOM     17  C   UNL     1      30.776 -47.019  14.194  1.00  0.00     0.158 A 
BRANCH  15  18
ATOM     18  O   UNL     1      30.836 -48.602  12.340  1.00  0.00    -0.504 OA
ATOM     19  H   UNL     1      30.442 -48.991  11.493  1.00  0.00     0.293 HD
ENDBRANCH  15  18
BRANCH  17  20
ATOM     20  O   UNL     1      31.764 -47.737  14.865  1.00  0.00    -0.504 OA
ATOM     21  H   UNL     1      32.741 -47.663  14.609  1.00  0.00     0.293 HD
ENDBRANCH  17  20
ENDBRANCH   1  12
BRANCH   2  22
ATOM     22  O   UNL     1      26.900 -45.119  15.845  1.00  0.00    -0.502 OA
ATOM     23  H   UNL     1      25.892 -45.197  15.893  1.00  0.00     0.293 HD
ENDBRANCH   2  22
BRANCH   6  24
ATOM     24  O   UNL     1      26.253 -40.121  17.125  1.00  0.00    -0.507 OA
ATOM     25  H   UNL     1      26.048 -39.263  17.626  1.00  0.00     0.293 HD
ENDBRANCH   6  24
BRANCH   8  26
ATOM     26  O   UNL     1      30.009 -38.050  14.915  1.00  0.00    -0.508 OA
ATOM     27  H   UNL     1      29.948 -37.600  14.008  1.00  0.00     0.293 HD
ENDBRANCH   8  26
TORSDOF 6
ENDMDL
