MODEL 1
REMARK VINA RESULT:    -3.946      0.000      0.000
REMARK INTER + INTRA:          -5.026
REMARK INTER:                  -4.638
REMARK INTRA:                  -0.388
REMARK UNBOUND:                -0.388
REMARK SMILES [NH3+][C@@H](CO)C(=O)[O-]
REMARK SMILES IDX 3 1 2 2 1 3 5 7 6 8 7 9 4 10
REMARK H PARENT 1 4 1 5 1 6 4 11
REMARK Flexibility Score: inf
ROOT
ATOM      1  C   UNL     1      64.289   7.258  -6.355  1.00  0.00     0.227 C 
ENDROOT
BRANCH   1   2
ATOM      2  C   UNL     1      64.438   7.529  -4.848  1.00  0.00     0.253 C 
BRANCH   2   3
ATOM      3  N   UNL     1      65.402   6.608  -4.234  1.00  0.00    -0.348 N 
ATOM      4  H   UNL     1      65.112   6.362  -3.259  1.00  0.00     0.345 HD
ATOM      5  H   UNL     1      65.473   5.734  -4.803  1.00  0.00     0.345 HD
ATOM      6  H   UNL     1      66.349   7.052  -4.208  1.00  0.00     0.345 HD
ENDBRANCH   2   3
BRANCH   2   7
ATOM      7  C   UNL     1      63.099   7.406  -4.171  1.00  0.00     0.102 C 
ATOM      8  O   UNL     1      62.346   8.410  -4.069  1.00  0.00    -0.544 OA
ATOM      9  O   UNL     1      62.677   6.181  -3.671  1.00  0.00    -0.544 OA
ENDBRANCH   2   7
ENDBRANCH   1   2
BRANCH   1  10
ATOM     10  O   UNL     1      63.059   6.639  -6.625  1.00  0.00    -0.390 OA
ATOM     11  H   UNL     1      62.911   6.704  -7.604  1.00  0.00     0.210 HD
ENDBRANCH   1  10
TORSDOF 4
ENDMDL
MODEL 2
REMARK VINA RESULT:    -3.886      0.208      1.229
REMARK INTER + INTRA:          -4.956
REMARK INTER:                  -4.704
REMARK INTRA:                  -0.252
REMARK UNBOUND:                -0.388
REMARK SMILES [NH3+][C@@H](CO)C(=O)[O-]
REMARK SMILES IDX 3 1 2 2 1 3 5 7 6 8 7 9 4 10
REMARK H PARENT 1 4 1 5 1 6 4 11
REMARK Flexibility Score: inf
ROOT
ATOM      1  C   UNL     1      64.138   7.400  -6.252  1.00  0.00     0.227 C 
ENDROOT
BRANCH   1   2
ATOM      2  C   UNL     1      64.324   7.561  -4.733  1.00  0.00     0.253 C 
BRANCH   2   3
ATOM      3  N   UNL     1      65.326   6.620  -4.217  1.00  0.00    -0.348 N 
ATOM      4  H   UNL     1      65.224   5.684  -4.673  1.00  0.00     0.345 HD
ATOM      5  H   UNL     1      66.287   6.989  -4.396  1.00  0.00     0.345 HD
ATOM      6  H   UNL     1      65.211   6.512  -3.183  1.00  0.00     0.345 HD
ENDBRANCH   2   3
BRANCH   2   7
ATOM      7  C   UNL     1      63.008   7.356  -4.033  1.00  0.00     0.102 C 
ATOM      8  O   UNL     1      62.619   6.194  -3.744  1.00  0.00    -0.544 OA
ATOM      9  O   UNL     1      62.222   8.447  -3.684  1.00  0.00    -0.544 OA
ENDBRANCH   2   7
ENDBRANCH   1   2
BRANCH   1  10
ATOM     10  O   UNL     1      63.022   6.597  -6.530  1.00  0.00    -0.390 OA
ATOM     11  H   UNL     1      63.332   5.654  -6.510  1.00  0.00     0.210 HD
ENDBRANCH   1  10
TORSDOF 4
ENDMDL
MODEL 3
REMARK VINA RESULT:    -3.751      1.912      2.283
REMARK INTER + INTRA:          -4.797
REMARK INTER:                  -4.434
REMARK INTRA:                  -0.363
REMARK UNBOUND:                -0.388
REMARK SMILES [NH3+][C@@H](CO)C(=O)[O-]
REMARK SMILES IDX 3 1 2 2 1 3 5 7 6 8 7 9 4 10
REMARK H PARENT 1 4 1 5 1 6 4 11
REMARK Flexibility Score: inf
ROOT
ATOM      1  C   UNL     1      62.203   9.125  -5.450  1.00  0.00     0.227 C 
ENDROOT
BRANCH   1   2
ATOM      2  C   UNL     1      62.877   8.629  -4.159  1.00  0.00     0.253 C 
BRANCH   2   3
ATOM      3  N   UNL     1      64.091   9.400  -3.862  1.00  0.00    -0.348 N 
ATOM      4  H   UNL     1      64.947   8.859  -4.123  1.00  0.00     0.345 HD
ATOM      5  H   UNL     1      64.079  10.302  -4.390  1.00  0.00     0.345 HD
ATOM      6  H   UNL     1      64.126   9.626  -2.841  1.00  0.00     0.345 HD
ENDBRANCH   2   3
BRANCH   2   7
ATOM      7  C   UNL     1      63.208   7.167  -4.285  1.00  0.00     0.102 C 
ATOM      8  O   UNL     1      62.528   6.307  -3.666  1.00  0.00    -0.544 OA
ATOM      9  O   UNL     1      64.256   6.753  -5.099  1.00  0.00    -0.544 OA
ENDBRANCH   2   7
ENDBRANCH   1   2
BRANCH   1  10
ATOM     10  O   UNL     1      61.574   8.064  -6.117  1.00  0.00    -0.390 OA
ATOM     11  H   UNL     1      61.439   7.342  -5.449  1.00  0.00     0.210 HD
ENDBRANCH   1  10
TORSDOF 4
ENDMDL
MODEL 4
REMARK VINA RESULT:    -3.751      2.113      2.867
REMARK INTER + INTRA:          -4.797
REMARK INTER:                  -4.604
REMARK INTRA:                  -0.193
REMARK UNBOUND:                -0.388
REMARK SMILES [NH3+][C@@H](CO)C(=O)[O-]
REMARK SMILES IDX 3 1 2 2 1 3 5 7 6 8 7 9 4 10
REMARK H PARENT 1 4 1 5 1 6 4 11
REMARK Flexibility Score: inf
ROOT
ATOM      1  C   UNL     1      63.015   7.461  -3.918  1.00  0.00     0.227 C 
ENDROOT
BRANCH   1   2
ATOM      2  C   UNL     1      63.719   7.651  -5.273  1.00  0.00     0.253 C 
BRANCH   2   3
ATOM      3  N   UNL     1      63.089   6.837  -6.319  1.00  0.00    -0.348 N 
ATOM      4  H   UNL     1      62.330   6.239  -5.917  1.00  0.00     0.345 HD
ATOM      5  H   UNL     1      62.684   7.457  -7.058  1.00  0.00     0.345 HD
ATOM      6  H   UNL     1      63.806   6.224  -6.772  1.00  0.00     0.345 HD
ENDBRANCH   2   3
BRANCH   2   7
ATOM      7  C   UNL     1      65.176   7.297  -5.146  1.00  0.00     0.102 C 
ATOM      8  O   UNL     1      66.040   7.914  -5.823  1.00  0.00    -0.544 OA
ATOM      9  O   UNL     1      65.580   6.298  -4.268  1.00  0.00    -0.544 OA
ENDBRANCH   2   7
ENDBRANCH   1   2
BRANCH   1  10
ATOM     10  O   UNL     1      62.479   6.169  -3.818  1.00  0.00    -0.390 OA
ATOM     11  H   UNL     1      61.514   6.272  -3.608  1.00  0.00     0.210 HD
ENDBRANCH   1  10
TORSDOF 4
ENDMDL
MODEL 5
REMARK VINA RESULT:    -3.742     11.200     11.955
REMARK INTER + INTRA:          -4.786
REMARK INTER:                  -4.594
REMARK INTRA:                  -0.192
REMARK UNBOUND:                -0.388
REMARK SMILES [NH3+][C@@H](CO)C(=O)[O-]
REMARK SMILES IDX 3 1 2 2 1 3 5 7 6 8 7 9 4 10
REMARK H PARENT 1 4 1 5 1 6 4 11
REMARK Flexibility Score: inf
ROOT
ATOM      1  C   UNL     1      61.231   2.888   5.803  1.00  0.00     0.227 C 
ENDROOT
BRANCH   1   2
ATOM      2  C   UNL     1      62.591   2.237   5.493  1.00  0.00     0.253 C 
BRANCH   2   3
ATOM      3  N   UNL     1      63.346   3.025   4.511  1.00  0.00    -0.348 N 
ATOM      4  H   UNL     1      64.258   3.343   4.913  1.00  0.00     0.345 HD
ATOM      5  H   UNL     1      63.528   2.451   3.656  1.00  0.00     0.345 HD
ATOM      6  H   UNL     1      62.788   3.862   4.223  1.00  0.00     0.345 HD
ENDBRANCH   2   3
BRANCH   2   7
ATOM      7  C   UNL     1      62.382   0.836   4.985  1.00  0.00     0.102 C 
ATOM      8  O   UNL     1      62.679   0.542   3.797  1.00  0.00    -0.544 OA
ATOM      9  O   UNL     1      61.878  -0.147   5.827  1.00  0.00    -0.544 OA
ENDBRANCH   2   7
ENDBRANCH   1   2
BRANCH   1  10
ATOM     10  O   UNL     1      60.789   2.519   7.082  1.00  0.00    -0.390 OA
ATOM     11  H   UNL     1      59.973   1.967   6.959  1.00  0.00     0.210 HD
ENDBRANCH   1  10
TORSDOF 4
ENDMDL
MODEL 6
REMARK VINA RESULT:    -3.707     13.907     14.803
REMARK INTER + INTRA:          -4.746
REMARK INTER:                  -4.340
REMARK INTRA:                  -0.406
REMARK UNBOUND:                -0.388
REMARK SMILES [NH3+][C@@H](CO)C(=O)[O-]
REMARK SMILES IDX 3 1 2 2 1 3 5 7 6 8 7 9 4 10
REMARK H PARENT 1 4 1 5 1 6 4 11
REMARK Flexibility Score: inf
ROOT
ATOM      1  C   UNL     1      60.781  -0.745   8.325  1.00  0.00     0.227 C 
ENDROOT
BRANCH   1   2
ATOM      2  C   UNL     1      61.933  -0.210   7.458  1.00  0.00     0.253 C 
BRANCH   2   3
ATOM      3  N   UNL     1      61.503   0.938   6.649  1.00  0.00    -0.348 N 
ATOM      4  H   UNL     1      61.085   1.682   7.254  1.00  0.00     0.345 HD
ATOM      5  H   UNL     1      62.319   1.334   6.130  1.00  0.00     0.345 HD
ATOM      6  H   UNL     1      60.793   0.629   5.946  1.00  0.00     0.345 HD
ENDBRANCH   2   3
BRANCH   2   7
ATOM      7  C   UNL     1      62.455  -1.306   6.569  1.00  0.00     0.102 C 
ATOM      8  O   UNL     1      63.418  -2.024   6.947  1.00  0.00    -0.544 OA
ATOM      9  O   UNL     1      61.868  -1.544   5.332  1.00  0.00    -0.544 OA
ENDBRANCH   2   7
ENDBRANCH   1   2
BRANCH   1  10
ATOM     10  O   UNL     1      60.431  -2.045   7.933  1.00  0.00    -0.390 OA
ATOM     11  H   UNL     1      59.531  -2.230   8.310  1.00  0.00     0.210 HD
ENDBRANCH   1  10
TORSDOF 4
ENDMDL
MODEL 7
REMARK VINA RESULT:    -3.640     14.347     15.439
REMARK INTER + INTRA:          -4.667
REMARK INTER:                  -4.485
REMARK INTRA:                  -0.182
REMARK UNBOUND:                -0.388
REMARK SMILES [NH3+][C@@H](CO)C(=O)[O-]
REMARK SMILES IDX 3 1 2 2 1 3 5 7 6 8 7 9 4 10
REMARK H PARENT 1 4 1 5 1 6 4 11
REMARK Flexibility Score: inf
ROOT
ATOM      1  C   UNL     1      61.574  -0.039   8.809  1.00  0.00     0.227 C 
ENDROOT
BRANCH   1   2
ATOM      2  C   UNL     1      61.029  -0.813   7.596  1.00  0.00     0.253 C 
BRANCH   2   3
ATOM      3  N   UNL     1      60.242  -1.978   8.018  1.00  0.00    -0.348 N 
ATOM      4  H   UNL     1      59.880  -2.502   7.188  1.00  0.00     0.345 HD
ATOM      5  H   UNL     1      60.832  -2.617   8.598  1.00  0.00     0.345 HD
ATOM      6  H   UNL     1      59.434  -1.666   8.605  1.00  0.00     0.345 HD
ENDBRANCH   2   3
BRANCH   2   7
ATOM      7  C   UNL     1      62.169  -1.248   6.714  1.00  0.00     0.102 C 
ATOM      8  O   UNL     1      63.295  -1.504   7.215  1.00  0.00    -0.544 OA
ATOM      9  O   UNL     1      61.981  -1.387   5.345  1.00  0.00    -0.544 OA
ENDBRANCH   2   7
ENDBRANCH   1   2
BRANCH   1  10
ATOM     10  O   UNL     1      61.747  -0.897   9.905  1.00  0.00    -0.390 OA
ATOM     11  H   UNL     1      60.843  -1.088  10.269  1.00  0.00     0.210 HD
ENDBRANCH   1  10
TORSDOF 4
ENDMDL
MODEL 8
REMARK VINA RESULT:    -3.634      2.077      2.484
REMARK INTER + INTRA:          -4.660
REMARK INTER:                  -4.271
REMARK INTRA:                  -0.389
REMARK UNBOUND:                -0.388
REMARK SMILES [NH3+][C@@H](CO)C(=O)[O-]
REMARK SMILES IDX 3 1 2 2 1 3 5 7 6 8 7 9 4 10
REMARK H PARENT 1 4 1 5 1 6 4 11
REMARK Flexibility Score: inf
ROOT
ATOM      1  C   UNL     1      64.601   8.306  -5.415  1.00  0.00     0.227 C 
ENDROOT
BRANCH   1   2
ATOM      2  C   UNL     1      63.449   7.287  -5.372  1.00  0.00     0.253 C 
BRANCH   2   3
ATOM      3  N   UNL     1      62.288   7.764  -6.136  1.00  0.00    -0.348 N 
ATOM      4  H   UNL     1      62.352   8.795  -6.302  1.00  0.00     0.345 HD
ATOM      5  H   UNL     1      62.239   7.269  -7.055  1.00  0.00     0.345 HD
ATOM      6  H   UNL     1      61.408   7.554  -5.610  1.00  0.00     0.345 HD
ENDBRANCH   2   3
BRANCH   2   7
ATOM      7  C   UNL     1      63.056   7.019  -3.944  1.00  0.00     0.102 C 
ATOM      8  O   UNL     1      63.410   5.950  -3.380  1.00  0.00    -0.544 OA
ATOM      9  O   UNL     1      62.317   7.956  -3.233  1.00  0.00    -0.544 OA
ENDBRANCH   2   7
ENDBRANCH   1   2
BRANCH   1  10
ATOM     10  O   UNL     1      65.246   8.373  -4.171  1.00  0.00    -0.390 OA
ATOM     11  H   UNL     1      65.888   7.617  -4.137  1.00  0.00     0.210 HD
ENDBRANCH   1  10
TORSDOF 4
ENDMDL
MODEL 9
REMARK VINA RESULT:    -3.573     14.555     15.509
REMARK INTER + INTRA:          -4.588
REMARK INTER:                  -4.211
REMARK INTRA:                  -0.377
REMARK UNBOUND:                -0.388
REMARK SMILES [NH3+][C@@H](CO)C(=O)[O-]
REMARK SMILES IDX 3 1 2 2 1 3 5 7 6 8 7 9 4 10
REMARK H PARENT 1 4 1 5 1 6 4 11
REMARK Flexibility Score: inf
ROOT
ATOM      1  C   UNL     1      61.713   0.004   7.221  1.00  0.00     0.227 C 
ENDROOT
BRANCH   1   2
ATOM      2  C   UNL     1      61.140  -0.759   8.428  1.00  0.00     0.253 C 
BRANCH   2   3
ATOM      3  N   UNL     1      60.309  -1.890   7.998  1.00  0.00    -0.348 N 
ATOM      4  H   UNL     1      59.391  -1.555   7.624  1.00  0.00     0.345 HD
ATOM      5  H   UNL     1      60.805  -2.435   7.256  1.00  0.00     0.345 HD
ATOM      6  H   UNL     1      60.137  -2.531   8.807  1.00  0.00     0.345 HD
ENDBRANCH   2   3
BRANCH   2   7
ATOM      7  C   UNL     1      60.336   0.178   9.289  1.00  0.00     0.102 C 
ATOM      8  O   UNL     1      60.916   0.956  10.091  1.00  0.00    -0.544 OA
ATOM      9  O   UNL     1      58.951   0.204   9.192  1.00  0.00    -0.544 OA
ENDBRANCH   2   7
ENDBRANCH   1   2
BRANCH   1  10
ATOM     10  O   UNL     1      61.208   1.311   7.178  1.00  0.00    -0.390 OA
ATOM     11  H   UNL     1      61.404   1.726   8.058  1.00  0.00     0.210 HD
ENDBRANCH   1  10
TORSDOF 4
ENDMDL
