MODEL 1
REMARK VINA RESULT:    -3.353      0.000      0.000
REMARK INTER + INTRA:          -4.272
REMARK INTER:                  -3.941
REMARK INTRA:                  -0.330
REMARK UNBOUND:                -0.330
REMARK SMILES [NH3+][C@@H](CO)C(=O)[O-]
REMARK SMILES IDX 3 1 2 2 1 3 5 7 6 8 7 9 4 10
REMARK H PARENT 1 4 1 5 1 6 4 11
REMARK Flexibility Score: inf
ROOT
ATOM      1  C   UNL     1     146.502 143.622 132.291  1.00  0.00     0.227 C 
ENDROOT
BRANCH   1   2
ATOM      2  C   UNL     1     148.006 143.542 131.980  1.00  0.00     0.253 C 
BRANCH   2   3
ATOM      3  N   UNL     1     148.334 144.264 130.744  1.00  0.00    -0.348 N 
ATOM      4  H   UNL     1     147.849 145.190 130.736  1.00  0.00     0.345 HD
ATOM      5  H   UNL     1     148.006 143.715 129.917  1.00  0.00     0.345 HD
ATOM      6  H   UNL     1     149.367 144.419 130.662  1.00  0.00     0.345 HD
ENDBRANCH   2   3
BRANCH   2   7
ATOM      7  C   UNL     1     148.463 142.108 131.906  1.00  0.00     0.102 C 
ATOM      8  O   UNL     1     148.642 141.437 132.957  1.00  0.00    -0.544 OA
ATOM      9  O   UNL     1     148.730 141.530 130.672  1.00  0.00    -0.544 OA
ENDBRANCH   2   7
ENDBRANCH   1   2
BRANCH   1  10
ATOM     10  O   UNL     1     145.865 142.414 131.972  1.00  0.00    -0.390 OA
ATOM     11  H   UNL     1     145.452 142.090 132.814  1.00  0.00     0.210 HD
ENDBRANCH   1  10
TORSDOF 4
ENDMDL
MODEL 2
REMARK VINA RESULT:    -3.265      2.396      2.949
REMARK INTER + INTRA:          -4.168
REMARK INTER:                  -3.959
REMARK INTRA:                  -0.209
REMARK UNBOUND:                -0.330
REMARK SMILES [NH3+][C@@H](CO)C(=O)[O-]
REMARK SMILES IDX 3 1 2 2 1 3 5 7 6 8 7 9 4 10
REMARK H PARENT 1 4 1 5 1 6 4 11
REMARK Flexibility Score: inf
ROOT
ATOM      1  C   UNL     1     148.028 142.262 132.134  1.00  0.00     0.227 C 
ENDROOT
BRANCH   1   2
ATOM      2  C   UNL     1     147.500 143.653 132.522  1.00  0.00     0.253 C 
BRANCH   2   3
ATOM      3  N   UNL     1     146.093 143.817 132.135  1.00  0.00    -0.348 N 
ATOM      4  H   UNL     1     145.907 144.818 131.896  1.00  0.00     0.345 HD
ATOM      5  H   UNL     1     145.474 143.551 132.935  1.00  0.00     0.345 HD
ATOM      6  H   UNL     1     145.858 143.220 131.308  1.00  0.00     0.345 HD
ENDBRANCH   2   3
BRANCH   2   7
ATOM      7  C   UNL     1     148.355 144.738 131.921  1.00  0.00     0.102 C 
ATOM      8  O   UNL     1     148.710 144.681 130.714  1.00  0.00    -0.544 OA
ATOM      9  O   UNL     1     148.793 145.792 132.713  1.00  0.00    -0.544 OA
ENDBRANCH   2   7
ENDBRANCH   1   2
BRANCH   1  10
ATOM     10  O   UNL     1     147.500 141.858 130.900  1.00  0.00    -0.390 OA
ATOM     11  H   UNL     1     147.193 142.685 130.446  1.00  0.00     0.210 HD
ENDBRANCH   1  10
TORSDOF 4
ENDMDL
MODEL 3
REMARK VINA RESULT:    -3.241     17.489     17.913
REMARK INTER + INTRA:          -4.140
REMARK INTER:                  -3.945
REMARK INTRA:                  -0.195
REMARK UNBOUND:                -0.330
REMARK SMILES [NH3+][C@@H](CO)C(=O)[O-]
REMARK SMILES IDX 3 1 2 2 1 3 5 7 6 8 7 9 4 10
REMARK H PARENT 1 4 1 5 1 6 4 11
REMARK Flexibility Score: inf
ROOT
ATOM      1  C   UNL     1     129.821 143.400 132.551  1.00  0.00     0.227 C 
ENDROOT
BRANCH   1   2
ATOM      2  C   UNL     1     130.402 144.789 132.862  1.00  0.00     0.253 C 
BRANCH   2   3
ATOM      3  N   UNL     1     129.761 145.385 134.040  1.00  0.00    -0.348 N 
ATOM      4  H   UNL     1     128.926 144.817 134.314  1.00  0.00     0.345 HD
ATOM      5  H   UNL     1     129.437 146.353 133.813  1.00  0.00     0.345 HD
ATOM      6  H   UNL     1     130.424 145.427 134.849  1.00  0.00     0.345 HD
ENDBRANCH   2   3
BRANCH   2   7
ATOM      7  C   UNL     1     130.287 145.698 131.665  1.00  0.00     0.102 C 
ATOM      8  O   UNL     1     129.340 146.524 131.576  1.00  0.00    -0.544 OA
ATOM      9  O   UNL     1     131.207 145.599 130.630  1.00  0.00    -0.544 OA
ENDBRANCH   2   7
ENDBRANCH   1   2
BRANCH   1  10
ATOM     10  O   UNL     1     130.669 142.687 131.693  1.00  0.00    -0.390 OA
ATOM     11  H   UNL     1     131.477 143.251 131.572  1.00  0.00     0.210 HD
ENDBRANCH   1  10
TORSDOF 4
ENDMDL
MODEL 4
REMARK VINA RESULT:    -3.228      2.491      2.619
REMARK INTER + INTRA:          -4.125
REMARK INTER:                  -3.725
REMARK INTRA:                  -0.400
REMARK UNBOUND:                -0.330
REMARK SMILES [NH3+][C@@H](CO)C(=O)[O-]
REMARK SMILES IDX 3 1 2 2 1 3 5 7 6 8 7 9 4 10
REMARK H PARENT 1 4 1 5 1 6 4 11
REMARK Flexibility Score: inf
ROOT
ATOM      1  C   UNL     1     146.816 142.715 132.267  1.00  0.00     0.227 C 
ENDROOT
BRANCH   1   2
ATOM      2  C   UNL     1     148.306 143.067 132.402  1.00  0.00     0.253 C 
BRANCH   2   3
ATOM      3  N   UNL     1     148.814 142.735 133.739  1.00  0.00    -0.348 N 
ATOM      4  H   UNL     1     148.275 141.930 134.132  1.00  0.00     0.345 HD
ATOM      5  H   UNL     1     148.690 143.555 134.377  1.00  0.00     0.345 HD
ATOM      6  H   UNL     1     149.829 142.481 133.703  1.00  0.00     0.345 HD
ENDBRANCH   2   3
BRANCH   2   7
ATOM      7  C   UNL     1     148.545 144.519 132.078  1.00  0.00     0.102 C 
ATOM      8  O   UNL     1     148.594 145.382 132.995  1.00  0.00    -0.544 OA
ATOM      9  O   UNL     1     148.671 144.921 130.755  1.00  0.00    -0.544 OA
ENDBRANCH   2   7
ENDBRANCH   1   2
BRANCH   1  10
ATOM     10  O   UNL     1     146.053 143.866 132.028  1.00  0.00    -0.390 OA
ATOM     11  H   UNL     1     145.749 144.185 132.917  1.00  0.00     0.210 HD
ENDBRANCH   1  10
TORSDOF 4
ENDMDL
MODEL 5
REMARK VINA RESULT:    -3.197     17.081     17.995
REMARK INTER + INTRA:          -4.088
REMARK INTER:                  -3.862
REMARK INTRA:                  -0.226
REMARK UNBOUND:                -0.330
REMARK SMILES [NH3+][C@@H](CO)C(=O)[O-]
REMARK SMILES IDX 3 1 2 2 1 3 5 7 6 8 7 9 4 10
REMARK H PARENT 1 4 1 5 1 6 4 11
REMARK Flexibility Score: inf
ROOT
ATOM      1  C   UNL     1     130.382 142.809 132.420  1.00  0.00     0.227 C 
ENDROOT
BRANCH   1   2
ATOM      2  C   UNL     1     129.474 144.025 132.181  1.00  0.00     0.253 C 
BRANCH   2   3
ATOM      3  N   UNL     1     129.506 144.448 130.775  1.00  0.00    -0.348 N 
ATOM      4  H   UNL     1     130.195 143.865 130.246  1.00  0.00     0.345 HD
ATOM      5  H   UNL     1     129.807 145.447 130.713  1.00  0.00     0.345 HD
ATOM      6  H   UNL     1     128.563 144.347 130.330  1.00  0.00     0.345 HD
ENDBRANCH   2   3
BRANCH   2   7
ATOM      7  C   UNL     1     129.850 145.163 133.095  1.00  0.00     0.102 C 
ATOM      8  O   UNL     1     131.020 145.629 133.091  1.00  0.00    -0.544 OA
ATOM      9  O   UNL     1     128.912 145.678 133.980  1.00  0.00    -0.544 OA
ENDBRANCH   2   7
ENDBRANCH   1   2
BRANCH   1  10
ATOM     10  O   UNL     1     131.672 143.047 131.925  1.00  0.00    -0.390 OA
ATOM     11  H   UNL     1     132.296 142.603 132.556  1.00  0.00     0.210 HD
ENDBRANCH   1  10
TORSDOF 4
ENDMDL
MODEL 6
REMARK VINA RESULT:    -3.103     17.553     18.186
REMARK INTER + INTRA:          -3.978
REMARK INTER:                  -3.608
REMARK INTRA:                  -0.370
REMARK UNBOUND:                -0.330
REMARK SMILES [NH3+][C@@H](CO)C(=O)[O-]
REMARK SMILES IDX 3 1 2 2 1 3 5 7 6 8 7 9 4 10
REMARK H PARENT 1 4 1 5 1 6 4 11
REMARK Flexibility Score: inf
ROOT
ATOM      1  C   UNL     1     129.303 144.142 133.524  1.00  0.00     0.227 C 
ENDROOT
BRANCH   1   2
ATOM      2  C   UNL     1     129.526 143.891 132.024  1.00  0.00     0.253 C 
BRANCH   2   3
ATOM      3  N   UNL     1     130.506 142.820 131.802  1.00  0.00    -0.348 N 
ATOM      4  H   UNL     1     130.977 142.580 132.705  1.00  0.00     0.345 HD
ATOM      5  H   UNL     1     131.236 143.145 131.128  1.00  0.00     0.345 HD
ATOM      6  H   UNL     1     130.045 141.962 131.419  1.00  0.00     0.345 HD
ENDBRANCH   2   3
BRANCH   2   7
ATOM      7  C   UNL     1     129.942 145.159 131.324  1.00  0.00     0.102 C 
ATOM      8  O   UNL     1     131.136 145.329 130.961  1.00  0.00    -0.544 OA
ATOM      9  O   UNL     1     129.013 146.169 131.113  1.00  0.00    -0.544 OA
ENDBRANCH   2   7
ENDBRANCH   1   2
BRANCH   1  10
ATOM     10  O   UNL     1     129.934 145.326 133.928  1.00  0.00    -0.390 OA
ATOM     11  H   UNL     1     130.765 145.394 133.390  1.00  0.00     0.210 HD
ENDBRANCH   1  10
TORSDOF 4
ENDMDL
MODEL 7
REMARK VINA RESULT:    -3.075      1.613      2.203
REMARK INTER + INTRA:          -3.944
REMARK INTER:                  -3.718
REMARK INTRA:                  -0.226
REMARK UNBOUND:                -0.330
REMARK SMILES [NH3+][C@@H](CO)C(=O)[O-]
REMARK SMILES IDX 3 1 2 2 1 3 5 7 6 8 7 9 4 10
REMARK H PARENT 1 4 1 5 1 6 4 11
REMARK Flexibility Score: inf
ROOT
ATOM      1  C   UNL     1     146.436 143.558 132.291  1.00  0.00     0.227 C 
ENDROOT
BRANCH   1   2
ATOM      2  C   UNL     1     147.738 144.297 132.639  1.00  0.00     0.253 C 
BRANCH   2   3
ATOM      3  N   UNL     1     148.560 144.525 131.444  1.00  0.00    -0.348 N 
ATOM      4  H   UNL     1     149.573 144.491 131.700  1.00  0.00     0.345 HD
ATOM      5  H   UNL     1     148.354 145.471 131.049  1.00  0.00     0.345 HD
ATOM      6  H   UNL     1     148.369 143.800 130.712  1.00  0.00     0.345 HD
ENDBRANCH   2   3
BRANCH   2   7
ATOM      7  C   UNL     1     148.513 143.550 133.694  1.00  0.00     0.102 C 
ATOM      8  O   UNL     1     148.898 142.368 133.490  1.00  0.00    -0.544 OA
ATOM      9  O   UNL     1     148.774 144.152 134.918  1.00  0.00    -0.544 OA
ENDBRANCH   2   7
ENDBRANCH   1   2
BRANCH   1  10
ATOM     10  O   UNL     1     146.708 142.388 131.568  1.00  0.00    -0.390 OA
ATOM     11  H   UNL     1     147.223 141.799 132.180  1.00  0.00     0.210 HD
ENDBRANCH   1  10
TORSDOF 4
ENDMDL
MODEL 8
REMARK VINA RESULT:    -3.010     16.978     17.788
REMARK INTER + INTRA:          -3.869
REMARK INTER:                  -3.491
REMARK INTRA:                  -0.377
REMARK UNBOUND:                -0.330
REMARK SMILES [NH3+][C@@H](CO)C(=O)[O-]
REMARK SMILES IDX 3 1 2 2 1 3 5 7 6 8 7 9 4 10
REMARK H PARENT 1 4 1 5 1 6 4 11
REMARK Flexibility Score: inf
ROOT
ATOM      1  C   UNL     1     131.118 146.112 131.493  1.00  0.00     0.227 C 
ENDROOT
BRANCH   1   2
ATOM      2  C   UNL     1     130.016 145.428 132.318  1.00  0.00     0.253 C 
BRANCH   2   3
ATOM      3  N   UNL     1     130.367 145.381 133.743  1.00  0.00    -0.348 N 
ATOM      4  H   UNL     1     129.848 144.601 134.210  1.00  0.00     0.345 HD
ATOM      5  H   UNL     1     130.092 146.279 134.204  1.00  0.00     0.345 HD
ATOM      6  H   UNL     1     131.395 145.232 133.873  1.00  0.00     0.345 HD
ENDBRANCH   2   3
BRANCH   2   7
ATOM      7  C   UNL     1     129.728 144.047 131.787  1.00  0.00     0.102 C 
ATOM      8  O   UNL     1     128.875 143.875 130.876  1.00  0.00    -0.544 OA
ATOM      9  O   UNL     1     130.377 142.947 132.333  1.00  0.00    -0.544 OA
ENDBRANCH   2   7
ENDBRANCH   1   2
BRANCH   1  10
ATOM     10  O   UNL     1     131.600 145.251 130.498  1.00  0.00    -0.390 OA
ATOM     11  H   UNL     1     130.999 145.367 129.717  1.00  0.00     0.210 HD
ENDBRANCH   1  10
TORSDOF 4
ENDMDL
MODEL 9
REMARK VINA RESULT:    -2.969      1.427      1.763
REMARK INTER + INTRA:          -3.820
REMARK INTER:                  -3.566
REMARK INTRA:                  -0.254
REMARK UNBOUND:                -0.330
REMARK SMILES [NH3+][C@@H](CO)C(=O)[O-]
REMARK SMILES IDX 3 1 2 2 1 3 5 7 6 8 7 9 4 10
REMARK H PARENT 1 4 1 5 1 6 4 11
REMARK Flexibility Score: inf
ROOT
ATOM      1  C   UNL     1     146.499 143.670 132.442  1.00  0.00     0.227 C 
ENDROOT
BRANCH   1   2
ATOM      2  C   UNL     1     148.001 143.950 132.610  1.00  0.00     0.253 C 
BRANCH   2   3
ATOM      3  N   UNL     1     148.269 145.390 132.707  1.00  0.00    -0.348 N 
ATOM      4  H   UNL     1     149.253 145.546 133.028  1.00  0.00     0.345 HD
ATOM      5  H   UNL     1     147.625 145.823 133.407  1.00  0.00     0.345 HD
ATOM      6  H   UNL     1     148.134 145.861 131.781  1.00  0.00     0.345 HD
ENDBRANCH   2   3
BRANCH   2   7
ATOM      7  C   UNL     1     148.791 143.328 131.487  1.00  0.00     0.102 C 
ATOM      8  O   UNL     1     149.123 144.010 130.481  1.00  0.00    -0.544 OA
ATOM      9  O   UNL     1     149.122 141.980 131.538  1.00  0.00    -0.544 OA
ENDBRANCH   2   7
ENDBRANCH   1   2
BRANCH   1  10
ATOM     10  O   UNL     1     146.287 142.373 131.956  1.00  0.00    -0.390 OA
ATOM     11  H   UNL     1     146.433 142.418 130.976  1.00  0.00     0.210 HD
ENDBRANCH   1  10
TORSDOF 4
ENDMDL
