MODEL 1
REMARK VINA RESULT:    -4.673      0.000      0.000
REMARK INTER + INTRA:          -8.920
REMARK INTER:                  -7.951
REMARK INTRA:                  -0.969
REMARK UNBOUND:                -0.969
REMARK SMILES CCCCCCCCCCCCCC(=O)[O-]
REMARK SMILES IDX 8 1 9 2 10 3 11 4 12 5 13 6 14 7 15 8 16 9 7 10 6 11 5 12
REMARK SMILES IDX 4 13 3 14 2 15 1 16
REMARK H PARENT
REMARK Flexibility Score: inf
ROOT
ATOM      1  C   UNL     1     -17.997  -4.463  22.424  1.00  0.00     0.000 C 
ENDROOT
BRANCH   1   2
ATOM      2  C   UNL     1     -16.472  -4.657  22.475  1.00  0.00     0.000 C 
BRANCH   2   3
ATOM      3  C   UNL     1     -16.052  -6.135  22.378  1.00  0.00     0.000 C 
BRANCH   3   4
ATOM      4  C   UNL     1     -15.015  -6.453  21.286  1.00  0.00     0.000 C 
BRANCH   4   5
ATOM      5  C   UNL     1     -15.654  -6.861  19.950  1.00  0.00     0.006 C 
BRANCH   5   6
ATOM      6  C   UNL     1     -15.252  -5.894  18.832  1.00  0.00     0.053 C 
BRANCH   6   7
ATOM      7  C   UNL     1     -15.921  -4.569  19.021  1.00  0.00     0.041 C 
ATOM      8  O   UNL     1     -17.170  -4.467  18.901  1.00  0.00    -0.550 OA
ATOM      9  O   UNL     1     -15.160  -3.437  19.281  1.00  0.00    -0.550 OA
ENDBRANCH   6   7
ENDBRANCH   5   6
ENDBRANCH   4   5
ENDBRANCH   3   4
ENDBRANCH   2   3
ENDBRANCH   1   2
BRANCH   1  10
ATOM     10  C   UNL     1     -18.739  -5.696  21.879  1.00  0.00     0.000 C 
BRANCH  10  11
ATOM     11  C   UNL     1     -19.801  -6.296  22.823  1.00  0.00    -0.000 C 
BRANCH  11  12
ATOM     12  C   UNL     1     -20.673  -5.267  23.570  1.00  0.00    -0.000 C 
BRANCH  12  13
ATOM     13  C   UNL     1     -22.108  -5.732  23.872  1.00  0.00    -0.000 C 
BRANCH  13  14
ATOM     14  C   UNL     1     -22.549  -5.413  25.308  1.00  0.00    -0.000 C 
BRANCH  14  15
ATOM     15  C   UNL     1     -22.591  -6.684  26.163  1.00  0.00    -0.003 C 
ATOM     16  C   UNL     1     -22.691  -6.347  27.648  1.00  0.00     0.004 C 
ENDBRANCH  14  15
ENDBRANCH  13  14
ENDBRANCH  12  13
ENDBRANCH  11  12
ENDBRANCH  10  11
ENDBRANCH   1  10
TORSDOF 12
ENDMDL
MODEL 2
REMARK VINA RESULT:    -4.663     16.393     17.973
REMARK INTER + INTRA:          -8.903
REMARK INTER:                  -7.079
REMARK INTRA:                  -1.824
REMARK UNBOUND:                -0.969
REMARK SMILES CCCCCCCCCCCCCC(=O)[O-]
REMARK SMILES IDX 8 1 9 2 10 3 11 4 12 5 13 6 14 7 15 8 16 9 7 10 6 11 5 12
REMARK SMILES IDX 4 13 3 14 2 15 1 16
REMARK H PARENT
REMARK Flexibility Score: inf
ROOT
ATOM      1  C   UNL     1     -17.466   8.191  31.106  1.00  0.00     0.000 C 
ENDROOT
BRANCH   1   2
ATOM      2  C   UNL     1     -17.470   8.572  29.616  1.00  0.00     0.000 C 
BRANCH   2   3
ATOM      3  C   UNL     1     -17.595  10.088  29.384  1.00  0.00     0.000 C 
BRANCH   3   4
ATOM      4  C   UNL     1     -16.450  10.726  28.577  1.00  0.00     0.000 C 
BRANCH   4   5
ATOM      5  C   UNL     1     -15.322  11.275  29.464  1.00  0.00     0.006 C 
BRANCH   5   6
ATOM      6  C   UNL     1     -14.717  12.545  28.859  1.00  0.00     0.053 C 
BRANCH   6   7
ATOM      7  C   UNL     1     -13.571  12.203  27.961  1.00  0.00     0.041 C 
ATOM      8  O   UNL     1     -12.979  11.098  28.083  1.00  0.00    -0.550 OA
ATOM      9  O   UNL     1     -13.124  13.123  27.021  1.00  0.00    -0.550 OA
ENDBRANCH   6   7
ENDBRANCH   5   6
ENDBRANCH   4   5
ENDBRANCH   3   4
ENDBRANCH   2   3
ENDBRANCH   1   2
BRANCH   1  10
ATOM     10  C   UNL     1     -16.928   9.316  32.009  1.00  0.00     0.000 C 
BRANCH  10  11
ATOM     11  C   UNL     1     -15.819   8.896  32.995  1.00  0.00    -0.000 C 
BRANCH  11  12
ATOM     12  C   UNL     1     -14.383   8.968  32.437  1.00  0.00    -0.000 C 
BRANCH  12  13
ATOM     13  C   UNL     1     -13.985   7.798  31.520  1.00  0.00    -0.000 C 
BRANCH  13  14
ATOM     14  C   UNL     1     -13.743   8.235  30.067  1.00  0.00    -0.000 C 
BRANCH  14  15
ATOM     15  C   UNL     1     -14.110   7.113  29.090  1.00  0.00    -0.003 C 
ATOM     16  C   UNL     1     -14.452   7.671  27.711  1.00  0.00     0.004 C 
ENDBRANCH  14  15
ENDBRANCH  13  14
ENDBRANCH  12  13
ENDBRANCH  11  12
ENDBRANCH  10  11
ENDBRANCH   1  10
TORSDOF 12
ENDMDL
MODEL 3
REMARK VINA RESULT:    -4.654      1.633      3.586
REMARK INTER + INTRA:          -8.888
REMARK INTER:                  -7.610
REMARK INTRA:                  -1.278
REMARK UNBOUND:                -0.969
REMARK SMILES CCCCCCCCCCCCCC(=O)[O-]
REMARK SMILES IDX 8 1 9 2 10 3 11 4 12 5 13 6 14 7 15 8 16 9 7 10 6 11 5 12
REMARK SMILES IDX 4 13 3 14 2 15 1 16
REMARK H PARENT
REMARK Flexibility Score: inf
ROOT
ATOM      1  C   UNL     1     -21.562  -4.776  23.233  1.00  0.00     0.000 C 
ENDROOT
BRANCH   1   2
ATOM      2  C   UNL     1     -20.733  -3.971  24.249  1.00  0.00     0.000 C 
BRANCH   2   3
ATOM      3  C   UNL     1     -19.383  -3.497  23.680  1.00  0.00     0.000 C 
BRANCH   3   4
ATOM      4  C   UNL     1     -18.676  -4.496  22.747  1.00  0.00     0.000 C 
BRANCH   4   5
ATOM      5  C   UNL     1     -17.183  -4.189  22.559  1.00  0.00     0.006 C 
BRANCH   5   6
ATOM      6  C   UNL     1     -16.372  -5.481  22.409  1.00  0.00     0.053 C 
BRANCH   6   7
ATOM      7  C   UNL     1     -16.154  -5.798  20.964  1.00  0.00     0.041 C 
ATOM      8  O   UNL     1     -15.175  -5.300  20.347  1.00  0.00    -0.550 OA
ATOM      9  O   UNL     1     -17.059  -6.603  20.284  1.00  0.00    -0.550 OA
ENDBRANCH   6   7
ENDBRANCH   5   6
ENDBRANCH   4   5
ENDBRANCH   3   4
ENDBRANCH   2   3
ENDBRANCH   1   2
BRANCH   1  10
ATOM     10  C   UNL     1     -22.394  -5.892  23.891  1.00  0.00     0.000 C 
BRANCH  10  11
ATOM     11  C   UNL     1     -21.602  -6.858  24.794  1.00  0.00    -0.000 C 
BRANCH  11  12
ATOM     12  C   UNL     1     -22.227  -7.125  26.178  1.00  0.00    -0.000 C 
BRANCH  12  13
ATOM     13  C   UNL     1     -23.278  -6.093  26.625  1.00  0.00    -0.000 C 
BRANCH  13  14
ATOM     14  C   UNL     1     -22.667  -4.918  27.402  1.00  0.00    -0.000 C 
BRANCH  14  15
ATOM     15  C   UNL     1     -23.317  -3.592  26.992  1.00  0.00    -0.003 C 
ATOM     16  C   UNL     1     -24.595  -3.828  26.192  1.00  0.00     0.004 C 
ENDBRANCH  14  15
ENDBRANCH  13  14
ENDBRANCH  12  13
ENDBRANCH  11  12
ENDBRANCH  10  11
ENDBRANCH   1  10
TORSDOF 12
ENDMDL
MODEL 4
REMARK VINA RESULT:    -4.651      3.145      7.290
REMARK INTER + INTRA:          -8.882
REMARK INTER:                  -7.511
REMARK INTRA:                  -1.371
REMARK UNBOUND:                -0.969
REMARK SMILES CCCCCCCCCCCCCC(=O)[O-]
REMARK SMILES IDX 8 1 9 2 10 3 11 4 12 5 13 6 14 7 15 8 16 9 7 10 6 11 5 12
REMARK SMILES IDX 4 13 3 14 2 15 1 16
REMARK H PARENT
REMARK Flexibility Score: inf
ROOT
ATOM      1  C   UNL     1     -15.112  -5.933  20.132  1.00  0.00     0.000 C 
ENDROOT
BRANCH   1   2
ATOM      2  C   UNL     1     -14.983  -6.683  21.468  1.00  0.00     0.000 C 
BRANCH   2   3
ATOM      3  C   UNL     1     -15.905  -6.119  22.565  1.00  0.00     0.000 C 
BRANCH   3   4
ATOM      4  C   UNL     1     -16.552  -4.760  22.244  1.00  0.00     0.000 C 
BRANCH   4   5
ATOM      5  C   UNL     1     -18.053  -4.718  22.566  1.00  0.00     0.006 C 
BRANCH   5   6
ATOM      6  C   UNL     1     -18.765  -5.961  22.022  1.00  0.00     0.053 C 
BRANCH   6   7
ATOM      7  C   UNL     1     -18.948  -5.853  20.542  1.00  0.00     0.041 C 
ATOM      8  O   UNL     1     -18.783  -6.864  19.808  1.00  0.00    -0.550 OA
ATOM      9  O   UNL     1     -19.252  -4.627  19.965  1.00  0.00    -0.550 OA
ENDBRANCH   6   7
ENDBRANCH   5   6
ENDBRANCH   4   5
ENDBRANCH   3   4
ENDBRANCH   2   3
ENDBRANCH   1   2
BRANCH   1  10
ATOM     10  C   UNL     1     -15.395  -6.870  18.944  1.00  0.00     0.000 C 
BRANCH  10  11
ATOM     11  C   UNL     1     -15.329  -6.209  17.553  1.00  0.00    -0.000 C 
BRANCH  11  12
ATOM     12  C   UNL     1     -13.908  -5.980  17.001  1.00  0.00    -0.000 C 
BRANCH  12  13
ATOM     13  C   UNL     1     -13.648  -4.569  16.445  1.00  0.00    -0.000 C 
BRANCH  13  14
ATOM     14  C   UNL     1     -14.838  -3.619  16.649  1.00  0.00    -0.000 C 
BRANCH  14  15
ATOM     15  C   UNL     1     -14.415  -2.373  17.436  1.00  0.00    -0.003 C 
ATOM     16  C   UNL     1     -14.669  -2.551  18.930  1.00  0.00     0.004 C 
ENDBRANCH  14  15
ENDBRANCH  13  14
ENDBRANCH  12  13
ENDBRANCH  11  12
ENDBRANCH  10  11
ENDBRANCH   1  10
TORSDOF 12
ENDMDL
MODEL 5
REMARK VINA RESULT:    -4.629     15.123     16.403
REMARK INTER + INTRA:          -8.845
REMARK INTER:                  -6.893
REMARK INTRA:                  -1.951
REMARK UNBOUND:                -0.969
REMARK SMILES CCCCCCCCCCCCCC(=O)[O-]
REMARK SMILES IDX 8 1 9 2 10 3 11 4 12 5 13 6 14 7 15 8 16 9 7 10 6 11 5 12
REMARK SMILES IDX 4 13 3 14 2 15 1 16
REMARK H PARENT
REMARK Flexibility Score: inf
ROOT
ATOM      1  C   UNL     1     -15.175   9.514  28.309  1.00  0.00     0.000 C 
ENDROOT
BRANCH   1   2
ATOM      2  C   UNL     1     -13.737   9.105  28.671  1.00  0.00     0.000 C 
BRANCH   2   3
ATOM      3  C   UNL     1     -13.634   7.652  29.169  1.00  0.00     0.000 C 
BRANCH   3   4
ATOM      4  C   UNL     1     -14.163   6.585  28.194  1.00  0.00     0.000 C 
BRANCH   4   5
ATOM      5  C   UNL     1     -14.326   5.204  28.847  1.00  0.00     0.006 C 
BRANCH   5   6
ATOM      6  C   UNL     1     -14.832   5.334  30.287  1.00  0.00     0.053 C 
BRANCH   6   7
ATOM      7  C   UNL     1     -15.944   4.366  30.541  1.00  0.00     0.041 C 
ATOM      8  O   UNL     1     -17.035   4.478  29.922  1.00  0.00    -0.550 OA
ATOM      9  O   UNL     1     -15.794   3.370  31.497  1.00  0.00    -0.550 OA
ENDBRANCH   6   7
ENDBRANCH   5   6
ENDBRANCH   4   5
ENDBRANCH   3   4
ENDBRANCH   2   3
ENDBRANCH   1   2
BRANCH   1  10
ATOM     10  C   UNL     1     -15.695  10.687  29.161  1.00  0.00     0.000 C 
BRANCH  10  11
ATOM     11  C   UNL     1     -14.739  11.172  30.268  1.00  0.00    -0.000 C 
BRANCH  11  12
ATOM     12  C   UNL     1     -15.184  10.850  31.708  1.00  0.00    -0.000 C 
BRANCH  12  13
ATOM     13  C   UNL     1     -14.506   9.620  32.337  1.00  0.00    -0.000 C 
BRANCH  13  14
ATOM     14  C   UNL     1     -15.392   8.366  32.301  1.00  0.00    -0.000 C 
BRANCH  14  15
ATOM     15  C   UNL     1     -16.864   8.742  32.099  1.00  0.00    -0.003 C 
ATOM     16  C   UNL     1     -17.476   7.970  30.932  1.00  0.00     0.004 C 
ENDBRANCH  14  15
ENDBRANCH  13  14
ENDBRANCH  12  13
ENDBRANCH  11  12
ENDBRANCH  10  11
ENDBRANCH   1  10
TORSDOF 12
ENDMDL
MODEL 6
REMARK VINA RESULT:    -4.601      3.790      7.872
REMARK INTER + INTRA:          -8.798
REMARK INTER:                  -7.981
REMARK INTRA:                  -0.817
REMARK UNBOUND:                -0.969
REMARK SMILES CCCCCCCCCCCCCC(=O)[O-]
REMARK SMILES IDX 8 1 9 2 10 3 11 4 12 5 13 6 14 7 15 8 16 9 7 10 6 11 5 12
REMARK SMILES IDX 4 13 3 14 2 15 1 16
REMARK H PARENT
REMARK Flexibility Score: inf
ROOT
ATOM      1  C   UNL     1     -19.372  -3.378  22.789  1.00  0.00     0.000 C 
ENDROOT
BRANCH   1   2
ATOM      2  C   UNL     1     -20.182  -4.114  23.870  1.00  0.00     0.000 C 
BRANCH   2   3
ATOM      3  C   UNL     1     -20.495  -5.574  23.497  1.00  0.00     0.000 C 
BRANCH   3   4
ATOM      4  C   UNL     1     -21.533  -6.273  24.392  1.00  0.00     0.000 C 
BRANCH   4   5
ATOM      5  C   UNL     1     -22.899  -5.571  24.391  1.00  0.00     0.006 C 
BRANCH   5   6
ATOM      6  C   UNL     1     -23.699  -5.924  25.648  1.00  0.00     0.053 C 
BRANCH   6   7
ATOM      7  C   UNL     1     -22.957  -5.503  26.876  1.00  0.00     0.041 C 
ATOM      8  O   UNL     1     -22.636  -4.297  27.040  1.00  0.00    -0.550 OA
ATOM      9  O   UNL     1     -22.575  -6.451  27.818  1.00  0.00    -0.550 OA
ENDBRANCH   6   7
ENDBRANCH   5   6
ENDBRANCH   4   5
ENDBRANCH   3   4
ENDBRANCH   2   3
ENDBRANCH   1   2
BRANCH   1  10
ATOM     10  C   UNL     1     -17.953  -3.006  23.255  1.00  0.00     0.000 C 
BRANCH  10  11
ATOM     11  C   UNL     1     -16.807  -3.713  22.504  1.00  0.00    -0.000 C 
BRANCH  11  12
ATOM     12  C   UNL     1     -17.054  -5.199  22.177  1.00  0.00    -0.000 C 
BRANCH  12  13
ATOM     13  C   UNL     1     -15.917  -6.151  22.589  1.00  0.00    -0.000 C 
BRANCH  13  14
ATOM     14  C   UNL     1     -15.342  -6.940  21.404  1.00  0.00    -0.000 C 
BRANCH  14  15
ATOM     15  C   UNL     1     -16.084  -6.600  20.107  1.00  0.00    -0.003 C 
ATOM     16  C   UNL     1     -15.106  -6.306  18.972  1.00  0.00     0.004 C 
ENDBRANCH  14  15
ENDBRANCH  13  14
ENDBRANCH  12  13
ENDBRANCH  11  12
ENDBRANCH  10  11
ENDBRANCH   1  10
TORSDOF 12
ENDMDL
MODEL 7
REMARK VINA RESULT:    -4.585      3.490      5.217
REMARK INTER + INTRA:          -8.771
REMARK INTER:                  -6.915
REMARK INTRA:                  -1.856
REMARK UNBOUND:                -0.969
REMARK SMILES CCCCCCCCCCCCCC(=O)[O-]
REMARK SMILES IDX 8 1 9 2 10 3 11 4 12 5 13 6 14 7 15 8 16 9 7 10 6 11 5 12
REMARK SMILES IDX 4 13 3 14 2 15 1 16
REMARK H PARENT
REMARK Flexibility Score: inf
ROOT
ATOM      1  C   UNL     1     -15.089  -5.885  20.060  1.00  0.00     0.000 C 
ENDROOT
BRANCH   1   2
ATOM      2  C   UNL     1     -15.476  -6.768  18.862  1.00  0.00     0.000 C 
BRANCH   2   3
ATOM      3  C   UNL     1     -16.832  -6.380  18.244  1.00  0.00     0.000 C 
BRANCH   3   4
ATOM      4  C   UNL     1     -17.144  -4.873  18.238  1.00  0.00     0.000 C 
BRANCH   4   5
ATOM      5  C   UNL     1     -17.210  -4.279  16.822  1.00  0.00     0.006 C 
BRANCH   5   6
ATOM      6  C   UNL     1     -15.932  -4.588  16.038  1.00  0.00     0.053 C 
BRANCH   6   7
ATOM      7  C   UNL     1     -14.798  -3.747  16.533  1.00  0.00     0.041 C 
ATOM      8  O   UNL     1     -13.684  -4.274  16.791  1.00  0.00    -0.550 OA
ATOM      9  O   UNL     1     -14.985  -2.389  16.757  1.00  0.00    -0.550 OA
ENDBRANCH   6   7
ENDBRANCH   5   6
ENDBRANCH   4   5
ENDBRANCH   3   4
ENDBRANCH   2   3
ENDBRANCH   1   2
BRANCH   1  10
ATOM     10  C   UNL     1     -14.968  -6.679  21.374  1.00  0.00     0.000 C 
BRANCH  10  11
ATOM     11  C   UNL     1     -15.906  -6.222  22.509  1.00  0.00    -0.000 C 
BRANCH  11  12
ATOM     12  C   UNL     1     -17.357  -5.925  22.082  1.00  0.00    -0.000 C 
BRANCH  12  13
ATOM     13  C   UNL     1     -17.847  -4.500  22.397  1.00  0.00    -0.000 C 
BRANCH  13  14
ATOM     14  C   UNL     1     -16.718  -3.460  22.360  1.00  0.00    -0.000 C 
BRANCH  14  15
ATOM     15  C   UNL     1     -16.928  -2.463  21.216  1.00  0.00    -0.003 C 
ATOM     16  C   UNL     1     -15.641  -2.249  20.425  1.00  0.00     0.004 C 
ENDBRANCH  14  15
ENDBRANCH  13  14
ENDBRANCH  12  13
ENDBRANCH  11  12
ENDBRANCH  10  11
ENDBRANCH   1  10
TORSDOF 12
ENDMDL
MODEL 8
REMARK VINA RESULT:    -4.566     16.534     17.842
REMARK INTER + INTRA:          -8.738
REMARK INTER:                  -7.122
REMARK INTRA:                  -1.617
REMARK UNBOUND:                -0.969
REMARK SMILES CCCCCCCCCCCCCC(=O)[O-]
REMARK SMILES IDX 8 1 9 2 10 3 11 4 12 5 13 6 14 7 15 8 16 9 7 10 6 11 5 12
REMARK SMILES IDX 4 13 3 14 2 15 1 16
REMARK H PARENT
REMARK Flexibility Score: inf
ROOT
ATOM      1  C   UNL     1     -14.495   9.007  28.658  1.00  0.00     0.000 C 
ENDROOT
BRANCH   1   2
ATOM      2  C   UNL     1     -13.767  10.362  28.678  1.00  0.00     0.000 C 
BRANCH   2   3
ATOM      3  C   UNL     1     -14.609  11.487  29.307  1.00  0.00     0.000 C 
BRANCH   3   4
ATOM      4  C   UNL     1     -14.892  12.688  28.388  1.00  0.00     0.000 C 
BRANCH   4   5
ATOM      5  C   UNL     1     -16.383  12.854  28.056  1.00  0.00     0.006 C 
BRANCH   5   6
ATOM      6  C   UNL     1     -17.170  11.593  28.426  1.00  0.00     0.053 C 
BRANCH   6   7
ATOM      7  C   UNL     1     -17.490  10.797  27.201  1.00  0.00     0.041 C 
ATOM      8  O   UNL     1     -18.305   9.839  27.262  1.00  0.00    -0.550 OA
ATOM      9  O   UNL     1     -16.851  11.081  26.000  1.00  0.00    -0.550 OA
ENDBRANCH   6   7
ENDBRANCH   5   6
ENDBRANCH   4   5
ENDBRANCH   3   4
ENDBRANCH   2   3
ENDBRANCH   1   2
BRANCH   1  10
ATOM     10  C   UNL     1     -13.716   7.899  29.388  1.00  0.00     0.000 C 
BRANCH  10  11
ATOM     11  C   UNL     1     -14.274   7.503  30.770  1.00  0.00    -0.000 C 
BRANCH  11  12
ATOM     12  C   UNL     1     -13.661   8.257  31.967  1.00  0.00    -0.000 C 
BRANCH  12  13
ATOM     13  C   UNL     1     -14.684   8.913  32.911  1.00  0.00    -0.000 C 
BRANCH  13  14
ATOM     14  C   UNL     1     -15.697   9.799  32.171  1.00  0.00    -0.000 C 
BRANCH  14  15
ATOM     15  C   UNL     1     -17.106   9.201  32.247  1.00  0.00    -0.003 C 
ATOM     16  C   UNL     1     -17.627   8.834  30.860  1.00  0.00     0.004 C 
ENDBRANCH  14  15
ENDBRANCH  13  14
ENDBRANCH  12  13
ENDBRANCH  11  12
ENDBRANCH  10  11
ENDBRANCH   1  10
TORSDOF 12
ENDMDL
MODEL 9
REMARK VINA RESULT:    -4.564     15.944     17.155
REMARK INTER + INTRA:          -8.734
REMARK INTER:                  -7.235
REMARK INTRA:                  -1.499
REMARK UNBOUND:                -0.969
REMARK SMILES CCCCCCCCCCCCCC(=O)[O-]
REMARK SMILES IDX 8 1 9 2 10 3 11 4 12 5 13 6 14 7 15 8 16 9 7 10 6 11 5 12
REMARK SMILES IDX 4 13 3 14 2 15 1 16
REMARK H PARENT
REMARK Flexibility Score: inf
ROOT
ATOM      1  C   UNL     1     -16.286  12.178  28.316  1.00  0.00     0.000 C 
ENDROOT
BRANCH   1   2
ATOM      2  C   UNL     1     -15.006  11.627  28.969  1.00  0.00     0.000 C 
BRANCH   2   3
ATOM      3  C   UNL     1     -13.784  11.681  28.034  1.00  0.00     0.000 C 
BRANCH   3   4
ATOM      4  C   UNL     1     -12.911  10.414  28.021  1.00  0.00     0.000 C 
BRANCH   4   5
ATOM      5  C   UNL     1     -13.635   9.179  28.579  1.00  0.00     0.006 C 
BRANCH   5   6
ATOM      6  C   UNL     1     -13.175   7.905  27.864  1.00  0.00     0.053 C 
BRANCH   6   7
ATOM      7  C   UNL     1     -14.154   6.796  28.090  1.00  0.00     0.041 C 
ATOM      8  O   UNL     1     -13.781   5.723  28.633  1.00  0.00    -0.550 OA
ATOM      9  O   UNL     1     -15.467   6.928  27.655  1.00  0.00    -0.550 OA
ENDBRANCH   6   7
ENDBRANCH   5   6
ENDBRANCH   4   5
ENDBRANCH   3   4
ENDBRANCH   2   3
ENDBRANCH   1   2
BRANCH   1  10
ATOM     10  C   UNL     1     -17.509  11.271  28.540  1.00  0.00     0.000 C 
BRANCH  10  11
ATOM     11  C   UNL     1     -17.187   9.795  28.846  1.00  0.00    -0.000 C 
BRANCH  11  12
ATOM     12  C   UNL     1     -17.868   9.221  30.104  1.00  0.00    -0.000 C 
BRANCH  12  13
ATOM     13  C   UNL     1     -16.913   8.561  31.115  1.00  0.00    -0.000 C 
BRANCH  13  14
ATOM     14  C   UNL     1     -16.634   9.447  32.338  1.00  0.00    -0.000 C 
BRANCH  14  15
ATOM     15  C   UNL     1     -15.205   9.998  32.301  1.00  0.00    -0.003 C 
ATOM     16  C   UNL     1     -14.178   8.869  32.292  1.00  0.00     0.004 C 
ENDBRANCH  14  15
ENDBRANCH  13  14
ENDBRANCH  12  13
ENDBRANCH  11  12
ENDBRANCH  10  11
ENDBRANCH   1  10
TORSDOF 12
ENDMDL
