MODEL 1
REMARK VINA RESULT:     5.174      0.000      0.000
REMARK INTER + INTRA:           7.888
REMARK INTER:                   8.199
REMARK INTRA:                  -0.312
REMARK UNBOUND:                -0.312
REMARK SMILES CCCCCCCCCCCC(=O)[O-]
REMARK SMILES IDX 7 1 8 2 9 3 10 4 11 5 12 6 13 7 14 8 6 9 5 10 4 11 3 12 2 13
REMARK SMILES IDX 1 14
REMARK H PARENT
REMARK Flexibility Score: inf
ROOT
ATOM      1  C   UNL     1       2.886   7.624  -3.302  1.00  0.00     0.000 C 
ENDROOT
BRANCH   1   2
ATOM      2  C   UNL     1       1.451   7.053  -3.313  1.00  0.00     0.000 C 
BRANCH   2   3
ATOM      3  C   UNL     1       0.473   7.960  -4.080  1.00  0.00     0.000 C 
BRANCH   3   4
ATOM      4  C   UNL     1       1.148   8.719  -5.233  1.00  0.00     0.006 C 
BRANCH   4   5
ATOM      5  C   UNL     1       0.312   8.707  -6.519  1.00  0.00     0.053 C 
BRANCH   5   6
ATOM      6  C   UNL     1       1.181   8.433  -7.705  1.00  0.00     0.041 C 
ATOM      7  O   UNL     1       0.707   7.853  -8.717  1.00  0.00    -0.550 OA
ATOM      8  O   UNL     1       2.527   8.772  -7.674  1.00  0.00    -0.550 OA
ENDBRANCH   5   6
ENDBRANCH   4   5
ENDBRANCH   3   4
ENDBRANCH   2   3
ENDBRANCH   1   2
BRANCH   1   9
ATOM      9  C   UNL     1       3.695   7.236  -2.053  1.00  0.00     0.000 C 
BRANCH   9  10
ATOM     10  C   UNL     1       5.179   7.622  -2.160  1.00  0.00    -0.000 C 
BRANCH  10  11
ATOM     11  C   UNL     1       6.058   6.486  -2.714  1.00  0.00    -0.000 C 
BRANCH  11  12
ATOM     12  C   UNL     1       5.294   5.343  -3.407  1.00  0.00    -0.000 C 
BRANCH  12  13
ATOM     13  C   UNL     1       6.188   4.485  -4.313  1.00  0.00    -0.003 C 
ATOM     14  C   UNL     1       6.752   3.286  -3.555  1.00  0.00     0.004 C 
ENDBRANCH  12  13
ENDBRANCH  11  12
ENDBRANCH  10  11
ENDBRANCH   9  10
ENDBRANCH   1   9
TORSDOF 10
ENDMDL
MODEL 2
REMARK VINA RESULT:     5.906      2.643      6.076
REMARK INTER + INTRA:           9.047
REMARK INTER:                   9.402
REMARK INTRA:                  -0.355
REMARK UNBOUND:                -0.312
REMARK SMILES CCCCCCCCCCCC(=O)[O-]
REMARK SMILES IDX 7 1 8 2 9 3 10 4 11 5 12 6 13 7 14 8 6 9 5 10 4 11 3 12 2 13
REMARK SMILES IDX 1 14
REMARK H PARENT
REMARK Flexibility Score: inf
ROOT
ATOM      1  C   UNL     1       2.816   7.708  -3.457  1.00  0.00     0.000 C 
ENDROOT
BRANCH   1   2
ATOM      2  C   UNL     1       3.538   7.233  -2.178  1.00  0.00     0.000 C 
BRANCH   2   3
ATOM      3  C   UNL     1       5.026   7.623  -2.175  1.00  0.00     0.000 C 
BRANCH   3   4
ATOM      4  C   UNL     1       5.936   6.497  -2.691  1.00  0.00     0.006 C 
BRANCH   4   5
ATOM      5  C   UNL     1       5.148   5.344  -3.325  1.00  0.00     0.053 C 
BRANCH   5   6
ATOM      6  C   UNL     1       6.033   4.537  -4.222  1.00  0.00     0.041 C 
ATOM      7  O   UNL     1       6.007   4.719  -5.467  1.00  0.00    -0.550 OA
ATOM      8  O   UNL     1       6.851   3.551  -3.687  1.00  0.00    -0.550 OA
ENDBRANCH   5   6
ENDBRANCH   4   5
ENDBRANCH   3   4
ENDBRANCH   2   3
ENDBRANCH   1   2
BRANCH   1   9
ATOM      9  C   UNL     1       1.346   7.261  -3.539  1.00  0.00     0.000 C 
BRANCH   9  10
ATOM     10  C   UNL     1       0.438   8.313  -4.197  1.00  0.00    -0.000 C 
BRANCH  10  11
ATOM     11  C   UNL     1       0.971   8.802  -5.556  1.00  0.00    -0.000 C 
BRANCH  11  12
ATOM     12  C   UNL     1       0.125   8.398  -6.777  1.00  0.00    -0.000 C 
BRANCH  12  13
ATOM     13  C   UNL     1       0.941   8.321  -8.075  1.00  0.00    -0.003 C 
ATOM     14  C   UNL     1       2.367   8.821  -7.859  1.00  0.00     0.004 C 
ENDBRANCH  12  13
ENDBRANCH  11  12
ENDBRANCH  10  11
ENDBRANCH   9  10
ENDBRANCH   1   9
TORSDOF 10
ENDMDL
MODEL 3
REMARK VINA RESULT:     6.620      1.221      2.447
REMARK INTER + INTRA:          10.178
REMARK INTER:                  10.702
REMARK INTRA:                  -0.524
REMARK UNBOUND:                -0.312
REMARK SMILES CCCCCCCCCCCC(=O)[O-]
REMARK SMILES IDX 7 1 8 2 9 3 10 4 11 5 12 6 13 7 14 8 6 9 5 10 4 11 3 12 2 13
REMARK SMILES IDX 1 14
REMARK H PARENT
REMARK Flexibility Score: inf
ROOT
ATOM      1  C   UNL     1       5.026   7.705  -2.401  1.00  0.00     0.000 C 
ENDROOT
BRANCH   1   2
ATOM      2  C   UNL     1       3.537   7.317  -2.266  1.00  0.00     0.000 C 
BRANCH   2   3
ATOM      3  C   UNL     1       2.737   7.643  -3.540  1.00  0.00     0.000 C 
BRANCH   3   4
ATOM      4  C   UNL     1       1.219   7.526  -3.333  1.00  0.00     0.006 C 
BRANCH   4   5
ATOM      5  C   UNL     1       0.438   7.556  -4.653  1.00  0.00     0.053 C 
BRANCH   5   6
ATOM      6  C   UNL     1       0.787   8.779  -5.439  1.00  0.00     0.041 C 
ATOM      7  O   UNL     1       0.397   9.913  -5.055  1.00  0.00    -0.550 OA
ATOM      8  O   UNL     1       1.502   8.663  -6.624  1.00  0.00    -0.550 OA
ENDBRANCH   5   6
ENDBRANCH   4   5
ENDBRANCH   3   4
ENDBRANCH   2   3
ENDBRANCH   1   2
BRANCH   1   9
ATOM      9  C   UNL     1       5.965   6.498  -2.562  1.00  0.00     0.000 C 
BRANCH   9  10
ATOM     10  C   UNL     1       5.266   5.275  -3.177  1.00  0.00    -0.000 C 
BRANCH  10  11
ATOM     11  C   UNL     1       5.882   4.842  -4.519  1.00  0.00    -0.000 C 
BRANCH  11  12
ATOM     12  C   UNL     1       6.981   3.769  -4.422  1.00  0.00    -0.000 C 
BRANCH  12  13
ATOM     13  C   UNL     1       6.617   2.621  -3.469  1.00  0.00    -0.003 C 
ATOM     14  C   UNL     1       7.710   2.405  -2.426  1.00  0.00     0.004 C 
ENDBRANCH  12  13
ENDBRANCH  11  12
ENDBRANCH  10  11
ENDBRANCH   9  10
ENDBRANCH   1   9
TORSDOF 10
ENDMDL
MODEL 4
REMARK VINA RESULT:     7.449      3.270      6.861
REMARK INTER + INTRA:          11.492
REMARK INTER:                  11.895
REMARK INTRA:                  -0.403
REMARK UNBOUND:                -0.312
REMARK SMILES CCCCCCCCCCCC(=O)[O-]
REMARK SMILES IDX 7 1 8 2 9 3 10 4 11 5 12 6 13 7 14 8 6 9 5 10 4 11 3 12 2 13
REMARK SMILES IDX 1 14
REMARK H PARENT
REMARK Flexibility Score: inf
ROOT
ATOM      1  C   UNL     1       0.172   7.949  -5.001  1.00  0.00     0.000 C 
ENDROOT
BRANCH   1   2
ATOM      2  C   UNL     1       0.617   8.016  -3.524  1.00  0.00     0.000 C 
BRANCH   2   3
ATOM      3  C   UNL     1       1.681   6.956  -3.191  1.00  0.00     0.000 C 
BRANCH   3   4
ATOM      4  C   UNL     1       3.112   7.514  -3.243  1.00  0.00     0.006 C 
BRANCH   4   5
ATOM      5  C   UNL     1       3.940   7.135  -2.008  1.00  0.00     0.053 C 
BRANCH   5   6
ATOM      6  C   UNL     1       5.400   7.304  -2.286  1.00  0.00     0.041 C 
ATOM      7  O   UNL     1       6.064   6.357  -2.782  1.00  0.00    -0.550 OA
ATOM      8  O   UNL     1       6.038   8.491  -1.951  1.00  0.00    -0.550 OA
ENDBRANCH   5   6
ENDBRANCH   4   5
ENDBRANCH   3   4
ENDBRANCH   2   3
ENDBRANCH   1   2
BRANCH   1   9
ATOM      9  C   UNL     1       0.739   9.085  -5.869  1.00  0.00     0.000 C 
BRANCH   9  10
ATOM     10  C   UNL     1       1.452   8.574  -7.132  1.00  0.00    -0.000 C 
BRANCH  10  11
ATOM     11  C   UNL     1       0.497   7.885  -8.124  1.00  0.00    -0.000 C 
BRANCH  11  12
ATOM     12  C   UNL     1       0.584   8.389  -9.576  1.00  0.00    -0.000 C 
BRANCH  12  13
ATOM     13  C   UNL     1      -0.779   8.421 -10.283  1.00  0.00    -0.003 C 
ATOM     14  C   UNL     1      -0.701   7.763 -11.658  1.00  0.00     0.004 C 
ENDBRANCH  12  13
ENDBRANCH  11  12
ENDBRANCH  10  11
ENDBRANCH   9  10
ENDBRANCH   1   9
TORSDOF 10
ENDMDL
