MODEL 1
REMARK VINA RESULT:    -1.052      0.000      0.000
REMARK INTER + INTRA:          -1.052
REMARK INTER:                  -1.052
REMARK INTRA:                   0.000
REMARK UNBOUND:                 0.000
REMARK SMILES CC(=O)[O-]
REMARK SMILES IDX 1 1 2 2 3 3 4 4
REMARK H PARENT
REMARK Flexibility Score: inf
ROOT
ATOM      1  C   UNL     1      53.875  62.297  75.694  1.00  0.00     0.063 C 
ATOM      2  C   UNL     1      54.591  62.549  76.977  1.00  0.00     0.038 C 
ATOM      3  O   UNL     1      55.849  62.508  77.018  1.00  0.00    -0.550 OA
ATOM      4  O   UNL     1      53.876  62.884  78.119  1.00  0.00    -0.550 OA
ENDROOT
TORSDOF 0
ENDMDL
MODEL 2
REMARK VINA RESULT:    -0.996     17.188     17.776
REMARK INTER + INTRA:          -0.996
REMARK INTER:                  -0.996
REMARK INTRA:                   0.000
REMARK UNBOUND:                 0.000
REMARK SMILES CC(=O)[O-]
REMARK SMILES IDX 1 1 2 2 3 3 4 4
REMARK H PARENT
REMARK Flexibility Score: inf
ROOT
ATOM      1  C   UNL     1      67.348  57.806  67.399  1.00  0.00     0.063 C 
ATOM      2  C   UNL     1      67.464  57.133  66.073  1.00  0.00     0.038 C 
ATOM      3  O   UNL     1      68.565  56.644  65.707  1.00  0.00    -0.550 OA
ATOM      4  O   UNL     1      66.345  56.996  65.261  1.00  0.00    -0.550 OA
ENDROOT
TORSDOF 0
ENDMDL
MODEL 3
REMARK VINA RESULT:    -0.770     20.857     21.033
REMARK INTER + INTRA:          -0.770
REMARK INTER:                  -0.770
REMARK INTRA:                   0.000
REMARK UNBOUND:                 0.000
REMARK SMILES CC(=O)[O-]
REMARK SMILES IDX 1 1 2 2 3 3 4 4
REMARK H PARENT
REMARK Flexibility Score: inf
ROOT
ATOM      1  C   UNL     1      62.823  53.017  60.148  1.00  0.00     0.063 C 
ATOM      2  C   UNL     1      61.501  53.276  59.509  1.00  0.00     0.038 C 
ATOM      3  O   UNL     1      61.389  54.163  58.624  1.00  0.00    -0.550 OA
ATOM      4  O   UNL     1      60.400  52.501  59.851  1.00  0.00    -0.550 OA
ENDROOT
TORSDOF 0
ENDMDL
MODEL 4
REMARK VINA RESULT:    -0.623      3.751      4.041
REMARK INTER + INTRA:          -0.623
REMARK INTER:                  -0.623
REMARK INTRA:                   0.000
REMARK UNBOUND:                 0.000
REMARK SMILES CC(=O)[O-]
REMARK SMILES IDX 1 1 2 2 3 3 4 4
REMARK H PARENT
REMARK Flexibility Score: inf
ROOT
ATOM      1  C   UNL     1      54.081  61.569  75.223  1.00  0.00     0.063 C 
ATOM      2  C   UNL     1      53.957  61.118  73.807  1.00  0.00     0.038 C 
ATOM      3  O   UNL     1      53.875  59.891  73.539  1.00  0.00    -0.550 OA
ATOM      4  O   UNL     1      53.877  62.053  72.783  1.00  0.00    -0.550 OA
ENDROOT
TORSDOF 0
ENDMDL
MODEL 5
REMARK VINA RESULT:    -0.565     23.348     23.854
REMARK INTER + INTRA:          -0.565
REMARK INTER:                  -0.565
REMARK INTRA:                   0.000
REMARK UNBOUND:                 0.000
REMARK SMILES CC(=O)[O-]
REMARK SMILES IDX 1 1 2 2 3 3 4 4
REMARK H PARENT
REMARK Flexibility Score: inf
ROOT
ATOM      1  C   UNL     1      67.319  47.239  66.498  1.00  0.00     0.063 C 
ATOM      2  C   UNL     1      68.656  46.613  66.293  1.00  0.00     0.038 C 
ATOM      3  O   UNL     1      69.256  46.073  67.259  1.00  0.00    -0.550 OA
ATOM      4  O   UNL     1      69.220  46.575  65.024  1.00  0.00    -0.550 OA
ENDROOT
TORSDOF 0
ENDMDL
MODEL 6
REMARK VINA RESULT:    -0.474     20.848     21.010
REMARK INTER + INTRA:          -0.474
REMARK INTER:                  -0.474
REMARK INTRA:                   0.000
REMARK UNBOUND:                 0.000
REMARK SMILES CC(=O)[O-]
REMARK SMILES IDX 1 1 2 2 3 3 4 4
REMARK H PARENT
REMARK Flexibility Score: inf
ROOT
ATOM      1  C   UNL     1      60.568  52.288  59.800  1.00  0.00     0.063 C 
ATOM      2  C   UNL     1      61.568  53.346  59.476  1.00  0.00     0.038 C 
ATOM      3  O   UNL     1      61.310  54.214  58.602  1.00  0.00    -0.550 OA
ATOM      4  O   UNL     1      62.766  53.409  60.177  1.00  0.00    -0.550 OA
ENDROOT
TORSDOF 0
ENDMDL
MODEL 7
REMARK VINA RESULT:    -0.472     17.078     17.685
REMARK INTER + INTRA:          -0.472
REMARK INTER:                  -0.472
REMARK INTRA:                   0.000
REMARK UNBOUND:                 0.000
REMARK SMILES CC(=O)[O-]
REMARK SMILES IDX 1 1 2 2 3 3 4 4
REMARK H PARENT
REMARK Flexibility Score: inf
ROOT
ATOM      1  C   UNL     1      66.317  57.067  65.366  1.00  0.00     0.063 C 
ATOM      2  C   UNL     1      67.546  57.155  66.206  1.00  0.00     0.038 C 
ATOM      3  O   UNL     1      68.638  56.695  65.781  1.00  0.00    -0.550 OA
ATOM      4  O   UNL     1      67.501  57.793  67.440  1.00  0.00    -0.550 OA
ENDROOT
TORSDOF 0
ENDMDL
MODEL 8
REMARK VINA RESULT:    -0.286     22.674     23.197
REMARK INTER + INTRA:          -0.286
REMARK INTER:                  -0.286
REMARK INTRA:                   0.000
REMARK UNBOUND:                 0.000
REMARK SMILES CC(=O)[O-]
REMARK SMILES IDX 1 1 2 2 3 3 4 4
REMARK H PARENT
REMARK Flexibility Score: inf
ROOT
ATOM      1  C   UNL     1      69.025  46.234  66.949  1.00  0.00     0.063 C 
ATOM      2  C   UNL     1      67.964  47.037  66.276  1.00  0.00     0.038 C 
ATOM      3  O   UNL     1      68.134  47.450  65.099  1.00  0.00    -0.550 OA
ATOM      4  O   UNL     1      66.762  47.286  66.926  1.00  0.00    -0.550 OA
ENDROOT
TORSDOF 0
ENDMDL
