MODEL 1
REMARK VINA RESULT:    -3.639      0.000      0.000
REMARK INTER + INTRA:          -5.203
REMARK INTER:                  -4.915
REMARK INTRA:                  -0.288
REMARK UNBOUND:                -0.288
REMARK SMILES CCCCCCCC(=O)[O-]
REMARK SMILES IDX 5 1 6 2 7 3 8 4 9 5 10 6 4 7 3 8 2 9 1 10
REMARK H PARENT
REMARK Flexibility Score: inf
ROOT
ATOM      1  C   UNL     1      24.986  -2.173  18.032  1.00  0.00     0.000 C 
ENDROOT
BRANCH   1   2
ATOM      2  C   UNL     1      24.864  -3.431  17.153  1.00  0.00     0.006 C 
BRANCH   2   3
ATOM      3  C   UNL     1      25.895  -4.503  17.530  1.00  0.00     0.053 C 
BRANCH   3   4
ATOM      4  C   UNL     1      25.250  -5.695  18.167  1.00  0.00     0.041 C 
ATOM      5  O   UNL     1      24.205  -5.557  18.856  1.00  0.00    -0.550 OA
ATOM      6  O   UNL     1      25.782  -6.963  17.969  1.00  0.00    -0.550 OA
ENDBRANCH   3   4
ENDBRANCH   2   3
ENDBRANCH   1   2
BRANCH   1   7
ATOM      7  C   UNL     1      23.655  -1.783  18.693  1.00  0.00     0.000 C 
BRANCH   7   8
ATOM      8  C   UNL     1      23.215  -0.355  18.339  1.00  0.00    -0.000 C 
BRANCH   8   9
ATOM      9  C   UNL     1      23.252  -0.131  16.822  1.00  0.00    -0.003 C 
ATOM     10  C   UNL     1      23.674   1.297  16.486  1.00  0.00     0.004 C 
ENDBRANCH   8   9
ENDBRANCH   7   8
ENDBRANCH   1   7
TORSDOF 6
ENDMDL
MODEL 2
REMARK VINA RESULT:    -3.629      1.492      2.608
REMARK INTER + INTRA:          -5.190
REMARK INTER:                  -4.793
REMARK INTRA:                  -0.397
REMARK UNBOUND:                -0.288
REMARK SMILES CCCCCCCC(=O)[O-]
REMARK SMILES IDX 5 1 6 2 7 3 8 4 9 5 10 6 4 7 3 8 2 9 1 10
REMARK H PARENT
REMARK Flexibility Score: inf
ROOT
ATOM      1  C   UNL     1      25.038  -2.215  18.115  1.00  0.00     0.000 C 
ENDROOT
BRANCH   1   2
ATOM      2  C   UNL     1      24.926  -3.430  17.177  1.00  0.00     0.006 C 
BRANCH   2   3
ATOM      3  C   UNL     1      25.942  -4.525  17.525  1.00  0.00     0.053 C 
BRANCH   3   4
ATOM      4  C   UNL     1      25.277  -5.739  18.098  1.00  0.00     0.041 C 
ATOM      5  O   UNL     1      24.358  -5.615  18.950  1.00  0.00    -0.550 OA
ATOM      6  O   UNL     1      25.649  -7.006  17.666  1.00  0.00    -0.550 OA
ENDBRANCH   3   4
ENDBRANCH   2   3
ENDBRANCH   1   2
BRANCH   1   7
ATOM      7  C   UNL     1      23.672  -1.739  18.632  1.00  0.00     0.000 C 
BRANCH   7   8
ATOM      8  C   UNL     1      22.520  -2.653  18.186  1.00  0.00    -0.000 C 
BRANCH   8   9
ATOM      9  C   UNL     1      21.428  -2.720  19.261  1.00  0.00    -0.003 C 
ATOM     10  C   UNL     1      21.408  -4.086  19.942  1.00  0.00     0.004 C 
ENDBRANCH   8   9
ENDBRANCH   7   8
ENDBRANCH   1   7
TORSDOF 6
ENDMDL
MODEL 3
REMARK VINA RESULT:    -3.540      2.106      3.035
REMARK INTER + INTRA:          -5.070
REMARK INTER:                  -4.420
REMARK INTRA:                  -0.650
REMARK UNBOUND:                -0.288
REMARK SMILES CCCCCCCC(=O)[O-]
REMARK SMILES IDX 5 1 6 2 7 3 8 4 9 5 10 6 4 7 3 8 2 9 1 10
REMARK H PARENT
REMARK Flexibility Score: inf
ROOT
ATOM      1  C   UNL     1      25.709  -4.726  17.679  1.00  0.00     0.000 C 
ENDROOT
BRANCH   1   2
ATOM      2  C   UNL     1      24.740  -5.434  18.641  1.00  0.00     0.006 C 
BRANCH   2   3
ATOM      3  C   UNL     1      23.416  -5.804  17.961  1.00  0.00     0.053 C 
BRANCH   3   4
ATOM      4  C   UNL     1      22.234  -5.425  18.799  1.00  0.00     0.041 C 
ATOM      5  O   UNL     1      22.358  -4.573  19.718  1.00  0.00    -0.550 OA
ATOM      6  O   UNL     1      20.989  -5.984  18.542  1.00  0.00    -0.550 OA
ENDBRANCH   3   4
ENDBRANCH   2   3
ENDBRANCH   1   2
BRANCH   1   7
ATOM      7  C   UNL     1      25.156  -3.389  17.160  1.00  0.00     0.000 C 
BRANCH   7   8
ATOM      8  C   UNL     1      25.174  -2.288  18.230  1.00  0.00    -0.000 C 
BRANCH   8   9
ATOM      9  C   UNL     1      23.802  -1.611  18.342  1.00  0.00    -0.003 C 
ATOM     10  C   UNL     1      22.888  -2.026  17.192  1.00  0.00     0.004 C 
ENDBRANCH   8   9
ENDBRANCH   7   8
ENDBRANCH   1   7
TORSDOF 6
ENDMDL
MODEL 4
REMARK VINA RESULT:    -3.539      1.916      3.005
REMARK INTER + INTRA:          -5.069
REMARK INTER:                  -4.627
REMARK INTRA:                  -0.442
REMARK UNBOUND:                -0.288
REMARK SMILES CCCCCCCC(=O)[O-]
REMARK SMILES IDX 5 1 6 2 7 3 8 4 9 5 10 6 4 7 3 8 2 9 1 10
REMARK H PARENT
REMARK Flexibility Score: inf
ROOT
ATOM      1  C   UNL     1      25.826  -4.562  17.462  1.00  0.00     0.000 C 
ENDROOT
BRANCH   1   2
ATOM      2  C   UNL     1      25.200  -5.729  18.247  1.00  0.00     0.006 C 
BRANCH   2   3
ATOM      3  C   UNL     1      23.760  -6.017  17.806  1.00  0.00     0.053 C 
BRANCH   3   4
ATOM      4  C   UNL     1      23.647  -7.329  17.093  1.00  0.00     0.041 C 
ATOM      5  O   UNL     1      24.632  -7.791  16.460  1.00  0.00    -0.550 OA
ATOM      6  O   UNL     1      22.466  -8.058  17.159  1.00  0.00    -0.550 OA
ENDBRANCH   3   4
ENDBRANCH   2   3
ENDBRANCH   1   2
BRANCH   1   7
ATOM      7  C   UNL     1      24.838  -3.408  17.231  1.00  0.00     0.000 C 
BRANCH   7   8
ATOM      8  C   UNL     1      25.180  -2.163  18.062  1.00  0.00    -0.000 C 
BRANCH   8   9
ATOM      9  C   UNL     1      23.919  -1.569  18.702  1.00  0.00    -0.003 C 
ATOM     10  C   UNL     1      22.758  -2.560  18.656  1.00  0.00     0.004 C 
ENDBRANCH   8   9
ENDBRANCH   7   8
ENDBRANCH   1   7
TORSDOF 6
ENDMDL
MODEL 5
REMARK VINA RESULT:    -3.538      2.620      5.007
REMARK INTER + INTRA:          -5.067
REMARK INTER:                  -4.679
REMARK INTRA:                  -0.387
REMARK UNBOUND:                -0.288
REMARK SMILES CCCCCCCC(=O)[O-]
REMARK SMILES IDX 5 1 6 2 7 3 8 4 9 5 10 6 4 7 3 8 2 9 1 10
REMARK H PARENT
REMARK Flexibility Score: inf
ROOT
ATOM      1  C   UNL     1      25.047  -3.538  17.151  1.00  0.00     0.000 C 
ENDROOT
BRANCH   1   2
ATOM      2  C   UNL     1      25.133  -2.233  17.963  1.00  0.00     0.006 C 
BRANCH   2   3
ATOM      3  C   UNL     1      23.952  -1.296  17.680  1.00  0.00     0.053 C 
BRANCH   3   4
ATOM      4  C   UNL     1      23.057  -1.151  18.873  1.00  0.00     0.041 C 
ATOM      5  O   UNL     1      22.170  -2.014  19.107  1.00  0.00    -0.550 OA
ATOM      6  O   UNL     1      23.227  -0.084  19.745  1.00  0.00    -0.550 OA
ENDBRANCH   3   4
ENDBRANCH   2   3
ENDBRANCH   1   2
BRANCH   1   7
ATOM      7  C   UNL     1      25.745  -4.715  17.849  1.00  0.00     0.000 C 
BRANCH   7   8
ATOM      8  C   UNL     1      24.767  -5.828  18.252  1.00  0.00    -0.000 C 
BRANCH   8   9
ATOM      9  C   UNL     1      23.618  -5.266  19.099  1.00  0.00    -0.003 C 
ATOM     10  C   UNL     1      22.262  -5.648  18.512  1.00  0.00     0.004 C 
ENDBRANCH   8   9
ENDBRANCH   7   8
ENDBRANCH   1   7
TORSDOF 6
ENDMDL
MODEL 6
REMARK VINA RESULT:    -3.437      2.705      4.302
REMARK INTER + INTRA:          -4.931
REMARK INTER:                  -4.605
REMARK INTRA:                  -0.326
REMARK UNBOUND:                -0.288
REMARK SMILES CCCCCCCC(=O)[O-]
REMARK SMILES IDX 5 1 6 2 7 3 8 4 9 5 10 6 4 7 3 8 2 9 1 10
REMARK H PARENT
REMARK Flexibility Score: inf
ROOT
ATOM      1  C   UNL     1      23.692  -5.873  17.901  1.00  0.00     0.000 C 
ENDROOT
BRANCH   1   2
ATOM      2  C   UNL     1      23.248  -7.139  17.149  1.00  0.00     0.006 C 
BRANCH   2   3
ATOM      3  C   UNL     1      24.441  -7.992  16.696  1.00  0.00     0.053 C 
BRANCH   3   4
ATOM      4  C   UNL     1      24.150  -9.458  16.805  1.00  0.00     0.041 C 
ATOM      5  O   UNL     1      25.088 -10.295  16.743  1.00  0.00    -0.550 OA
ATOM      6  O   UNL     1      22.848  -9.896  17.011  1.00  0.00    -0.550 OA
ENDBRANCH   3   4
ENDBRANCH   2   3
ENDBRANCH   1   2
BRANCH   1   7
ATOM      7  C   UNL     1      25.212  -5.816  18.119  1.00  0.00     0.000 C 
BRANCH   7   8
ATOM      8  C   UNL     1      25.854  -4.572  17.487  1.00  0.00    -0.000 C 
BRANCH   8   9
ATOM      9  C   UNL     1      24.802  -3.489  17.221  1.00  0.00    -0.003 C 
ATOM     10  C   UNL     1      25.069  -2.243  18.062  1.00  0.00     0.004 C 
ENDBRANCH   8   9
ENDBRANCH   7   8
ENDBRANCH   1   7
TORSDOF 6
ENDMDL
MODEL 7
REMARK VINA RESULT:    -3.433     10.180     11.390
REMARK INTER + INTRA:          -4.926
REMARK INTER:                  -4.402
REMARK INTRA:                  -0.524
REMARK UNBOUND:                -0.288
REMARK SMILES CCCCCCCC(=O)[O-]
REMARK SMILES IDX 5 1 6 2 7 3 8 4 9 5 10 6 4 7 3 8 2 9 1 10
REMARK H PARENT
REMARK Flexibility Score: inf
ROOT
ATOM      1  C   UNL     1      26.344   2.134   8.679  1.00  0.00     0.000 C 
ENDROOT
BRANCH   1   2
ATOM      2  C   UNL     1      26.007   0.633   8.728  1.00  0.00     0.006 C 
BRANCH   2   3
ATOM      3  C   UNL     1      27.004  -0.156   9.586  1.00  0.00     0.053 C 
BRANCH   3   4
ATOM      4  C   UNL     1      28.000  -0.894   8.745  1.00  0.00     0.041 C 
ATOM      5  O   UNL     1      29.125  -0.383   8.502  1.00  0.00    -0.550 OA
ATOM      6  O   UNL     1      27.700  -2.162   8.261  1.00  0.00    -0.550 OA
ENDBRANCH   3   4
ENDBRANCH   2   3
ENDBRANCH   1   2
BRANCH   1   7
ATOM      7  C   UNL     1      26.517   2.653   7.243  1.00  0.00     0.000 C 
BRANCH   7   8
ATOM      8  C   UNL     1      27.866   2.251   6.628  1.00  0.00    -0.000 C 
BRANCH   8   9
ATOM      9  C   UNL     1      27.662   1.321   5.425  1.00  0.00    -0.003 C 
ATOM     10  C   UNL     1      26.272   1.498   4.820  1.00  0.00     0.004 C 
ENDBRANCH   8   9
ENDBRANCH   7   8
ENDBRANCH   1   7
TORSDOF 6
ENDMDL
MODEL 8
REMARK VINA RESULT:    -3.403     10.228     11.323
REMARK INTER + INTRA:          -4.885
REMARK INTER:                  -4.303
REMARK INTRA:                  -0.582
REMARK UNBOUND:                -0.288
REMARK SMILES CCCCCCCC(=O)[O-]
REMARK SMILES IDX 5 1 6 2 7 3 8 4 9 5 10 6 4 7 3 8 2 9 1 10
REMARK H PARENT
REMARK Flexibility Score: inf
ROOT
ATOM      1  C   UNL     1      27.685   0.264   5.577  1.00  0.00     0.000 C 
ENDROOT
BRANCH   1   2
ATOM      2  C   UNL     1      27.681  -0.760   6.726  1.00  0.00     0.006 C 
BRANCH   2   3
ATOM      3  C   UNL     1      28.419  -0.241   7.967  1.00  0.00     0.053 C 
BRANCH   3   4
ATOM      4  C   UNL     1      27.695  -0.589   9.231  1.00  0.00     0.041 C 
ATOM      5  O   UNL     1      26.739  -1.408   9.208  1.00  0.00    -0.550 OA
ATOM      6  O   UNL     1      28.099  -0.037  10.440  1.00  0.00    -0.550 OA
ENDBRANCH   3   4
ENDBRANCH   2   3
ENDBRANCH   1   2
BRANCH   1   7
ATOM      7  C   UNL     1      27.987   1.691   6.058  1.00  0.00     0.000 C 
BRANCH   7   8
ATOM      8  C   UNL     1      26.724   2.557   6.170  1.00  0.00    -0.000 C 
BRANCH   8   9
ATOM      9  C   UNL     1      26.355   2.800   7.639  1.00  0.00    -0.003 C 
ATOM     10  C   UNL     1      25.194   1.908   8.070  1.00  0.00     0.004 C 
ENDBRANCH   8   9
ENDBRANCH   7   8
ENDBRANCH   1   7
TORSDOF 6
ENDMDL
MODEL 9
REMARK VINA RESULT:    -3.399     11.222     12.234
REMARK INTER + INTRA:          -4.879
REMARK INTER:                  -4.650
REMARK INTRA:                  -0.229
REMARK UNBOUND:                -0.288
REMARK SMILES CCCCCCCC(=O)[O-]
REMARK SMILES IDX 5 1 6 2 7 3 8 4 9 5 10 6 4 7 3 8 2 9 1 10
REMARK H PARENT
REMARK Flexibility Score: inf
ROOT
ATOM      1  C   UNL     1      27.036  -0.896   7.383  1.00  0.00     0.000 C 
ENDROOT
BRANCH   1   2
ATOM      2  C   UNL     1      27.214  -0.661   5.873  1.00  0.00     0.006 C 
BRANCH   2   3
ATOM      3  C   UNL     1      27.823   0.714   5.568  1.00  0.00     0.053 C 
BRANCH   3   4
ATOM      4  C   UNL     1      26.773   1.777   5.463  1.00  0.00     0.041 C 
ATOM      5  O   UNL     1      26.100   1.899   4.406  1.00  0.00    -0.550 OA
ATOM      6  O   UNL     1      26.513   2.609   6.545  1.00  0.00    -0.550 OA
ENDBRANCH   3   4
ENDBRANCH   2   3
ENDBRANCH   1   2
BRANCH   1   7
ATOM      7  C   UNL     1      28.285  -0.516   8.192  1.00  0.00     0.000 C 
BRANCH   7   8
ATOM      8  C   UNL     1      28.363  -1.248   9.540  1.00  0.00    -0.000 C 
BRANCH   8   9
ATOM      9  C   UNL     1      27.947  -0.323  10.690  1.00  0.00    -0.003 C 
ATOM     10  C   UNL     1      29.125  -0.031  11.617  1.00  0.00     0.004 C 
ENDBRANCH   8   9
ENDBRANCH   7   8
ENDBRANCH   1   7
TORSDOF 6
ENDMDL
