MODEL 1
REMARK VINA RESULT:    -5.659      0.000      0.000
REMARK INTER + INTRA:          -6.283
REMARK INTER:                  -6.155
REMARK INTRA:                  -0.128
REMARK UNBOUND:                -0.128
REMARK SMILES Cc1ccc(C(C)C)cc1O
REMARK SMILES IDX 1 1 2 2 10 3 9 4 5 5 4 6 3 7 11 8 6 10 7 11 8 12
REMARK H PARENT 11 9
REMARK Flexibility Score: inf
ROOT
ATOM      1  C   UNL     1      -9.550  -3.219 -10.156  1.00  0.00     0.048 C 
ATOM      2  C   UNL     1     -10.144  -4.010  -9.025  1.00  0.00    -0.009 A 
ATOM      3  C   UNL     1      -9.659  -3.847  -7.716  1.00  0.00     0.118 A 
ATOM      4  C   UNL     1     -10.218  -4.589  -6.665  1.00  0.00     0.050 A 
ATOM      5  C   UNL     1     -11.263  -5.500  -6.905  1.00  0.00    -0.042 A 
ATOM      6  C   UNL     1     -11.740  -5.656  -8.217  1.00  0.00     0.004 A 
ATOM      7  C   UNL     1     -11.185  -4.918  -9.267  1.00  0.00     0.007 A 
ENDROOT
BRANCH   3   8
ATOM      8  O   UNL     1      -8.623  -2.949  -7.461  1.00  0.00    -0.508 OA
ATOM      9  H   UNL     1      -7.782  -3.231  -6.972  1.00  0.00     0.293 HD
ENDBRANCH   3   8
BRANCH   5  10
ATOM     10  C   UNL     1     -11.875  -6.307  -5.775  1.00  0.00     0.013 C 
ATOM     11  C   UNL     1     -11.142  -7.642  -5.590  1.00  0.00     0.012 C 
ATOM     12  C   UNL     1     -13.375  -6.529  -6.004  1.00  0.00     0.012 C 
ENDBRANCH   5  10
TORSDOF 2
ENDMDL
MODEL 2
REMARK VINA RESULT:    -5.050      6.379      7.578
REMARK INTER + INTRA:          -5.621
REMARK INTER:                  -5.495
REMARK INTRA:                  -0.126
REMARK UNBOUND:                -0.128
REMARK SMILES Cc1ccc(C(C)C)cc1O
REMARK SMILES IDX 1 1 2 2 10 3 9 4 5 5 4 6 3 7 11 8 6 10 7 11 8 12
REMARK H PARENT 11 9
REMARK Flexibility Score: inf
ROOT
ATOM      1  C   UNL     1     -13.960   4.442  -8.296  1.00  0.00     0.048 C 
ATOM      2  C   UNL     1     -13.803   3.069  -8.888  1.00  0.00    -0.009 A 
ATOM      3  C   UNL     1     -12.522   2.534  -9.105  1.00  0.00     0.118 A 
ATOM      4  C   UNL     1     -12.383   1.252  -9.658  1.00  0.00     0.050 A 
ATOM      5  C   UNL     1     -13.516   0.491  -9.999  1.00  0.00    -0.042 A 
ATOM      6  C   UNL     1     -14.791   1.035  -9.779  1.00  0.00     0.004 A 
ATOM      7  C   UNL     1     -14.934   2.312  -9.228  1.00  0.00     0.007 A 
ENDROOT
BRANCH   3   8
ATOM      8  O   UNL     1     -11.389   3.277  -8.772  1.00  0.00    -0.508 OA
ATOM      9  H   UNL     1     -10.763   2.987  -8.030  1.00  0.00     0.293 HD
ENDBRANCH   3   8
BRANCH   5  10
ATOM     10  C   UNL     1     -13.377  -0.897 -10.598  1.00  0.00     0.013 C 
ATOM     11  C   UNL     1     -14.581  -1.776 -10.240  1.00  0.00     0.012 C 
ATOM     12  C   UNL     1     -12.063  -1.557 -10.163  1.00  0.00     0.012 C 
ENDBRANCH   5  10
TORSDOF 2
ENDMDL
MODEL 3
REMARK VINA RESULT:    -5.032      1.623      2.195
REMARK INTER + INTRA:          -5.601
REMARK INTER:                  -5.497
REMARK INTRA:                  -0.104
REMARK UNBOUND:                -0.128
REMARK SMILES Cc1ccc(C(C)C)cc1O
REMARK SMILES IDX 1 1 2 2 10 3 9 4 5 5 4 6 3 7 11 8 6 10 7 11 8 12
REMARK H PARENT 11 9
REMARK Flexibility Score: inf
ROOT
ATOM      1  C   UNL     1      -9.509  -3.749  -9.430  1.00  0.00     0.048 C 
ATOM      2  C   UNL     1     -10.286  -4.499  -8.384  1.00  0.00    -0.009 A 
ATOM      3  C   UNL     1     -11.300  -5.395  -8.762  1.00  0.00     0.118 A 
ATOM      4  C   UNL     1     -12.021  -6.091  -7.781  1.00  0.00     0.050 A 
ATOM      5  C   UNL     1     -11.740  -5.902  -6.415  1.00  0.00    -0.042 A 
ATOM      6  C   UNL     1     -10.726  -5.004  -6.048  1.00  0.00     0.004 A 
ATOM      7  C   UNL     1     -10.005  -4.309  -7.023  1.00  0.00     0.007 A 
ENDROOT
BRANCH   3   8
ATOM      8  O   UNL     1     -11.590  -5.592 -10.113  1.00  0.00    -0.508 OA
ATOM      9  H   UNL     1     -12.046  -4.878 -10.668  1.00  0.00     0.293 HD
ENDBRANCH   3   8
BRANCH   5  10
ATOM     10  C   UNL     1     -12.513  -6.651  -5.345  1.00  0.00     0.013 C 
ATOM     11  C   UNL     1     -11.812  -7.963  -4.972  1.00  0.00     0.012 C 
ATOM     12  C   UNL     1     -13.960  -6.904  -5.785  1.00  0.00     0.012 C 
ENDBRANCH   5  10
TORSDOF 2
ENDMDL
MODEL 4
REMARK VINA RESULT:    -5.031      1.607      2.506
REMARK INTER + INTRA:          -5.600
REMARK INTER:                  -5.472
REMARK INTRA:                  -0.128
REMARK UNBOUND:                -0.128
REMARK SMILES Cc1ccc(C(C)C)cc1O
REMARK SMILES IDX 1 1 2 2 10 3 9 4 5 5 4 6 3 7 11 8 6 10 7 11 8 12
REMARK H PARENT 11 9
REMARK Flexibility Score: inf
ROOT
ATOM      1  C   UNL     1      -9.141  -3.538  -8.202  1.00  0.00     0.048 C 
ATOM      2  C   UNL     1     -10.171  -4.505  -7.690  1.00  0.00    -0.009 A 
ATOM      3  C   UNL     1     -10.998  -5.201  -8.589  1.00  0.00     0.118 A 
ATOM      4  C   UNL     1     -11.957  -6.102  -8.105  1.00  0.00     0.050 A 
ATOM      5  C   UNL     1     -12.103  -6.321  -6.722  1.00  0.00    -0.042 A 
ATOM      6  C   UNL     1     -11.273  -5.621  -5.833  1.00  0.00     0.004 A 
ATOM      7  C   UNL     1     -10.316  -4.722  -6.312  1.00  0.00     0.007 A 
ENDROOT
BRANCH   3   8
ATOM      8  O   UNL     1     -10.865  -4.994  -9.963  1.00  0.00    -0.508 OA
ATOM      9  H   UNL     1     -11.279  -4.192 -10.422  1.00  0.00     0.293 HD
ENDBRANCH   3   8
BRANCH   5  10
ATOM     10  C   UNL     1     -13.137  -7.294  -6.188  1.00  0.00     0.013 C 
ATOM     11  C   UNL     1     -14.449  -6.575  -5.850  1.00  0.00     0.012 C 
ATOM     12  C   UNL     1     -12.599  -8.060  -4.973  1.00  0.00     0.012 C 
ENDBRANCH   5  10
TORSDOF 2
ENDMDL
MODEL 5
REMARK VINA RESULT:    -4.904      2.229      4.706
REMARK INTER + INTRA:          -5.462
REMARK INTER:                  -5.336
REMARK INTRA:                  -0.126
REMARK UNBOUND:                -0.128
REMARK SMILES Cc1ccc(C(C)C)cc1O
REMARK SMILES IDX 1 1 2 2 10 3 9 4 5 5 4 6 3 7 11 8 6 10 7 11 8 12
REMARK H PARENT 11 9
REMARK Flexibility Score: inf
ROOT
ATOM      1  C   UNL     1     -13.393  -7.862  -5.469  1.00  0.00     0.048 C 
ATOM      2  C   UNL     1     -12.456  -6.920  -6.172  1.00  0.00    -0.009 A 
ATOM      3  C   UNL     1     -12.371  -6.920  -7.575  1.00  0.00     0.118 A 
ATOM      4  C   UNL     1     -11.494  -6.039  -8.224  1.00  0.00     0.050 A 
ATOM      5  C   UNL     1     -10.693  -5.149  -7.484  1.00  0.00    -0.042 A 
ATOM      6  C   UNL     1     -10.784  -5.157  -6.083  1.00  0.00     0.004 A 
ATOM      7  C   UNL     1     -11.658  -6.034  -5.433  1.00  0.00     0.007 A 
ENDROOT
BRANCH   3   8
ATOM      8  O   UNL     1     -13.159  -7.797  -8.321  1.00  0.00    -0.508 OA
ATOM      9  H   UNL     1     -13.306  -8.757  -8.033  1.00  0.00     0.293 HD
ENDBRANCH   3   8
BRANCH   5  10
ATOM     10  C   UNL     1      -9.741  -4.192  -8.176  1.00  0.00     0.013 C 
ATOM     11  C   UNL     1      -9.568  -2.902  -7.365  1.00  0.00     0.012 C 
ATOM     12  C   UNL     1     -10.206  -3.887  -9.605  1.00  0.00     0.012 C 
ENDBRANCH   5  10
TORSDOF 2
ENDMDL
MODEL 6
REMARK VINA RESULT:    -4.844     15.922     17.047
REMARK INTER + INTRA:          -5.397
REMARK INTER:                  -5.280
REMARK INTRA:                  -0.117
REMARK UNBOUND:                -0.128
REMARK SMILES Cc1ccc(C(C)C)cc1O
REMARK SMILES IDX 1 1 2 2 10 3 9 4 5 5 4 6 3 7 11 8 6 10 7 11 8 12
REMARK H PARENT 11 9
REMARK Flexibility Score: inf
ROOT
ATOM      1  C   UNL     1     -11.411   3.079   7.485  1.00  0.00     0.048 C 
ATOM      2  C   UNL     1     -12.260   3.991   6.645  1.00  0.00    -0.009 A 
ATOM      3  C   UNL     1     -12.089   4.033   5.251  1.00  0.00     0.118 A 
ATOM      4  C   UNL     1     -12.885   4.886   4.473  1.00  0.00     0.050 A 
ATOM      5  C   UNL     1     -13.859   5.706   5.074  1.00  0.00    -0.042 A 
ATOM      6  C   UNL     1     -14.021   5.657   6.468  1.00  0.00     0.004 A 
ATOM      7  C   UNL     1     -13.230   4.807   7.246  1.00  0.00     0.007 A 
ENDROOT
BRANCH   3   8
ATOM      8  O   UNL     1     -11.127   3.227   4.641  1.00  0.00    -0.508 OA
ATOM      9  H   UNL     1     -10.969   2.271   4.937  1.00  0.00     0.293 HD
ENDBRANCH   3   8
BRANCH   5  10
ATOM     10  C   UNL     1     -14.726   6.632   4.242  1.00  0.00     0.013 C 
ATOM     11  C   UNL     1     -14.439   6.461   2.745  1.00  0.00     0.012 C 
ATOM     12  C   UNL     1     -14.547   8.093   4.675  1.00  0.00     0.012 C 
ENDBRANCH   5  10
TORSDOF 2
ENDMDL
MODEL 7
REMARK VINA RESULT:    -4.551     16.524     17.481
REMARK INTER + INTRA:          -5.078
REMARK INTER:                  -4.950
REMARK INTRA:                  -0.127
REMARK UNBOUND:                -0.128
REMARK SMILES Cc1ccc(C(C)C)cc1O
REMARK SMILES IDX 1 1 2 2 10 3 9 4 5 5 4 6 3 7 11 8 6 10 7 11 8 12
REMARK H PARENT 11 9
REMARK Flexibility Score: inf
ROOT
ATOM      1  C   UNL     1     -14.572   7.191   4.242  1.00  0.00     0.048 C 
ATOM      2  C   UNL     1     -13.614   6.415   5.102  1.00  0.00    -0.009 A 
ATOM      3  C   UNL     1     -13.171   5.143   4.700  1.00  0.00     0.118 A 
ATOM      4  C   UNL     1     -12.278   4.424   5.507  1.00  0.00     0.050 A 
ATOM      5  C   UNL     1     -11.817   4.963   6.723  1.00  0.00    -0.042 A 
ATOM      6  C   UNL     1     -12.266   6.233   7.117  1.00  0.00     0.004 A 
ATOM      7  C   UNL     1     -13.156   6.953   6.314  1.00  0.00     0.007 A 
ENDROOT
BRANCH   3   8
ATOM      8  O   UNL     1     -13.620   4.596   3.497  1.00  0.00    -0.508 OA
ATOM      9  H   UNL     1     -13.972   5.178   2.746  1.00  0.00     0.293 HD
ENDBRANCH   3   8
BRANCH   5  10
ATOM     10  C   UNL     1     -10.850   4.194   7.604  1.00  0.00     0.013 C 
ATOM     11  C   UNL     1     -11.554   3.029   8.311  1.00  0.00     0.012 C 
ATOM     12  C   UNL     1     -10.168   5.122   8.616  1.00  0.00     0.012 C 
ENDBRANCH   5  10
TORSDOF 2
ENDMDL
MODEL 8
REMARK VINA RESULT:    -4.518     16.959     18.058
REMARK INTER + INTRA:          -5.042
REMARK INTER:                  -4.914
REMARK INTRA:                  -0.128
REMARK UNBOUND:                -0.128
REMARK SMILES Cc1ccc(C(C)C)cc1O
REMARK SMILES IDX 1 1 2 2 10 3 9 4 5 5 4 6 3 7 11 8 6 10 7 11 8 12
REMARK H PARENT 11 9
REMARK Flexibility Score: inf
ROOT
ATOM      1  C   UNL     1     -10.644   3.865   9.125  1.00  0.00     0.048 C 
ATOM      2  C   UNL     1     -11.405   4.550   8.025  1.00  0.00    -0.009 A 
ATOM      3  C   UNL     1     -10.832   5.631   7.334  1.00  0.00     0.118 A 
ATOM      4  C   UNL     1     -11.548   6.266   6.308  1.00  0.00     0.050 A 
ATOM      5  C   UNL     1     -12.841   5.831   5.960  1.00  0.00    -0.042 A 
ATOM      6  C   UNL     1     -13.405   4.751   6.657  1.00  0.00     0.004 A 
ATOM      7  C   UNL     1     -12.694   4.116   7.679  1.00  0.00     0.007 A 
ENDROOT
BRANCH   3   8
ATOM      8  O   UNL     1      -9.552   6.074   7.668  1.00  0.00    -0.508 OA
ATOM      9  H   UNL     1      -8.723   5.563   7.388  1.00  0.00     0.293 HD
ENDBRANCH   3   8
BRANCH   5  10
ATOM     10  C   UNL     1     -13.624   6.511   4.852  1.00  0.00     0.013 C 
ATOM     11  C   UNL     1     -14.762   7.366   5.425  1.00  0.00     0.012 C 
ATOM     12  C   UNL     1     -14.158   5.486   3.844  1.00  0.00     0.012 C 
ENDBRANCH   5  10
TORSDOF 2
ENDMDL
MODEL 9
REMARK VINA RESULT:    -4.495     16.607     17.429
REMARK INTER + INTRA:          -5.017
REMARK INTER:                  -4.889
REMARK INTRA:                  -0.127
REMARK UNBOUND:                -0.128
REMARK SMILES Cc1ccc(C(C)C)cc1O
REMARK SMILES IDX 1 1 2 2 10 3 9 4 5 5 4 6 3 7 11 8 6 10 7 11 8 12
REMARK H PARENT 11 9
REMARK Flexibility Score: inf
ROOT
ATOM      1  C   UNL     1     -14.382   6.516   2.856  1.00  0.00     0.048 C 
ATOM      2  C   UNL     1     -13.989   5.940   4.187  1.00  0.00    -0.009 A 
ATOM      3  C   UNL     1     -14.374   6.580   5.378  1.00  0.00     0.118 A 
ATOM      4  C   UNL     1     -14.004   6.037   6.617  1.00  0.00     0.050 A 
ATOM      5  C   UNL     1     -13.247   4.853   6.684  1.00  0.00    -0.042 A 
ATOM      6  C   UNL     1     -12.865   4.222   5.489  1.00  0.00     0.004 A 
ATOM      7  C   UNL     1     -13.233   4.760   4.252  1.00  0.00     0.007 A 
ENDROOT
BRANCH   3   8
ATOM      8  O   UNL     1     -15.125   7.755   5.327  1.00  0.00    -0.508 OA
ATOM      9  H   UNL     1     -14.716   8.657   5.544  1.00  0.00     0.293 HD
ENDBRANCH   3   8
BRANCH   5  10
ATOM     10  C   UNL     1     -12.841   4.256   8.019  1.00  0.00     0.013 C 
ATOM     11  C   UNL     1     -12.434   5.352   9.012  1.00  0.00     0.012 C 
ATOM     12  C   UNL     1     -11.720   3.225   7.845  1.00  0.00     0.012 C 
ENDBRANCH   5  10
TORSDOF 2
ENDMDL
