MODEL 1
REMARK VINA RESULT:    -5.756      0.000      0.000
REMARK INTER + INTRA:         -10.257
REMARK INTER:                  -8.785
REMARK INTRA:                  -1.472
REMARK UNBOUND:                -1.472
REMARK SMILES OC[C@@H]1O[C@](CO)(O[C@@H]2O[C@H](CO)[C@@H](O)[C@@H](O)[C@H]2O)[C@@H](O)[C@@H]1O
REMARK SMILES IDX 8 1 9 2 11 3 14 4 10 5 16 6 18 7 12 8 13 9 15 11 17 13 19 15
REMARK SMILES IDX 5 17 20 18 4 19 22 20 3 21 6 22 7 23 21 25 23 27 2 29 1 30
REMARK H PARENT 13 10 15 12 17 14 19 16 7 24 21 26 23 28 1 31
REMARK Flexibility Score: inf
ROOT
ATOM      1  O   UNL     1      -7.922   1.795   0.019  1.00  0.00    -0.313 OA
ENDROOT
BRANCH   1   2
ATOM      2  C   UNL     1      -6.779   1.146   0.559  1.00  0.00     0.285 C 
ATOM      3  C   UNL     1      -5.390  -0.700   0.208  1.00  0.00     0.178 C 
ATOM      4  C   UNL     1      -5.953  -1.586   1.352  1.00  0.00     0.177 C 
ATOM      5  O   UNL     1      -6.420   0.104  -0.340  1.00  0.00    -0.341 OA
ATOM      6  C   UNL     1      -7.220  -0.938   1.963  1.00  0.00     0.179 C 
ATOM      7  C   UNL     1      -7.121   0.602   1.981  1.00  0.00     0.202 C 
BRANCH   3   8
ATOM      8  C   UNL     1      -4.784  -1.550  -0.916  1.00  0.00     0.191 C 
BRANCH   8   9
ATOM      9  O   UNL     1      -3.825  -0.820  -1.635  1.00  0.00    -0.394 OA
ATOM     10  H   UNL     1      -3.372  -1.463  -2.241  1.00  0.00     0.210 HD
ENDBRANCH   8   9
ENDBRANCH   3   8
BRANCH   4  11
ATOM     11  O   UNL     1      -4.954  -1.756   2.327  1.00  0.00    -0.387 OA
ATOM     12  H   UNL     1      -5.368  -1.552   3.207  1.00  0.00     0.211 HD
ENDBRANCH   4  11
BRANCH   6  13
ATOM     13  O   UNL     1      -7.530  -1.468   3.230  1.00  0.00    -0.387 OA
ATOM     14  H   UNL     1      -7.848  -2.398   3.110  1.00  0.00     0.211 HD
ENDBRANCH   6  13
BRANCH   7  15
ATOM     15  O   UNL     1      -6.121   1.012   2.884  1.00  0.00    -0.385 OA
ATOM     16  H   UNL     1      -6.398   1.888   3.262  1.00  0.00     0.211 HD
ENDBRANCH   7  15
ENDBRANCH   1   2
BRANCH   1  17
ATOM     17  C   UNL     1      -7.854   3.219   0.053  1.00  0.00     0.224 C 
ATOM     18  C   UNL     1      -6.393   3.689  -0.049  1.00  0.00     0.208 C 
ATOM     19  O   UNL     1      -8.401   3.743   1.250  1.00  0.00    -0.337 OA
ATOM     20  C   UNL     1      -6.393   4.982   0.728  1.00  0.00     0.180 C 
ATOM     21  C   UNL     1      -7.632   4.864   1.640  1.00  0.00     0.179 C 
BRANCH  17  22
ATOM     22  C   UNL     1      -8.709   3.741  -1.122  1.00  0.00     0.225 C 
BRANCH  22  23
ATOM     23  O   UNL     1      -8.453   2.992  -2.281  1.00  0.00    -0.391 OA
ATOM     24  H   UNL     1      -7.467   2.953  -2.389  1.00  0.00     0.210 HD
ENDBRANCH  22  23
ENDBRANCH  17  22
BRANCH  18  25
ATOM     25  O   UNL     1      -5.988   3.890  -1.380  1.00  0.00    -0.385 OA
ATOM     26  H   UNL     1      -5.085   3.487  -1.469  1.00  0.00     0.211 HD
ENDBRANCH  18  25
BRANCH  20  27
ATOM     27  O   UNL     1      -5.195   5.133   1.447  1.00  0.00    -0.387 OA
ATOM     28  H   UNL     1      -5.414   4.961   2.400  1.00  0.00     0.211 HD
ENDBRANCH  20  27
BRANCH  21  29
ATOM     29  C   UNL     1      -7.315   4.743   3.138  1.00  0.00     0.191 C 
BRANCH  29  30
ATOM     30  O   UNL     1      -6.437   3.674   3.359  1.00  0.00    -0.394 OA
ATOM     31  H   UNL     1      -6.716   2.956   2.732  1.00  0.00     0.210 HD
ENDBRANCH  29  30
ENDBRANCH  21  29
ENDBRANCH   1  17
TORSDOF 13
ENDMDL
MODEL 2
REMARK VINA RESULT:    -5.492      1.338      5.923
REMARK INTER + INTRA:          -9.854
REMARK INTER:                  -8.414
REMARK INTRA:                  -1.440
REMARK UNBOUND:                -1.472
REMARK SMILES OC[C@@H]1O[C@](CO)(O[C@@H]2O[C@H](CO)[C@@H](O)[C@@H](O)[C@H]2O)[C@@H](O)[C@@H]1O
REMARK SMILES IDX 8 1 9 2 11 3 14 4 10 5 16 6 18 7 12 8 13 9 15 11 17 13 19 15
REMARK SMILES IDX 5 17 20 18 4 19 22 20 3 21 6 22 7 23 21 25 23 27 2 29 1 30
REMARK H PARENT 13 10 15 12 17 14 19 16 7 24 21 26 23 28 1 31
REMARK Flexibility Score: inf
ROOT
ATOM      1  O   UNL     1      -8.056   0.748   0.693  1.00  0.00    -0.313 OA
ENDROOT
BRANCH   1   2
ATOM      2  C   UNL     1      -7.099   1.769   0.939  1.00  0.00     0.285 C 
ATOM      3  C   UNL     1      -6.924   3.952   1.753  1.00  0.00     0.178 C 
ATOM      4  C   UNL     1      -6.751   4.657   0.381  1.00  0.00     0.177 C 
ATOM      5  O   UNL     1      -7.769   2.823   1.619  1.00  0.00    -0.341 OA
ATOM      6  C   UNL     1      -6.994   3.655  -0.775  1.00  0.00     0.179 C 
ATOM      7  C   UNL     1      -6.492   2.241  -0.419  1.00  0.00     0.202 C 
BRANCH   3   8
ATOM      8  C   UNL     1      -7.533   4.896   2.799  1.00  0.00     0.191 C 
BRANCH   8   9
ATOM      9  O   UNL     1      -8.063   6.044   2.191  1.00  0.00    -0.394 OA
ATOM     10  H   UNL     1      -7.379   6.758   2.282  1.00  0.00     0.210 HD
ENDBRANCH   8   9
ENDBRANCH   3   8
BRANCH   4  11
ATOM     11  O   UNL     1      -5.456   5.203   0.311  1.00  0.00    -0.387 OA
ATOM     12  H   UNL     1      -5.542   6.107  -0.092  1.00  0.00     0.211 HD
ENDBRANCH   4  11
BRANCH   6  13
ATOM     13  O   UNL     1      -6.469   4.117  -1.997  1.00  0.00    -0.387 OA
ATOM     14  H   UNL     1      -7.030   3.763  -2.732  1.00  0.00     0.211 HD
ENDBRANCH   6  13
BRANCH   7  15
ATOM     15  O   UNL     1      -5.087   2.236  -0.322  1.00  0.00    -0.385 OA
ATOM     16  H   UNL     1      -4.820   1.398   0.139  1.00  0.00     0.211 HD
ENDBRANCH   7  15
ENDBRANCH   1   2
BRANCH   1  17
ATOM     17  C   UNL     1      -7.600  -0.567   1.007  1.00  0.00     0.224 C 
ATOM     18  C   UNL     1      -6.689  -0.537   2.246  1.00  0.00     0.208 C 
ATOM     19  O   UNL     1      -6.867  -1.138  -0.062  1.00  0.00    -0.337 OA
ATOM     20  C   UNL     1      -5.743  -1.687   2.005  1.00  0.00     0.180 C 
ATOM     21  C   UNL     1      -5.810  -1.906   0.480  1.00  0.00     0.179 C 
BRANCH  17  22
ATOM     22  C   UNL     1      -8.853  -1.438   1.236  1.00  0.00     0.225 C 
BRANCH  22  23
ATOM     23  O   UNL     1      -9.913  -0.652   1.715  1.00  0.00    -0.391 OA
ATOM     24  H   UNL     1      -9.571  -0.151   2.499  1.00  0.00     0.210 HD
ENDBRANCH  22  23
ENDBRANCH  17  22
BRANCH  18  25
ATOM     25  O   UNL     1      -7.408  -0.706   3.443  1.00  0.00    -0.385 OA
ATOM     26  H   UNL     1      -8.358  -0.510   3.236  1.00  0.00     0.211 HD
ENDBRANCH  18  25
BRANCH  20  27
ATOM     27  O   UNL     1      -4.450  -1.374   2.458  1.00  0.00    -0.387 OA
ATOM     28  H   UNL     1      -4.014  -2.236   2.685  1.00  0.00     0.211 HD
ENDBRANCH  20  27
BRANCH  21  29
ATOM     29  C   UNL     1      -4.517  -1.561  -0.274  1.00  0.00     0.191 C 
BRANCH  29  30
ATOM     30  O   UNL     1      -4.783  -0.623  -1.280  1.00  0.00    -0.394 OA
ATOM     31  H   UNL     1      -5.687  -0.844  -1.629  1.00  0.00     0.210 HD
ENDBRANCH  29  30
ENDBRANCH  21  29
ENDBRANCH   1  17
TORSDOF 13
ENDMDL
MODEL 3
REMARK VINA RESULT:    -5.242      2.495      5.122
REMARK INTER + INTRA:          -9.473
REMARK INTER:                  -7.852
REMARK INTRA:                  -1.621
REMARK UNBOUND:                -1.472
REMARK SMILES OC[C@@H]1O[C@](CO)(O[C@@H]2O[C@H](CO)[C@@H](O)[C@@H](O)[C@H]2O)[C@@H](O)[C@@H]1O
REMARK SMILES IDX 8 1 9 2 11 3 14 4 10 5 16 6 18 7 12 8 13 9 15 11 17 13 19 15
REMARK SMILES IDX 5 17 20 18 4 19 22 20 3 21 6 22 7 23 21 25 23 27 2 29 1 30
REMARK H PARENT 13 10 15 12 17 14 19 16 7 24 21 26 23 28 1 31
REMARK Flexibility Score: inf
ROOT
ATOM      1  O   UNL     1      -7.720   2.062   3.141  1.00  0.00    -0.313 OA
ENDROOT
BRANCH   1   2
ATOM      2  C   UNL     1      -7.379   3.059   2.187  1.00  0.00     0.285 C 
ATOM      3  C   UNL     1      -8.083   3.952   0.146  1.00  0.00     0.178 C 
ATOM      4  C   UNL     1      -6.999   3.284  -0.742  1.00  0.00     0.177 C 
ATOM      5  O   UNL     1      -8.425   3.100   1.225  1.00  0.00    -0.341 OA
ATOM      6  C   UNL     1      -6.190   2.250   0.081  1.00  0.00     0.179 C 
ATOM      7  C   UNL     1      -6.003   2.705   1.543  1.00  0.00     0.202 C 
BRANCH   3   8
ATOM      8  C   UNL     1      -9.354   4.261  -0.654  1.00  0.00     0.191 C 
BRANCH   8   9
ATOM      9  O   UNL     1      -9.331   3.619  -1.902  1.00  0.00    -0.394 OA
ATOM     10  H   UNL     1     -10.096   2.986  -1.912  1.00  0.00     0.210 HD
ENDBRANCH   8   9
ENDBRANCH   3   8
BRANCH   4  11
ATOM     11  O   UNL     1      -6.157   4.284  -1.261  1.00  0.00    -0.387 OA
ATOM     12  H   UNL     1      -6.420   5.139  -0.828  1.00  0.00     0.211 HD
ENDBRANCH   4  11
BRANCH   6  13
ATOM     13  O   UNL     1      -4.969   1.918  -0.536  1.00  0.00    -0.387 OA
ATOM     14  H   UNL     1      -5.041   2.124  -1.503  1.00  0.00     0.211 HD
ENDBRANCH   6  13
BRANCH   7  15
ATOM     15  O   UNL     1      -5.165   3.836   1.595  1.00  0.00    -0.385 OA
ATOM     16  H   UNL     1      -4.237   3.516   1.744  1.00  0.00     0.211 HD
ENDBRANCH   7  15
ENDBRANCH   1   2
BRANCH   1  17
ATOM     17  C   UNL     1      -7.733   2.526   4.490  1.00  0.00     0.224 C 
ATOM     18  C   UNL     1      -7.965   4.046   4.533  1.00  0.00     0.208 C 
ATOM     19  O   UNL     1      -6.511   2.250   5.152  1.00  0.00    -0.337 OA
ATOM     20  C   UNL     1      -7.227   4.470   5.779  1.00  0.00     0.180 C 
ATOM     21  C   UNL     1      -6.217   3.329   6.016  1.00  0.00     0.179 C 
BRANCH  17  22
ATOM     22  C   UNL     1      -8.850   1.753   5.223  1.00  0.00     0.225 C 
BRANCH  22  23
ATOM     23  O   UNL     1      -9.927   1.512   4.355  1.00  0.00    -0.391 OA
ATOM     24  H   UNL     1     -10.142   0.546   4.420  1.00  0.00     0.210 HD
ENDBRANCH  22  23
ENDBRANCH  17  22
BRANCH  18  25
ATOM     25  O   UNL     1      -9.329   4.377   4.606  1.00  0.00    -0.385 OA
ATOM     26  H   UNL     1      -9.836   3.556   4.373  1.00  0.00     0.211 HD
ENDBRANCH  18  25
BRANCH  20  27
ATOM     27  O   UNL     1      -6.611   5.720   5.593  1.00  0.00    -0.387 OA
ATOM     28  H   UNL     1      -7.075   6.153   4.830  1.00  0.00     0.211 HD
ENDBRANCH  20  27
BRANCH  21  29
ATOM     29  C   UNL     1      -4.746   3.726   5.820  1.00  0.00     0.191 C 
BRANCH  29  30
ATOM     30  O   UNL     1      -4.445   3.798   4.453  1.00  0.00    -0.394 OA
ATOM     31  H   UNL     1      -4.884   3.010   4.035  1.00  0.00     0.210 HD
ENDBRANCH  29  30
ENDBRANCH  21  29
ENDBRANCH   1  17
TORSDOF 13
ENDMDL
MODEL 4
REMARK VINA RESULT:    -5.211      1.515      5.793
REMARK INTER + INTRA:          -9.425
REMARK INTER:                  -8.250
REMARK INTRA:                  -1.175
REMARK UNBOUND:                -1.472
REMARK SMILES OC[C@@H]1O[C@](CO)(O[C@@H]2O[C@H](CO)[C@@H](O)[C@@H](O)[C@H]2O)[C@@H](O)[C@@H]1O
REMARK SMILES IDX 8 1 9 2 11 3 14 4 10 5 16 6 18 7 12 8 13 9 15 11 17 13 19 15
REMARK SMILES IDX 5 17 20 18 4 19 22 20 3 21 6 22 7 23 21 25 23 27 2 29 1 30
REMARK H PARENT 13 10 15 12 17 14 19 16 7 24 21 26 23 28 1 31
REMARK Flexibility Score: inf
ROOT
ATOM      1  O   UNL     1      -6.119   0.569   2.554  1.00  0.00    -0.313 OA
ENDROOT
BRANCH   1   2
ATOM      2  C   UNL     1      -6.934   1.604   2.021  1.00  0.00     0.285 C 
ATOM      3  C   UNL     1      -6.901   3.328   0.443  1.00  0.00     0.178 C 
ATOM      4  C   UNL     1      -6.738   4.503   1.444  1.00  0.00     0.177 C 
ATOM      5  O   UNL     1      -6.229   2.177   0.926  1.00  0.00    -0.341 OA
ATOM      6  C   UNL     1      -6.467   3.963   2.871  1.00  0.00     0.179 C 
ATOM      7  C   UNL     1      -7.233   2.651   3.139  1.00  0.00     0.202 C 
BRANCH   3   8
ATOM      8  C   UNL     1      -6.332   3.680  -0.937  1.00  0.00     0.191 C 
BRANCH   8   9
ATOM      9  O   UNL     1      -5.589   4.869  -0.886  1.00  0.00    -0.394 OA
ATOM     10  H   UNL     1      -4.641   4.621  -1.045  1.00  0.00     0.210 HD
ENDBRANCH   8   9
ENDBRANCH   3   8
BRANCH   4  11
ATOM     11  O   UNL     1      -7.904   5.288   1.416  1.00  0.00    -0.387 OA
ATOM     12  H   UNL     1      -7.620   6.235   1.523  1.00  0.00     0.211 HD
ENDBRANCH   4  11
BRANCH   6  13
ATOM     13  O   UNL     1      -6.709   4.935   3.861  1.00  0.00    -0.387 OA
ATOM     14  H   UNL     1      -6.015   4.845   4.562  1.00  0.00     0.211 HD
ENDBRANCH   6  13
BRANCH   7  15
ATOM     15  O   UNL     1      -8.618   2.899   3.181  1.00  0.00    -0.385 OA
ATOM     16  H   UNL     1      -8.746   3.871   3.337  1.00  0.00     0.211 HD
ENDBRANCH   7  15
ENDBRANCH   1   2
BRANCH   1  17
ATOM     17  C   UNL     1      -6.250  -0.682   1.882  1.00  0.00     0.224 C 
ATOM     18  C   UNL     1      -4.910  -1.436   1.887  1.00  0.00     0.208 C 
ATOM     19  O   UNL     1      -6.654  -0.514   0.534  1.00  0.00    -0.337 OA
ATOM     20  C   UNL     1      -4.962  -2.237   0.610  1.00  0.00     0.180 C 
ATOM     21  C   UNL     1      -5.997  -1.488  -0.254  1.00  0.00     0.179 C 
BRANCH  17  22
ATOM     22  C   UNL     1      -7.358  -1.473   2.609  1.00  0.00     0.225 C 
BRANCH  22  23
ATOM     23  O   UNL     1      -7.144  -1.448   3.996  1.00  0.00    -0.391 OA
ATOM     24  H   UNL     1      -7.844  -0.864   4.387  1.00  0.00     0.210 HD
ENDBRANCH  22  23
ENDBRANCH  17  22
BRANCH  18  25
ATOM     25  O   UNL     1      -4.770  -2.271   3.010  1.00  0.00    -0.385 OA
ATOM     26  H   UNL     1      -3.797  -2.344   3.193  1.00  0.00     0.211 HD
ENDBRANCH  18  25
BRANCH  20  27
ATOM     27  O   UNL     1      -3.692  -2.304   0.010  1.00  0.00    -0.387 OA
ATOM     28  H   UNL     1      -3.096  -1.718   0.545  1.00  0.00     0.211 HD
ENDBRANCH  20  27
BRANCH  21  29
ATOM     29  C   UNL     1      -5.415  -0.800  -1.498  1.00  0.00     0.191 C 
BRANCH  29  30
ATOM     30  O   UNL     1      -4.658   0.316  -1.120  1.00  0.00    -0.394 OA
ATOM     31  H   UNL     1      -3.707   0.058  -1.246  1.00  0.00     0.210 HD
ENDBRANCH  29  30
ENDBRANCH  21  29
ENDBRANCH   1  17
TORSDOF 13
ENDMDL
MODEL 5
REMARK VINA RESULT:    -5.202      2.566      4.636
REMARK INTER + INTRA:          -9.412
REMARK INTER:                  -7.934
REMARK INTRA:                  -1.477
REMARK UNBOUND:                -1.472
REMARK SMILES OC[C@@H]1O[C@](CO)(O[C@@H]2O[C@H](CO)[C@@H](O)[C@@H](O)[C@H]2O)[C@@H](O)[C@@H]1O
REMARK SMILES IDX 8 1 9 2 11 3 14 4 10 5 16 6 18 7 12 8 13 9 15 11 17 13 19 15
REMARK SMILES IDX 5 17 20 18 4 19 22 20 3 21 6 22 7 23 21 25 23 27 2 29 1 30
REMARK H PARENT 13 10 15 12 17 14 19 16 7 24 21 26 23 28 1 31
REMARK Flexibility Score: inf
ROOT
ATOM      1  O   UNL     1      -6.350   1.487   2.443  1.00  0.00    -0.313 OA
ENDROOT
BRANCH   1   2
ATOM      2  C   UNL     1      -6.144   2.556   3.355  1.00  0.00     0.285 C 
ATOM      3  C   UNL     1      -4.807   3.181   5.167  1.00  0.00     0.178 C 
ATOM      4  C   UNL     1      -5.866   2.950   6.278  1.00  0.00     0.177 C 
ATOM      5  O   UNL     1      -4.985   2.244   4.119  1.00  0.00    -0.341 OA
ATOM      6  C   UNL     1      -7.119   2.251   5.692  1.00  0.00     0.179 C 
ATOM      7  C   UNL     1      -7.411   2.718   4.251  1.00  0.00     0.202 C 
BRANCH   3   8
ATOM      8  C   UNL     1      -3.380   3.038   5.712  1.00  0.00     0.191 C 
BRANCH   8   9
ATOM      9  O   UNL     1      -2.982   4.200   6.390  1.00  0.00    -0.394 OA
ATOM     10  H   UNL     1      -2.170   3.964   6.910  1.00  0.00     0.210 HD
ENDBRANCH   8   9
ENDBRANCH   3   8
BRANCH   4  11
ATOM     11  O   UNL     1      -6.203   4.191   6.849  1.00  0.00    -0.387 OA
ATOM     12  H   UNL     1      -5.588   4.334   7.617  1.00  0.00     0.211 HD
ENDBRANCH   4  11
BRANCH   6  13
ATOM     13  O   UNL     1      -8.241   2.379   6.534  1.00  0.00    -0.387 OA
ATOM     14  H   UNL     1      -7.924   2.605   7.445  1.00  0.00     0.211 HD
ENDBRANCH   6  13
BRANCH   7  15
ATOM     15  O   UNL     1      -7.806   4.070   4.251  1.00  0.00    -0.385 OA
ATOM     16  H   UNL     1      -8.227   4.260   5.130  1.00  0.00     0.211 HD
ENDBRANCH   7  15
ENDBRANCH   1   2
BRANCH   1  17
ATOM     17  C   UNL     1      -6.847   1.894   1.169  1.00  0.00     0.224 C 
ATOM     18  C   UNL     1      -5.760   2.649   0.385  1.00  0.00     0.208 C 
ATOM     19  O   UNL     1      -7.971   2.748   1.293  1.00  0.00    -0.337 OA
ATOM     20  C   UNL     1      -6.554   3.611  -0.464  1.00  0.00     0.180 C 
ATOM     21  C   UNL     1      -7.903   3.727   0.274  1.00  0.00     0.179 C 
BRANCH  17  22
ATOM     22  C   UNL     1      -7.305   0.618   0.432  1.00  0.00     0.225 C 
BRANCH  22  23
ATOM     23  O   UNL     1      -6.428  -0.444   0.704  1.00  0.00    -0.391 OA
ATOM     24  H   UNL     1      -6.981  -1.202   1.026  1.00  0.00     0.210 HD
ENDBRANCH  22  23
ENDBRANCH  17  22
BRANCH  18  25
ATOM     25  O   UNL     1      -4.978   1.790  -0.407  1.00  0.00    -0.385 OA
ATOM     26  H   UNL     1      -4.652   1.067   0.190  1.00  0.00     0.211 HD
ENDBRANCH  18  25
BRANCH  20  27
ATOM     27  O   UNL     1      -5.886   4.841  -0.582  1.00  0.00    -0.387 OA
ATOM     28  H   UNL     1      -5.069   4.775  -0.022  1.00  0.00     0.211 HD
ENDBRANCH  20  27
BRANCH  21  29
ATOM     29  C   UNL     1      -8.174   5.103   0.900  1.00  0.00     0.191 C 
BRANCH  29  30
ATOM     30  O   UNL     1      -7.120   5.461   1.750  1.00  0.00    -0.394 OA
ATOM     31  H   UNL     1      -6.378   5.756   1.158  1.00  0.00     0.210 HD
ENDBRANCH  29  30
ENDBRANCH  21  29
ENDBRANCH   1  17
TORSDOF 13
ENDMDL
MODEL 6
REMARK VINA RESULT:    -5.152      1.480      3.247
REMARK INTER + INTRA:          -9.335
REMARK INTER:                  -8.109
REMARK INTRA:                  -1.226
REMARK UNBOUND:                -1.472
REMARK SMILES OC[C@@H]1O[C@](CO)(O[C@@H]2O[C@H](CO)[C@@H](O)[C@@H](O)[C@H]2O)[C@@H](O)[C@@H]1O
REMARK SMILES IDX 8 1 9 2 11 3 14 4 10 5 16 6 18 7 12 8 13 9 15 11 17 13 19 15
REMARK SMILES IDX 5 17 20 18 4 19 22 20 3 21 6 22 7 23 21 25 23 27 2 29 1 30
REMARK H PARENT 13 10 15 12 17 14 19 16 7 24 21 26 23 28 1 31
REMARK Flexibility Score: inf
ROOT
ATOM      1  O   UNL     1      -5.806   2.068  -0.492  1.00  0.00    -0.313 OA
ENDROOT
BRANCH   1   2
ATOM      2  C   UNL     1      -6.224   0.713  -0.414  1.00  0.00     0.285 C 
ATOM      3  C   UNL     1      -6.567  -1.009   1.128  1.00  0.00     0.178 C 
ATOM      4  C   UNL     1      -5.291  -1.826   0.793  1.00  0.00     0.177 C 
ATOM      5  O   UNL     1      -6.318   0.376   0.964  1.00  0.00    -0.341 OA
ATOM      6  C   UNL     1      -4.376  -1.028  -0.169  1.00  0.00     0.179 C 
ATOM      7  C   UNL     1      -5.195  -0.186  -1.169  1.00  0.00     0.202 C 
BRANCH   3   8
ATOM      8  C   UNL     1      -7.031  -1.254   2.570  1.00  0.00     0.191 C 
BRANCH   8   9
ATOM      9  O   UNL     1      -7.386  -0.049   3.194  1.00  0.00    -0.394 OA
ATOM     10  H   UNL     1      -6.798   0.655   2.813  1.00  0.00     0.210 HD
ENDBRANCH   8   9
ENDBRANCH   3   8
BRANCH   4  11
ATOM     11  O   UNL     1      -5.675  -3.053   0.221  1.00  0.00    -0.387 OA
ATOM     12  H   UNL     1      -5.083  -3.207  -0.563  1.00  0.00     0.211 HD
ENDBRANCH   4  11
BRANCH   6  13
ATOM     13  O   UNL     1      -3.432  -1.853  -0.811  1.00  0.00    -0.387 OA
ATOM     14  H   UNL     1      -2.528  -1.592  -0.502  1.00  0.00     0.211 HD
ENDBRANCH   6  13
BRANCH   7  15
ATOM     15  O   UNL     1      -5.886  -1.030  -2.060  1.00  0.00    -0.385 OA
ATOM     16  H   UNL     1      -5.216  -1.616  -2.500  1.00  0.00     0.211 HD
ENDBRANCH   7  15
ENDBRANCH   1   2
BRANCH   1  17
ATOM     17  C   UNL     1      -6.868   3.014  -0.378  1.00  0.00     0.224 C 
ATOM     18  C   UNL     1      -6.668   3.899   0.864  1.00  0.00     0.208 C 
ATOM     19  O   UNL     1      -8.128   2.377  -0.264  1.00  0.00    -0.337 OA
ATOM     20  C   UNL     1      -8.079   4.239   1.274  1.00  0.00     0.180 C 
ATOM     21  C   UNL     1      -8.930   3.127   0.627  1.00  0.00     0.179 C 
BRANCH  17  22
ATOM     22  C   UNL     1      -6.877   3.844  -1.680  1.00  0.00     0.225 C 
BRANCH  22  23
ATOM     23  O   UNL     1      -5.598   4.364  -1.934  1.00  0.00    -0.391 OA
ATOM     24  H   UNL     1      -4.949   3.785  -1.458  1.00  0.00     0.210 HD
ENDBRANCH  22  23
ENDBRANCH  17  22
BRANCH  18  25
ATOM     25  O   UNL     1      -5.922   5.056   0.581  1.00  0.00    -0.385 OA
ATOM     26  H   UNL     1      -6.565   5.812   0.553  1.00  0.00     0.211 HD
ENDBRANCH  18  25
BRANCH  20  27
ATOM     27  O   UNL     1      -8.198   4.277   2.673  1.00  0.00    -0.387 OA
ATOM     28  H   UNL     1      -9.002   3.743   2.903  1.00  0.00     0.211 HD
ENDBRANCH  20  27
BRANCH  21  29
ATOM     29  C   UNL     1      -9.587   2.162   1.624  1.00  0.00     0.191 C 
BRANCH  29  30
ATOM     30  O   UNL     1      -9.443   0.841   1.182  1.00  0.00    -0.394 OA
ATOM     31  H   UNL     1     -10.364   0.487   1.067  1.00  0.00     0.210 HD
ENDBRANCH  29  30
ENDBRANCH  21  29
ENDBRANCH   1  17
TORSDOF 13
ENDMDL
MODEL 7
REMARK VINA RESULT:    -4.946      2.173      5.277
REMARK INTER + INTRA:          -9.021
REMARK INTER:                  -7.547
REMARK INTRA:                  -1.474
REMARK UNBOUND:                -1.472
REMARK SMILES OC[C@@H]1O[C@](CO)(O[C@@H]2O[C@H](CO)[C@@H](O)[C@@H](O)[C@H]2O)[C@@H](O)[C@@H]1O
REMARK SMILES IDX 8 1 9 2 11 3 14 4 10 5 16 6 18 7 12 8 13 9 15 11 17 13 19 15
REMARK SMILES IDX 5 17 20 18 4 19 22 20 3 21 6 22 7 23 21 25 23 27 2 29 1 30
REMARK H PARENT 13 10 15 12 17 14 19 16 7 24 21 26 23 28 1 31
REMARK Flexibility Score: inf
ROOT
ATOM      1  O   UNL     1      -8.126   1.787   2.692  1.00  0.00    -0.313 OA
ENDROOT
BRANCH   1   2
ATOM      2  C   UNL     1      -7.324   2.886   3.105  1.00  0.00     0.285 C 
ATOM      3  C   UNL     1      -5.934   3.581   4.849  1.00  0.00     0.178 C 
ATOM      4  C   UNL     1      -6.936   4.560   5.517  1.00  0.00     0.177 C 
ATOM      5  O   UNL     1      -6.628   2.485   4.278  1.00  0.00    -0.341 OA
ATOM      6  C   UNL     1      -8.337   4.423   4.870  1.00  0.00     0.179 C 
ATOM      7  C   UNL     1      -8.241   4.123   3.360  1.00  0.00     0.202 C 
BRANCH   3   8
ATOM      8  C   UNL     1      -4.916   3.039   5.861  1.00  0.00     0.191 C 
BRANCH   8   9
ATOM      9  O   UNL     1      -3.614   3.443   5.529  1.00  0.00    -0.394 OA
ATOM     10  H   UNL     1      -3.533   3.366   4.542  1.00  0.00     0.210 HD
ENDBRANCH   8   9
ENDBRANCH   3   8
BRANCH   4  11
ATOM     11  O   UNL     1      -6.445   5.872   5.383  1.00  0.00    -0.387 OA
ATOM     12  H   UNL     1      -6.726   6.372   6.195  1.00  0.00     0.211 HD
ENDBRANCH   4  11
BRANCH   6  13
ATOM     13  O   UNL     1      -9.158   5.534   5.143  1.00  0.00    -0.387 OA
ATOM     14  H   UNL     1      -9.228   5.637   6.126  1.00  0.00     0.211 HD
ENDBRANCH   6  13
BRANCH   7  15
ATOM     15  O   UNL     1      -7.714   5.236   2.677  1.00  0.00    -0.385 OA
ATOM     16  H   UNL     1      -7.779   6.020   3.284  1.00  0.00     0.211 HD
ENDBRANCH   7  15
ENDBRANCH   1   2
BRANCH   1  17
ATOM     17  C   UNL     1      -7.869   1.345   1.360  1.00  0.00     0.224 C 
ATOM     18  C   UNL     1      -6.367   1.077   1.165  1.00  0.00     0.208 C 
ATOM     19  O   UNL     1      -8.271   2.307   0.401  1.00  0.00    -0.337 OA
ATOM     20  C   UNL     1      -6.151   1.381  -0.297  1.00  0.00     0.180 C 
ATOM     21  C   UNL     1      -7.340   2.294  -0.663  1.00  0.00     0.179 C 
BRANCH  17  22
ATOM     22  C   UNL     1      -8.713   0.074   1.134  1.00  0.00     0.225 C 
BRANCH  22  23
ATOM     23  O   UNL     1      -8.726  -0.716   2.295  1.00  0.00    -0.391 OA
ATOM     24  H   UNL     1      -8.456  -0.129   3.048  1.00  0.00     0.210 HD
ENDBRANCH  22  23
ENDBRANCH  17  22
BRANCH  18  25
ATOM     25  O   UNL     1      -6.016  -0.249   1.470  1.00  0.00    -0.385 OA
ATOM     26  H   UNL     1      -5.038  -0.255   1.639  1.00  0.00     0.211 HD
ENDBRANCH  18  25
BRANCH  20  27
ATOM     27  O   UNL     1      -4.904   1.996  -0.501  1.00  0.00    -0.387 OA
ATOM     28  H   UNL     1      -4.675   1.859  -1.457  1.00  0.00     0.211 HD
ENDBRANCH  20  27
BRANCH  21  29
ATOM     29  C   UNL     1      -6.955   3.744  -0.995  1.00  0.00     0.191 C 
BRANCH  29  30
ATOM     30  O   UNL     1      -6.254   4.312   0.077  1.00  0.00    -0.394 OA
ATOM     31  H   UNL     1      -6.078   5.256  -0.180  1.00  0.00     0.210 HD
ENDBRANCH  29  30
ENDBRANCH  21  29
ENDBRANCH   1  17
TORSDOF 13
ENDMDL
MODEL 8
REMARK VINA RESULT:    -4.709      3.466      6.244
REMARK INTER + INTRA:          -8.659
REMARK INTER:                  -7.098
REMARK INTRA:                  -1.561
REMARK UNBOUND:                -1.472
REMARK SMILES OC[C@@H]1O[C@](CO)(O[C@@H]2O[C@H](CO)[C@@H](O)[C@@H](O)[C@H]2O)[C@@H](O)[C@@H]1O
REMARK SMILES IDX 8 1 9 2 11 3 14 4 10 5 16 6 18 7 12 8 13 9 15 11 17 13 19 15
REMARK SMILES IDX 5 17 20 18 4 19 22 20 3 21 6 22 7 23 21 25 23 27 2 29 1 30
REMARK H PARENT 13 10 15 12 17 14 19 16 7 24 21 26 23 28 1 31
REMARK Flexibility Score: inf
ROOT
ATOM      1  O   UNL     1      -4.321   3.162   4.962  1.00  0.00    -0.313 OA
ENDROOT
BRANCH   1   2
ATOM      2  C   UNL     1      -5.530   3.026   4.228  1.00  0.00     0.285 C 
ATOM      3  C   UNL     1      -6.557   1.659   2.634  1.00  0.00     0.178 C 
ATOM      4  C   UNL     1      -6.383   2.612   1.422  1.00  0.00     0.177 C 
ATOM      5  O   UNL     1      -5.461   1.792   3.523  1.00  0.00    -0.341 OA
ATOM      6  C   UNL     1      -5.474   3.808   1.801  1.00  0.00     0.179 C 
ATOM      7  C   UNL     1      -5.687   4.244   3.266  1.00  0.00     0.202 C 
BRANCH   3   8
ATOM      8  C   UNL     1      -6.650   0.194   2.191  1.00  0.00     0.191 C 
BRANCH   8   9
ATOM      9  O   UNL     1      -6.917   0.101   0.817  1.00  0.00    -0.394 OA
ATOM     10  H   UNL     1      -6.038   0.081   0.356  1.00  0.00     0.210 HD
ENDBRANCH   8   9
ENDBRANCH   3   8
BRANCH   4  11
ATOM     11  O   UNL     1      -7.651   3.055   1.006  1.00  0.00    -0.387 OA
ATOM     12  H   UNL     1      -7.760   3.984   1.342  1.00  0.00     0.211 HD
ENDBRANCH   4  11
BRANCH   6  13
ATOM     13  O   UNL     1      -5.606   4.882   0.900  1.00  0.00    -0.387 OA
ATOM     14  H   UNL     1      -5.166   5.677   1.294  1.00  0.00     0.211 HD
ENDBRANCH   6  13
BRANCH   7  15
ATOM     15  O   UNL     1      -6.974   4.794   3.425  1.00  0.00    -0.385 OA
ATOM     16  H   UNL     1      -7.219   5.237   2.571  1.00  0.00     0.211 HD
ENDBRANCH   7  15
ENDBRANCH   1   2
BRANCH   1  17
ATOM     17  C   UNL     1      -4.485   3.744   6.254  1.00  0.00     0.224 C 
ATOM     18  C   UNL     1      -5.112   2.728   7.224  1.00  0.00     0.208 C 
ATOM     19  O   UNL     1      -5.323   4.886   6.213  1.00  0.00    -0.337 OA
ATOM     20  C   UNL     1      -5.890   3.600   8.178  1.00  0.00     0.180 C 
ATOM     21  C   UNL     1      -6.107   4.908   7.390  1.00  0.00     0.179 C 
BRANCH  17  22
ATOM     22  C   UNL     1      -3.089   4.202   6.725  1.00  0.00     0.225 C 
BRANCH  22  23
ATOM     23  O   UNL     1      -2.096   3.365   6.192  1.00  0.00    -0.391 OA
ATOM     24  H   UNL     1      -2.324   2.438   6.461  1.00  0.00     0.210 HD
ENDBRANCH  22  23
ENDBRANCH  17  22
BRANCH  18  25
ATOM     25  O   UNL     1      -4.143   1.966   7.899  1.00  0.00    -0.385 OA
ATOM     26  H   UNL     1      -4.456   1.024   7.882  1.00  0.00     0.211 HD
ENDBRANCH  18  25
BRANCH  20  27
ATOM     27  O   UNL     1      -7.094   2.979   8.553  1.00  0.00    -0.387 OA
ATOM     28  H   UNL     1      -6.912   2.499   9.402  1.00  0.00     0.211 HD
ENDBRANCH  20  27
BRANCH  21  29
ATOM     29  C   UNL     1      -7.566   5.187   7.001  1.00  0.00     0.191 C 
BRANCH  29  30
ATOM     30  O   UNL     1      -8.032   4.189   6.136  1.00  0.00    -0.394 OA
ATOM     31  H   UNL     1      -9.013   4.328   6.059  1.00  0.00     0.210 HD
ENDBRANCH  29  30
ENDBRANCH  21  29
ENDBRANCH   1  17
TORSDOF 13
ENDMDL
MODEL 9
REMARK VINA RESULT:    -4.620      2.558      5.063
REMARK INTER + INTRA:          -8.524
REMARK INTER:                  -7.625
REMARK INTRA:                  -0.899
REMARK UNBOUND:                -1.472
REMARK SMILES OC[C@@H]1O[C@](CO)(O[C@@H]2O[C@H](CO)[C@@H](O)[C@@H](O)[C@H]2O)[C@@H](O)[C@@H]1O
REMARK SMILES IDX 8 1 9 2 11 3 14 4 10 5 16 6 18 7 12 8 13 9 15 11 17 13 19 15
REMARK SMILES IDX 5 17 20 18 4 19 22 20 3 21 6 22 7 23 21 25 23 27 2 29 1 30
REMARK H PARENT 13 10 15 12 17 14 19 16 7 24 21 26 23 28 1 31
REMARK Flexibility Score: inf
ROOT
ATOM      1  O   UNL     1      -5.729   3.746   3.109  1.00  0.00    -0.313 OA
ENDROOT
BRANCH   1   2
ATOM      2  C   UNL     1      -6.609   3.231   2.119  1.00  0.00     0.285 C 
ATOM      3  C   UNL     1      -6.828   1.458   0.613  1.00  0.00     0.178 C 
ATOM      4  C   UNL     1      -6.470   2.251  -0.673  1.00  0.00     0.177 C 
ATOM      5  O   UNL     1      -6.101   1.965   1.719  1.00  0.00    -0.341 OA
ATOM      6  C   UNL     1      -5.959   3.667  -0.308  1.00  0.00     0.179 C 
ATOM      7  C   UNL     1      -6.686   4.235   0.927  1.00  0.00     0.202 C 
BRANCH   3   8
ATOM      8  C   UNL     1      -6.509  -0.035   0.462  1.00  0.00     0.191 C 
BRANCH   8   9
ATOM      9  O   UNL     1      -5.971  -0.307  -0.805  1.00  0.00    -0.394 OA
ATOM     10  H   UNL     1      -6.051   0.528  -1.336  1.00  0.00     0.210 HD
ENDBRANCH   8   9
ENDBRANCH   3   8
BRANCH   4  11
ATOM     11  O   UNL     1      -7.610   2.322  -1.494  1.00  0.00    -0.387 OA
ATOM     12  H   UNL     1      -7.325   2.064  -2.410  1.00  0.00     0.211 HD
ENDBRANCH   4  11
BRANCH   6  13
ATOM     13  O   UNL     1      -6.005   4.546  -1.407  1.00  0.00    -0.387 OA
ATOM     14  H   UNL     1      -5.731   5.447  -1.099  1.00  0.00     0.211 HD
ENDBRANCH   6  13
BRANCH   7  15
ATOM     15  O   UNL     1      -8.038   4.485   0.622  1.00  0.00    -0.385 OA
ATOM     16  H   UNL     1      -8.552   4.440   1.470  1.00  0.00     0.211 HD
ENDBRANCH   7  15
ENDBRANCH   1   2
BRANCH   1  17
ATOM     17  C   UNL     1      -6.177   3.547   4.448  1.00  0.00     0.224 C 
ATOM     18  C   UNL     1      -6.139   4.872   5.229  1.00  0.00     0.208 C 
ATOM     19  O   UNL     1      -5.370   2.608   5.138  1.00  0.00    -0.337 OA
ATOM     20  C   UNL     1      -5.873   4.427   6.646  1.00  0.00     0.180 C 
ATOM     21  C   UNL     1      -5.246   3.027   6.482  1.00  0.00     0.179 C 
BRANCH  17  22
ATOM     22  C   UNL     1      -7.605   2.969   4.367  1.00  0.00     0.225 C 
BRANCH  22  23
ATOM     23  O   UNL     1      -7.577   1.575   4.530  1.00  0.00    -0.391 OA
ATOM     24  H   UNL     1      -6.629   1.318   4.664  1.00  0.00     0.210 HD
ENDBRANCH  22  23
ENDBRANCH  17  22
BRANCH  18  25
ATOM     25  O   UNL     1      -7.346   5.584   5.133  1.00  0.00    -0.385 OA
ATOM     26  H   UNL     1      -7.135   6.449   4.694  1.00  0.00     0.211 HD
ENDBRANCH  18  25
BRANCH  20  27
ATOM     27  O   UNL     1      -5.025   5.334   7.304  1.00  0.00    -0.387 OA
ATOM     28  H   UNL     1      -4.096   5.053   7.098  1.00  0.00     0.211 HD
ENDBRANCH  20  27
BRANCH  21  29
ATOM     29  C   UNL     1      -3.767   2.937   6.888  1.00  0.00     0.191 C 
BRANCH  29  30
ATOM     30  O   UNL     1      -2.968   3.590   5.940  1.00  0.00    -0.394 OA
ATOM     31  H   UNL     1      -2.027   3.443   6.227  1.00  0.00     0.210 HD
ENDBRANCH  29  30
ENDBRANCH  21  29
ENDBRANCH   1  17
TORSDOF 13
ENDMDL
