MODEL 1
REMARK VINA RESULT:    -6.630      0.000      0.000
REMARK INTER + INTRA:          -8.853
REMARK INTER:                  -8.956
REMARK INTRA:                   0.103
REMARK UNBOUND:                 0.103
REMARK SMILES O=c1c(-c2ccc(O)cc2)coc2c([C@@H]3O[C@@H](CO)[C@@H](O)[C@@H](O)[C@@H]3O)c(O)ccc12
REMARK SMILES IDX 3 1 11 2 12 3 13 4 30 5 2 6 1 7 29 8 28 9 26 10 14 11 4 12
REMARK SMILES IDX 5 13 6 14 7 15 10 16 9 17 8 18 15 20 24 21 16 22 22 23 17 24
REMARK SMILES IDX 20 25 25 26 23 28 18 30 19 31 21 33 27 35
REMARK H PARENT 8 19 25 27 23 29 19 32 21 34 27 36
REMARK Flexibility Score: inf
ROOT
ATOM      1  C   UNL     1     478.083  36.671 461.255  1.00  0.00     0.065 A 
ATOM      2  C   UNL     1     479.000  36.154 460.331  1.00  0.00     0.208 A 
ATOM      3  O   UNL     1     479.773  36.961 459.615  1.00  0.00    -0.463 OA
ATOM      4  C   UNL     1     479.742  38.289 459.714  1.00  0.00     0.147 A 
ATOM      5  C   UNL     1     478.854  38.892 460.638  1.00  0.00     0.066 A 
ATOM      6  C   UNL     1     478.020  38.067 461.414  1.00  0.00     0.200 A 
ATOM      7  O   UNL     1     477.235  38.573 462.264  1.00  0.00    -0.288 OA
ATOM      8  C   UNL     1     478.838  40.284 460.773  1.00  0.00     0.020 A 
ATOM      9  C   UNL     1     479.702  41.068 460.019  1.00  0.00     0.047 A 
ATOM     10  C   UNL     1     480.590  40.489 459.105  1.00  0.00     0.125 A 
ATOM     11  C   UNL     1     480.599  39.083 458.902  1.00  0.00     0.069 A 
ENDROOT
BRANCH   1  12
ATOM     12  C   UNL     1     477.219  35.750 462.037  1.00  0.00    -0.011 A 
ATOM     13  C   UNL     1     477.483  34.369 462.048  1.00  0.00     0.013 A 
ATOM     14  C   UNL     1     476.668  33.499 462.777  1.00  0.00     0.047 A 
ATOM     15  C   UNL     1     475.575  33.997 463.499  1.00  0.00     0.115 A 
ATOM     16  C   UNL     1     476.118  36.241 462.761  1.00  0.00     0.013 A 
ATOM     17  C   UNL     1     475.304  35.368 463.488  1.00  0.00     0.047 A 
BRANCH  15  18
ATOM     18  O   UNL     1     474.756  33.139 464.230  1.00  0.00    -0.508 OA
ATOM     19  H   UNL     1     474.123  32.493 463.772  1.00  0.00     0.293 HD
ENDBRANCH  15  18
ENDBRANCH   1  12
BRANCH  11  20
ATOM     20  C   UNL     1     481.549  38.364 457.922  1.00  0.00     0.188 C 
ATOM     21  C   UNL     1     481.743  38.911 456.467  1.00  0.00     0.179 C 
ATOM     22  O   UNL     1     482.755  37.968 458.559  1.00  0.00    -0.362 OA
ATOM     23  C   UNL     1     482.998  39.793 456.259  1.00  0.00     0.177 C 
ATOM     24  C   UNL     1     483.752  38.971 458.509  1.00  0.00     0.176 C 
ATOM     25  C   UNL     1     484.188  39.228 457.051  1.00  0.00     0.177 C 
BRANCH  21  26
ATOM     26  O   UNL     1     480.571  39.510 455.971  1.00  0.00    -0.387 OA
ATOM     27  H   UNL     1     479.874  39.466 456.674  1.00  0.00     0.211 HD
ENDBRANCH  21  26
BRANCH  23  28
ATOM     28  O   UNL     1     483.307  39.838 454.888  1.00  0.00    -0.387 OA
ATOM     29  H   UNL     1     484.148  40.359 454.798  1.00  0.00     0.211 HD
ENDBRANCH  23  28
BRANCH  24  30
ATOM     30  C   UNL     1     484.931  38.519 459.380  1.00  0.00     0.191 C 
BRANCH  30  31
ATOM     31  O   UNL     1     486.126  39.083 458.912  1.00  0.00    -0.394 OA
ATOM     32  H   UNL     1     486.246  38.746 457.987  1.00  0.00     0.210 HD
ENDBRANCH  30  31
ENDBRANCH  24  30
BRANCH  25  33
ATOM     33  O   UNL     1     484.625  38.031 456.453  1.00  0.00    -0.388 OA
ATOM     34  H   UNL     1     483.969  37.801 455.745  1.00  0.00     0.211 HD
ENDBRANCH  25  33
ENDBRANCH  11  20
BRANCH  10  35
ATOM     35  O   UNL     1     481.459  41.326 458.417  1.00  0.00    -0.507 OA
ATOM     36  H   UNL     1     482.385  41.543 458.764  1.00  0.00     0.293 HD
ENDBRANCH  10  35
TORSDOF 9
ENDMDL
MODEL 2
REMARK VINA RESULT:    -6.382      1.656      2.995
REMARK INTER + INTRA:          -8.518
REMARK INTER:                  -9.012
REMARK INTRA:                   0.494
REMARK UNBOUND:                 0.103
REMARK SMILES O=c1c(-c2ccc(O)cc2)coc2c([C@@H]3O[C@@H](CO)[C@@H](O)[C@@H](O)[C@@H]3O)c(O)ccc12
REMARK SMILES IDX 3 1 11 2 12 3 13 4 30 5 2 6 1 7 29 8 28 9 26 10 14 11 4 12
REMARK SMILES IDX 5 13 6 14 7 15 10 16 9 17 8 18 15 20 24 21 16 22 22 23 17 24
REMARK SMILES IDX 20 25 25 26 23 28 18 30 19 31 21 33 27 35
REMARK H PARENT 8 19 25 27 23 29 19 32 21 34 27 36
REMARK Flexibility Score: inf
ROOT
ATOM      1  C   UNL     1     478.928  37.881 460.584  1.00  0.00     0.065 A 
ATOM      2  C   UNL     1     480.327  37.849 460.540  1.00  0.00     0.208 A 
ATOM      3  O   UNL     1     481.015  38.848 460.002  1.00  0.00    -0.463 OA
ATOM      4  C   UNL     1     480.447  39.933 459.476  1.00  0.00     0.147 A 
ATOM      5  C   UNL     1     479.037  40.052 459.496  1.00  0.00     0.066 A 
ATOM      6  C   UNL     1     478.276  39.011 460.058  1.00  0.00     0.200 A 
ATOM      7  O   UNL     1     477.017  39.099 460.113  1.00  0.00    -0.288 OA
ATOM      8  C   UNL     1     478.433  41.201 458.975  1.00  0.00     0.020 A 
ATOM      9  C   UNL     1     479.215  42.229 458.462  1.00  0.00     0.047 A 
ATOM     10  C   UNL     1     480.611  42.130 458.439  1.00  0.00     0.125 A 
ATOM     11  C   UNL     1     481.257  40.956 458.910  1.00  0.00     0.069 A 
ENDROOT
BRANCH   1  12
ATOM     12  C   UNL     1     478.178  36.746 461.180  1.00  0.00    -0.011 A 
ATOM     13  C   UNL     1     477.117  36.988 462.071  1.00  0.00     0.013 A 
ATOM     14  C   UNL     1     476.415  35.922 462.640  1.00  0.00     0.047 A 
ATOM     15  C   UNL     1     476.768  34.601 462.331  1.00  0.00     0.115 A 
ATOM     16  C   UNL     1     478.529  35.418 460.881  1.00  0.00     0.013 A 
ATOM     17  C   UNL     1     477.826  34.354 461.452  1.00  0.00     0.047 A 
BRANCH  15  18
ATOM     18  O   UNL     1     476.075  33.531 462.893  1.00  0.00    -0.508 OA
ATOM     19  H   UNL     1     476.206  33.265 463.861  1.00  0.00     0.293 HD
ENDBRANCH  15  18
ENDBRANCH   1  12
BRANCH  11  20
ATOM     20  C   UNL     1     482.789  40.770 458.928  1.00  0.00     0.188 C 
ATOM     21  C   UNL     1     483.524  40.415 460.265  1.00  0.00     0.179 C 
ATOM     22  O   UNL     1     483.239  40.029 457.804  1.00  0.00    -0.362 OA
ATOM     23  C   UNL     1     483.838  38.912 460.463  1.00  0.00     0.177 C 
ATOM     24  C   UNL     1     483.247  38.634 458.038  1.00  0.00     0.176 C 
ATOM     25  C   UNL     1     484.273  38.276 459.134  1.00  0.00     0.177 C 
BRANCH  21  26
ATOM     26  O   UNL     1     482.890  40.988 461.381  1.00  0.00    -0.387 OA
ATOM     27  H   UNL     1     482.062  40.478 461.569  1.00  0.00     0.211 HD
ENDBRANCH  21  26
BRANCH  23  28
ATOM     28  O   UNL     1     484.857  38.776 461.421  1.00  0.00    -0.387 OA
ATOM     29  H   UNL     1     484.415  38.608 462.294  1.00  0.00     0.211 HD
ENDBRANCH  23  28
BRANCH  24  30
ATOM     30  C   UNL     1     483.563  37.926 456.715  1.00  0.00     0.191 C 
BRANCH  30  31
ATOM     31  O   UNL     1     482.730  36.812 456.547  1.00  0.00    -0.394 OA
ATOM     32  H   UNL     1     482.305  36.917 455.657  1.00  0.00     0.210 HD
ENDBRANCH  30  31
ENDBRANCH  24  30
BRANCH  25  33
ATOM     33  O   UNL     1     485.550  38.750 458.781  1.00  0.00    -0.388 OA
ATOM     34  H   UNL     1     486.015  38.014 458.306  1.00  0.00     0.211 HD
ENDBRANCH  25  33
ENDBRANCH  11  20
BRANCH  10  35
ATOM     35  O   UNL     1     481.335  43.211 457.955  1.00  0.00    -0.507 OA
ATOM     36  H   UNL     1     481.743  43.215 457.028  1.00  0.00     0.293 HD
ENDBRANCH  10  35
TORSDOF 9
ENDMDL
MODEL 3
REMARK VINA RESULT:    -6.176      1.538      2.058
REMARK INTER + INTRA:          -8.239
REMARK INTER:                  -7.920
REMARK INTRA:                  -0.319
REMARK UNBOUND:                 0.103
REMARK SMILES O=c1c(-c2ccc(O)cc2)coc2c([C@@H]3O[C@@H](CO)[C@@H](O)[C@@H](O)[C@@H]3O)c(O)ccc12
REMARK SMILES IDX 3 1 11 2 12 3 13 4 30 5 2 6 1 7 29 8 28 9 26 10 14 11 4 12
REMARK SMILES IDX 5 13 6 14 7 15 10 16 9 17 8 18 15 20 24 21 16 22 22 23 17 24
REMARK SMILES IDX 20 25 25 26 23 28 18 30 19 31 21 33 27 35
REMARK H PARENT 8 19 25 27 23 29 19 32 21 34 27 36
REMARK Flexibility Score: inf
ROOT
ATOM      1  C   UNL     1     478.613  37.174 461.272  1.00  0.00     0.065 A 
ATOM      2  C   UNL     1     478.751  37.271 459.881  1.00  0.00     0.208 A 
ATOM      3  O   UNL     1     479.565  38.168 459.338  1.00  0.00    -0.463 OA
ATOM      4  C   UNL     1     480.297  39.023 460.050  1.00  0.00     0.147 A 
ATOM      5  C   UNL     1     480.229  38.980 461.464  1.00  0.00     0.066 A 
ATOM      6  C   UNL     1     479.376  38.042 462.073  1.00  0.00     0.200 A 
ATOM      7  O   UNL     1     479.313  37.962 463.332  1.00  0.00    -0.288 OA
ATOM      8  C   UNL     1     481.018  39.853 462.220  1.00  0.00     0.020 A 
ATOM      9  C   UNL     1     481.879  40.741 461.588  1.00  0.00     0.047 A 
ATOM     10  C   UNL     1     481.962  40.794 460.191  1.00  0.00     0.125 A 
ATOM     11  C   UNL     1     481.138  39.961 459.389  1.00  0.00     0.069 A 
ENDROOT
BRANCH   1  12
ATOM     12  C   UNL     1     477.689  36.171 461.857  1.00  0.00    -0.011 A 
ATOM     13  C   UNL     1     476.549  36.588 462.568  1.00  0.00     0.013 A 
ATOM     14  C   UNL     1     475.681  35.646 463.126  1.00  0.00     0.047 A 
ATOM     15  C   UNL     1     475.943  34.277 462.988  1.00  0.00     0.115 A 
ATOM     16  C   UNL     1     477.947  34.795 461.727  1.00  0.00     0.013 A 
ATOM     17  C   UNL     1     477.077  33.856 462.288  1.00  0.00     0.047 A 
BRANCH  15  18
ATOM     18  O   UNL     1     475.084  33.329 463.541  1.00  0.00    -0.508 OA
ATOM     19  H   UNL     1     475.316  32.840 464.397  1.00  0.00     0.293 HD
ENDBRANCH  15  18
ENDBRANCH   1  12
BRANCH  11  20
ATOM     20  C   UNL     1     481.174  39.950 457.847  1.00  0.00     0.188 C 
ATOM     21  C   UNL     1     481.267  41.296 457.051  1.00  0.00     0.179 C 
ATOM     22  O   UNL     1     482.019  38.923 457.350  1.00  0.00    -0.362 OA
ATOM     23  C   UNL     1     482.692  41.687 456.586  1.00  0.00     0.177 C 
ATOM     24  C   UNL     1     483.361  39.345 457.200  1.00  0.00     0.176 C 
ATOM     25  C   UNL     1     483.464  40.443 456.119  1.00  0.00     0.177 C 
BRANCH  21  26
ATOM     26  O   UNL     1     480.606  42.345 457.713  1.00  0.00    -0.387 OA
ATOM     27  H   UNL     1     481.174  43.155 457.664  1.00  0.00     0.211 HD
ENDBRANCH  21  26
BRANCH  23  28
ATOM     28  O   UNL     1     482.595  42.618 455.537  1.00  0.00    -0.387 OA
ATOM     29  H   UNL     1     483.401  42.499 454.969  1.00  0.00     0.211 HD
ENDBRANCH  23  28
BRANCH  24  30
ATOM     30  C   UNL     1     484.213  38.121 456.845  1.00  0.00     0.191 C 
BRANCH  30  31
ATOM     31  O   UNL     1     484.514  37.385 457.999  1.00  0.00    -0.394 OA
ATOM     32  H   UNL     1     483.735  36.793 458.159  1.00  0.00     0.210 HD
ENDBRANCH  30  31
ENDBRANCH  24  30
BRANCH  25  33
ATOM     33  O   UNL     1     482.924  39.983 454.903  1.00  0.00    -0.388 OA
ATOM     34  H   UNL     1     482.586  39.064 455.063  1.00  0.00     0.211 HD
ENDBRANCH  25  33
ENDBRANCH  11  20
BRANCH  10  35
ATOM     35  O   UNL     1     482.876  41.673 459.624  1.00  0.00    -0.507 OA
ATOM     36  H   UNL     1     483.065  41.686 458.629  1.00  0.00     0.293 HD
ENDBRANCH  10  35
TORSDOF 9
ENDMDL
MODEL 4
REMARK VINA RESULT:    -6.123      2.139      4.014
REMARK INTER + INTRA:          -8.168
REMARK INTER:                  -7.988
REMARK INTRA:                  -0.179
REMARK UNBOUND:                 0.103
REMARK SMILES O=c1c(-c2ccc(O)cc2)coc2c([C@@H]3O[C@@H](CO)[C@@H](O)[C@@H](O)[C@@H]3O)c(O)ccc12
REMARK SMILES IDX 3 1 11 2 12 3 13 4 30 5 2 6 1 7 29 8 28 9 26 10 14 11 4 12
REMARK SMILES IDX 5 13 6 14 7 15 10 16 9 17 8 18 15 20 24 21 16 22 22 23 17 24
REMARK SMILES IDX 20 25 25 26 23 28 18 30 19 31 21 33 27 35
REMARK H PARENT 8 19 25 27 23 29 19 32 21 34 27 36
REMARK Flexibility Score: inf
ROOT
ATOM      1  C   UNL     1     480.106  38.834 460.367  1.00  0.00     0.065 A 
ATOM      2  C   UNL     1     480.204  38.767 458.972  1.00  0.00     0.208 A 
ATOM      3  O   UNL     1     481.375  38.907 458.363  1.00  0.00    -0.463 OA
ATOM      4  C   UNL     1     482.520  39.116 459.011  1.00  0.00     0.147 A 
ATOM      5  C   UNL     1     482.512  39.180 460.426  1.00  0.00     0.066 A 
ATOM      6  C   UNL     1     481.288  39.036 461.103  1.00  0.00     0.200 A 
ATOM      7  O   UNL     1     481.251  39.063 462.366  1.00  0.00    -0.288 OA
ATOM      8  C   UNL     1     483.714  39.366 461.116  1.00  0.00     0.020 A 
ATOM      9  C   UNL     1     484.911  39.466 460.418  1.00  0.00     0.047 A 
ATOM     10  C   UNL     1     484.939  39.400 459.020  1.00  0.00     0.125 A 
ATOM     11  C   UNL     1     483.733  39.264 458.282  1.00  0.00     0.069 A 
ENDROOT
BRANCH   1  12
ATOM     12  C   UNL     1     478.784  38.687 461.026  1.00  0.00    -0.011 A 
ATOM     13  C   UNL     1     478.280  37.408 461.326  1.00  0.00     0.013 A 
ATOM     14  C   UNL     1     477.032  37.266 461.939  1.00  0.00     0.047 A 
ATOM     15  C   UNL     1     476.270  38.398 462.255  1.00  0.00     0.115 A 
ATOM     16  C   UNL     1     478.009  39.817 461.342  1.00  0.00     0.013 A 
ATOM     17  C   UNL     1     476.761  39.671 461.954  1.00  0.00     0.047 A 
BRANCH  15  18
ATOM     18  O   UNL     1     475.024  38.268 462.866  1.00  0.00    -0.508 OA
ATOM     19  H   UNL     1     474.270  38.916 462.674  1.00  0.00     0.293 HD
ENDBRANCH  15  18
ENDBRANCH   1  12
BRANCH  11  20
ATOM     20  C   UNL     1     483.676  39.175 456.743  1.00  0.00     0.188 C 
ATOM     21  C   UNL     1     482.824  38.059 456.049  1.00  0.00     0.179 C 
ATOM     22  O   UNL     1     483.547  40.458 456.149  1.00  0.00    -0.362 OA
ATOM     23  C   UNL     1     481.417  38.504 455.579  1.00  0.00     0.177 C 
ATOM     24  C   UNL     1     482.198  40.855 455.997  1.00  0.00     0.176 C 
ATOM     25  C   UNL     1     481.471  39.927 455.000  1.00  0.00     0.177 C 
BRANCH  21  26
ATOM     26  O   UNL     1     482.793  36.875 456.806  1.00  0.00    -0.387 OA
ATOM     27  H   UNL     1     483.560  36.883 457.433  1.00  0.00     0.211 HD
ENDBRANCH  21  26
BRANCH  23  28
ATOM     28  O   UNL     1     480.950  37.603 454.606  1.00  0.00    -0.387 OA
ATOM     29  H   UNL     1     481.270  36.701 454.870  1.00  0.00     0.211 HD
ENDBRANCH  23  28
BRANCH  24  30
ATOM     30  C   UNL     1     482.176  42.315 455.528  1.00  0.00     0.191 C 
BRANCH  30  31
ATOM     31  O   UNL     1     483.211  42.548 454.611  1.00  0.00    -0.394 OA
ATOM     32  H   UNL     1     484.044  42.610 455.145  1.00  0.00     0.210 HD
ENDBRANCH  30  31
ENDBRANCH  24  30
BRANCH  25  33
ATOM     33  O   UNL     1     482.149  39.907 453.767  1.00  0.00    -0.388 OA
ATOM     34  H   UNL     1     482.723  39.098 453.762  1.00  0.00     0.211 HD
ENDBRANCH  25  33
ENDBRANCH  11  20
BRANCH  10  35
ATOM     35  O   UNL     1     486.173  39.460 458.388  1.00  0.00    -0.507 OA
ATOM     36  H   UNL     1     486.263  39.441 457.379  1.00  0.00     0.293 HD
ENDBRANCH  10  35
TORSDOF 9
ENDMDL
MODEL 5
REMARK VINA RESULT:    -5.950      1.960      3.697
REMARK INTER + INTRA:          -7.934
REMARK INTER:                  -7.939
REMARK INTRA:                   0.005
REMARK UNBOUND:                 0.103
REMARK SMILES O=c1c(-c2ccc(O)cc2)coc2c([C@@H]3O[C@@H](CO)[C@@H](O)[C@@H](O)[C@@H]3O)c(O)ccc12
REMARK SMILES IDX 3 1 11 2 12 3 13 4 30 5 2 6 1 7 29 8 28 9 26 10 14 11 4 12
REMARK SMILES IDX 5 13 6 14 7 15 10 16 9 17 8 18 15 20 24 21 16 22 22 23 17 24
REMARK SMILES IDX 20 25 25 26 23 28 18 30 19 31 21 33 27 35
REMARK H PARENT 8 19 25 27 23 29 19 32 21 34 27 36
REMARK Flexibility Score: inf
ROOT
ATOM      1  C   UNL     1     479.600  37.832 460.338  1.00  0.00     0.065 A 
ATOM      2  C   UNL     1     479.702  37.707 458.946  1.00  0.00     0.208 A 
ATOM      3  O   UNL     1     480.650  38.348 458.273  1.00  0.00    -0.463 OA
ATOM      4  C   UNL     1     481.555  39.137 458.849  1.00  0.00     0.147 A 
ATOM      5  C   UNL     1     481.532  39.303 460.254  1.00  0.00     0.066 A 
ATOM      6  C   UNL     1     480.541  38.640 461.000  1.00  0.00     0.200 A 
ATOM      7  O   UNL     1     480.510  38.748 462.258  1.00  0.00    -0.288 OA
ATOM      8  C   UNL     1     482.499  40.105 460.871  1.00  0.00     0.020 A 
ATOM      9  C   UNL     1     483.488  40.716 460.110  1.00  0.00     0.047 A 
ATOM     10  C   UNL     1     483.529  40.558 458.720  1.00  0.00     0.125 A 
ATOM     11  C   UNL     1     482.534  39.796 458.053  1.00  0.00     0.069 A 
ENDROOT
BRANCH   1  12
ATOM     12  C   UNL     1     478.525  37.115 461.069  1.00  0.00    -0.011 A 
ATOM     13  C   UNL     1     477.507  37.836 461.718  1.00  0.00     0.013 A 
ATOM     14  C   UNL     1     476.498  37.165 462.414  1.00  0.00     0.047 A 
ATOM     15  C   UNL     1     476.496  35.765 462.475  1.00  0.00     0.115 A 
ATOM     16  C   UNL     1     478.518  35.711 461.140  1.00  0.00     0.013 A 
ATOM     17  C   UNL     1     477.508  35.043 461.837  1.00  0.00     0.047 A 
BRANCH  15  18
ATOM     18  O   UNL     1     475.495  35.086 463.166  1.00  0.00    -0.508 OA
ATOM     19  H   UNL     1     475.318  34.101 463.009  1.00  0.00     0.293 HD
ENDBRANCH  15  18
ENDBRANCH   1  12
BRANCH  11  20
ATOM     20  C   UNL     1     482.510  39.565 456.527  1.00  0.00     0.188 C 
ATOM     21  C   UNL     1     482.231  38.137 455.950  1.00  0.00     0.179 C 
ATOM     22  O   UNL     1     481.825  40.609 455.851  1.00  0.00    -0.362 OA
ATOM     23  C   UNL     1     480.769  37.880 455.510  1.00  0.00     0.177 C 
ATOM     24  C   UNL     1     480.437  40.360 455.729  1.00  0.00     0.176 C 
ATOM     25  C   UNL     1     480.186  39.129 454.831  1.00  0.00     0.177 C 
BRANCH  21  26
ATOM     26  O   UNL     1     482.731  37.124 456.788  1.00  0.00    -0.387 OA
ATOM     27  H   UNL     1     483.622  36.851 456.453  1.00  0.00     0.211 HD
ENDBRANCH  21  26
BRANCH  23  28
ATOM     28  O   UNL     1     480.739  36.789 454.623  1.00  0.00    -0.387 OA
ATOM     29  H   UNL     1     481.270  36.061 455.041  1.00  0.00     0.211 HD
ENDBRANCH  23  28
BRANCH  24  30
ATOM     30  C   UNL     1     479.771  41.619 455.161  1.00  0.00     0.191 C 
BRANCH  30  31
ATOM     31  O   UNL     1     478.737  41.268 454.282  1.00  0.00    -0.394 OA
ATOM     32  H   UNL     1     478.601  40.292 454.391  1.00  0.00     0.210 HD
ENDBRANCH  30  31
ENDBRANCH  24  30
BRANCH  25  33
ATOM     33  O   UNL     1     480.794  39.309 453.575  1.00  0.00    -0.388 OA
ATOM     34  H   UNL     1     481.700  38.909 453.629  1.00  0.00     0.211 HD
ENDBRANCH  25  33
ENDBRANCH  11  20
BRANCH  10  35
ATOM     35  O   UNL     1     484.570  41.158 458.024  1.00  0.00    -0.507 OA
ATOM     36  H   UNL     1     484.656  42.164 457.946  1.00  0.00     0.293 HD
ENDBRANCH  10  35
TORSDOF 9
ENDMDL
MODEL 6
REMARK VINA RESULT:    -5.944      2.498      4.539
REMARK INTER + INTRA:          -7.926
REMARK INTER:                  -7.523
REMARK INTRA:                  -0.404
REMARK UNBOUND:                 0.103
REMARK SMILES O=c1c(-c2ccc(O)cc2)coc2c([C@@H]3O[C@@H](CO)[C@@H](O)[C@@H](O)[C@@H]3O)c(O)ccc12
REMARK SMILES IDX 3 1 11 2 12 3 13 4 30 5 2 6 1 7 29 8 28 9 26 10 14 11 4 12
REMARK SMILES IDX 5 13 6 14 7 15 10 16 9 17 8 18 15 20 24 21 16 22 22 23 17 24
REMARK SMILES IDX 20 25 25 26 23 28 18 30 19 31 21 33 27 35
REMARK H PARENT 8 19 25 27 23 29 19 32 21 34 27 36
REMARK Flexibility Score: inf
ROOT
ATOM      1  C   UNL     1     477.485  38.920 461.977  1.00  0.00     0.065 A 
ATOM      2  C   UNL     1     478.179  39.769 461.106  1.00  0.00     0.208 A 
ATOM      3  O   UNL     1     478.938  39.276 460.136  1.00  0.00    -0.463 OA
ATOM      4  C   UNL     1     479.097  37.971 459.916  1.00  0.00     0.147 A 
ATOM      5  C   UNL     1     478.416  37.045 460.742  1.00  0.00     0.066 A 
ATOM      6  C   UNL     1     477.603  37.532 461.781  1.00  0.00     0.200 A 
ATOM      7  O   UNL     1     476.962  36.731 462.518  1.00  0.00    -0.288 OA
ATOM      8  C   UNL     1     478.550  35.674 460.499  1.00  0.00     0.020 A 
ATOM      9  C   UNL     1     479.331  35.226 459.440  1.00  0.00     0.047 A 
ATOM     10  C   UNL     1     480.007  36.128 458.611  1.00  0.00     0.125 A 
ATOM     11  C   UNL     1     479.937  37.525 458.859  1.00  0.00     0.069 A 
ENDROOT
BRANCH   1  12
ATOM     12  C   UNL     1     476.651  39.493 463.063  1.00  0.00    -0.011 A 
ATOM     13  C   UNL     1     475.256  39.310 463.058  1.00  0.00     0.013 A 
ATOM     14  C   UNL     1     474.468  39.855 464.075  1.00  0.00     0.047 A 
ATOM     15  C   UNL     1     475.060  40.595 465.106  1.00  0.00     0.115 A 
ATOM     16  C   UNL     1     477.237  40.242 464.099  1.00  0.00     0.013 A 
ATOM     17  C   UNL     1     476.445  40.787 465.114  1.00  0.00     0.047 A 
BRANCH  15  18
ATOM     18  O   UNL     1     474.284  41.143 466.125  1.00  0.00    -0.508 OA
ATOM     19  H   UNL     1     474.500  40.981 467.101  1.00  0.00     0.293 HD
ENDBRANCH  15  18
ENDBRANCH   1  12
BRANCH  11  20
ATOM     20  C   UNL     1     480.644  38.586 457.989  1.00  0.00     0.188 C 
ATOM     21  C   UNL     1     482.184  38.490 457.724  1.00  0.00     0.179 C 
ATOM     22  O   UNL     1     479.877  38.916 456.841  1.00  0.00    -0.362 OA
ATOM     23  C   UNL     1     482.579  37.841 456.375  1.00  0.00     0.177 C 
ATOM     24  C   UNL     1     480.162  38.080 455.736  1.00  0.00     0.176 C 
ATOM     25  C   UNL     1     481.617  38.288 455.263  1.00  0.00     0.177 C 
BRANCH  21  26
ATOM     26  O   UNL     1     482.871  37.930 458.816  1.00  0.00    -0.387 OA
ATOM     27  H   UNL     1     483.816  37.789 458.554  1.00  0.00     0.211 HD
ENDBRANCH  21  26
BRANCH  23  28
ATOM     28  O   UNL     1     483.897  38.212 456.053  1.00  0.00    -0.387 OA
ATOM     29  H   UNL     1     483.995  38.108 455.070  1.00  0.00     0.211 HD
ENDBRANCH  23  28
BRANCH  24  30
ATOM     30  C   UNL     1     479.156  38.396 454.622  1.00  0.00     0.191 C 
BRANCH  30  31
ATOM     31  O   UNL     1     479.769  38.286 453.367  1.00  0.00    -0.394 OA
ATOM     32  H   UNL     1     480.588  37.743 453.506  1.00  0.00     0.210 HD
ENDBRANCH  30  31
ENDBRANCH  24  30
BRANCH  25  33
ATOM     33  O   UNL     1     481.844  39.644 454.961  1.00  0.00    -0.388 OA
ATOM     34  H   UNL     1     482.292  40.047 455.749  1.00  0.00     0.211 HD
ENDBRANCH  25  33
ENDBRANCH  11  20
BRANCH  10  35
ATOM     35  O   UNL     1     480.733  35.617 457.543  1.00  0.00    -0.507 OA
ATOM     36  H   UNL     1     481.615  36.018 457.250  1.00  0.00     0.293 HD
ENDBRANCH  10  35
TORSDOF 9
ENDMDL
MODEL 7
REMARK VINA RESULT:    -5.698      2.843      8.538
REMARK INTER + INTRA:          -7.594
REMARK INTER:                  -6.926
REMARK INTRA:                  -0.668
REMARK UNBOUND:                 0.103
REMARK SMILES O=c1c(-c2ccc(O)cc2)coc2c([C@@H]3O[C@@H](CO)[C@@H](O)[C@@H](O)[C@@H]3O)c(O)ccc12
REMARK SMILES IDX 3 1 11 2 12 3 13 4 30 5 2 6 1 7 29 8 28 9 26 10 14 11 4 12
REMARK SMILES IDX 5 13 6 14 7 15 10 16 9 17 8 18 15 20 24 21 16 22 22 23 17 24
REMARK SMILES IDX 20 25 25 26 23 28 18 30 19 31 21 33 27 35
REMARK H PARENT 8 19 25 27 23 29 19 32 21 34 27 36
REMARK Flexibility Score: inf
ROOT
ATOM      1  C   UNL     1     479.886  38.123 459.461  1.00  0.00     0.065 A 
ATOM      2  C   UNL     1     479.249  39.337 459.748  1.00  0.00     0.208 A 
ATOM      3  O   UNL     1     478.181  39.376 460.536  1.00  0.00    -0.463 OA
ATOM      4  C   UNL     1     477.645  38.296 461.102  1.00  0.00     0.147 A 
ATOM      5  C   UNL     1     478.240  37.031 460.877  1.00  0.00     0.066 A 
ATOM      6  C   UNL     1     479.372  36.952 460.047  1.00  0.00     0.200 A 
ATOM      7  O   UNL     1     479.940  35.842 459.846  1.00  0.00    -0.288 OA
ATOM      8  C   UNL     1     477.703  35.895 461.493  1.00  0.00     0.020 A 
ATOM      9  C   UNL     1     476.607  36.013 462.339  1.00  0.00     0.047 A 
ATOM     10  C   UNL     1     476.009  37.256 462.577  1.00  0.00     0.125 A 
ATOM     11  C   UNL     1     476.493  38.423 461.928  1.00  0.00     0.069 A 
ENDROOT
BRANCH   1  12
ATOM     12  C   UNL     1     481.072  38.101 458.568  1.00  0.00    -0.011 A 
ATOM     13  C   UNL     1     480.938  37.720 457.221  1.00  0.00     0.013 A 
ATOM     14  C   UNL     1     482.054  37.691 456.380  1.00  0.00     0.047 A 
ATOM     15  C   UNL     1     483.318  38.037 456.875  1.00  0.00     0.115 A 
ATOM     16  C   UNL     1     482.346  38.441 459.058  1.00  0.00     0.013 A 
ATOM     17  C   UNL     1     483.459  38.411 458.214  1.00  0.00     0.047 A 
BRANCH  15  18
ATOM     18  O   UNL     1     484.437  38.012 456.045  1.00  0.00    -0.508 OA
ATOM     19  H   UNL     1     484.480  37.409 455.232  1.00  0.00     0.293 HD
ENDBRANCH  15  18
ENDBRANCH   1  12
BRANCH  11  20
ATOM     20  C   UNL     1     475.899  39.831 462.141  1.00  0.00     0.188 C 
ATOM     21  C   UNL     1     474.350  40.050 462.083  1.00  0.00     0.179 C 
ATOM     22  O   UNL     1     476.542  40.514 463.207  1.00  0.00    -0.362 OA
ATOM     23  C   UNL     1     473.639  40.084 463.458  1.00  0.00     0.177 C 
ATOM     24  C   UNL     1     475.935  40.263 464.460  1.00  0.00     0.176 C 
ATOM     25  C   UNL     1     474.500  40.832 464.488  1.00  0.00     0.177 C 
BRANCH  21  26
ATOM     26  O   UNL     1     473.729  39.175 461.174  1.00  0.00    -0.387 OA
ATOM     27  H   UNL     1     472.779  39.440 461.082  1.00  0.00     0.211 HD
ENDBRANCH  21  26
BRANCH  23  28
ATOM     28  O   UNL     1     472.393  40.720 463.317  1.00  0.00    -0.387 OA
ATOM     29  H   UNL     1     471.951  40.691 464.206  1.00  0.00     0.211 HD
ENDBRANCH  23  28
BRANCH  24  30
ATOM     30  C   UNL     1     476.812  40.888 465.552  1.00  0.00     0.191 C 
BRANCH  30  31
ATOM     31  O   UNL     1     477.308  42.129 465.129  1.00  0.00    -0.394 OA
ATOM     32  H   UNL     1     476.913  42.293 464.234  1.00  0.00     0.210 HD
ENDBRANCH  30  31
ENDBRANCH  24  30
BRANCH  25  33
ATOM     33  O   UNL     1     474.513  42.206 464.182  1.00  0.00    -0.388 OA
ATOM     34  H   UNL     1     473.635  42.575 464.458  1.00  0.00     0.211 HD
ENDBRANCH  25  33
ENDBRANCH  11  20
BRANCH  10  35
ATOM     35  O   UNL     1     474.946  37.310 463.468  1.00  0.00    -0.507 OA
ATOM     36  H   UNL     1     474.351  36.510 463.646  1.00  0.00     0.293 HD
ENDBRANCH  10  35
TORSDOF 9
ENDMDL
MODEL 8
REMARK VINA RESULT:    -5.671      2.808      3.326
REMARK INTER + INTRA:          -7.558
REMARK INTER:                  -6.981
REMARK INTRA:                  -0.577
REMARK UNBOUND:                 0.103
REMARK SMILES O=c1c(-c2ccc(O)cc2)coc2c([C@@H]3O[C@@H](CO)[C@@H](O)[C@@H](O)[C@@H]3O)c(O)ccc12
REMARK SMILES IDX 3 1 11 2 12 3 13 4 30 5 2 6 1 7 29 8 28 9 26 10 14 11 4 12
REMARK SMILES IDX 5 13 6 14 7 15 10 16 9 17 8 18 15 20 24 21 16 22 22 23 17 24
REMARK SMILES IDX 20 25 25 26 23 28 18 30 19 31 21 33 27 35
REMARK H PARENT 8 19 25 27 23 29 19 32 21 34 27 36
REMARK Flexibility Score: inf
ROOT
ATOM      1  C   UNL     1     477.254  39.982 460.690  1.00  0.00     0.065 A 
ATOM      2  C   UNL     1     478.066  38.862 460.469  1.00  0.00     0.208 A 
ATOM      3  O   UNL     1     479.215  38.974 459.814  1.00  0.00    -0.463 OA
ATOM      4  C   UNL     1     479.677  40.125 459.329  1.00  0.00     0.147 A 
ATOM      5  C   UNL     1     478.925  41.308 459.525  1.00  0.00     0.066 A 
ATOM      6  C   UNL     1     477.702  41.228 460.214  1.00  0.00     0.200 A 
ATOM      7  O   UNL     1     477.020  42.270 460.427  1.00  0.00    -0.288 OA
ATOM      8  C   UNL     1     479.418  42.527 459.048  1.00  0.00     0.020 A 
ATOM      9  C   UNL     1     480.649  42.579 458.404  1.00  0.00     0.047 A 
ATOM     10  C   UNL     1     481.408  41.419 458.207  1.00  0.00     0.125 A 
ATOM     11  C   UNL     1     480.916  40.156 458.630  1.00  0.00     0.069 A 
ENDROOT
BRANCH   1  12
ATOM     12  C   UNL     1     475.967  39.833 461.415  1.00  0.00    -0.011 A 
ATOM     13  C   UNL     1     474.747  39.929 460.721  1.00  0.00     0.013 A 
ATOM     14  C   UNL     1     473.534  39.797 461.402  1.00  0.00     0.047 A 
ATOM     15  C   UNL     1     473.523  39.573 462.785  1.00  0.00     0.115 A 
ATOM     16  C   UNL     1     475.946  39.614 462.804  1.00  0.00     0.013 A 
ATOM     17  C   UNL     1     474.731  39.483 463.482  1.00  0.00     0.047 A 
BRANCH  15  18
ATOM     18  O   UNL     1     472.319  39.440 463.474  1.00  0.00    -0.508 OA
ATOM     19  H   UNL     1     471.558  40.095 463.341  1.00  0.00     0.293 HD
ENDBRANCH  15  18
ENDBRANCH   1  12
BRANCH  11  20
ATOM     20  C   UNL     1     481.692  38.833 458.458  1.00  0.00     0.188 C 
ATOM     21  C   UNL     1     482.379  38.493 457.093  1.00  0.00     0.179 C 
ATOM     22  O   UNL     1     482.489  38.543 459.597  1.00  0.00    -0.362 OA
ATOM     23  C   UNL     1     483.892  38.813 457.021  1.00  0.00     0.177 C 
ATOM     24  C   UNL     1     483.784  39.105 459.514  1.00  0.00     0.176 C 
ATOM     25  C   UNL     1     484.576  38.466 458.353  1.00  0.00     0.177 C 
BRANCH  21  26
ATOM     26  O   UNL     1     481.663  39.015 456.000  1.00  0.00    -0.387 OA
ATOM     27  H   UNL     1     481.332  39.916 456.243  1.00  0.00     0.211 HD
ENDBRANCH  21  26
BRANCH  23  28
ATOM     28  O   UNL     1     484.470  38.074 455.974  1.00  0.00    -0.387 OA
ATOM     29  H   UNL     1     484.225  38.532 455.127  1.00  0.00     0.211 HD
ENDBRANCH  23  28
BRANCH  24  30
ATOM     30  C   UNL     1     484.487  38.895 460.860  1.00  0.00     0.191 C 
BRANCH  30  31
ATOM     31  O   UNL     1     485.750  38.319 460.666  1.00  0.00    -0.394 OA
ATOM     32  H   UNL     1     485.891  38.288 459.685  1.00  0.00     0.210 HD
ENDBRANCH  30  31
ENDBRANCH  24  30
BRANCH  25  33
ATOM     33  O   UNL     1     484.626  37.068 458.507  1.00  0.00    -0.388 OA
ATOM     34  H   UNL     1     483.936  36.684 457.906  1.00  0.00     0.211 HD
ENDBRANCH  25  33
ENDBRANCH  11  20
BRANCH  10  35
ATOM     35  O   UNL     1     482.649  41.547 457.598  1.00  0.00    -0.507 OA
ATOM     36  H   UNL     1     483.030  42.448 457.334  1.00  0.00     0.293 HD
ENDBRANCH  10  35
TORSDOF 9
ENDMDL
MODEL 9
REMARK VINA RESULT:    -5.590      3.887      7.870
REMARK INTER + INTRA:          -7.448
REMARK INTER:                  -6.786
REMARK INTRA:                  -0.662
REMARK UNBOUND:                 0.103
REMARK SMILES O=c1c(-c2ccc(O)cc2)coc2c([C@@H]3O[C@@H](CO)[C@@H](O)[C@@H](O)[C@@H]3O)c(O)ccc12
REMARK SMILES IDX 3 1 11 2 12 3 13 4 30 5 2 6 1 7 29 8 28 9 26 10 14 11 4 12
REMARK SMILES IDX 5 13 6 14 7 15 10 16 9 17 8 18 15 20 24 21 16 22 22 23 17 24
REMARK SMILES IDX 20 25 25 26 23 28 18 30 19 31 21 33 27 35
REMARK H PARENT 8 19 25 27 23 29 19 32 21 34 27 36
REMARK Flexibility Score: inf
ROOT
ATOM      1  C   UNL     1     484.714  41.078 460.595  1.00  0.00     0.065 A 
ATOM      2  C   UNL     1     484.871  40.895 459.215  1.00  0.00     0.208 A 
ATOM      3  O   UNL     1     483.957  40.243 458.507  1.00  0.00    -0.463 OA
ATOM      4  C   UNL     1     482.848  39.726 459.034  1.00  0.00     0.147 A 
ATOM      5  C   UNL     1     482.605  39.882 460.420  1.00  0.00     0.066 A 
ATOM      6  C   UNL     1     483.553  40.568 461.202  1.00  0.00     0.200 A 
ATOM      7  O   UNL     1     483.352  40.745 462.436  1.00  0.00    -0.288 OA
ATOM      8  C   UNL     1     481.428  39.371 460.978  1.00  0.00     0.020 A 
ATOM      9  C   UNL     1     480.494  38.733 460.171  1.00  0.00     0.047 A 
ATOM     10  C   UNL     1     480.716  38.574 458.797  1.00  0.00     0.125 A 
ATOM     11  C   UNL     1     481.923  39.032 458.206  1.00  0.00     0.069 A 
ENDROOT
BRANCH   1  12
ATOM     12  C   UNL     1     485.754  41.801 461.370  1.00  0.00    -0.011 A 
ATOM     13  C   UNL     1     485.731  43.204 461.450  1.00  0.00     0.013 A 
ATOM     14  C   UNL     1     486.714  43.887 462.172  1.00  0.00     0.047 A 
ATOM     15  C   UNL     1     487.735  43.178 462.818  1.00  0.00     0.115 A 
ATOM     16  C   UNL     1     486.786  41.097 462.016  1.00  0.00     0.013 A 
ATOM     17  C   UNL     1     487.767  41.783 462.737  1.00  0.00     0.047 A 
BRANCH  15  18
ATOM     18  O   UNL     1     488.719  43.849 463.541  1.00  0.00    -0.508 OA
ATOM     19  H   UNL     1     488.652  43.966 464.544  1.00  0.00     0.293 HD
ENDBRANCH  15  18
ENDBRANCH   1  12
BRANCH  11  20
ATOM     20  C   UNL     1     482.242  38.905 456.702  1.00  0.00     0.188 C 
ATOM     21  C   UNL     1     481.867  37.598 455.924  1.00  0.00     0.179 C 
ATOM     22  O   UNL     1     481.944  40.103 456.000  1.00  0.00    -0.362 OA
ATOM     23  C   UNL     1     480.540  37.664 455.129  1.00  0.00     0.177 C 
ATOM     24  C   UNL     1     480.610  40.142 455.531  1.00  0.00     0.176 C 
ATOM     25  C   UNL     1     480.377  39.043 454.472  1.00  0.00     0.177 C 
BRANCH  21  26
ATOM     26  O   UNL     1     481.953  36.457 456.742  1.00  0.00    -0.387 OA
ATOM     27  H   UNL     1     481.843  35.654 456.173  1.00  0.00     0.211 HD
ENDBRANCH  21  26
BRANCH  23  28
ATOM     28  O   UNL     1     480.541  36.657 454.148  1.00  0.00    -0.387 OA
ATOM     29  H   UNL     1     480.136  35.850 454.561  1.00  0.00     0.211 HD
ENDBRANCH  23  28
BRANCH  24  30
ATOM     30  C   UNL     1     480.341  41.541 454.961  1.00  0.00     0.191 C 
BRANCH  30  31
ATOM     31  O   UNL     1     481.454  41.995 454.241  1.00  0.00    -0.394 OA
ATOM     32  H   UNL     1     481.152  42.799 453.746  1.00  0.00     0.210 HD
ENDBRANCH  30  31
ENDBRANCH  24  30
BRANCH  25  33
ATOM     33  O   UNL     1     481.303  39.175 453.420  1.00  0.00    -0.388 OA
ATOM     34  H   UNL     1     480.893  39.774 452.744  1.00  0.00     0.211 HD
ENDBRANCH  25  33
ENDBRANCH  11  20
BRANCH  10  35
ATOM     35  O   UNL     1     479.722  37.968 458.041  1.00  0.00    -0.507 OA
ATOM     36  H   UNL     1     479.721  37.998 457.029  1.00  0.00     0.293 HD
ENDBRANCH  10  35
TORSDOF 9
ENDMDL
