MODEL 1
REMARK VINA RESULT:    -3.873      0.000      0.000
REMARK INTER + INTRA:          -8.293
REMARK INTER:                  -7.043
REMARK INTRA:                  -1.250
REMARK UNBOUND:                -1.250
REMARK SMILES CCCCCCCCCCCCCCCC(=O)[O-]
REMARK SMILES IDX 9 1 10 2 11 3 12 4 13 5 14 6 15 7 16 8 17 9 18 10 8 11 7 12
REMARK SMILES IDX 6 13 5 14 4 15 3 16 2 17 1 18
REMARK H PARENT
REMARK Flexibility Score: inf
ROOT
ATOM      1  C   UNL     1      -5.719  83.259  -9.938  1.00  0.00     0.000 C 
ENDROOT
BRANCH   1   2
ATOM      2  C   UNL     1      -4.420  82.642  -9.397  1.00  0.00     0.000 C 
BRANCH   2   3
ATOM      3  C   UNL     1      -4.224  82.903  -7.894  1.00  0.00     0.000 C 
BRANCH   3   4
ATOM      4  C   UNL     1      -3.102  83.917  -7.606  1.00  0.00     0.000 C 
BRANCH   4   5
ATOM      5  C   UNL     1      -3.578  85.364  -7.384  1.00  0.00     0.000 C 
BRANCH   5   6
ATOM      6  C   UNL     1      -3.592  86.195  -8.676  1.00  0.00     0.006 C 
BRANCH   6   7
ATOM      7  C   UNL     1      -4.503  87.417  -8.531  1.00  0.00     0.053 C 
BRANCH   7   8
ATOM      8  C   UNL     1      -5.743  87.246  -9.351  1.00  0.00     0.041 C 
ATOM      9  O   UNL     1      -5.686  86.689 -10.478  1.00  0.00    -0.550 OA
ATOM     10  O   UNL     1      -6.970  87.660  -8.848  1.00  0.00    -0.550 OA
ENDBRANCH   7   8
ENDBRANCH   6   7
ENDBRANCH   5   6
ENDBRANCH   4   5
ENDBRANCH   3   4
ENDBRANCH   2   3
ENDBRANCH   1   2
BRANCH   1  11
ATOM     11  C   UNL     1      -6.652  83.751  -8.818  1.00  0.00     0.000 C 
BRANCH  11  12
ATOM     12  C   UNL     1      -8.074  84.054  -9.337  1.00  0.00    -0.000 C 
BRANCH  12  13
ATOM     13  C   UNL     1      -9.172  83.228  -8.646  1.00  0.00    -0.000 C 
BRANCH  13  14
ATOM     14  C   UNL     1     -10.040  82.439  -9.640  1.00  0.00    -0.000 C 
BRANCH  14  15
ATOM     15  C   UNL     1     -11.541  82.547  -9.327  1.00  0.00    -0.000 C 
BRANCH  15  16
ATOM     16  C   UNL     1     -12.412  81.745 -10.310  1.00  0.00    -0.000 C 
BRANCH  16  17
ATOM     17  C   UNL     1     -11.826  81.722 -11.730  1.00  0.00    -0.003 C 
ATOM     18  C   UNL     1     -12.905  81.745 -12.812  1.00  0.00     0.004 C 
ENDBRANCH  16  17
ENDBRANCH  15  16
ENDBRANCH  14  15
ENDBRANCH  13  14
ENDBRANCH  12  13
ENDBRANCH  11  12
ENDBRANCH   1  11
TORSDOF 14
ENDMDL
MODEL 2
REMARK VINA RESULT:    -3.868      7.797      9.786
REMARK INTER + INTRA:          -8.283
REMARK INTER:                  -6.195
REMARK INTRA:                  -2.088
REMARK UNBOUND:                -1.250
REMARK SMILES CCCCCCCCCCCCCCCC(=O)[O-]
REMARK SMILES IDX 9 1 10 2 11 3 12 4 13 5 14 6 15 7 16 8 17 9 18 10 8 11 7 12
REMARK SMILES IDX 6 13 5 14 4 15 3 16 2 17 1 18
REMARK H PARENT
REMARK Flexibility Score: inf
ROOT
ATOM      1  C   UNL     1      -5.330  93.676 -12.075  1.00  0.00     0.000 C 
ENDROOT
BRANCH   1   2
ATOM      2  C   UNL     1      -4.936  95.076 -11.581  1.00  0.00     0.000 C 
BRANCH   2   3
ATOM      3  C   UNL     1      -3.473  95.147 -11.111  1.00  0.00     0.000 C 
BRANCH   3   4
ATOM      4  C   UNL     1      -3.307  94.806  -9.619  1.00  0.00     0.000 C 
BRANCH   4   5
ATOM      5  C   UNL     1      -4.588  94.944  -8.777  1.00  0.00     0.000 C 
BRANCH   5   6
ATOM      6  C   UNL     1      -4.881  93.703  -7.922  1.00  0.00     0.006 C 
BRANCH   6   7
ATOM      7  C   UNL     1      -4.077  92.496  -8.416  1.00  0.00     0.053 C 
BRANCH   7   8
ATOM      8  C   UNL     1      -4.995  91.422  -8.908  1.00  0.00     0.041 C 
ATOM      9  O   UNL     1      -4.584  90.238  -9.020  1.00  0.00    -0.550 OA
ATOM     10  O   UNL     1      -6.320  91.721  -9.200  1.00  0.00    -0.550 OA
ENDBRANCH   7   8
ENDBRANCH   6   7
ENDBRANCH   5   6
ENDBRANCH   4   5
ENDBRANCH   3   4
ENDBRANCH   2   3
ENDBRANCH   1   2
BRANCH   1  11
ATOM     11  C   UNL     1      -4.188  92.972 -12.830  1.00  0.00     0.000 C 
BRANCH  11  12
ATOM     12  C   UNL     1      -4.153  91.455 -12.547  1.00  0.00    -0.000 C 
BRANCH  12  13
ATOM     13  C   UNL     1      -5.542  90.796 -12.545  1.00  0.00    -0.000 C 
BRANCH  13  14
ATOM     14  C   UNL     1      -5.627  89.579 -13.480  1.00  0.00    -0.000 C 
BRANCH  14  15
ATOM     15  C   UNL     1      -6.401  89.882 -14.773  1.00  0.00    -0.000 C 
BRANCH  15  16
ATOM     16  C   UNL     1      -5.488  90.377 -15.909  1.00  0.00    -0.000 C 
BRANCH  16  17
ATOM     17  C   UNL     1      -5.839  91.801 -16.367  1.00  0.00    -0.003 C 
ATOM     18  C   UNL     1      -7.026  92.390 -15.605  1.00  0.00     0.004 C 
ENDBRANCH  16  17
ENDBRANCH  15  16
ENDBRANCH  14  15
ENDBRANCH  13  14
ENDBRANCH  12  13
ENDBRANCH  11  12
ENDBRANCH   1  11
TORSDOF 14
ENDMDL
MODEL 3
REMARK VINA RESULT:    -3.856      2.261      3.408
REMARK INTER + INTRA:          -8.262
REMARK INTER:                  -7.229
REMARK INTRA:                  -1.033
REMARK UNBOUND:                -1.250
REMARK SMILES CCCCCCCCCCCCCCCC(=O)[O-]
REMARK SMILES IDX 9 1 10 2 11 3 12 4 13 5 14 6 15 7 16 8 17 9 18 10 8 11 7 12
REMARK SMILES IDX 6 13 5 14 4 15 3 16 2 17 1 18
REMARK H PARENT
REMARK Flexibility Score: inf
ROOT
ATOM      1  C   UNL     1      -7.631  84.383  -9.665  1.00  0.00     0.000 C 
ENDROOT
BRANCH   1   2
ATOM      2  C   UNL     1      -7.810  85.885  -9.935  1.00  0.00     0.000 C 
BRANCH   2   3
ATOM      3  C   UNL     1      -6.494  86.573 -10.340  1.00  0.00     0.000 C 
BRANCH   3   4
ATOM      4  C   UNL     1      -5.267  85.657 -10.180  1.00  0.00     0.000 C 
BRANCH   4   5
ATOM      5  C   UNL     1      -4.203  86.166  -9.191  1.00  0.00     0.000 C 
BRANCH   5   6
ATOM      6  C   UNL     1      -3.380  85.033  -8.560  1.00  0.00     0.006 C 
BRANCH   6   7
ATOM      7  C   UNL     1      -4.192  83.736  -8.497  1.00  0.00     0.053 C 
BRANCH   7   8
ATOM      8  C   UNL     1      -3.408  82.599  -9.074  1.00  0.00     0.041 C 
ATOM      9  O   UNL     1      -3.823  81.999 -10.100  1.00  0.00    -0.550 OA
ATOM     10  O   UNL     1      -2.195  82.234  -8.506  1.00  0.00    -0.550 OA
ENDBRANCH   7   8
ENDBRANCH   6   7
ENDBRANCH   5   6
ENDBRANCH   4   5
ENDBRANCH   3   4
ENDBRANCH   2   3
ENDBRANCH   1   2
BRANCH   1  11
ATOM     11  C   UNL     1      -8.237  83.948  -8.319  1.00  0.00     0.000 C 
BRANCH  11  12
ATOM     12  C   UNL     1      -9.761  84.179  -8.265  1.00  0.00    -0.000 C 
BRANCH  12  13
ATOM     13  C   UNL     1     -10.585  82.984  -8.774  1.00  0.00    -0.000 C 
BRANCH  13  14
ATOM     14  C   UNL     1     -12.074  83.320  -8.958  1.00  0.00    -0.000 C 
BRANCH  14  15
ATOM     15  C   UNL     1     -12.568  83.042 -10.388  1.00  0.00    -0.000 C 
BRANCH  15  16
ATOM     16  C   UNL     1     -11.958  81.763 -10.988  1.00  0.00    -0.000 C 
BRANCH  16  17
ATOM     17  C   UNL     1     -11.963  81.774 -12.524  1.00  0.00    -0.003 C 
ATOM     18  C   UNL     1     -13.373  81.857 -13.109  1.00  0.00     0.004 C 
ENDBRANCH  16  17
ENDBRANCH  15  16
ENDBRANCH  14  15
ENDBRANCH  13  14
ENDBRANCH  12  13
ENDBRANCH  11  12
ENDBRANCH   1  11
TORSDOF 14
ENDMDL
MODEL 4
REMARK VINA RESULT:    -3.812      7.742      9.439
REMARK INTER + INTRA:          -8.181
REMARK INTER:                  -5.830
REMARK INTRA:                  -2.352
REMARK UNBOUND:                -1.250
REMARK SMILES CCCCCCCCCCCCCCCC(=O)[O-]
REMARK SMILES IDX 9 1 10 2 11 3 12 4 13 5 14 6 15 7 16 8 17 9 18 10 8 11 7 12
REMARK SMILES IDX 6 13 5 14 4 15 3 16 2 17 1 18
REMARK H PARENT
REMARK Flexibility Score: inf
ROOT
ATOM      1  C   UNL     1      -5.825  92.134 -11.328  1.00  0.00     0.000 C 
ENDROOT
BRANCH   1   2
ATOM      2  C   UNL     1      -4.577  91.372 -10.858  1.00  0.00     0.000 C 
BRANCH   2   3
ATOM      3  C   UNL     1      -4.864  90.452  -9.658  1.00  0.00     0.000 C 
BRANCH   3   4
ATOM      4  C   UNL     1      -4.318  91.013  -8.332  1.00  0.00     0.000 C 
BRANCH   4   5
ATOM      5  C   UNL     1      -5.247  92.013  -7.620  1.00  0.00     0.000 C 
BRANCH   5   6
ATOM      6  C   UNL     1      -4.633  93.414  -7.490  1.00  0.00     0.006 C 
BRANCH   6   7
ATOM      7  C   UNL     1      -5.334  94.408  -8.422  1.00  0.00     0.053 C 
BRANCH   7   8
ATOM      8  C   UNL     1      -4.354  95.009  -9.379  1.00  0.00     0.041 C 
ATOM      9  O   UNL     1      -3.156  94.625  -9.385  1.00  0.00    -0.550 OA
ATOM     10  O   UNL     1      -4.776  95.962 -10.297  1.00  0.00    -0.550 OA
ENDBRANCH   7   8
ENDBRANCH   6   7
ENDBRANCH   5   6
ENDBRANCH   4   5
ENDBRANCH   3   4
ENDBRANCH   2   3
ENDBRANCH   1   2
BRANCH   1  11
ATOM     11  C   UNL     1      -5.503  93.198 -12.393  1.00  0.00     0.000 C 
BRANCH  11  12
ATOM     12  C   UNL     1      -4.039  93.116 -12.871  1.00  0.00    -0.000 C 
BRANCH  12  13
ATOM     13  C   UNL     1      -3.892  92.659 -14.333  1.00  0.00    -0.000 C 
BRANCH  13  14
ATOM     14  C   UNL     1      -3.885  91.129 -14.483  1.00  0.00    -0.000 C 
BRANCH  14  15
ATOM     15  C   UNL     1      -5.176  90.594 -15.125  1.00  0.00    -0.000 C 
BRANCH  15  16
ATOM     16  C   UNL     1      -5.881  89.541 -14.253  1.00  0.00    -0.000 C 
BRANCH  16  17
ATOM     17  C   UNL     1      -7.316  89.947 -13.884  1.00  0.00    -0.003 C 
ATOM     18  C   UNL     1      -7.713  91.303 -14.468  1.00  0.00     0.004 C 
ENDBRANCH  16  17
ENDBRANCH  15  16
ENDBRANCH  14  15
ENDBRANCH  13  14
ENDBRANCH  12  13
ENDBRANCH  11  12
ENDBRANCH   1  11
TORSDOF 14
ENDMDL
MODEL 5
REMARK VINA RESULT:    -3.802      8.394     10.018
REMARK INTER + INTRA:          -8.163
REMARK INTER:                  -5.881
REMARK INTRA:                  -2.282
REMARK UNBOUND:                -1.250
REMARK SMILES CCCCCCCCCCCCCCCC(=O)[O-]
REMARK SMILES IDX 9 1 10 2 11 3 12 4 13 5 14 6 15 7 16 8 17 9 18 10 8 11 7 12
REMARK SMILES IDX 6 13 5 14 4 15 3 16 2 17 1 18
REMARK H PARENT
REMARK Flexibility Score: inf
ROOT
ATOM      1  C   UNL     1      -4.345  92.785 -12.836  1.00  0.00     0.000 C 
ENDROOT
BRANCH   1   2
ATOM      2  C   UNL     1      -4.173  91.376 -12.247  1.00  0.00     0.000 C 
BRANCH   2   3
ATOM      3  C   UNL     1      -4.777  91.248 -10.838  1.00  0.00     0.000 C 
BRANCH   3   4
ATOM      4  C   UNL     1      -5.253  92.596 -10.267  1.00  0.00     0.000 C 
BRANCH   4   5
ATOM      5  C   UNL     1      -4.421  93.129  -9.086  1.00  0.00     0.000 C 
BRANCH   5   6
ATOM      6  C   UNL     1      -4.362  94.662  -9.038  1.00  0.00     0.006 C 
BRANCH   6   7
ATOM      7  C   UNL     1      -3.793  95.230 -10.342  1.00  0.00     0.053 C 
BRANCH   7   8
ATOM      8  C   UNL     1      -4.776  96.160 -10.981  1.00  0.00     0.041 C 
ATOM      9  O   UNL     1      -6.010  96.016 -10.780  1.00  0.00    -0.550 OA
ATOM     10  O   UNL     1      -4.325  97.217 -11.761  1.00  0.00    -0.550 OA
ENDBRANCH   7   8
ENDBRANCH   6   7
ENDBRANCH   5   6
ENDBRANCH   4   5
ENDBRANCH   3   4
ENDBRANCH   2   3
ENDBRANCH   1   2
BRANCH   1  11
ATOM     11  C   UNL     1      -4.072  92.832 -14.350  1.00  0.00     0.000 C 
BRANCH  11  12
ATOM     12  C   UNL     1      -3.569  91.477 -14.892  1.00  0.00    -0.000 C 
BRANCH  12  13
ATOM     13  C   UNL     1      -4.178  91.092 -16.251  1.00  0.00    -0.000 C 
BRANCH  13  14
ATOM     14  C   UNL     1      -5.652  90.668 -16.146  1.00  0.00    -0.000 C 
BRANCH  14  15
ATOM     15  C   UNL     1      -5.887  89.616 -15.050  1.00  0.00    -0.000 C 
BRANCH  15  16
ATOM     16  C   UNL     1      -7.017  90.009 -14.082  1.00  0.00    -0.000 C 
BRANCH  16  17
ATOM     17  C   UNL     1      -7.569  91.414 -14.363  1.00  0.00    -0.003 C 
ATOM     18  C   UNL     1      -8.023  92.134 -13.094  1.00  0.00     0.004 C 
ENDBRANCH  16  17
ENDBRANCH  15  16
ENDBRANCH  14  15
ENDBRANCH  13  14
ENDBRANCH  12  13
ENDBRANCH  11  12
ENDBRANCH   1  11
TORSDOF 14
ENDMDL
MODEL 6
REMARK VINA RESULT:    -3.790      7.232      9.530
REMARK INTER + INTRA:          -8.141
REMARK INTER:                  -6.370
REMARK INTRA:                  -1.771
REMARK UNBOUND:                -1.250
REMARK SMILES CCCCCCCCCCCCCCCC(=O)[O-]
REMARK SMILES IDX 9 1 10 2 11 3 12 4 13 5 14 6 15 7 16 8 17 9 18 10 8 11 7 12
REMARK SMILES IDX 6 13 5 14 4 15 3 16 2 17 1 18
REMARK H PARENT
REMARK Flexibility Score: inf
ROOT
ATOM      1  C   UNL     1      -4.177  92.744 -12.309  1.00  0.00     0.000 C 
ENDROOT
BRANCH   1   2
ATOM      2  C   UNL     1      -4.509  94.161 -11.816  1.00  0.00     0.000 C 
BRANCH   2   3
ATOM      3  C   UNL     1      -3.293  94.869 -11.194  1.00  0.00     0.000 C 
BRANCH   3   4
ATOM      4  C   UNL     1      -3.281  94.794  -9.656  1.00  0.00     0.000 C 
BRANCH   4   5
ATOM      5  C   UNL     1      -4.662  94.928  -8.989  1.00  0.00     0.000 C 
BRANCH   5   6
ATOM      6  C   UNL     1      -5.033  93.712  -8.129  1.00  0.00     0.006 C 
BRANCH   6   7
ATOM      7  C   UNL     1      -4.040  92.566  -8.342  1.00  0.00     0.053 C 
BRANCH   7   8
ATOM      8  C   UNL     1      -4.753  91.334  -8.803  1.00  0.00     0.041 C 
ATOM      9  O   UNL     1      -4.100  90.335  -9.202  1.00  0.00    -0.550 OA
ATOM     10  O   UNL     1      -6.140  91.272  -8.747  1.00  0.00    -0.550 OA
ENDBRANCH   7   8
ENDBRANCH   6   7
ENDBRANCH   5   6
ENDBRANCH   4   5
ENDBRANCH   3   4
ENDBRANCH   2   3
ENDBRANCH   1   2
BRANCH   1  11
ATOM     11  C   UNL     1      -3.993  92.677 -13.836  1.00  0.00     0.000 C 
BRANCH  11  12
ATOM     12  C   UNL     1      -3.776  91.232 -14.332  1.00  0.00    -0.000 C 
BRANCH  12  13
ATOM     13  C   UNL     1      -4.170  91.019 -15.803  1.00  0.00    -0.000 C 
BRANCH  13  14
ATOM     14  C   UNL     1      -5.600  90.477 -15.966  1.00  0.00    -0.000 C 
BRANCH  14  15
ATOM     15  C   UNL     1      -6.096  89.738 -14.712  1.00  0.00    -0.000 C 
BRANCH  15  16
ATOM     16  C   UNL     1      -7.354  90.383 -14.103  1.00  0.00    -0.000 C 
BRANCH  16  17
ATOM     17  C   UNL     1      -7.419  90.217 -12.577  1.00  0.00    -0.003 C 
ATOM     18  C   UNL     1      -6.201  89.488 -12.010  1.00  0.00     0.004 C 
ENDBRANCH  16  17
ENDBRANCH  15  16
ENDBRANCH  14  15
ENDBRANCH  13  14
ENDBRANCH  12  13
ENDBRANCH  11  12
ENDBRANCH   1  11
TORSDOF 14
ENDMDL
MODEL 7
REMARK VINA RESULT:    -3.781      7.407     10.592
REMARK INTER + INTRA:          -8.126
REMARK INTER:                  -6.192
REMARK INTRA:                  -1.934
REMARK UNBOUND:                -1.250
REMARK SMILES CCCCCCCCCCCCCCCC(=O)[O-]
REMARK SMILES IDX 9 1 10 2 11 3 12 4 13 5 14 6 15 7 16 8 17 9 18 10 8 11 7 12
REMARK SMILES IDX 6 13 5 14 4 15 3 16 2 17 1 18
REMARK H PARENT
REMARK Flexibility Score: inf
ROOT
ATOM      1  C   UNL     1      -4.242  93.169 -13.238  1.00  0.00     0.000 C 
ENDROOT
BRANCH   1   2
ATOM      2  C   UNL     1      -4.053  92.968 -14.749  1.00  0.00     0.000 C 
BRANCH   2   3
ATOM      3  C   UNL     1      -3.468  91.588 -15.093  1.00  0.00     0.000 C 
BRANCH   3   4
ATOM      4  C   UNL     1      -4.124  90.953 -16.334  1.00  0.00     0.000 C 
BRANCH   4   5
ATOM      5  C   UNL     1      -5.658  90.843 -16.270  1.00  0.00     0.000 C 
BRANCH   5   6
ATOM      6  C   UNL     1      -6.156  90.142 -14.997  1.00  0.00     0.006 C 
BRANCH   6   7
ATOM      7  C   UNL     1      -7.330  90.906 -14.376  1.00  0.00     0.053 C 
BRANCH   7   8
ATOM      8  C   UNL     1      -8.150  89.997 -13.517  1.00  0.00     0.041 C 
ATOM      9  O   UNL     1      -9.405  90.094 -13.508  1.00  0.00    -0.550 OA
ATOM     10  O   UNL     1      -7.531  89.010 -12.760  1.00  0.00    -0.550 OA
ENDBRANCH   7   8
ENDBRANCH   6   7
ENDBRANCH   5   6
ENDBRANCH   4   5
ENDBRANCH   3   4
ENDBRANCH   2   3
ENDBRANCH   1   2
BRANCH   1  11
ATOM     11  C   UNL     1      -4.130  91.853 -12.448  1.00  0.00     0.000 C 
BRANCH  11  12
ATOM     12  C   UNL     1      -5.275  91.690 -11.426  1.00  0.00    -0.000 C 
BRANCH  12  13
ATOM     13  C   UNL     1      -4.906  90.807 -10.222  1.00  0.00    -0.000 C 
BRANCH  13  14
ATOM     14  C   UNL     1      -5.226  91.472  -8.873  1.00  0.00    -0.000 C 
BRANCH  14  15
ATOM     15  C   UNL     1      -4.065  92.334  -8.350  1.00  0.00    -0.000 C 
BRANCH  15  16
ATOM     16  C   UNL     1      -4.382  93.839  -8.382  1.00  0.00    -0.000 C 
BRANCH  16  17
ATOM     17  C   UNL     1      -3.672  94.566  -9.534  1.00  0.00    -0.003 C 
ATOM     18  C   UNL     1      -4.612  95.472 -10.328  1.00  0.00     0.004 C 
ENDBRANCH  16  17
ENDBRANCH  15  16
ENDBRANCH  14  15
ENDBRANCH  13  14
ENDBRANCH  12  13
ENDBRANCH  11  12
ENDBRANCH   1  11
TORSDOF 14
ENDMDL
MODEL 8
REMARK VINA RESULT:    -3.763      8.771     11.302
REMARK INTER + INTRA:          -8.092
REMARK INTER:                  -5.864
REMARK INTRA:                  -2.229
REMARK UNBOUND:                -1.250
REMARK SMILES CCCCCCCCCCCCCCCC(=O)[O-]
REMARK SMILES IDX 9 1 10 2 11 3 12 4 13 5 14 6 15 7 16 8 17 9 18 10 8 11 7 12
REMARK SMILES IDX 6 13 5 14 4 15 3 16 2 17 1 18
REMARK H PARENT
REMARK Flexibility Score: inf
ROOT
ATOM      1  C   UNL     1      -4.053  92.640 -12.936  1.00  0.00     0.000 C 
ENDROOT
BRANCH   1   2
ATOM      2  C   UNL     1      -4.507  91.172 -12.962  1.00  0.00     0.000 C 
BRANCH   2   3
ATOM      3  C   UNL     1      -5.992  91.019 -13.334  1.00  0.00     0.000 C 
BRANCH   3   4
ATOM      4  C   UNL     1      -6.222  90.009 -14.473  1.00  0.00     0.000 C 
BRANCH   4   5
ATOM      5  C   UNL     1      -5.550  90.374 -15.809  1.00  0.00     0.000 C 
BRANCH   5   6
ATOM      6  C   UNL     1      -5.958  91.762 -16.325  1.00  0.00     0.006 C 
BRANCH   6   7
ATOM      7  C   UNL     1      -4.725  92.603 -16.669  1.00  0.00     0.053 C 
BRANCH   7   8
ATOM      8  C   UNL     1      -4.099  92.120 -17.939  1.00  0.00     0.041 C 
ATOM      9  O   UNL     1      -2.974  91.557 -17.918  1.00  0.00    -0.550 OA
ATOM     10  O   UNL     1      -4.781  92.251 -19.142  1.00  0.00    -0.550 OA
ENDBRANCH   7   8
ENDBRANCH   6   7
ENDBRANCH   5   6
ENDBRANCH   4   5
ENDBRANCH   3   4
ENDBRANCH   2   3
ENDBRANCH   1   2
BRANCH   1  11
ATOM     11  C   UNL     1      -5.231  93.621 -12.805  1.00  0.00     0.000 C 
BRANCH  11  12
ATOM     12  C   UNL     1      -4.983  94.684 -11.713  1.00  0.00    -0.000 C 
BRANCH  12  13
ATOM     13  C   UNL     1      -3.503  94.836 -11.326  1.00  0.00    -0.000 C 
BRANCH  13  14
ATOM     14  C   UNL     1      -3.279  94.824  -9.805  1.00  0.00    -0.000 C 
BRANCH  14  15
ATOM     15  C   UNL     1      -4.515  94.333  -9.032  1.00  0.00    -0.000 C 
BRANCH  15  16
ATOM     16  C   UNL     1      -4.296  92.959  -8.375  1.00  0.00    -0.000 C 
BRANCH  16  17
ATOM     17  C   UNL     1      -4.718  91.797  -9.287  1.00  0.00    -0.003 C 
ATOM     18  C   UNL     1      -6.210  91.819  -9.618  1.00  0.00     0.004 C 
ENDBRANCH  16  17
ENDBRANCH  15  16
ENDBRANCH  14  15
ENDBRANCH  13  14
ENDBRANCH  12  13
ENDBRANCH  11  12
ENDBRANCH   1  11
TORSDOF 14
ENDMDL
MODEL 9
REMARK VINA RESULT:    -3.690      7.692     10.658
REMARK INTER + INTRA:          -7.959
REMARK INTER:                  -5.254
REMARK INTRA:                  -2.705
REMARK UNBOUND:                -1.250
REMARK SMILES CCCCCCCCCCCCCCCC(=O)[O-]
REMARK SMILES IDX 9 1 10 2 11 3 12 4 13 5 14 6 15 7 16 8 17 9 18 10 8 11 7 12
REMARK SMILES IDX 6 13 5 14 4 15 3 16 2 17 1 18
REMARK H PARENT
REMARK Flexibility Score: inf
ROOT
ATOM      1  C   UNL     1      -8.804  92.029 -12.598  1.00  0.00     0.000 C 
ENDROOT
BRANCH   1   2
ATOM      2  C   UNL     1      -7.885  93.123 -13.162  1.00  0.00     0.000 C 
BRANCH   2   3
ATOM      3  C   UNL     1      -8.024  93.284 -14.686  1.00  0.00     0.000 C 
BRANCH   3   4
ATOM      4  C   UNL     1      -6.674  93.200 -15.422  1.00  0.00     0.000 C 
BRANCH   4   5
ATOM      5  C   UNL     1      -6.741  92.576 -16.827  1.00  0.00     0.000 C 
BRANCH   5   6
ATOM      6  C   UNL     1      -5.531  91.684 -17.145  1.00  0.00     0.006 C 
BRANCH   6   7
ATOM      7  C   UNL     1      -4.408  91.901 -16.127  1.00  0.00     0.053 C 
BRANCH   7   8
ATOM      8  C   UNL     1      -3.089  91.500 -16.708  1.00  0.00     0.041 C 
ATOM      9  O   UNL     1      -2.108  91.269 -15.955  1.00  0.00    -0.550 OA
ATOM     10  O   UNL     1      -2.957  91.336 -18.081  1.00  0.00    -0.550 OA
ENDBRANCH   7   8
ENDBRANCH   6   7
ENDBRANCH   5   6
ENDBRANCH   4   5
ENDBRANCH   3   4
ENDBRANCH   2   3
ENDBRANCH   1   2
BRANCH   1  11
ATOM     11  C   UNL     1      -9.121  90.931 -13.629  1.00  0.00     0.000 C 
BRANCH  11  12
ATOM     12  C   UNL     1      -8.239  89.680 -13.435  1.00  0.00    -0.000 C 
BRANCH  12  13
ATOM     13  C   UNL     1      -7.011  89.641 -14.362  1.00  0.00    -0.000 C 
BRANCH  13  14
ATOM     14  C   UNL     1      -5.682  89.613 -13.590  1.00  0.00    -0.000 C 
BRANCH  14  15
ATOM     15  C   UNL     1      -5.872  89.832 -12.080  1.00  0.00    -0.000 C 
BRANCH  15  16
ATOM     16  C   UNL     1      -5.275  91.164 -11.594  1.00  0.00    -0.000 C 
BRANCH  16  17
ATOM     17  C   UNL     1      -4.125  91.654 -12.488  1.00  0.00    -0.003 C 
ATOM     18  C   UNL     1      -4.115  93.173 -12.656  1.00  0.00     0.004 C 
ENDBRANCH  16  17
ENDBRANCH  15  16
ENDBRANCH  14  15
ENDBRANCH  13  14
ENDBRANCH  12  13
ENDBRANCH  11  12
ENDBRANCH   1  11
TORSDOF 14
ENDMDL
