MODEL 1
REMARK VINA RESULT:    -3.650      0.000      0.000
REMARK INTER + INTRA:          -5.903
REMARK INTER:                  -5.570
REMARK INTRA:                  -0.334
REMARK UNBOUND:                -0.334
REMARK SMILES O=C([O-])CCCCCCCCC(=O)[O-]
REMARK SMILES IDX 7 1 6 2 5 3 4 4 2 5 1 6 3 7 8 8 9 9 10 10 11 11 12 12 13 13
REMARK SMILES IDX 14 14
REMARK H PARENT
REMARK Flexibility Score: inf
ROOT
ATOM      1  C   UNL     1     -18.710  34.228 -21.102  1.00  0.00     0.000 C 
ENDROOT
BRANCH   1   2
ATOM      2  C   UNL     1     -20.043  34.616 -20.444  1.00  0.00     0.000 C 
BRANCH   2   3
ATOM      3  C   UNL     1     -20.006  36.015 -19.810  1.00  0.00     0.006 C 
BRANCH   3   4
ATOM      4  C   UNL     1     -20.993  36.114 -18.643  1.00  0.00     0.053 C 
BRANCH   4   5
ATOM      5  C   UNL     1     -20.263  36.124 -17.337  1.00  0.00     0.041 C 
ATOM      6  O   UNL     1     -20.902  36.089 -16.253  1.00  0.00    -0.550 OA
ATOM      7  O   UNL     1     -18.874  36.120 -17.318  1.00  0.00    -0.550 OA
ENDBRANCH   4   5
ENDBRANCH   3   4
ENDBRANCH   2   3
ENDBRANCH   1   2
BRANCH   1   8
ATOM      8  C   UNL     1     -17.582  35.223 -20.786  1.00  0.00     0.000 C 
BRANCH   8   9
ATOM      9  C   UNL     1     -16.208  34.552 -20.911  1.00  0.00     0.000 C 
BRANCH   9  10
ATOM     10  C   UNL     1     -15.854  33.781 -19.634  1.00  0.00     0.006 C 
BRANCH  10  11
ATOM     11  C   UNL     1     -14.584  34.342 -18.988  1.00  0.00     0.053 C 
BRANCH  11  12
ATOM     12  C   UNL     1     -14.934  35.304 -17.896  1.00  0.00     0.041 C 
ATOM     13  O   UNL     1     -15.893  36.105 -18.041  1.00  0.00    -0.550 OA
ATOM     14  O   UNL     1     -14.170  35.347 -16.738  1.00  0.00    -0.550 OA
ENDBRANCH  11  12
ENDBRANCH  10  11
ENDBRANCH   9  10
ENDBRANCH   8   9
ENDBRANCH   1   8
TORSDOF 9
ENDMDL
MODEL 2
REMARK VINA RESULT:    -3.601      1.484      5.237
REMARK INTER + INTRA:          -5.829
REMARK INTER:                  -5.384
REMARK INTRA:                  -0.444
REMARK UNBOUND:                -0.334
REMARK SMILES O=C([O-])CCCCCCCCC(=O)[O-]
REMARK SMILES IDX 7 1 6 2 5 3 4 4 2 5 1 6 3 7 8 8 9 9 10 10 11 11 12 12 13 13
REMARK SMILES IDX 14 14
REMARK H PARENT
REMARK Flexibility Score: inf
ROOT
ATOM      1  C   UNL     1     -17.665  33.933 -19.577  1.00  0.00     0.000 C 
ENDROOT
BRANCH   1   2
ATOM      2  C   UNL     1     -16.274  33.375 -19.236  1.00  0.00     0.000 C 
BRANCH   2   3
ATOM      3  C   UNL     1     -15.135  34.254 -19.775  1.00  0.00     0.006 C 
BRANCH   3   4
ATOM      4  C   UNL     1     -14.080  34.509 -18.694  1.00  0.00     0.053 C 
BRANCH   4   5
ATOM      5  C   UNL     1     -14.626  35.407 -17.630  1.00  0.00     0.041 C 
ATOM      6  O   UNL     1     -15.636  36.124 -17.862  1.00  0.00    -0.550 OA
ATOM      7  O   UNL     1     -14.052  35.416 -16.365  1.00  0.00    -0.550 OA
ENDBRANCH   4   5
ENDBRANCH   3   4
ENDBRANCH   2   3
ENDBRANCH   1   2
BRANCH   1   8
ATOM      8  C   UNL     1     -17.642  34.886 -20.782  1.00  0.00     0.000 C 
BRANCH   8   9
ATOM      9  C   UNL     1     -18.658  36.022 -20.602  1.00  0.00     0.000 C 
BRANCH   9  10
ATOM     10  C   UNL     1     -20.040  35.612 -21.125  1.00  0.00     0.006 C 
BRANCH  10  11
ATOM     11  C   UNL     1     -21.118  35.836 -20.062  1.00  0.00     0.053 C 
BRANCH  11  12
ATOM     12  C   UNL     1     -21.005  34.811 -18.977  1.00  0.00     0.041 C 
ATOM     13  O   UNL     1     -20.787  35.167 -17.790  1.00  0.00    -0.550 OA
ATOM     14  O   UNL     1     -21.094  33.461 -19.286  1.00  0.00    -0.550 OA
ENDBRANCH  11  12
ENDBRANCH  10  11
ENDBRANCH   9  10
ENDBRANCH   8   9
ENDBRANCH   1   8
TORSDOF 9
ENDMDL
MODEL 3
REMARK VINA RESULT:    -3.295      1.240      1.582
REMARK INTER + INTRA:          -5.362
REMARK INTER:                  -5.384
REMARK INTRA:                   0.022
REMARK UNBOUND:                -0.334
REMARK SMILES O=C([O-])CCCCCCCCC(=O)[O-]
REMARK SMILES IDX 7 1 6 2 5 3 4 4 2 5 1 6 3 7 8 8 9 9 10 10 11 11 12 12 13 13
REMARK SMILES IDX 14 14
REMARK H PARENT
REMARK Flexibility Score: inf
ROOT
ATOM      1  C   UNL     1     -17.501  35.414 -20.920  1.00  0.00     0.000 C 
ENDROOT
BRANCH   1   2
ATOM      2  C   UNL     1     -18.939  34.875 -20.962  1.00  0.00     0.000 C 
BRANCH   2   3
ATOM      3  C   UNL     1     -19.986  35.990 -21.102  1.00  0.00     0.006 C 
BRANCH   3   4
ATOM      4  C   UNL     1     -20.974  35.965 -19.931  1.00  0.00     0.053 C 
BRANCH   4   5
ATOM      5  C   UNL     1     -20.527  34.988 -18.890  1.00  0.00     0.041 C 
ATOM      6  O   UNL     1     -19.892  35.387 -17.878  1.00  0.00    -0.550 OA
ATOM      7  O   UNL     1     -20.856  33.644 -19.009  1.00  0.00    -0.550 OA
ENDBRANCH   4   5
ENDBRANCH   3   4
ENDBRANCH   2   3
ENDBRANCH   1   2
BRANCH   1   8
ATOM      8  C   UNL     1     -16.448  34.295 -20.923  1.00  0.00     0.000 C 
BRANCH   8   9
ATOM      9  C   UNL     1     -16.539  33.454 -19.643  1.00  0.00     0.000 C 
BRANCH   9  10
ATOM     10  C   UNL     1     -15.150  33.227 -19.033  1.00  0.00     0.006 C 
BRANCH  10  11
ATOM     11  C   UNL     1     -14.361  34.537 -18.961  1.00  0.00     0.053 C 
BRANCH  11  12
ATOM     12  C   UNL     1     -14.866  35.392 -17.841  1.00  0.00     0.041 C 
ATOM     13  O   UNL     1     -15.875  36.125 -18.010  1.00  0.00    -0.550 OA
ATOM     14  O   UNL     1     -14.193  35.415 -16.628  1.00  0.00    -0.550 OA
ENDBRANCH  11  12
ENDBRANCH  10  11
ENDBRANCH   9  10
ENDBRANCH   8   9
ENDBRANCH   1   8
TORSDOF 9
ENDMDL
MODEL 4
REMARK VINA RESULT:    -2.358      1.248      4.770
REMARK INTER + INTRA:          -3.932
REMARK INTER:                  -4.112
REMARK INTRA:                   0.179
REMARK UNBOUND:                -0.334
REMARK SMILES O=C([O-])CCCCCCCCC(=O)[O-]
REMARK SMILES IDX 7 1 6 2 5 3 4 4 2 5 1 6 3 7 8 8 9 9 10 10 11 11 12 12 13 13
REMARK SMILES IDX 14 14
REMARK H PARENT
REMARK Flexibility Score: inf
ROOT
ATOM      1  C   UNL     1     -18.346  34.561 -21.011  1.00  0.00     0.000 C 
ENDROOT
BRANCH   1   2
ATOM      2  C   UNL     1     -17.679  35.939 -20.880  1.00  0.00     0.000 C 
BRANCH   2   3
ATOM      3  C   UNL     1     -16.483  35.930 -19.915  1.00  0.00     0.006 C 
BRANCH   3   4
ATOM      4  C   UNL     1     -16.556  34.730 -18.966  1.00  0.00     0.053 C 
BRANCH   4   5
ATOM      5  C   UNL     1     -15.181  34.283 -18.580  1.00  0.00     0.041 C 
ATOM      6  O   UNL     1     -14.728  33.188 -19.004  1.00  0.00    -0.550 OA
ATOM      7  O   UNL     1     -14.379  35.101 -17.793  1.00  0.00    -0.550 OA
ENDBRANCH   4   5
ENDBRANCH   3   4
ENDBRANCH   2   3
ENDBRANCH   1   2
BRANCH   1   8
ATOM      8  C   UNL     1     -19.866  34.616 -20.793  1.00  0.00     0.000 C 
BRANCH   8   9
ATOM      9  C   UNL     1     -20.239  35.732 -19.809  1.00  0.00     0.000 C 
BRANCH   9  10
ATOM     10  C   UNL     1     -21.117  35.194 -18.672  1.00  0.00     0.006 C 
BRANCH  10  11
ATOM     11  C   UNL     1     -21.075  36.125 -17.458  1.00  0.00     0.053 C 
BRANCH  11  12
ATOM     12  C   UNL     1     -19.779  35.974 -16.727  1.00  0.00     0.041 C 
ATOM     13  O   UNL     1     -18.731  35.666 -17.353  1.00  0.00    -0.550 OA
ATOM     14  O   UNL     1     -19.738  36.125 -15.347  1.00  0.00    -0.550 OA
ENDBRANCH  11  12
ENDBRANCH  10  11
ENDBRANCH   9  10
ENDBRANCH   8   9
ENDBRANCH   1   8
TORSDOF 9
ENDMDL
MODEL 5
REMARK VINA RESULT:    -2.173      2.152      2.684
REMARK INTER + INTRA:          -3.650
REMARK INTER:                  -3.624
REMARK INTRA:                  -0.026
REMARK UNBOUND:                -0.334
REMARK SMILES O=C([O-])CCCCCCCCC(=O)[O-]
REMARK SMILES IDX 7 1 6 2 5 3 4 4 2 5 1 6 3 7 8 8 9 9 10 10 11 11 12 12 13 13
REMARK SMILES IDX 14 14
REMARK H PARENT
REMARK Flexibility Score: inf
ROOT
ATOM      1  C   UNL     1     -17.493  35.835 -20.233  1.00  0.00     0.000 C 
ENDROOT
BRANCH   1   2
ATOM      2  C   UNL     1     -18.619  35.291 -21.125  1.00  0.00     0.000 C 
BRANCH   2   3
ATOM      3  C   UNL     1     -19.923  36.093 -20.990  1.00  0.00     0.006 C 
BRANCH   3   4
ATOM      4  C   UNL     1     -21.117  35.163 -20.757  1.00  0.00     0.053 C 
BRANCH   4   5
ATOM      5  C   UNL     1     -21.083  34.603 -19.371  1.00  0.00     0.041 C 
ATOM      6  O   UNL     1     -20.971  33.362 -19.191  1.00  0.00    -0.550 OA
ATOM      7  O   UNL     1     -21.123  35.456 -18.275  1.00  0.00    -0.550 OA
ENDBRANCH   4   5
ENDBRANCH   3   4
ENDBRANCH   2   3
ENDBRANCH   1   2
BRANCH   1   8
ATOM      8  C   UNL     1     -17.952  36.091 -18.789  1.00  0.00     0.000 C 
BRANCH   8   9
ATOM      9  C   UNL     1     -16.795  35.890 -17.802  1.00  0.00     0.000 C 
BRANCH   9  10
ATOM     10  C   UNL     1     -15.442  35.941 -18.522  1.00  0.00     0.006 C 
BRANCH  10  11
ATOM     11  C   UNL     1     -14.702  34.606 -18.394  1.00  0.00     0.053 C 
BRANCH  11  12
ATOM     12  C   UNL     1     -15.122  33.669 -19.482  1.00  0.00     0.041 C 
ATOM     13  O   UNL     1     -15.155  34.061 -20.678  1.00  0.00    -0.550 OA
ATOM     14  O   UNL     1     -15.523  32.377 -19.170  1.00  0.00    -0.550 OA
ENDBRANCH  11  12
ENDBRANCH  10  11
ENDBRANCH   9  10
ENDBRANCH   8   9
ENDBRANCH   1   8
TORSDOF 9
ENDMDL
MODEL 6
REMARK VINA RESULT:    -1.945      2.147      5.567
REMARK INTER + INTRA:          -3.302
REMARK INTER:                  -3.377
REMARK INTRA:                   0.075
REMARK UNBOUND:                -0.334
REMARK SMILES O=C([O-])CCCCCCCCC(=O)[O-]
REMARK SMILES IDX 7 1 6 2 5 3 4 4 2 5 1 6 3 7 8 8 9 9 10 10 11 11 12 12 13 13
REMARK SMILES IDX 14 14
REMARK H PARENT
REMARK Flexibility Score: inf
ROOT
ATOM      1  C   UNL     1     -17.116  35.882 -18.650  1.00  0.00     0.000 C 
ENDROOT
BRANCH   1   2
ATOM      2  C   UNL     1     -15.651  36.125 -18.255  1.00  0.00     0.000 C 
BRANCH   2   3
ATOM      3  C   UNL     1     -14.927  34.834 -17.840  1.00  0.00     0.006 C 
BRANCH   3   4
ATOM      4  C   UNL     1     -14.196  34.210 -19.032  1.00  0.00     0.053 C 
BRANCH   4   5
ATOM      5  C   UNL     1     -15.107  33.293 -19.785  1.00  0.00     0.041 C 
ATOM      6  O   UNL     1     -15.574  33.639 -20.902  1.00  0.00    -0.550 OA
ATOM      7  O   UNL     1     -15.400  32.033 -19.278  1.00  0.00    -0.550 OA
ENDBRANCH   4   5
ENDBRANCH   3   4
ENDBRANCH   2   3
ENDBRANCH   1   2
BRANCH   1   8
ATOM      8  C   UNL     1     -17.355  36.031 -20.160  1.00  0.00     0.000 C 
BRANCH   8   9
ATOM      9  C   UNL     1     -18.572  35.209 -20.607  1.00  0.00     0.000 C 
BRANCH   9  10
ATOM     10  C   UNL     1     -19.749  36.122 -20.971  1.00  0.00     0.006 C 
BRANCH  10  11
ATOM     11  C   UNL     1     -21.054  35.606 -20.360  1.00  0.00     0.053 C 
BRANCH  11  12
ATOM     12  C   UNL     1     -20.771  34.763 -19.157  1.00  0.00     0.041 C 
ATOM     13  O   UNL     1     -20.588  33.524 -19.281  1.00  0.00    -0.550 OA
ATOM     14  O   UNL     1     -20.758  35.338 -17.893  1.00  0.00    -0.550 OA
ENDBRANCH  11  12
ENDBRANCH  10  11
ENDBRANCH   9  10
ENDBRANCH   8   9
ENDBRANCH   1   8
TORSDOF 9
ENDMDL
MODEL 7
REMARK VINA RESULT:    -1.011      2.285      3.931
REMARK INTER + INTRA:          -1.877
REMARK INTER:                  -3.026
REMARK INTRA:                   1.149
REMARK UNBOUND:                -0.334
REMARK SMILES O=C([O-])CCCCCCCCC(=O)[O-]
REMARK SMILES IDX 7 1 6 2 5 3 4 4 2 5 1 6 3 7 8 8 9 9 10 10 11 11 12 12 13 13
REMARK SMILES IDX 14 14
REMARK H PARENT
REMARK Flexibility Score: inf
ROOT
ATOM      1  C   UNL     1     -15.765  34.014 -20.195  1.00  0.00     0.000 C 
ENDROOT
BRANCH   1   2
ATOM      2  C   UNL     1     -16.767  34.718 -21.123  1.00  0.00     0.000 C 
BRANCH   2   3
ATOM      3  C   UNL     1     -18.057  35.132 -20.398  1.00  0.00     0.006 C 
BRANCH   3   4
ATOM      4  C   UNL     1     -19.288  34.528 -21.081  1.00  0.00     0.053 C 
BRANCH   4   5
ATOM      5  C   UNL     1     -20.499  34.691 -20.219  1.00  0.00     0.041 C 
ATOM      6  O   UNL     1     -21.076  35.807 -20.141  1.00  0.00    -0.550 OA
ATOM      7  O   UNL     1     -21.022  33.597 -19.541  1.00  0.00    -0.550 OA
ENDBRANCH   4   5
ENDBRANCH   3   4
ENDBRANCH   2   3
ENDBRANCH   1   2
BRANCH   1   8
ATOM      8  C   UNL     1     -16.231  33.988 -18.731  1.00  0.00     0.000 C 
BRANCH   8   9
ATOM      9  C   UNL     1     -16.445  35.410 -18.198  1.00  0.00     0.000 C 
BRANCH   9  10
ATOM     10  C   UNL     1     -17.563  35.442 -17.148  1.00  0.00     0.006 C 
BRANCH  10  11
ATOM     11  C   UNL     1     -18.821  36.111 -17.708  1.00  0.00     0.053 C 
BRANCH  11  12
ATOM     12  C   UNL     1     -19.922  36.086 -16.694  1.00  0.00     0.041 C 
ATOM     13  O   UNL     1     -21.124  36.125 -17.064  1.00  0.00    -0.550 OA
ATOM     14  O   UNL     1     -19.619  36.069 -15.340  1.00  0.00    -0.550 OA
ENDBRANCH  11  12
ENDBRANCH  10  11
ENDBRANCH   9  10
ENDBRANCH   8   9
ENDBRANCH   1   8
TORSDOF 9
ENDMDL
