MODEL 1
REMARK VINA RESULT:    -3.825      0.000      0.000
REMARK INTER + INTRA:          -6.586
REMARK INTER:                  -5.837
REMARK INTRA:                  -0.749
REMARK UNBOUND:                -0.749
REMARK SMILES O=C([O-])CCCCCCCCC(=O)[O-]
REMARK SMILES IDX 7 1 6 2 5 3 4 4 2 5 1 6 3 7 8 8 9 9 10 10 11 11 12 12 13 13
REMARK SMILES IDX 14 14
REMARK H PARENT
REMARK Flexibility Score: inf
ROOT
ATOM      1  C   UNL     1      -2.036  17.703  -5.507  1.00  0.00     0.000 C 
ENDROOT
BRANCH   1   2
ATOM      2  C   UNL     1      -0.565  17.265  -5.516  1.00  0.00     0.000 C 
BRANCH   2   3
ATOM      3  C   UNL     1       0.016  17.261  -4.097  1.00  0.00     0.006 C 
BRANCH   3   4
ATOM      4  C   UNL     1      -0.019  15.855  -3.491  1.00  0.00     0.053 C 
BRANCH   4   5
ATOM      5  C   UNL     1      -0.690  15.878  -2.154  1.00  0.00     0.041 C 
ATOM      6  O   UNL     1      -0.002  15.918  -1.101  1.00  0.00    -0.550 OA
ATOM      7  O   UNL     1      -2.076  15.905  -2.073  1.00  0.00    -0.550 OA
ENDBRANCH   4   5
ENDBRANCH   3   4
ENDBRANCH   2   3
ENDBRANCH   1   2
BRANCH   1   8
ATOM      8  C   UNL     1      -2.973  16.651  -6.122  1.00  0.00     0.000 C 
BRANCH   8   9
ATOM      9  C   UNL     1      -2.359  15.242  -6.124  1.00  0.00     0.000 C 
BRANCH   9  10
ATOM     10  C   UNL     1      -3.038  14.347  -5.081  1.00  0.00     0.006 C 
BRANCH  10  11
ATOM     11  C   UNL     1      -3.100  12.894  -5.560  1.00  0.00     0.053 C 
BRANCH  11  12
ATOM     12  C   UNL     1      -2.180  12.035  -4.751  1.00  0.00     0.041 C 
ATOM     13  O   UNL     1      -1.030  12.450  -4.449  1.00  0.00    -0.550 OA
ATOM     14  O   UNL     1      -2.608  10.798  -4.289  1.00  0.00    -0.550 OA
ENDBRANCH  11  12
ENDBRANCH  10  11
ENDBRANCH   9  10
ENDBRANCH   8   9
ENDBRANCH   1   8
TORSDOF 9
ENDMDL
MODEL 2
REMARK VINA RESULT:    -3.719      0.451      4.508
REMARK INTER + INTRA:          -6.425
REMARK INTER:                  -5.877
REMARK INTRA:                  -0.548
REMARK UNBOUND:                -0.749
REMARK SMILES O=C([O-])CCCCCCCCC(=O)[O-]
REMARK SMILES IDX 7 1 6 2 5 3 4 4 2 5 1 6 3 7 8 8 9 9 10 10 11 11 12 12 13 13
REMARK SMILES IDX 14 14
REMARK H PARENT
REMARK Flexibility Score: inf
ROOT
ATOM      1  C   UNL     1      -2.421  16.764  -5.541  1.00  0.00     0.000 C 
ENDROOT
BRANCH   1   2
ATOM      2  C   UNL     1      -2.472  15.343  -6.123  1.00  0.00     0.000 C 
BRANCH   2   3
ATOM      3  C   UNL     1      -3.140  14.372  -5.142  1.00  0.00     0.006 C 
BRANCH   3   4
ATOM      4  C   UNL     1      -3.106  12.938  -5.679  1.00  0.00     0.053 C 
BRANCH   4   5
ATOM      5  C   UNL     1      -2.328  12.052  -4.758  1.00  0.00     0.041 C 
ATOM      6  O   UNL     1      -2.857  11.017  -4.276  1.00  0.00    -0.550 OA
ATOM      7  O   UNL     1      -1.001  12.344  -4.470  1.00  0.00    -0.550 OA
ENDBRANCH   4   5
ENDBRANCH   3   4
ENDBRANCH   2   3
ENDBRANCH   1   2
BRANCH   1   8
ATOM      8  C   UNL     1      -1.073  17.459  -5.791  1.00  0.00     0.000 C 
BRANCH   8   9
ATOM      9  C   UNL     1      -0.410  17.947  -4.494  1.00  0.00     0.000 C 
BRANCH   9  10
ATOM     10  C   UNL     1       0.632  16.937  -3.998  1.00  0.00     0.006 C 
BRANCH  10  11
ATOM     11  C   UNL     1      -0.041  15.652  -3.506  1.00  0.00     0.053 C 
BRANCH  11  12
ATOM     12  C   UNL     1      -0.659  15.866  -2.161  1.00  0.00     0.041 C 
ATOM     13  O   UNL     1      -1.910  15.950  -2.045  1.00  0.00    -0.550 OA
ATOM     14  O   UNL     1       0.142  15.924  -1.028  1.00  0.00    -0.550 OA
ENDBRANCH  11  12
ENDBRANCH  10  11
ENDBRANCH   9  10
ENDBRANCH   8   9
ENDBRANCH   1   8
TORSDOF 9
ENDMDL
MODEL 3
REMARK VINA RESULT:    -3.597      2.417      2.942
REMARK INTER + INTRA:          -6.238
REMARK INTER:                  -5.681
REMARK INTRA:                  -0.557
REMARK UNBOUND:                -0.749
REMARK SMILES O=C([O-])CCCCCCCCC(=O)[O-]
REMARK SMILES IDX 7 1 6 2 5 3 4 4 2 5 1 6 3 7 8 8 9 9 10 10 11 11 12 12 13 13
REMARK SMILES IDX 14 14
REMARK H PARENT
REMARK Flexibility Score: inf
ROOT
ATOM      1  C   UNL     1      -1.660  15.904  -3.738  1.00  0.00     0.000 C 
ENDROOT
BRANCH   1   2
ATOM      2  C   UNL     1      -0.270  16.389  -3.300  1.00  0.00     0.000 C 
BRANCH   2   3
ATOM      3  C   UNL     1       0.660  16.552  -4.508  1.00  0.00     0.006 C 
BRANCH   3   4
ATOM      4  C   UNL     1       1.093  18.011  -4.676  1.00  0.00     0.053 C 
BRANCH   4   5
ATOM      5  C   UNL     1       2.562  18.094  -4.948  1.00  0.00     0.041 C 
ATOM      6  O   UNL     1       3.313  17.123  -4.671  1.00  0.00    -0.550 OA
ATOM      7  O   UNL     1       3.093  19.225  -5.553  1.00  0.00    -0.550 OA
ENDBRANCH   4   5
ENDBRANCH   3   4
ENDBRANCH   2   3
ENDBRANCH   1   2
BRANCH   1   8
ATOM      8  C   UNL     1      -2.073  16.451  -5.114  1.00  0.00     0.000 C 
BRANCH   8   9
ATOM      9  C   UNL     1      -2.730  15.384  -6.003  1.00  0.00     0.000 C 
BRANCH   9  10
ATOM     10  C   UNL     1      -3.342  14.264  -5.152  1.00  0.00     0.006 C 
BRANCH  10  11
ATOM     11  C   UNL     1      -3.023  12.888  -5.745  1.00  0.00     0.053 C 
BRANCH  11  12
ATOM     12  C   UNL     1      -2.164  12.100  -4.807  1.00  0.00     0.041 C 
ATOM     13  O   UNL     1      -1.013  12.512  -4.504  1.00  0.00    -0.550 OA
ATOM     14  O   UNL     1      -2.652  10.936  -4.228  1.00  0.00    -0.550 OA
ENDBRANCH  11  12
ENDBRANCH  10  11
ENDBRANCH   9  10
ENDBRANCH   8   9
ENDBRANCH   1   8
TORSDOF 9
ENDMDL
MODEL 4
REMARK VINA RESULT:    -3.419      2.171      3.070
REMARK INTER + INTRA:          -5.966
REMARK INTER:                  -5.225
REMARK INTRA:                  -0.741
REMARK UNBOUND:                -0.749
REMARK SMILES O=C([O-])CCCCCCCCC(=O)[O-]
REMARK SMILES IDX 7 1 6 2 5 3 4 4 2 5 1 6 3 7 8 8 9 9 10 10 11 11 12 12 13 13
REMARK SMILES IDX 14 14
REMARK H PARENT
REMARK Flexibility Score: inf
ROOT
ATOM      1  C   UNL     1      -0.435  16.282  -3.295  1.00  0.00     0.000 C 
ENDROOT
BRANCH   1   2
ATOM      2  C   UNL     1       0.034  17.411  -4.225  1.00  0.00     0.000 C 
BRANCH   2   3
ATOM      3  C   UNL     1       1.534  17.290  -4.522  1.00  0.00     0.006 C 
BRANCH   3   4
ATOM      4  C   UNL     1       1.774  16.711  -5.919  1.00  0.00     0.053 C 
BRANCH   4   5
ATOM      5  C   UNL     1       2.241  15.293  -5.825  1.00  0.00     0.041 C 
ATOM      6  O   UNL     1       3.437  15.001  -6.089  1.00  0.00    -0.550 OA
ATOM      7  O   UNL     1       1.368  14.301  -5.399  1.00  0.00    -0.550 OA
ENDBRANCH   4   5
ENDBRANCH   3   4
ENDBRANCH   2   3
ENDBRANCH   1   2
BRANCH   1   8
ATOM      8  C   UNL     1      -1.839  15.767  -3.649  1.00  0.00     0.000 C 
BRANCH   8   9
ATOM      9  C   UNL     1      -2.176  15.943  -5.138  1.00  0.00     0.000 C 
BRANCH   9  10
ATOM     10  C   UNL     1      -2.397  14.584  -5.814  1.00  0.00     0.006 C 
BRANCH  10  11
ATOM     11  C   UNL     1      -3.283  13.680  -4.951  1.00  0.00     0.053 C 
BRANCH  11  12
ATOM     12  C   UNL     1      -2.596  12.379  -4.679  1.00  0.00     0.041 C 
ATOM     13  O   UNL     1      -3.262  11.312  -4.617  1.00  0.00    -0.550 OA
ATOM     14  O   UNL     1      -1.214  12.337  -4.543  1.00  0.00    -0.550 OA
ENDBRANCH  11  12
ENDBRANCH  10  11
ENDBRANCH   9  10
ENDBRANCH   8   9
ENDBRANCH   1   8
TORSDOF 9
ENDMDL
MODEL 5
REMARK VINA RESULT:    -3.387      2.421      5.487
REMARK INTER + INTRA:          -5.917
REMARK INTER:                  -5.318
REMARK INTRA:                  -0.599
REMARK UNBOUND:                -0.749
REMARK SMILES O=C([O-])CCCCCCCCC(=O)[O-]
REMARK SMILES IDX 7 1 6 2 5 3 4 4 2 5 1 6 3 7 8 8 9 9 10 10 11 11 12 12 13 13
REMARK SMILES IDX 14 14
REMARK H PARENT
REMARK Flexibility Score: inf
ROOT
ATOM      1  C   UNL     1      -2.244  15.887  -5.860  1.00  0.00     0.000 C 
ENDROOT
BRANCH   1   2
ATOM      2  C   UNL     1      -2.496  15.320  -4.456  1.00  0.00     0.000 C 
BRANCH   2   3
ATOM      3  C   UNL     1      -3.423  14.099  -4.515  1.00  0.00     0.006 C 
BRANCH   3   4
ATOM      4  C   UNL     1      -2.866  13.030  -5.459  1.00  0.00     0.053 C 
BRANCH   4   5
ATOM      5  C   UNL     1      -2.182  11.950  -4.682  1.00  0.00     0.041 C 
ATOM      6  O   UNL     1      -2.807  10.905  -4.365  1.00  0.00    -0.550 OA
ATOM      7  O   UNL     1      -0.839  12.077  -4.351  1.00  0.00    -0.550 OA
ENDBRANCH   4   5
ENDBRANCH   3   4
ENDBRANCH   2   3
ENDBRANCH   1   2
BRANCH   1   8
ATOM      8  C   UNL     1      -0.801  16.380  -6.051  1.00  0.00     0.000 C 
BRANCH   8   9
ATOM      9  C   UNL     1       0.179  15.744  -5.052  1.00  0.00     0.000 C 
BRANCH   9  10
ATOM     10  C   UNL     1       0.696  16.787  -4.054  1.00  0.00     0.006 C 
BRANCH  10  11
ATOM     11  C   UNL     1       1.034  18.103  -4.761  1.00  0.00     0.053 C 
BRANCH  11  12
ATOM     12  C   UNL     1       2.507  18.205  -5.001  1.00  0.00     0.041 C 
ATOM     13  O   UNL     1       2.990  19.233  -5.545  1.00  0.00    -0.550 OA
ATOM     14  O   UNL     1       3.354  17.188  -4.579  1.00  0.00    -0.550 OA
ENDBRANCH  11  12
ENDBRANCH  10  11
ENDBRANCH   9  10
ENDBRANCH   8   9
ENDBRANCH   1   8
TORSDOF 9
ENDMDL
MODEL 6
REMARK VINA RESULT:    -3.277      5.278      6.989
REMARK INTER + INTRA:          -5.750
REMARK INTER:                  -5.482
REMARK INTRA:                  -0.268
REMARK UNBOUND:                -0.749
REMARK SMILES O=C([O-])CCCCCCCCC(=O)[O-]
REMARK SMILES IDX 7 1 6 2 5 3 4 4 2 5 1 6 3 7 8 8 9 9 10 10 11 11 12 12 13 13
REMARK SMILES IDX 14 14
REMARK H PARENT
REMARK Flexibility Score: inf
ROOT
ATOM      1  C   UNL     1       0.924  11.276  -2.875  1.00  0.00     0.000 C 
ENDROOT
BRANCH   1   2
ATOM      2  C   UNL     1       0.534  12.364  -3.886  1.00  0.00     0.000 C 
BRANCH   2   3
ATOM      3  C   UNL     1      -0.943  12.244  -4.280  1.00  0.00     0.006 C 
BRANCH   3   4
ATOM      4  C   UNL     1      -1.506  13.596  -4.726  1.00  0.00     0.053 C 
BRANCH   4   5
ATOM      5  C   UNL     1      -2.977  13.495  -4.976  1.00  0.00     0.041 C 
ATOM      6  O   UNL     1      -3.794  14.013  -4.170  1.00  0.00    -0.550 OA
ATOM      7  O   UNL     1      -3.445  12.871  -6.125  1.00  0.00    -0.550 OA
ENDBRANCH   4   5
ENDBRANCH   3   4
ENDBRANCH   2   3
ENDBRANCH   1   2
BRANCH   1   8
ATOM      8  C   UNL     1       2.164  10.478  -3.311  1.00  0.00     0.000 C 
BRANCH   8   9
ATOM      9  C   UNL     1       2.651   9.502  -2.228  1.00  0.00     0.000 C 
BRANCH   9  10
ATOM     10  C   UNL     1       1.688   9.485  -1.035  1.00  0.00     0.006 C 
BRANCH  10  11
ATOM     11  C   UNL     1       1.491   8.060  -0.509  1.00  0.00     0.053 C 
BRANCH  11  12
ATOM     12  C   UNL     1       2.321   7.834   0.716  1.00  0.00     0.041 C 
ATOM     13  O   UNL     1       2.015   6.921   1.528  1.00  0.00    -0.550 OA
ATOM     14  O   UNL     1       3.459   8.599   0.936  1.00  0.00    -0.550 OA
ENDBRANCH  11  12
ENDBRANCH  10  11
ENDBRANCH   9  10
ENDBRANCH   8   9
ENDBRANCH   1   8
TORSDOF 9
ENDMDL
MODEL 7
REMARK VINA RESULT:    -3.188      5.537      7.370
REMARK INTER + INTRA:          -5.614
REMARK INTER:                  -5.184
REMARK INTRA:                  -0.430
REMARK UNBOUND:                -0.749
REMARK SMILES O=C([O-])CCCCCCCCC(=O)[O-]
REMARK SMILES IDX 7 1 6 2 5 3 4 4 2 5 1 6 3 7 8 8 9 9 10 10 11 11 12 12 13 13
REMARK SMILES IDX 14 14
REMARK H PARENT
REMARK Flexibility Score: inf
ROOT
ATOM      1  C   UNL     1       1.950   9.958  -1.950  1.00  0.00     0.000 C 
ENDROOT
BRANCH   1   2
ATOM      2  C   UNL     1       0.796  10.138  -0.952  1.00  0.00     0.000 C 
BRANCH   2   3
ATOM      3  C   UNL     1       0.786   9.010   0.086  1.00  0.00     0.006 C 
BRANCH   3   4
ATOM      4  C   UNL     1       1.818   7.933  -0.262  1.00  0.00     0.053 C 
BRANCH   4   5
ATOM      5  C   UNL     1       2.776   7.741   0.871  1.00  0.00     0.041 C 
ATOM      6  O   UNL     1       3.700   8.573   1.069  1.00  0.00    -0.550 OA
ATOM      7  O   UNL     1       2.619   6.668   1.739  1.00  0.00    -0.550 OA
ENDBRANCH   4   5
ENDBRANCH   3   4
ENDBRANCH   2   3
ENDBRANCH   1   2
BRANCH   1   8
ATOM      8  C   UNL     1       1.769  10.798  -3.225  1.00  0.00     0.000 C 
BRANCH   8   9
ATOM      9  C   UNL     1       0.556  11.738  -3.147  1.00  0.00     0.000 C 
BRANCH   9  10
ATOM     10  C   UNL     1       0.588  12.767  -4.283  1.00  0.00     0.006 C 
BRANCH  10  11
ATOM     11  C   UNL     1      -0.168  14.041  -3.892  1.00  0.00     0.053 C 
BRANCH  11  12
ATOM     12  C   UNL     1      -1.397  14.199  -4.731  1.00  0.00     0.041 C 
ATOM     13  O   UNL     1      -2.061  13.187  -5.077  1.00  0.00    -0.550 OA
ATOM     14  O   UNL     1      -1.837  15.467  -5.089  1.00  0.00    -0.550 OA
ENDBRANCH  11  12
ENDBRANCH  10  11
ENDBRANCH   9  10
ENDBRANCH   8   9
ENDBRANCH   1   8
TORSDOF 9
ENDMDL
MODEL 8
REMARK VINA RESULT:    -3.151      4.622      6.056
REMARK INTER + INTRA:          -5.557
REMARK INTER:                  -5.201
REMARK INTRA:                  -0.356
REMARK UNBOUND:                -0.749
REMARK SMILES O=C([O-])CCCCCCCCC(=O)[O-]
REMARK SMILES IDX 7 1 6 2 5 3 4 4 2 5 1 6 3 7 8 8 9 9 10 10 11 11 12 12 13 13
REMARK SMILES IDX 14 14
REMARK H PARENT
REMARK Flexibility Score: inf
ROOT
ATOM      1  C   UNL     1       0.400  12.150  -3.786  1.00  0.00     0.000 C 
ENDROOT
BRANCH   1   2
ATOM      2  C   UNL     1      -1.065  12.069  -4.241  1.00  0.00     0.000 C 
BRANCH   2   3
ATOM      3  C   UNL     1      -1.583  13.446  -4.673  1.00  0.00     0.006 C 
BRANCH   3   4
ATOM      4  C   UNL     1      -0.501  14.517  -4.510  1.00  0.00     0.053 C 
BRANCH   4   5
ATOM      5  C   UNL     1      -1.045  15.706  -3.783  1.00  0.00     0.041 C 
ATOM      6  O   UNL     1      -1.825  16.504  -4.366  1.00  0.00    -0.550 OA
ATOM      7  O   UNL     1      -0.731  15.905  -2.445  1.00  0.00    -0.550 OA
ENDBRANCH   4   5
ENDBRANCH   3   4
ENDBRANCH   2   3
ENDBRANCH   1   2
BRANCH   1   8
ATOM      8  C   UNL     1       0.768  11.054  -2.773  1.00  0.00     0.000 C 
BRANCH   8   9
ATOM      9  C   UNL     1       2.100  10.364  -3.107  1.00  0.00     0.000 C 
BRANCH   9  10
ATOM     10  C   UNL     1       2.606   9.544  -1.913  1.00  0.00     0.006 C 
BRANCH  10  11
ATOM     11  C   UNL     1       1.562   9.505  -0.793  1.00  0.00     0.053 C 
BRANCH  11  12
ATOM     12  C   UNL     1       2.010   8.598   0.309  1.00  0.00     0.041 C 
ATOM     13  O   UNL     1       1.250   7.684   0.725  1.00  0.00    -0.550 OA
ATOM     14  O   UNL     1       3.286   8.728   0.844  1.00  0.00    -0.550 OA
ENDBRANCH  11  12
ENDBRANCH  10  11
ENDBRANCH   9  10
ENDBRANCH   8   9
ENDBRANCH   1   8
TORSDOF 9
ENDMDL
MODEL 9
REMARK VINA RESULT:    -3.131      4.566      6.469
REMARK INTER + INTRA:          -5.527
REMARK INTER:                  -5.150
REMARK INTRA:                  -0.377
REMARK UNBOUND:                -0.749
REMARK SMILES O=C([O-])CCCCCCCCC(=O)[O-]
REMARK SMILES IDX 7 1 6 2 5 3 4 4 2 5 1 6 3 7 8 8 9 9 10 10 11 11 12 12 13 13
REMARK SMILES IDX 14 14
REMARK H PARENT
REMARK Flexibility Score: inf
ROOT
ATOM      1  C   UNL     1       0.765  11.191  -2.799  1.00  0.00     0.000 C 
ENDROOT
BRANCH   1   2
ATOM      2  C   UNL     1       2.133  10.553  -3.079  1.00  0.00     0.000 C 
BRANCH   2   3
ATOM      3  C   UNL     1       2.485   9.515  -2.007  1.00  0.00     0.006 C 
BRANCH   3   4
ATOM      4  C   UNL     1       1.436   9.498  -0.891  1.00  0.00     0.053 C 
BRANCH   4   5
ATOM      5  C   UNL     1       1.913   8.676   0.264  1.00  0.00     0.041 C 
ATOM      6  O   UNL     1       1.131   7.869   0.833  1.00  0.00    -0.550 OA
ATOM      7  O   UNL     1       3.234   8.764   0.680  1.00  0.00    -0.550 OA
ENDBRANCH   4   5
ENDBRANCH   3   4
ENDBRANCH   2   3
ENDBRANCH   1   2
BRANCH   1   8
ATOM      8  C   UNL     1       0.351  12.206  -3.877  1.00  0.00     0.000 C 
BRANCH   8   9
ATOM      9  C   UNL     1      -1.126  12.073  -4.279  1.00  0.00     0.000 C 
BRANCH   9  10
ATOM     10  C   UNL     1      -1.694  13.425  -4.728  1.00  0.00     0.006 C 
BRANCH  10  11
ATOM     11  C   UNL     1      -0.615  14.512  -4.698  1.00  0.00     0.053 C 
BRANCH  11  12
ATOM     12  C   UNL     1      -1.109  15.720  -3.966  1.00  0.00     0.041 C 
ATOM     13  O   UNL     1      -0.915  15.832  -2.726  1.00  0.00    -0.550 OA
ATOM     14  O   UNL     1      -1.741  16.744  -4.659  1.00  0.00    -0.550 OA
ENDBRANCH  11  12
ENDBRANCH  10  11
ENDBRANCH   9  10
ENDBRANCH   8   9
ENDBRANCH   1   8
TORSDOF 9
ENDMDL
