MODEL 1
REMARK VINA RESULT:    -3.636      0.000      0.000
REMARK INTER + INTRA:          -9.094
REMARK INTER:                  -6.825
REMARK INTRA:                  -2.269
REMARK UNBOUND:                -2.269
REMARK SMILES O=C([O-])CCCCCCCCCCCCCCC(=O)[O-]
REMARK SMILES IDX 10 1 9 2 8 3 7 4 6 5 5 6 4 7 2 8 1 9 3 10 11 11 12 12 13 13
REMARK SMILES IDX 14 14 15 15 16 16 17 17 18 18 19 19 20 20
REMARK H PARENT
REMARK Flexibility Score: inf
ROOT
ATOM      1  C   UNL     1     129.732 143.542 120.066  1.00  0.00     0.000 C 
ENDROOT
BRANCH   1   2
ATOM      2  C   UNL     1     130.974 144.451 120.076  1.00  0.00     0.000 C 
BRANCH   2   3
ATOM      3  C   UNL     1     130.640 145.921 119.769  1.00  0.00     0.000 C 
BRANCH   3   4
ATOM      4  C   UNL     1     131.725 146.892 120.264  1.00  0.00     0.000 C 
BRANCH   4   5
ATOM      5  C   UNL     1     132.345 146.449 121.601  1.00  0.00     0.000 C 
BRANCH   5   6
ATOM      6  C   UNL     1     133.873 146.608 121.624  1.00  0.00     0.006 C 
BRANCH   6   7
ATOM      7  C   UNL     1     134.515 146.379 120.248  1.00  0.00     0.053 C 
BRANCH   7   8
ATOM      8  C   UNL     1     134.744 144.918 120.017  1.00  0.00     0.041 C 
ATOM      9  O   UNL     1     135.236 144.202 120.929  1.00  0.00    -0.550 OA
ATOM     10  O   UNL     1     134.367 144.337 118.814  1.00  0.00    -0.550 OA
ENDBRANCH   7   8
ENDBRANCH   6   7
ENDBRANCH   5   6
ENDBRANCH   4   5
ENDBRANCH   3   4
ENDBRANCH   2   3
ENDBRANCH   1   2
BRANCH   1  11
ATOM     11  C   UNL     1     128.717 143.841 118.948  1.00  0.00     0.000 C 
BRANCH  11  12
ATOM     12  C   UNL     1     127.337 144.251 119.490  1.00  0.00     0.000 C 
BRANCH  12  13
ATOM     13  C   UNL     1     126.978 145.713 119.167  1.00  0.00     0.000 C 
BRANCH  13  14
ATOM     14  C   UNL     1     126.877 146.648 120.388  1.00  0.00     0.000 C 
BRANCH  14  15
ATOM     15  C   UNL     1     127.017 145.924 121.743  1.00  0.00     0.000 C 
BRANCH  15  16
ATOM     16  C   UNL     1     128.209 146.444 122.561  1.00  0.00     0.006 C 
BRANCH  16  17
ATOM     17  C   UNL     1     128.959 145.290 123.235  1.00  0.00     0.053 C 
BRANCH  17  18
ATOM     18  C   UNL     1     127.999 144.364 123.910  1.00  0.00     0.041 C 
ATOM     19  O   UNL     1     127.863 143.181 123.497  1.00  0.00    -0.550 OA
ATOM     20  O   UNL     1     127.290 144.789 125.025  1.00  0.00    -0.550 OA
ENDBRANCH  17  18
ENDBRANCH  16  17
ENDBRANCH  15  16
ENDBRANCH  14  15
ENDBRANCH  13  14
ENDBRANCH  12  13
ENDBRANCH  11  12
ENDBRANCH   1  11
TORSDOF 15
ENDMDL
MODEL 2
REMARK VINA RESULT:    -3.620      2.310      3.515
REMARK INTER + INTRA:          -9.063
REMARK INTER:                  -6.993
REMARK INTRA:                  -2.070
REMARK UNBOUND:                -2.269
REMARK SMILES O=C([O-])CCCCCCCCCCCCCCC(=O)[O-]
REMARK SMILES IDX 10 1 9 2 8 3 7 4 6 5 5 6 4 7 2 8 1 9 3 10 11 11 12 12 13 13
REMARK SMILES IDX 14 14 15 15 16 16 17 17 18 18 19 19 20 20
REMARK H PARENT
REMARK Flexibility Score: inf
ROOT
ATOM      1  C   UNL     1     129.137 146.368 122.162  1.00  0.00     0.000 C 
ENDROOT
BRANCH   1   2
ATOM      2  C   UNL     1     130.369 145.531 122.552  1.00  0.00     0.000 C 
BRANCH   2   3
ATOM      3  C   UNL     1     131.609 145.863 121.703  1.00  0.00     0.000 C 
BRANCH   3   4
ATOM      4  C   UNL     1     131.248 146.509 120.355  1.00  0.00     0.000 C 
BRANCH   4   5
ATOM      5  C   UNL     1     132.493 146.910 119.543  1.00  0.00     0.000 C 
BRANCH   5   6
ATOM      6  C   UNL     1     133.612 145.858 119.619  1.00  0.00     0.006 C 
BRANCH   6   7
ATOM      7  C   UNL     1     134.949 146.375 119.071  1.00  0.00     0.053 C 
BRANCH   7   8
ATOM      8  C   UNL     1     135.877 146.712 120.196  1.00  0.00     0.041 C 
ATOM      9  O   UNL     1     137.117 146.796 119.991  1.00  0.00    -0.550 OA
ATOM     10  O   UNL     1     135.368 146.987 121.459  1.00  0.00    -0.550 OA
ENDBRANCH   7   8
ENDBRANCH   6   7
ENDBRANCH   5   6
ENDBRANCH   4   5
ENDBRANCH   3   4
ENDBRANCH   2   3
ENDBRANCH   1   2
BRANCH   1  11
ATOM     11  C   UNL     1     127.782 145.673 122.388  1.00  0.00     0.000 C 
BRANCH  11  12
ATOM     12  C   UNL     1     126.896 145.671 121.130  1.00  0.00     0.000 C 
BRANCH  12  13
ATOM     13  C   UNL     1     127.689 145.940 119.839  1.00  0.00     0.000 C 
BRANCH  13  14
ATOM     14  C   UNL     1     128.089 144.682 119.042  1.00  0.00     0.000 C 
BRANCH  14  15
ATOM     15  C   UNL     1     127.604 143.361 119.675  1.00  0.00     0.000 C 
BRANCH  15  16
ATOM     16  C   UNL     1     128.759 142.546 120.279  1.00  0.00     0.006 C 
BRANCH  16  17
ATOM     17  C   UNL     1     130.112 143.037 119.756  1.00  0.00     0.053 C 
BRANCH  17  18
ATOM     18  C   UNL     1     131.216 142.162 120.257  1.00  0.00     0.041 C 
ATOM     19  O   UNL     1     131.706 141.271 119.514  1.00  0.00    -0.550 OA
ATOM     20  O   UNL     1     131.740 142.362 121.527  1.00  0.00    -0.550 OA
ENDBRANCH  17  18
ENDBRANCH  16  17
ENDBRANCH  15  16
ENDBRANCH  14  15
ENDBRANCH  13  14
ENDBRANCH  12  13
ENDBRANCH  11  12
ENDBRANCH   1  11
TORSDOF 15
ENDMDL
MODEL 3
REMARK VINA RESULT:    -3.597      1.674      2.363
REMARK INTER + INTRA:          -9.021
REMARK INTER:                  -7.157
REMARK INTRA:                  -1.864
REMARK UNBOUND:                -2.269
REMARK SMILES O=C([O-])CCCCCCCCCCCCCCC(=O)[O-]
REMARK SMILES IDX 10 1 9 2 8 3 7 4 6 5 5 6 4 7 2 8 1 9 3 10 11 11 12 12 13 13
REMARK SMILES IDX 14 14 15 15 16 16 17 17 18 18 19 19 20 20
REMARK H PARENT
REMARK Flexibility Score: inf
ROOT
ATOM      1  C   UNL     1     130.944 144.549 120.085  1.00  0.00     0.000 C 
ENDROOT
BRANCH   1   2
ATOM      2  C   UNL     1     130.661 146.021 119.736  1.00  0.00     0.000 C 
BRANCH   2   3
ATOM      3  C   UNL     1     131.919 146.905 119.813  1.00  0.00     0.000 C 
BRANCH   3   4
ATOM      4  C   UNL     1     133.201 146.092 120.056  1.00  0.00     0.000 C 
BRANCH   4   5
ATOM      5  C   UNL     1     134.348 146.508 119.118  1.00  0.00     0.000 C 
BRANCH   5   6
ATOM      6  C   UNL     1     134.848 145.345 118.246  1.00  0.00     0.006 C 
BRANCH   6   7
ATOM      7  C   UNL     1     134.404 143.974 118.774  1.00  0.00     0.053 C 
BRANCH   7   8
ATOM      8  C   UNL     1     135.586 143.193 119.256  1.00  0.00     0.041 C 
ATOM      9  O   UNL     1     136.731 143.715 119.259  1.00  0.00    -0.550 OA
ATOM     10  O   UNL     1     135.414 141.906 119.751  1.00  0.00    -0.550 OA
ENDBRANCH   7   8
ENDBRANCH   6   7
ENDBRANCH   5   6
ENDBRANCH   4   5
ENDBRANCH   3   4
ENDBRANCH   2   3
ENDBRANCH   1   2
BRANCH   1  11
ATOM     11  C   UNL     1     129.837 143.560 119.678  1.00  0.00     0.000 C 
BRANCH  11  12
ATOM     12  C   UNL     1     128.795 144.188 118.735  1.00  0.00     0.000 C 
BRANCH  12  13
ATOM     13  C   UNL     1     127.369 144.159 119.316  1.00  0.00     0.000 C 
BRANCH  13  14
ATOM     14  C   UNL     1     127.249 144.626 120.780  1.00  0.00     0.000 C 
BRANCH  14  15
ATOM     15  C   UNL     1     127.061 146.149 120.938  1.00  0.00     0.000 C 
BRANCH  15  16
ATOM     16  C   UNL     1     127.588 146.664 122.286  1.00  0.00     0.006 C 
BRANCH  16  17
ATOM     17  C   UNL     1     128.416 145.591 123.001  1.00  0.00     0.053 C 
BRANCH  17  18
ATOM     18  C   UNL     1     129.516 146.220 123.794  1.00  0.00     0.041 C 
ATOM     19  O   UNL     1     129.502 146.165 125.053  1.00  0.00    -0.550 OA
ATOM     20  O   UNL     1     130.583 146.824 123.144  1.00  0.00    -0.550 OA
ENDBRANCH  17  18
ENDBRANCH  16  17
ENDBRANCH  15  16
ENDBRANCH  14  15
ENDBRANCH  13  14
ENDBRANCH  12  13
ENDBRANCH  11  12
ENDBRANCH   1  11
TORSDOF 15
ENDMDL
MODEL 4
REMARK VINA RESULT:    -3.514      1.963      3.346
REMARK INTER + INTRA:          -8.864
REMARK INTER:                  -6.398
REMARK INTRA:                  -2.466
REMARK UNBOUND:                -2.269
REMARK SMILES O=C([O-])CCCCCCCCCCCCCCC(=O)[O-]
REMARK SMILES IDX 10 1 9 2 8 3 7 4 6 5 5 6 4 7 2 8 1 9 3 10 11 11 12 12 13 13
REMARK SMILES IDX 14 14 15 15 16 16 17 17 18 18 19 19 20 20
REMARK H PARENT
REMARK Flexibility Score: inf
ROOT
ATOM      1  C   UNL     1     127.344 144.530 120.269  1.00  0.00     0.000 C 
ENDROOT
BRANCH   1   2
ATOM      2  C   UNL     1     128.430 144.519 119.177  1.00  0.00     0.000 C 
BRANCH   2   3
ATOM      3  C   UNL     1     129.645 143.653 119.553  1.00  0.00     0.000 C 
BRANCH   3   4
ATOM      4  C   UNL     1     130.899 144.490 119.856  1.00  0.00     0.000 C 
BRANCH   4   5
ATOM      5  C   UNL     1     130.638 146.002 119.740  1.00  0.00     0.000 C 
BRANCH   5   6
ATOM      6  C   UNL     1     131.581 146.833 120.626  1.00  0.00     0.006 C 
BRANCH   6   7
ATOM      7  C   UNL     1     132.712 145.995 121.238  1.00  0.00     0.053 C 
BRANCH   7   8
ATOM      8  C   UNL     1     134.037 146.440 120.704  1.00  0.00     0.041 C 
ATOM      9  O   UNL     1     134.889 146.957 121.473  1.00  0.00    -0.550 OA
ATOM     10  O   UNL     1     134.352 146.235 119.366  1.00  0.00    -0.550 OA
ENDBRANCH   7   8
ENDBRANCH   6   7
ENDBRANCH   5   6
ENDBRANCH   4   5
ENDBRANCH   3   4
ENDBRANCH   2   3
ENDBRANCH   1   2
BRANCH   1  11
ATOM     11  C   UNL     1     126.878 145.930 120.707  1.00  0.00     0.000 C 
BRANCH  11  12
ATOM     12  C   UNL     1     127.741 146.519 121.837  1.00  0.00     0.000 C 
BRANCH  12  13
ATOM     13  C   UNL     1     127.965 145.531 122.996  1.00  0.00     0.000 C 
BRANCH  13  14
ATOM     14  C   UNL     1     129.432 145.118 123.229  1.00  0.00     0.000 C 
BRANCH  14  15
ATOM     15  C   UNL     1     129.638 143.596 123.376  1.00  0.00     0.000 C 
BRANCH  15  16
ATOM     16  C   UNL     1     128.314 142.819 123.297  1.00  0.00     0.006 C 
BRANCH  16  17
ATOM     17  C   UNL     1     128.501 141.367 123.747  1.00  0.00     0.053 C 
BRANCH  17  18
ATOM     18  C   UNL     1     128.225 140.428 122.616  1.00  0.00     0.041 C 
ATOM     19  O   UNL     1     127.761 140.864 121.529  1.00  0.00    -0.550 OA
ATOM     20  O   UNL     1     128.527 139.079 122.743  1.00  0.00    -0.550 OA
ENDBRANCH  17  18
ENDBRANCH  16  17
ENDBRANCH  15  16
ENDBRANCH  14  15
ENDBRANCH  13  14
ENDBRANCH  12  13
ENDBRANCH  11  12
ENDBRANCH   1  11
TORSDOF 15
ENDMDL
MODEL 5
REMARK VINA RESULT:    -3.497      1.715      3.307
REMARK INTER + INTRA:          -8.833
REMARK INTER:                  -6.792
REMARK INTRA:                  -2.040
REMARK UNBOUND:                -2.269
REMARK SMILES O=C([O-])CCCCCCCCCCCCCCC(=O)[O-]
REMARK SMILES IDX 10 1 9 2 8 3 7 4 6 5 5 6 4 7 2 8 1 9 3 10 11 11 12 12 13 13
REMARK SMILES IDX 14 14 15 15 16 16 17 17 18 18 19 19 20 20
REMARK H PARENT
REMARK Flexibility Score: inf
ROOT
ATOM      1  C   UNL     1     126.985 145.862 121.923  1.00  0.00     0.000 C 
ENDROOT
BRANCH   1   2
ATOM      2  C   UNL     1     127.197 146.963 122.979  1.00  0.00     0.000 C 
BRANCH   2   3
ATOM      3  C   UNL     1     128.476 146.754 123.809  1.00  0.00     0.000 C 
BRANCH   3   4
ATOM      4  C   UNL     1     129.606 146.093 123.002  1.00  0.00     0.000 C 
BRANCH   4   5
ATOM      5  C   UNL     1     130.980 146.250 123.676  1.00  0.00     0.000 C 
BRANCH   5   6
ATOM      6  C   UNL     1     132.122 146.408 122.659  1.00  0.00     0.006 C 
BRANCH   6   7
ATOM      7  C   UNL     1     131.620 146.484 121.210  1.00  0.00     0.053 C 
BRANCH   7   8
ATOM      8  C   UNL     1     132.262 145.417 120.380  1.00  0.00     0.041 C 
ATOM      9  O   UNL     1     131.552 144.589 119.752  1.00  0.00    -0.550 OA
ATOM     10  O   UNL     1     133.645 145.370 120.257  1.00  0.00    -0.550 OA
ENDBRANCH   7   8
ENDBRANCH   6   7
ENDBRANCH   5   6
ENDBRANCH   4   5
ENDBRANCH   3   4
ENDBRANCH   2   3
ENDBRANCH   1   2
BRANCH   1  11
ATOM     11  C   UNL     1     126.977 146.354 120.465  1.00  0.00     0.000 C 
BRANCH  11  12
ATOM     12  C   UNL     1     128.210 145.888 119.672  1.00  0.00     0.000 C 
BRANCH  12  13
ATOM     13  C   UNL     1     127.948 144.610 118.855  1.00  0.00     0.000 C 
BRANCH  13  14
ATOM     14  C   UNL     1     128.316 143.292 119.565  1.00  0.00     0.000 C 
BRANCH  14  15
ATOM     15  C   UNL     1     127.112 142.564 120.197  1.00  0.00     0.000 C 
BRANCH  15  16
ATOM     16  C   UNL     1     127.478 141.870 121.518  1.00  0.00     0.006 C 
BRANCH  16  17
ATOM     17  C   UNL     1     128.602 142.619 122.241  1.00  0.00     0.053 C 
BRANCH  17  18
ATOM     18  C   UNL     1     128.419 142.535 123.722  1.00  0.00     0.041 C 
ATOM     19  O   UNL     1     127.576 143.272 124.300  1.00  0.00    -0.550 OA
ATOM     20  O   UNL     1     129.143 141.609 124.461  1.00  0.00    -0.550 OA
ENDBRANCH  17  18
ENDBRANCH  16  17
ENDBRANCH  15  16
ENDBRANCH  14  15
ENDBRANCH  13  14
ENDBRANCH  12  13
ENDBRANCH  11  12
ENDBRANCH   1  11
TORSDOF 15
ENDMDL
MODEL 6
REMARK VINA RESULT:    -3.489      2.079      5.164
REMARK INTER + INTRA:          -8.818
REMARK INTER:                  -6.677
REMARK INTRA:                  -2.140
REMARK UNBOUND:                -2.269
REMARK SMILES O=C([O-])CCCCCCCCCCCCCCC(=O)[O-]
REMARK SMILES IDX 10 1 9 2 8 3 7 4 6 5 5 6 4 7 2 8 1 9 3 10 11 11 12 12 13 13
REMARK SMILES IDX 14 14 15 15 16 16 17 17 18 18 19 19 20 20
REMARK H PARENT
REMARK Flexibility Score: inf
ROOT
ATOM      1  C   UNL     1     126.908 145.903 119.548  1.00  0.00     0.000 C 
ENDROOT
BRANCH   1   2
ATOM      2  C   UNL     1     127.685 146.427 120.769  1.00  0.00     0.000 C 
BRANCH   2   3
ATOM      3  C   UNL     1     127.065 145.982 122.106  1.00  0.00     0.000 C 
BRANCH   3   4
ATOM      4  C   UNL     1     128.001 145.072 122.919  1.00  0.00     0.000 C 
BRANCH   4   5
ATOM      5  C   UNL     1     128.502 145.746 124.208  1.00  0.00     0.000 C 
BRANCH   5   6
ATOM      6  C   UNL     1     129.780 146.571 123.985  1.00  0.00     0.006 C 
BRANCH   6   7
ATOM      7  C   UNL     1     130.611 146.735 125.265  1.00  0.00     0.053 C 
BRANCH   7   8
ATOM      8  C   UNL     1     131.725 145.736 125.296  1.00  0.00     0.041 C 
ATOM      9  O   UNL     1     131.543 144.600 125.807  1.00  0.00    -0.550 OA
ATOM     10  O   UNL     1     132.948 146.040 124.712  1.00  0.00    -0.550 OA
ENDBRANCH   7   8
ENDBRANCH   6   7
ENDBRANCH   5   6
ENDBRANCH   4   5
ENDBRANCH   3   4
ENDBRANCH   2   3
ENDBRANCH   1   2
BRANCH   1  11
ATOM     11  C   UNL     1     127.601 144.764 118.778  1.00  0.00     0.000 C 
BRANCH  11  12
ATOM     12  C   UNL     1     127.551 143.421 119.528  1.00  0.00     0.000 C 
BRANCH  12  13
ATOM     13  C   UNL     1     128.948 142.895 119.905  1.00  0.00     0.000 C 
BRANCH  13  14
ATOM     14  C   UNL     1     130.127 143.763 119.423  1.00  0.00     0.000 C 
BRANCH  14  15
ATOM     15  C   UNL     1     130.843 144.529 120.555  1.00  0.00     0.000 C 
BRANCH  15  16
ATOM     16  C   UNL     1     131.252 145.948 120.130  1.00  0.00     0.006 C 
BRANCH  16  17
ATOM     17  C   UNL     1     132.187 146.584 121.163  1.00  0.00     0.053 C 
BRANCH  17  18
ATOM     18  C   UNL     1     133.608 146.500 120.705  1.00  0.00     0.041 C 
ATOM     19  O   UNL     1     133.881 146.025 119.570  1.00  0.00    -0.550 OA
ATOM     20  O   UNL     1     134.628 146.991 121.509  1.00  0.00    -0.550 OA
ENDBRANCH  17  18
ENDBRANCH  16  17
ENDBRANCH  15  16
ENDBRANCH  14  15
ENDBRANCH  13  14
ENDBRANCH  12  13
ENDBRANCH  11  12
ENDBRANCH   1  11
TORSDOF 15
ENDMDL
MODEL 7
REMARK VINA RESULT:    -3.454      3.462      5.875
REMARK INTER + INTRA:          -8.752
REMARK INTER:                  -6.862
REMARK INTRA:                  -1.890
REMARK UNBOUND:                -2.269
REMARK SMILES O=C([O-])CCCCCCCCCCCCCCC(=O)[O-]
REMARK SMILES IDX 10 1 9 2 8 3 7 4 6 5 5 6 4 7 2 8 1 9 3 10 11 11 12 12 13 13
REMARK SMILES IDX 14 14 15 15 16 16 17 17 18 18 19 19 20 20
REMARK H PARENT
REMARK Flexibility Score: inf
ROOT
ATOM      1  C   UNL     1     131.087 144.402 120.023  1.00  0.00     0.000 C 
ENDROOT
BRANCH   1   2
ATOM      2  C   UNL     1     130.191 145.637 119.821  1.00  0.00     0.000 C 
BRANCH   2   3
ATOM      3  C   UNL     1     128.768 145.274 119.361  1.00  0.00     0.000 C 
BRANCH   3   4
ATOM      4  C   UNL     1     127.697 146.201 119.958  1.00  0.00     0.000 C 
BRANCH   4   5
ATOM      5  C   UNL     1     127.048 145.611 121.224  1.00  0.00     0.000 C 
BRANCH   5   6
ATOM      6  C   UNL     1     126.997 146.617 122.384  1.00  0.00     0.006 C 
BRANCH   6   7
ATOM      7  C   UNL     1     127.545 146.038 123.696  1.00  0.00     0.053 C 
BRANCH   7   8
ATOM      8  C   UNL     1     129.037 145.934 123.636  1.00  0.00     0.041 C 
ATOM      9  O   UNL     1     129.715 146.847 123.096  1.00  0.00    -0.550 OA
ATOM     10  O   UNL     1     129.683 144.853 124.224  1.00  0.00    -0.550 OA
ENDBRANCH   7   8
ENDBRANCH   6   7
ENDBRANCH   5   6
ENDBRANCH   4   5
ENDBRANCH   3   4
ENDBRANCH   2   3
ENDBRANCH   1   2
BRANCH   1  11
ATOM     11  C   UNL     1     130.569 143.110 119.366  1.00  0.00     0.000 C 
BRANCH  11  12
ATOM     12  C   UNL     1     130.333 141.978 120.382  1.00  0.00     0.000 C 
BRANCH  12  13
ATOM     13  C   UNL     1     129.576 142.449 121.637  1.00  0.00     0.000 C 
BRANCH  13  14
ATOM     14  C   UNL     1     128.048 142.250 121.594  1.00  0.00     0.000 C 
BRANCH  14  15
ATOM     15  C   UNL     1     127.563 141.385 120.412  1.00  0.00     0.000 C 
BRANCH  15  16
ATOM     16  C   UNL     1     127.149 139.973 120.854  1.00  0.00     0.006 C 
BRANCH  16  17
ATOM     17  C   UNL     1     128.154 138.926 120.365  1.00  0.00     0.053 C 
BRANCH  17  18
ATOM     18  C   UNL     1     127.485 137.936 119.465  1.00  0.00     0.041 C 
ATOM     19  O   UNL     1     127.475 138.118 118.219  1.00  0.00    -0.550 OA
ATOM     20  O   UNL     1     126.915 136.788 119.998  1.00  0.00    -0.550 OA
ENDBRANCH  17  18
ENDBRANCH  16  17
ENDBRANCH  15  16
ENDBRANCH  14  15
ENDBRANCH  13  14
ENDBRANCH  12  13
ENDBRANCH  11  12
ENDBRANCH   1  11
TORSDOF 15
ENDMDL
MODEL 8
REMARK VINA RESULT:    -3.440      1.754      2.137
REMARK INTER + INTRA:          -8.725
REMARK INTER:                  -6.251
REMARK INTRA:                  -2.474
REMARK UNBOUND:                -2.269
REMARK SMILES O=C([O-])CCCCCCCCCCCCCCC(=O)[O-]
REMARK SMILES IDX 10 1 9 2 8 3 7 4 6 5 5 6 4 7 2 8 1 9 3 10 11 11 12 12 13 13
REMARK SMILES IDX 14 14 15 15 16 16 17 17 18 18 19 19 20 20
REMARK H PARENT
REMARK Flexibility Score: inf
ROOT
ATOM      1  C   UNL     1     130.033 143.551 120.004  1.00  0.00     0.000 C 
ENDROOT
BRANCH   1   2
ATOM      2  C   UNL     1     131.210 144.543 119.953  1.00  0.00     0.000 C 
BRANCH   2   3
ATOM      3  C   UNL     1     130.755 145.996 119.730  1.00  0.00     0.000 C 
BRANCH   3   4
ATOM      4  C   UNL     1     131.823 147.021 120.144  1.00  0.00     0.000 C 
BRANCH   4   5
ATOM      5  C   UNL     1     132.271 146.847 121.607  1.00  0.00     0.000 C 
BRANCH   5   6
ATOM      6  C   UNL     1     133.785 146.616 121.737  1.00  0.00     0.006 C 
BRANCH   6   7
ATOM      7  C   UNL     1     134.137 145.154 122.045  1.00  0.00     0.053 C 
BRANCH   7   8
ATOM      8  C   UNL     1     133.519 144.731 123.341  1.00  0.00     0.041 C 
ATOM      9  O   UNL     1     132.625 143.845 123.357  1.00  0.00    -0.550 OA
ATOM     10  O   UNL     1     133.968 145.277 124.537  1.00  0.00    -0.550 OA
ENDBRANCH   7   8
ENDBRANCH   6   7
ENDBRANCH   5   6
ENDBRANCH   4   5
ENDBRANCH   3   4
ENDBRANCH   2   3
ENDBRANCH   1   2
BRANCH   1  11
ATOM     11  C   UNL     1     128.925 143.805 118.967  1.00  0.00     0.000 C 
BRANCH  11  12
ATOM     12  C   UNL     1     127.565 144.123 119.614  1.00  0.00     0.000 C 
BRANCH  12  13
ATOM     13  C   UNL     1     127.061 145.539 119.281  1.00  0.00     0.000 C 
BRANCH  13  14
ATOM     14  C   UNL     1     126.995 146.509 120.478  1.00  0.00     0.000 C 
BRANCH  14  15
ATOM     15  C   UNL     1     127.296 145.845 121.838  1.00  0.00     0.000 C 
BRANCH  15  16
ATOM     16  C   UNL     1     128.526 146.456 122.526  1.00  0.00     0.006 C 
BRANCH  16  17
ATOM     17  C   UNL     1     129.371 145.374 123.205  1.00  0.00     0.053 C 
BRANCH  17  18
ATOM     18  C   UNL     1     129.576 145.699 124.650  1.00  0.00     0.041 C 
ATOM     19  O   UNL     1     130.705 146.080 125.061  1.00  0.00    -0.550 OA
ATOM     20  O   UNL     1     128.509 145.631 125.536  1.00  0.00    -0.550 OA
ENDBRANCH  17  18
ENDBRANCH  16  17
ENDBRANCH  15  16
ENDBRANCH  14  15
ENDBRANCH  13  14
ENDBRANCH  12  13
ENDBRANCH  11  12
ENDBRANCH   1  11
TORSDOF 15
ENDMDL
