MODEL 1
REMARK VINA RESULT:    -4.881      0.000      0.000
REMARK INTER + INTRA:          -5.969
REMARK INTER:                  -6.022
REMARK INTRA:                   0.053
REMARK UNBOUND:                 0.053
REMARK SMILES O=c1c(O)c(-c2cc(O)c(O)c(O)c2)oc2cc(O)cc(O)c12
REMARK SMILES IDX 5 1 3 2 2 3 1 4 23 5 21 6 20 7 18 8 17 9 16 10 15 11 6 12
REMARK SMILES IDX 7 13 8 14 14 15 10 16 12 17 9 18 11 20 13 22 4 24 22 26
REMARK SMILES IDX 19 28
REMARK H PARENT 9 19 11 21 13 23 4 25 22 27 19 29
REMARK Flexibility Score: inf
ROOT
ATOM      1  C   UNL     1     -12.580 -33.781  31.870  1.00  0.00     0.180 A 
ATOM      2  C   UNL     1     -12.263 -35.146  31.759  1.00  0.00     0.208 A 
ATOM      3  C   UNL     1     -12.493 -35.801  30.538  1.00  0.00     0.238 A 
ATOM      4  O   UNL     1     -12.157 -37.009  30.428  1.00  0.00    -0.285 OA
ATOM      5  C   UNL     1     -13.051 -35.088  29.451  1.00  0.00     0.111 A 
ATOM      6  C   UNL     1     -13.364 -35.661  28.181  1.00  0.00     0.134 A 
ATOM      7  C   UNL     1     -13.791 -34.832  27.136  1.00  0.00     0.093 A 
ATOM      8  C   UNL     1     -13.979 -33.462  27.333  1.00  0.00     0.123 A 
ATOM      9  C   UNL     1     -13.734 -32.904  28.585  1.00  0.00     0.094 A 
ATOM     10  C   UNL     1     -13.272 -33.698  29.638  1.00  0.00     0.146 A 
ATOM     11  O   UNL     1     -13.041 -33.124  30.813  1.00  0.00    -0.452 OA
ENDROOT
BRANCH   1  12
ATOM     12  C   UNL     1     -12.388 -33.029  33.131  1.00  0.00     0.029 A 
ATOM     13  C   UNL     1     -11.208 -33.151  33.884  1.00  0.00     0.062 A 
ATOM     14  C   UNL     1     -11.054 -32.450  35.088  1.00  0.00     0.162 A 
ATOM     15  C   UNL     1     -13.428 -32.222  33.618  1.00  0.00     0.062 A 
ATOM     16  C   UNL     1     -12.091 -31.625  35.556  1.00  0.00     0.200 A 
ATOM     17  C   UNL     1     -13.282 -31.517  34.817  1.00  0.00     0.162 A 
BRANCH  14  18
ATOM     18  O   UNL     1      -9.876 -32.573  35.822  1.00  0.00    -0.504 OA
ATOM     19  H   UNL     1      -8.968 -32.578  35.373  1.00  0.00     0.293 HD
ENDBRANCH  14  18
BRANCH  16  20
ATOM     20  O   UNL     1     -11.954 -30.917  36.750  1.00  0.00    -0.502 OA
ATOM     21  H   UNL     1     -11.117 -30.974  37.318  1.00  0.00     0.293 HD
ENDBRANCH  16  20
BRANCH  17  22
ATOM     22  O   UNL     1     -14.333 -30.713  35.259  1.00  0.00    -0.504 OA
ATOM     23  H   UNL     1     -15.302 -30.936  35.063  1.00  0.00     0.293 HD
ENDBRANCH  17  22
ENDBRANCH   1  12
BRANCH   2  24
ATOM     24  O   UNL     1     -11.693 -35.825  32.839  1.00  0.00    -0.502 OA
ATOM     25  H   UNL     1     -12.194 -35.989  33.704  1.00  0.00     0.293 HD
ENDBRANCH   2  24
BRANCH   6  26
ATOM     26  O   UNL     1     -13.299 -37.030  27.905  1.00  0.00    -0.507 OA
ATOM     27  H   UNL     1     -14.083 -37.663  27.955  1.00  0.00     0.293 HD
ENDBRANCH   6  26
BRANCH   8  28
ATOM     28  O   UNL     1     -14.420 -32.648  26.293  1.00  0.00    -0.508 OA
ATOM     29  H   UNL     1     -15.115 -32.967  25.628  1.00  0.00     0.293 HD
ENDBRANCH   8  28
TORSDOF 7
ENDMDL
MODEL 2
REMARK VINA RESULT:    -4.847      2.747      3.539
REMARK INTER + INTRA:          -5.928
REMARK INTER:                  -6.362
REMARK INTRA:                   0.434
REMARK UNBOUND:                 0.053
REMARK SMILES O=c1c(O)c(-c2cc(O)c(O)c(O)c2)oc2cc(O)cc(O)c12
REMARK SMILES IDX 5 1 3 2 2 3 1 4 23 5 21 6 20 7 18 8 17 9 16 10 15 11 6 12
REMARK SMILES IDX 7 13 8 14 14 15 10 16 12 17 9 18 11 20 13 22 4 24 22 26
REMARK SMILES IDX 19 28
REMARK H PARENT 9 19 11 21 13 23 4 25 22 27 19 29
REMARK Flexibility Score: inf
ROOT
ATOM      1  C   UNL     1     -10.373 -32.981  33.818  1.00  0.00     0.180 A 
ATOM      2  C   UNL     1     -10.177 -34.334  34.148  1.00  0.00     0.208 A 
ATOM      3  C   UNL     1     -10.253 -35.299  33.131  1.00  0.00     0.238 A 
ATOM      4  O   UNL     1     -10.023 -36.503  33.423  1.00  0.00    -0.285 OA
ATOM      5  C   UNL     1     -10.538 -34.904  31.803  1.00  0.00     0.111 A 
ATOM      6  C   UNL     1     -10.677 -35.801  30.702  1.00  0.00     0.134 A 
ATOM      7  C   UNL     1     -10.831 -35.288  29.408  1.00  0.00     0.093 A 
ATOM      8  C   UNL     1     -10.915 -33.912  29.183  1.00  0.00     0.123 A 
ATOM      9  C   UNL     1     -10.840 -33.031  30.259  1.00  0.00     0.094 A 
ATOM     10  C   UNL     1     -10.651 -33.510  31.558  1.00  0.00     0.146 A 
ATOM     11  O   UNL     1     -10.574 -32.635  32.553  1.00  0.00    -0.452 OA
ENDROOT
BRANCH   1  12
ATOM     12  C   UNL     1     -10.333 -31.909  34.839  1.00  0.00     0.029 A 
ATOM     13  C   UNL     1     -10.129 -30.565  34.480  1.00  0.00     0.062 A 
ATOM     14  C   UNL     1     -10.070 -29.567  35.462  1.00  0.00     0.162 A 
ATOM     15  C   UNL     1     -10.442 -32.244  36.197  1.00  0.00     0.062 A 
ATOM     16  C   UNL     1     -10.204 -29.909  36.818  1.00  0.00     0.200 A 
ATOM     17  C   UNL     1     -10.387 -31.254  37.183  1.00  0.00     0.162 A 
BRANCH  14  18
ATOM     18  O   UNL     1      -9.875 -28.236  35.094  1.00  0.00    -0.504 OA
ATOM     19  H   UNL     1     -10.422 -27.803  34.359  1.00  0.00     0.293 HD
ENDBRANCH  14  18
BRANCH  16  20
ATOM     20  O   UNL     1     -10.152 -28.927  37.809  1.00  0.00    -0.502 OA
ATOM     21  H   UNL     1     -10.888 -28.814  38.496  1.00  0.00     0.293 HD
ENDBRANCH  16  20
BRANCH  17  22
ATOM     22  O   UNL     1     -10.514 -31.626  38.521  1.00  0.00    -0.504 OA
ATOM     23  H   UNL     1     -11.261 -31.276  39.109  1.00  0.00     0.293 HD
ENDBRANCH  17  22
ENDBRANCH   1  12
BRANCH   2  24
ATOM     24  O   UNL     1      -9.875 -34.700  35.462  1.00  0.00    -0.502 OA
ATOM     25  H   UNL     1      -9.930 -34.047  36.235  1.00  0.00     0.293 HD
ENDBRANCH   2  24
BRANCH   6  26
ATOM     26  O   UNL     1     -10.700 -37.193  30.827  1.00  0.00    -0.507 OA
ATOM     27  H   UNL     1     -10.605 -37.840  30.059  1.00  0.00     0.293 HD
ENDBRANCH   6  26
BRANCH   8  28
ATOM     28  O   UNL     1     -11.084 -33.411  27.895  1.00  0.00    -0.508 OA
ATOM     29  H   UNL     1     -11.908 -32.882  27.636  1.00  0.00     0.293 HD
ENDBRANCH   8  28
TORSDOF 7
ENDMDL
MODEL 3
REMARK VINA RESULT:    -4.817      0.066      1.755
REMARK INTER + INTRA:          -5.890
REMARK INTER:                  -5.928
REMARK INTRA:                   0.037
REMARK UNBOUND:                 0.053
REMARK SMILES O=c1c(O)c(-c2cc(O)c(O)c(O)c2)oc2cc(O)cc(O)c12
REMARK SMILES IDX 5 1 3 2 2 3 1 4 23 5 21 6 20 7 18 8 17 9 16 10 15 11 6 12
REMARK SMILES IDX 7 13 8 14 14 15 10 16 12 17 9 18 11 20 13 22 4 24 22 26
REMARK SMILES IDX 19 28
REMARK H PARENT 9 19 11 21 13 23 4 25 22 27 19 29
REMARK Flexibility Score: inf
ROOT
ATOM      1  C   UNL     1     -12.657 -33.788  31.901  1.00  0.00     0.180 A 
ATOM      2  C   UNL     1     -12.316 -35.146  31.780  1.00  0.00     0.208 A 
ATOM      3  C   UNL     1     -12.517 -35.791  30.549  1.00  0.00     0.238 A 
ATOM      4  O   UNL     1     -12.159 -36.993  30.430  1.00  0.00    -0.285 OA
ATOM      5  C   UNL     1     -13.069 -35.075  29.461  1.00  0.00     0.111 A 
ATOM      6  C   UNL     1     -13.353 -35.639  28.180  1.00  0.00     0.134 A 
ATOM      7  C   UNL     1     -13.778 -34.805  27.138  1.00  0.00     0.093 A 
ATOM      8  C   UNL     1     -13.991 -33.441  27.347  1.00  0.00     0.123 A 
ATOM      9  C   UNL     1     -13.774 -32.893  28.608  1.00  0.00     0.094 A 
ATOM     10  C   UNL     1     -13.316 -33.692  29.660  1.00  0.00     0.146 A 
ATOM     11  O   UNL     1     -13.112 -33.127  30.844  1.00  0.00    -0.452 OA
ENDROOT
BRANCH   1  12
ATOM     12  C   UNL     1     -12.498 -33.047  33.173  1.00  0.00     0.029 A 
ATOM     13  C   UNL     1     -13.521 -32.222  33.673  1.00  0.00     0.062 A 
ATOM     14  C   UNL     1     -13.343 -31.509  34.866  1.00  0.00     0.162 A 
ATOM     15  C   UNL     1     -11.280 -33.120  33.867  1.00  0.00     0.062 A 
ATOM     16  C   UNL     1     -12.129 -31.607  35.566  1.00  0.00     0.200 A 
ATOM     17  C   UNL     1     -11.095 -32.413  35.060  1.00  0.00     0.162 A 
BRANCH  14  18
ATOM     18  O   UNL     1     -14.367 -30.701  35.356  1.00  0.00    -0.504 OA
ATOM     19  H   UNL     1     -14.173 -29.839  35.853  1.00  0.00     0.293 HD
ENDBRANCH  14  18
BRANCH  16  20
ATOM     20  O   UNL     1     -11.936 -30.908  36.759  1.00  0.00    -0.502 OA
ATOM     21  H   UNL     1     -11.141 -31.081  37.363  1.00  0.00     0.293 HD
ENDBRANCH  16  20
BRANCH  17  22
ATOM     22  O   UNL     1      -9.875 -32.525  35.727  1.00  0.00    -0.504 OA
ATOM     23  H   UNL     1      -9.793 -32.981  36.627  1.00  0.00     0.293 HD
ENDBRANCH  17  22
ENDBRANCH   1  12
BRANCH   2  24
ATOM     24  O   UNL     1     -11.751 -35.828  32.861  1.00  0.00    -0.502 OA
ATOM     25  H   UNL     1     -11.712 -36.840  32.905  1.00  0.00     0.293 HD
ENDBRANCH   2  24
BRANCH   6  26
ATOM     26  O   UNL     1     -13.261 -37.003  27.889  1.00  0.00    -0.507 OA
ATOM     27  H   UNL     1     -14.048 -37.599  27.682  1.00  0.00     0.293 HD
ENDBRANCH   6  26
BRANCH   8  28
ATOM     28  O   UNL     1     -14.429 -32.622  26.308  1.00  0.00    -0.508 OA
ATOM     29  H   UNL     1     -15.409 -32.391  26.193  1.00  0.00     0.293 HD
ENDBRANCH   8  28
TORSDOF 7
ENDMDL
MODEL 4
REMARK VINA RESULT:    -4.783      1.739      7.276
REMARK INTER + INTRA:          -5.849
REMARK INTER:                  -5.713
REMARK INTRA:                  -0.137
REMARK UNBOUND:                 0.053
REMARK SMILES O=c1c(O)c(-c2cc(O)c(O)c(O)c2)oc2cc(O)cc(O)c12
REMARK SMILES IDX 5 1 3 2 2 3 1 4 23 5 21 6 20 7 18 8 17 9 16 10 15 11 6 12
REMARK SMILES IDX 7 13 8 14 14 15 10 16 12 17 9 18 11 20 13 22 4 24 22 26
REMARK SMILES IDX 19 28
REMARK H PARENT 9 19 11 21 13 23 4 25 22 27 19 29
REMARK Flexibility Score: inf
ROOT
ATOM      1  C   UNL     1     -13.225 -33.955  32.369  1.00  0.00     0.180 A 
ATOM      2  C   UNL     1     -14.365 -33.135  32.421  1.00  0.00     0.208 A 
ATOM      3  C   UNL     1     -14.422 -32.109  33.378  1.00  0.00     0.238 A 
ATOM      4  O   UNL     1     -15.422 -31.343  33.385  1.00  0.00    -0.285 OA
ATOM      5  C   UNL     1     -13.348 -31.927  34.281  1.00  0.00     0.111 A 
ATOM      6  C   UNL     1     -13.316 -30.945  35.316  1.00  0.00     0.134 A 
ATOM      7  C   UNL     1     -12.146 -30.769  36.066  1.00  0.00     0.093 A 
ATOM      8  C   UNL     1     -11.030 -31.582  35.861  1.00  0.00     0.123 A 
ATOM      9  C   UNL     1     -11.072 -32.582  34.893  1.00  0.00     0.094 A 
ATOM     10  C   UNL     1     -12.212 -32.759  34.105  1.00  0.00     0.146 A 
ATOM     11  O   UNL     1     -12.205 -33.718  33.186  1.00  0.00    -0.452 OA
ENDROOT
BRANCH   1  12
ATOM     12  C   UNL     1     -13.102 -35.072  31.405  1.00  0.00     0.029 A 
ATOM     13  C   UNL     1     -13.153 -34.850  30.018  1.00  0.00     0.062 A 
ATOM     14  C   UNL     1     -13.059 -35.923  29.121  1.00  0.00     0.162 A 
ATOM     15  C   UNL     1     -12.992 -36.387  31.882  1.00  0.00     0.062 A 
ATOM     16  C   UNL     1     -12.925 -37.234  29.607  1.00  0.00     0.200 A 
ATOM     17  C   UNL     1     -12.896 -37.463  30.994  1.00  0.00     0.162 A 
BRANCH  14  18
ATOM     18  O   UNL     1     -13.104 -35.689  27.747  1.00  0.00    -0.504 OA
ATOM     19  H   UNL     1     -13.373 -36.415  27.093  1.00  0.00     0.293 HD
ENDBRANCH  14  18
BRANCH  16  20
ATOM     20  O   UNL     1     -12.827 -38.314  28.728  1.00  0.00    -0.502 OA
ATOM     21  H   UNL     1     -13.187 -39.232  28.959  1.00  0.00     0.293 HD
ENDBRANCH  16  20
BRANCH  17  22
ATOM     22  O   UNL     1     -12.772 -38.754  31.508  1.00  0.00    -0.504 OA
ATOM     23  H   UNL     1     -13.578 -39.315  31.756  1.00  0.00     0.293 HD
ENDBRANCH  17  22
ENDBRANCH   1  12
BRANCH   2  24
ATOM     24  O   UNL     1     -15.405 -33.319  31.507  1.00  0.00    -0.502 OA
ATOM     25  H   UNL     1     -16.245 -33.837  31.735  1.00  0.00     0.293 HD
ENDBRANCH   2  24
BRANCH   6  26
ATOM     26  O   UNL     1     -14.407 -30.142  35.665  1.00  0.00    -0.507 OA
ATOM     27  H   UNL     1     -14.402 -29.134  35.659  1.00  0.00     0.293 HD
ENDBRANCH   6  26
BRANCH   8  28
ATOM     28  O   UNL     1      -9.876 -31.411  36.622  1.00  0.00    -0.508 OA
ATOM     29  H   UNL     1      -9.749 -31.888  37.507  1.00  0.00     0.293 HD
ENDBRANCH   8  28
TORSDOF 7
ENDMDL
MODEL 5
REMARK VINA RESULT:    -4.406      1.127      6.863
REMARK INTER + INTRA:          -5.384
REMARK INTER:                  -5.526
REMARK INTRA:                   0.142
REMARK UNBOUND:                 0.053
REMARK SMILES O=c1c(O)c(-c2cc(O)c(O)c(O)c2)oc2cc(O)cc(O)c12
REMARK SMILES IDX 5 1 3 2 2 3 1 4 23 5 21 6 20 7 18 8 17 9 16 10 15 11 6 12
REMARK SMILES IDX 7 13 8 14 14 15 10 16 12 17 9 18 11 20 13 22 4 24 22 26
REMARK SMILES IDX 19 28
REMARK H PARENT 9 19 11 21 13 23 4 25 22 27 19 29
REMARK Flexibility Score: inf
ROOT
ATOM      1  C   UNL     1     -12.383 -33.714  31.759  1.00  0.00     0.180 A 
ATOM      2  C   UNL     1     -11.259 -34.323  32.342  1.00  0.00     0.208 A 
ATOM      3  C   UNL     1     -10.854 -33.918  33.624  1.00  0.00     0.238 A 
ATOM      4  O   UNL     1      -9.879 -34.505  34.164  1.00  0.00    -0.285 OA
ATOM      5  C   UNL     1     -11.568 -32.900  34.300  1.00  0.00     0.111 A 
ATOM      6  C   UNL     1     -11.223 -32.384  35.585  1.00  0.00     0.134 A 
ATOM      7  C   UNL     1     -12.077 -31.469  36.214  1.00  0.00     0.093 A 
ATOM      8  C   UNL     1     -13.229 -31.003  35.577  1.00  0.00     0.123 A 
ATOM      9  C   UNL     1     -13.542 -31.456  34.298  1.00  0.00     0.094 A 
ATOM     10  C   UNL     1     -12.730 -32.396  33.659  1.00  0.00     0.146 A 
ATOM     11  O   UNL     1     -13.071 -32.809  32.444  1.00  0.00    -0.452 OA
ENDROOT
BRANCH   1  12
ATOM     12  C   UNL     1     -12.856 -34.070  30.402  1.00  0.00     0.029 A 
ATOM     13  C   UNL     1     -12.832 -35.399  29.943  1.00  0.00     0.062 A 
ATOM     14  C   UNL     1     -13.261 -35.714  28.647  1.00  0.00     0.162 A 
ATOM     15  C   UNL     1     -13.281 -33.056  29.530  1.00  0.00     0.062 A 
ATOM     16  C   UNL     1     -13.707 -34.694  27.790  1.00  0.00     0.200 A 
ATOM     17  C   UNL     1     -13.712 -33.362  28.235  1.00  0.00     0.162 A 
BRANCH  14  18
ATOM     18  O   UNL     1     -13.240 -37.036  28.206  1.00  0.00    -0.504 OA
ATOM     19  H   UNL     1     -13.110 -37.269  27.229  1.00  0.00     0.293 HD
ENDBRANCH  14  18
BRANCH  16  20
ATOM     20  O   UNL     1     -14.141 -34.990  26.496  1.00  0.00    -0.502 OA
ATOM     21  H   UNL     1     -13.643 -35.636  25.895  1.00  0.00     0.293 HD
ENDBRANCH  16  20
BRANCH  17  22
ATOM     22  O   UNL     1     -14.142 -32.326  27.406  1.00  0.00    -0.504 OA
ATOM     23  H   UNL     1     -14.011 -32.350  26.401  1.00  0.00     0.293 HD
ENDBRANCH  17  22
ENDBRANCH   1  12
BRANCH   2  24
ATOM     24  O   UNL     1     -10.581 -35.342  31.667  1.00  0.00    -0.502 OA
ATOM     25  H   UNL     1     -10.148 -36.120  32.150  1.00  0.00     0.293 HD
ENDBRANCH   2  24
BRANCH   6  26
ATOM     26  O   UNL     1     -10.049 -32.713  36.269  1.00  0.00    -0.507 OA
ATOM     27  H   UNL     1      -9.140 -32.799  35.840  1.00  0.00     0.293 HD
ENDBRANCH   6  26
BRANCH   8  28
ATOM     28  O   UNL     1     -14.064 -30.081  36.203  1.00  0.00    -0.508 OA
ATOM     29  H   UNL     1     -14.834 -30.377  36.791  1.00  0.00     0.293 HD
ENDBRANCH   8  28
TORSDOF 7
ENDMDL
MODEL 6
REMARK VINA RESULT:    -4.248      1.477      3.298
REMARK INTER + INTRA:          -5.188
REMARK INTER:                  -5.031
REMARK INTRA:                  -0.158
REMARK UNBOUND:                 0.053
REMARK SMILES O=c1c(O)c(-c2cc(O)c(O)c(O)c2)oc2cc(O)cc(O)c12
REMARK SMILES IDX 5 1 3 2 2 3 1 4 23 5 21 6 20 7 18 8 17 9 16 10 15 11 6 12
REMARK SMILES IDX 7 13 8 14 14 15 10 16 12 17 9 18 11 20 13 22 4 24 22 26
REMARK SMILES IDX 19 28
REMARK H PARENT 9 19 11 21 13 23 4 25 22 27 19 29
REMARK Flexibility Score: inf
ROOT
ATOM      1  C   UNL     1     -12.742 -34.091  32.243  1.00  0.00     0.180 A 
ATOM      2  C   UNL     1     -13.136 -33.703  30.950  1.00  0.00     0.208 A 
ATOM      3  C   UNL     1     -13.285 -34.689  29.961  1.00  0.00     0.238 A 
ATOM      4  O   UNL     1     -13.691 -34.343  28.820  1.00  0.00    -0.285 OA
ATOM      5  C   UNL     1     -13.023 -36.044  30.271  1.00  0.00     0.111 A 
ATOM      6  C   UNL     1     -13.103 -37.120  29.336  1.00  0.00     0.134 A 
ATOM      7  C   UNL     1     -12.949 -38.438  29.785  1.00  0.00     0.093 A 
ATOM      8  C   UNL     1     -12.654 -38.714  31.121  1.00  0.00     0.123 A 
ATOM      9  C   UNL     1     -12.515 -37.667  32.029  1.00  0.00     0.094 A 
ATOM     10  C   UNL     1     -12.698 -36.344  31.620  1.00  0.00     0.146 A 
ATOM     11  O   UNL     1     -12.566 -35.377  32.520  1.00  0.00    -0.452 OA
ENDROOT
BRANCH   1  12
ATOM     12  C   UNL     1     -12.540 -33.108  33.331  1.00  0.00     0.029 A 
ATOM     13  C   UNL     1     -11.289 -32.951  33.953  1.00  0.00     0.062 A 
ATOM     14  C   UNL     1     -11.122 -32.032  34.998  1.00  0.00     0.162 A 
ATOM     15  C   UNL     1     -13.631 -32.357  33.795  1.00  0.00     0.062 A 
ATOM     16  C   UNL     1     -12.215 -31.268  35.440  1.00  0.00     0.200 A 
ATOM     17  C   UNL     1     -13.473 -31.437  34.836  1.00  0.00     0.162 A 
BRANCH  14  18
ATOM     18  O   UNL     1      -9.875 -31.880  35.602  1.00  0.00    -0.504 OA
ATOM     19  H   UNL     1      -9.559 -30.982  35.949  1.00  0.00     0.293 HD
ENDBRANCH  14  18
BRANCH  16  20
ATOM     20  O   UNL     1     -12.067 -30.345  36.477  1.00  0.00    -0.502 OA
ATOM     21  H   UNL     1     -11.207 -29.828  36.620  1.00  0.00     0.293 HD
ENDBRANCH  16  20
BRANCH  17  22
ATOM     22  O   UNL     1     -14.579 -30.699  35.257  1.00  0.00    -0.504 OA
ATOM     23  H   UNL     1     -14.976 -30.803  36.184  1.00  0.00     0.293 HD
ENDBRANCH  17  22
ENDBRANCH   1  12
BRANCH   2  24
ATOM     24  O   UNL     1     -13.411 -32.363  30.671  1.00  0.00    -0.502 OA
ATOM     25  H   UNL     1     -13.552 -32.021  29.728  1.00  0.00     0.293 HD
ENDBRANCH   2  24
BRANCH   6  26
ATOM     26  O   UNL     1     -13.302 -36.948  27.963  1.00  0.00    -0.507 OA
ATOM     27  H   UNL     1     -13.130 -36.090  27.461  1.00  0.00     0.293 HD
ENDBRANCH   6  26
BRANCH   8  28
ATOM     28  O   UNL     1     -12.487 -40.027  31.556  1.00  0.00    -0.508 OA
ATOM     29  H   UNL     1     -11.842 -40.260  32.302  1.00  0.00     0.293 HD
ENDBRANCH   8  28
TORSDOF 7
ENDMDL
MODEL 7
REMARK VINA RESULT:    -4.018      1.307      6.984
REMARK INTER + INTRA:          -4.905
REMARK INTER:                  -4.720
REMARK INTRA:                  -0.185
REMARK UNBOUND:                 0.053
REMARK SMILES O=c1c(O)c(-c2cc(O)c(O)c(O)c2)oc2cc(O)cc(O)c12
REMARK SMILES IDX 5 1 3 2 2 3 1 4 23 5 21 6 20 7 18 8 17 9 16 10 15 11 6 12
REMARK SMILES IDX 7 13 8 14 14 15 10 16 12 17 9 18 11 20 13 22 4 24 22 26
REMARK SMILES IDX 19 28
REMARK H PARENT 9 19 11 21 13 23 4 25 22 27 19 29
REMARK Flexibility Score: inf
ROOT
ATOM      1  C   UNL     1     -12.414 -33.931  32.380  1.00  0.00     0.180 A 
ATOM      2  C   UNL     1     -11.243 -34.291  33.069  1.00  0.00     0.208 A 
ATOM      3  C   UNL     1     -10.896 -33.587  34.234  1.00  0.00     0.238 A 
ATOM      4  O   UNL     1      -9.875 -33.948  34.877  1.00  0.00    -0.285 OA
ATOM      5  C   UNL     1     -11.713 -32.523  34.684  1.00  0.00     0.111 A 
ATOM      6  C   UNL     1     -11.436 -31.716  35.829  1.00  0.00     0.134 A 
ATOM      7  C   UNL     1     -12.382 -30.777  36.257  1.00  0.00     0.093 A 
ATOM      8  C   UNL     1     -13.566 -30.570  35.545  1.00  0.00     0.123 A 
ATOM      9  C   UNL     1     -13.818 -31.311  34.393  1.00  0.00     0.094 A 
ATOM     10  C   UNL     1     -12.910 -32.281  33.961  1.00  0.00     0.146 A 
ATOM     11  O   UNL     1     -13.194 -32.973  32.863  1.00  0.00    -0.452 OA
ENDROOT
BRANCH   1  12
ATOM     12  C   UNL     1     -12.832 -34.610  31.132  1.00  0.00     0.029 A 
ATOM     13  C   UNL     1     -12.915 -33.915  29.913  1.00  0.00     0.062 A 
ATOM     14  C   UNL     1     -13.336 -34.568  28.747  1.00  0.00     0.162 A 
ATOM     15  C   UNL     1     -13.211 -35.960  31.174  1.00  0.00     0.062 A 
ATOM     16  C   UNL     1     -13.691 -35.927  28.794  1.00  0.00     0.200 A 
ATOM     17  C   UNL     1     -13.630 -36.621  30.015  1.00  0.00     0.162 A 
BRANCH  14  18
ATOM     18  O   UNL     1     -13.408 -33.870  27.543  1.00  0.00    -0.504 OA
ATOM     19  H   UNL     1     -12.657 -33.906  26.863  1.00  0.00     0.293 HD
ENDBRANCH  14  18
BRANCH  16  20
ATOM     20  O   UNL     1     -14.109 -36.594  27.642  1.00  0.00    -0.502 OA
ATOM     21  H   UNL     1     -13.681 -37.460  27.335  1.00  0.00     0.293 HD
ENDBRANCH  16  20
BRANCH  17  22
ATOM     22  O   UNL     1     -13.983 -37.967  30.097  1.00  0.00    -0.504 OA
ATOM     23  H   UNL     1     -13.371 -38.662  30.508  1.00  0.00     0.293 HD
ENDBRANCH  17  22
ENDBRANCH   1  12
BRANCH   2  24
ATOM     24  O   UNL     1     -10.462 -35.358  32.619  1.00  0.00    -0.502 OA
ATOM     25  H   UNL     1     -10.866 -36.217  32.265  1.00  0.00     0.293 HD
ENDBRANCH   2  24
BRANCH   6  26
ATOM     26  O   UNL     1     -10.244 -31.778  36.558  1.00  0.00    -0.507 OA
ATOM     27  H   UNL     1      -9.325 -31.850  36.149  1.00  0.00     0.293 HD
ENDBRANCH   6  26
BRANCH   8  28
ATOM     28  O   UNL     1     -14.494 -29.622  35.969  1.00  0.00    -0.508 OA
ATOM     29  H   UNL     1     -14.269 -28.635  35.996  1.00  0.00     0.293 HD
ENDBRANCH   8  28
TORSDOF 7
ENDMDL
