MODEL 1
REMARK VINA RESULT:    -4.987      0.000      0.000
REMARK INTER + INTRA:          -5.727
REMARK INTER:                  -5.570
REMARK INTRA:                  -0.157
REMARK UNBOUND:                -0.157
REMARK SMILES COc1cc2ccc(=O)oc2cc1OC
REMARK SMILES IDX 3 1 13 2 12 3 11 4 5 5 4 6 6 7 7 8 8 9 9 10 10 11 2 12 1 13
REMARK SMILES IDX 14 14 15 15
REMARK H PARENT
REMARK Flexibility Score: inf
ROOT
ATOM      1  C   UNL     1     -21.158  32.564  -2.997  1.00  0.00     0.161 A 
ATOM      2  C   UNL     1     -21.328  31.626  -4.030  1.00  0.00     0.164 A 
ATOM      3  C   UNL     1     -20.275  30.748  -4.357  1.00  0.00     0.098 A 
ATOM      4  C   UNL     1     -19.065  30.804  -3.662  1.00  0.00     0.142 A 
ATOM      5  C   UNL     1     -18.895  31.744  -2.626  1.00  0.00     0.022 A 
ATOM      6  C   UNL     1     -19.937  32.619  -2.296  1.00  0.00     0.062 A 
ATOM      7  C   UNL     1     -17.671  31.775  -1.948  1.00  0.00     0.019 A 
ATOM      8  C   UNL     1     -16.663  30.884  -2.314  1.00  0.00     0.094 A 
ATOM      9  C   UNL     1     -16.904  29.978  -3.353  1.00  0.00     0.336 A 
ATOM     10  O   UNL     1     -16.008  29.164  -3.698  1.00  0.00    -0.246 OA
ATOM     11  O   UNL     1     -18.078  29.970  -3.980  1.00  0.00    -0.423 OA
ENDROOT
BRANCH   1  12
ATOM     12  O   UNL     1     -22.227  33.422  -2.697  1.00  0.00    -0.493 OA
ATOM     13  C   UNL     1     -23.013  33.350  -1.511  1.00  0.00     0.278 C 
ENDBRANCH   1  12
BRANCH   2  14
ATOM     14  O   UNL     1     -22.557  31.598  -4.707  1.00  0.00    -0.493 OA
ATOM     15  C   UNL     1     -23.620  30.698  -4.412  1.00  0.00     0.278 C 
ENDBRANCH   2  14
TORSDOF 2
ENDMDL
MODEL 2
REMARK VINA RESULT:    -4.975      1.960      2.676
REMARK INTER + INTRA:          -5.714
REMARK INTER:                  -5.602
REMARK INTRA:                  -0.111
REMARK UNBOUND:                -0.157
REMARK SMILES COc1cc2ccc(=O)oc2cc1OC
REMARK SMILES IDX 3 1 13 2 12 3 11 4 5 5 4 6 6 7 7 8 8 9 9 10 10 11 2 12 1 13
REMARK SMILES IDX 14 14 15 15
REMARK H PARENT
REMARK Flexibility Score: inf
ROOT
ATOM      1  C   UNL     1     -21.313  31.176  -1.892  1.00  0.00     0.161 A 
ATOM      2  C   UNL     1     -21.464  32.442  -2.485  1.00  0.00     0.164 A 
ATOM      3  C   UNL     1     -20.417  32.981  -3.258  1.00  0.00     0.098 A 
ATOM      4  C   UNL     1     -19.230  32.268  -3.438  1.00  0.00     0.142 A 
ATOM      5  C   UNL     1     -19.078  31.000  -2.843  1.00  0.00     0.022 A 
ATOM      6  C   UNL     1     -20.115  30.457  -2.075  1.00  0.00     0.062 A 
ATOM      7  C   UNL     1     -17.877  30.309  -3.042  1.00  0.00     0.019 A 
ATOM      8  C   UNL     1     -16.873  30.891  -3.815  1.00  0.00     0.094 A 
ATOM      9  C   UNL     1     -17.095  32.154  -4.374  1.00  0.00     0.336 A 
ATOM     10  O   UNL     1     -16.202  32.696  -5.076  1.00  0.00    -0.246 OA
ATOM     11  O   UNL     1     -18.247  32.788  -4.169  1.00  0.00    -0.423 OA
ENDROOT
BRANCH   1  12
ATOM     12  O   UNL     1     -22.377  30.669  -1.130  1.00  0.00    -0.493 OA
ATOM     13  C   UNL     1     -23.334  29.727  -1.605  1.00  0.00     0.278 C 
ENDBRANCH   1  12
BRANCH   2  14
ATOM     14  O   UNL     1     -22.671  33.130  -2.283  1.00  0.00    -0.493 OA
ATOM     15  C   UNL     1     -22.908  34.050  -1.222  1.00  0.00     0.278 C 
ENDBRANCH   2  14
TORSDOF 2
ENDMDL
MODEL 3
REMARK VINA RESULT:    -4.859      1.773      1.958
REMARK INTER + INTRA:          -5.584
REMARK INTER:                  -5.464
REMARK INTRA:                  -0.121
REMARK UNBOUND:                -0.157
REMARK SMILES COc1cc2ccc(=O)oc2cc1OC
REMARK SMILES IDX 3 1 13 2 12 3 11 4 5 5 4 6 6 7 7 8 8 9 9 10 10 11 2 12 1 13
REMARK SMILES IDX 14 14 15 15
REMARK H PARENT
REMARK Flexibility Score: inf
ROOT
ATOM      1  C   UNL     1     -21.916  32.293  -2.210  1.00  0.00     0.161 A 
ATOM      2  C   UNL     1     -21.756  30.997  -1.691  1.00  0.00     0.164 A 
ATOM      3  C   UNL     1     -20.519  30.337  -1.828  1.00  0.00     0.098 A 
ATOM      4  C   UNL     1     -19.452  30.962  -2.476  1.00  0.00     0.142 A 
ATOM      5  C   UNL     1     -19.611  32.262  -2.996  1.00  0.00     0.022 A 
ATOM      6  C   UNL     1     -20.839  32.923  -2.863  1.00  0.00     0.062 A 
ATOM      7  C   UNL     1     -18.523  32.862  -3.639  1.00  0.00     0.019 A 
ATOM      8  C   UNL     1     -17.322  32.162  -3.747  1.00  0.00     0.094 A 
ATOM      9  C   UNL     1     -17.237  30.875  -3.207  1.00  0.00     0.336 A 
ATOM     10  O   UNL     1     -16.161  30.227  -3.293  1.00  0.00    -0.246 OA
ATOM     11  O   UNL     1     -18.287  30.329  -2.600  1.00  0.00    -0.423 OA
ENDROOT
BRANCH   1  12
ATOM     12  O   UNL     1     -23.162  32.921  -2.055  1.00  0.00    -0.493 OA
ATOM     13  C   UNL     1     -23.499  33.792  -0.979  1.00  0.00     0.278 C 
ENDBRANCH   1  12
BRANCH   2  14
ATOM     14  O   UNL     1     -22.851  30.399  -1.046  1.00  0.00    -0.493 OA
ATOM     15  C   UNL     1     -23.688  29.407  -1.630  1.00  0.00     0.278 C 
ENDBRANCH   2  14
TORSDOF 2
ENDMDL
MODEL 4
REMARK VINA RESULT:    -4.837      2.022      5.646
REMARK INTER + INTRA:          -5.559
REMARK INTER:                  -5.397
REMARK INTRA:                  -0.162
REMARK UNBOUND:                -0.157
REMARK SMILES COc1cc2ccc(=O)oc2cc1OC
REMARK SMILES IDX 3 1 13 2 12 3 11 4 5 5 4 6 6 7 7 8 8 9 9 10 10 11 2 12 1 13
REMARK SMILES IDX 14 14 15 15
REMARK H PARENT
REMARK Flexibility Score: inf
ROOT
ATOM      1  C   UNL     1     -20.607  31.287  -4.472  1.00  0.00     0.161 A 
ATOM      2  C   UNL     1     -19.927  32.375  -3.897  1.00  0.00     0.164 A 
ATOM      3  C   UNL     1     -20.560  33.148  -2.903  1.00  0.00     0.098 A 
ATOM      4  C   UNL     1     -21.857  32.840  -2.486  1.00  0.00     0.142 A 
ATOM      5  C   UNL     1     -22.538  31.749  -3.061  1.00  0.00     0.022 A 
ATOM      6  C   UNL     1     -21.915  30.977  -4.049  1.00  0.00     0.062 A 
ATOM      7  C   UNL     1     -23.836  31.466  -2.622  1.00  0.00     0.019 A 
ATOM      8  C   UNL     1     -24.414  32.264  -1.636  1.00  0.00     0.094 A 
ATOM      9  C   UNL     1     -23.677  33.331  -1.110  1.00  0.00     0.336 A 
ATOM     10  O   UNL     1     -24.181  34.063  -0.219  1.00  0.00    -0.246 OA
ATOM     11  O   UNL     1     -22.445  33.577  -1.547  1.00  0.00    -0.423 OA
ENDROOT
BRANCH   1  12
ATOM     12  O   UNL     1     -19.946  30.538  -5.458  1.00  0.00    -0.493 OA
ATOM     13  C   UNL     1     -19.375  29.251  -5.248  1.00  0.00     0.278 C 
ENDBRANCH   1  12
BRANCH   2  14
ATOM     14  O   UNL     1     -18.625  32.655  -4.341  1.00  0.00    -0.493 OA
ATOM     15  C   UNL     1     -17.438  32.235  -3.676  1.00  0.00     0.278 C 
ENDBRANCH   2  14
TORSDOF 2
ENDMDL
MODEL 5
REMARK VINA RESULT:    -4.810      2.101      5.224
REMARK INTER + INTRA:          -5.530
REMARK INTER:                  -5.368
REMARK INTRA:                  -0.162
REMARK UNBOUND:                -0.157
REMARK SMILES COc1cc2ccc(=O)oc2cc1OC
REMARK SMILES IDX 3 1 13 2 12 3 11 4 5 5 4 6 6 7 7 8 8 9 9 10 10 11 2 12 1 13
REMARK SMILES IDX 14 14 15 15
REMARK H PARENT
REMARK Flexibility Score: inf
ROOT
ATOM      1  C   UNL     1     -17.409  32.080  -4.270  1.00  0.00     0.161 A 
ATOM      2  C   UNL     1     -17.258  30.942  -3.458  1.00  0.00     0.164 A 
ATOM      3  C   UNL     1     -18.319  30.531  -2.627  1.00  0.00     0.098 A 
ATOM      4  C   UNL     1     -19.518  31.246  -2.604  1.00  0.00     0.142 A 
ATOM      5  C   UNL     1     -19.669  32.386  -3.417  1.00  0.00     0.022 A 
ATOM      6  C   UNL     1     -18.619  32.800  -4.247  1.00  0.00     0.062 A 
ATOM      7  C   UNL     1     -20.883  33.082  -3.373  1.00  0.00     0.019 A 
ATOM      8  C   UNL     1     -21.899  32.631  -2.531  1.00  0.00     0.094 A 
ATOM      9  C   UNL     1     -21.677  31.491  -1.751  1.00  0.00     0.336 A 
ATOM     10  O   UNL     1     -22.582  31.067  -0.986  1.00  0.00    -0.246 OA
ATOM     11  O   UNL     1     -20.513  30.849  -1.814  1.00  0.00    -0.423 OA
ENDROOT
BRANCH   1  12
ATOM     12  O   UNL     1     -16.332  32.460  -5.086  1.00  0.00    -0.493 OA
ATOM     13  C   UNL     1     -16.242  32.192  -6.482  1.00  0.00     0.278 C 
ENDBRANCH   1  12
BRANCH   2  14
ATOM     14  O   UNL     1     -16.039  30.248  -3.507  1.00  0.00    -0.493 OA
ATOM     15  C   UNL     1     -15.807  29.077  -4.284  1.00  0.00     0.278 C 
ENDBRANCH   2  14
TORSDOF 2
ENDMDL
MODEL 6
REMARK VINA RESULT:    -4.788      2.188      2.569
REMARK INTER + INTRA:          -5.505
REMARK INTER:                  -5.355
REMARK INTRA:                  -0.150
REMARK UNBOUND:                -0.157
REMARK SMILES COc1cc2ccc(=O)oc2cc1OC
REMARK SMILES IDX 3 1 13 2 12 3 11 4 5 5 4 6 6 7 7 8 8 9 9 10 10 11 2 12 1 13
REMARK SMILES IDX 14 14 15 15
REMARK H PARENT
REMARK Flexibility Score: inf
ROOT
ATOM      1  C   UNL     1     -22.293  30.341  -2.036  1.00  0.00     0.161 A 
ATOM      2  C   UNL     1     -22.515  31.056  -3.225  1.00  0.00     0.164 A 
ATOM      3  C   UNL     1     -21.437  31.698  -3.866  1.00  0.00     0.098 A 
ATOM      4  C   UNL     1     -20.151  31.630  -3.328  1.00  0.00     0.142 A 
ATOM      5  C   UNL     1     -19.928  30.913  -2.135  1.00  0.00     0.022 A 
ATOM      6  C   UNL     1     -20.994  30.271  -1.494  1.00  0.00     0.062 A 
ATOM      7  C   UNL     1     -18.627  30.861  -1.621  1.00  0.00     0.019 A 
ATOM      8  C   UNL     1     -17.598  31.517  -2.296  1.00  0.00     0.094 A 
ATOM      9  C   UNL     1     -17.895  32.210  -3.474  1.00  0.00     0.336 A 
ATOM     10  O   UNL     1     -16.980  32.807  -4.099  1.00  0.00    -0.246 OA
ATOM     11  O   UNL     1     -19.140  32.241  -3.941  1.00  0.00    -0.423 OA
ENDROOT
BRANCH   1  12
ATOM     12  O   UNL     1     -23.389  29.712  -1.425  1.00  0.00    -0.493 OA
ATOM     13  C   UNL     1     -23.728  28.339  -1.591  1.00  0.00     0.278 C 
ENDBRANCH   1  12
BRANCH   2  14
ATOM     14  O   UNL     1     -23.821  31.104  -3.738  1.00  0.00    -0.493 OA
ATOM     15  C   UNL     1     -24.317  30.250  -4.764  1.00  0.00     0.278 C 
ENDBRANCH   2  14
TORSDOF 2
ENDMDL
MODEL 7
REMARK VINA RESULT:    -4.745      1.864      5.159
REMARK INTER + INTRA:          -5.457
REMARK INTER:                  -5.330
REMARK INTRA:                  -0.128
REMARK UNBOUND:                -0.157
REMARK SMILES COc1cc2ccc(=O)oc2cc1OC
REMARK SMILES IDX 3 1 13 2 12 3 11 4 5 5 4 6 6 7 7 8 8 9 9 10 10 11 2 12 1 13
REMARK SMILES IDX 14 14 15 15
REMARK H PARENT
REMARK Flexibility Score: inf
ROOT
ATOM      1  C   UNL     1     -19.111  30.565  -4.256  1.00  0.00     0.161 A 
ATOM      2  C   UNL     1     -19.106  31.890  -4.727  1.00  0.00     0.164 A 
ATOM      3  C   UNL     1     -20.000  32.830  -4.176  1.00  0.00     0.098 A 
ATOM      4  C   UNL     1     -20.890  32.455  -3.168  1.00  0.00     0.142 A 
ATOM      5  C   UNL     1     -20.895  31.127  -2.696  1.00  0.00     0.022 A 
ATOM      6  C   UNL     1     -20.009  30.188  -3.238  1.00  0.00     0.062 A 
ATOM      7  C   UNL     1     -21.798  30.782  -1.684  1.00  0.00     0.019 A 
ATOM      8  C   UNL     1     -22.660  31.752  -1.177  1.00  0.00     0.094 A 
ATOM      9  C   UNL     1     -22.599  33.051  -1.694  1.00  0.00     0.336 A 
ATOM     10  O   UNL     1     -23.368  33.942  -1.248  1.00  0.00    -0.246 OA
ATOM     11  O   UNL     1     -21.729  33.351  -2.655  1.00  0.00    -0.423 OA
ENDROOT
BRANCH   1  12
ATOM     12  O   UNL     1     -18.207  29.655  -4.827  1.00  0.00    -0.493 OA
ATOM     13  C   UNL     1     -16.987  29.242  -4.220  1.00  0.00     0.278 C 
ENDBRANCH   1  12
BRANCH   2  14
ATOM     14  O   UNL     1     -18.198  32.232  -5.741  1.00  0.00    -0.493 OA
ATOM     15  C   UNL     1     -18.510  32.250  -7.130  1.00  0.00     0.278 C 
ENDBRANCH   2  14
TORSDOF 2
ENDMDL
MODEL 8
REMARK VINA RESULT:    -4.583      1.776      5.066
REMARK INTER + INTRA:          -5.276
REMARK INTER:                  -5.164
REMARK INTRA:                  -0.112
REMARK UNBOUND:                -0.157
REMARK SMILES COc1cc2ccc(=O)oc2cc1OC
REMARK SMILES IDX 3 1 13 2 12 3 11 4 5 5 4 6 6 7 7 8 8 9 9 10 10 11 2 12 1 13
REMARK SMILES IDX 14 14 15 15
REMARK H PARENT
REMARK Flexibility Score: inf
ROOT
ATOM      1  C   UNL     1     -18.974  31.723  -3.040  1.00  0.00     0.161 A 
ATOM      2  C   UNL     1     -19.495  30.485  -3.454  1.00  0.00     0.164 A 
ATOM      3  C   UNL     1     -20.870  30.220  -3.304  1.00  0.00     0.098 A 
ATOM      4  C   UNL     1     -21.719  31.178  -2.746  1.00  0.00     0.142 A 
ATOM      5  C   UNL     1     -21.197  32.420  -2.332  1.00  0.00     0.022 A 
ATOM      6  C   UNL     1     -19.831  32.690  -2.479  1.00  0.00     0.062 A 
ATOM      7  C   UNL     1     -22.073  33.360  -1.777  1.00  0.00     0.019 A 
ATOM      8  C   UNL     1     -23.425  33.045  -1.651  1.00  0.00     0.094 A 
ATOM      9  C   UNL     1     -23.872  31.792  -2.085  1.00  0.00     0.336 A 
ATOM     10  O   UNL     1     -25.089  31.488  -1.981  1.00  0.00    -0.246 OA
ATOM     11  O   UNL     1     -23.017  30.917  -2.609  1.00  0.00    -0.423 OA
ENDROOT
BRANCH   1  12
ATOM     12  O   UNL     1     -17.599  31.953  -3.206  1.00  0.00    -0.493 OA
ATOM     13  C   UNL     1     -17.023  32.641  -4.312  1.00  0.00     0.278 C 
ENDBRANCH   1  12
BRANCH   2  14
ATOM     14  O   UNL     1     -18.613  29.545  -4.011  1.00  0.00    -0.493 OA
ATOM     15  C   UNL     1     -18.988  28.545  -4.952  1.00  0.00     0.278 C 
ENDBRANCH   2  14
TORSDOF 2
ENDMDL
MODEL 9
REMARK VINA RESULT:    -4.579      2.910      4.606
REMARK INTER + INTRA:          -5.272
REMARK INTER:                  -5.154
REMARK INTRA:                  -0.117
REMARK UNBOUND:                -0.157
REMARK SMILES COc1cc2ccc(=O)oc2cc1OC
REMARK SMILES IDX 3 1 13 2 12 3 11 4 5 5 4 6 6 7 7 8 8 9 9 10 10 11 2 12 1 13
REMARK SMILES IDX 14 14 15 15
REMARK H PARENT
REMARK Flexibility Score: inf
ROOT
ATOM      1  C   UNL     1     -17.088  32.073  -5.653  1.00  0.00     0.161 A 
ATOM      2  C   UNL     1     -18.416  32.089  -6.114  1.00  0.00     0.164 A 
ATOM      3  C   UNL     1     -19.462  31.721  -5.245  1.00  0.00     0.098 A 
ATOM      4  C   UNL     1     -19.188  31.341  -3.930  1.00  0.00     0.142 A 
ATOM      5  C   UNL     1     -17.858  31.325  -3.467  1.00  0.00     0.022 A 
ATOM      6  C   UNL     1     -16.813  31.690  -4.325  1.00  0.00     0.062 A 
ATOM      7  C   UNL     1     -17.616  30.940  -2.143  1.00  0.00     0.019 A 
ATOM      8  C   UNL     1     -18.689  30.584  -1.327  1.00  0.00     0.094 A 
ATOM      9  C   UNL     1     -19.984  30.623  -1.855  1.00  0.00     0.336 A 
ATOM     10  O   UNL     1     -20.966  30.308  -1.135  1.00  0.00    -0.246 OA
ATOM     11  O   UNL     1     -20.184  30.994  -3.117  1.00  0.00    -0.423 OA
ENDROOT
BRANCH   1  12
ATOM     12  O   UNL     1     -16.071  32.447  -6.545  1.00  0.00    -0.493 OA
ATOM     13  C   UNL     1     -14.729  32.738  -6.165  1.00  0.00     0.278 C 
ENDBRANCH   1  12
BRANCH   2  14
ATOM     14  O   UNL     1     -18.654  32.477  -7.442  1.00  0.00    -0.493 OA
ATOM     15  C   UNL     1     -19.139  31.609  -8.462  1.00  0.00     0.278 C 
ENDBRANCH   2  14
TORSDOF 2
ENDMDL
