MODEL 1
REMARK VINA RESULT:    -3.604      0.000      0.000
REMARK INTER + INTRA:          -3.593
REMARK INTER:                  -4.447
REMARK INTRA:                   0.854
REMARK UNBOUND:                 0.854
REMARK SMILES CC1=CC=CC(C)(C)CC1=O
REMARK SMILES IDX 1 1 2 2 3 3 10 4 11 5 9 6 4 8 5 9 6 10 7 11 8 12
REMARK H PARENT
REMARK Flexibility Score: 80.00
ROOT
ATOM      1  C   UNL     1      17.812  29.119  35.512  1.00  0.00     0.048 C 
ATOM      2  C   UNL     1      18.843  29.593  36.509  1.00  0.00    -0.008 C 
ATOM      3  C   UNL     1      18.566  30.704  37.225  1.00  0.00     0.007 C 
ENDROOT
BRANCH   2   4
ATOM      4  C   UNL     1      20.064  28.756  36.656  1.00  0.00     0.159 C 
ATOM      5  O   UNL     1      20.221  27.776  35.876  1.00  0.00    -0.295 OA
BRANCH   4   6
ATOM      6  C   UNL     1      21.114  28.976  37.704  1.00  0.00     0.091 CG0
ATOM      7  G   UNL     1      21.684  30.412  37.731  1.00  0.00     0.000 G0
ENDBRANCH   4   6
ENDBRANCH   2   4
BRANCH   3   8
ATOM      8  C   UNL     1      19.380  31.399  38.249  1.00  0.00    -0.003 C 
ATOM      9  C   UNL     1      20.697  31.317  38.463  1.00  0.00    -0.020 C 
BRANCH   9  10
ATOM     10  C   UNL     1      21.666  30.421  37.730  1.00  0.00    -0.010 CG0
ATOM     11  C   UNL     1      22.998  30.405  38.512  1.00  0.00     0.016 C 
ATOM     12  C   UNL     1      21.952  30.982  36.317  1.00  0.00     0.016 C 
ATOM     13  G   UNL     1      21.110  28.980  37.697  1.00  0.00     0.000 G0
ENDBRANCH   9  10
ENDBRANCH   3   8
TORSDOF 0
ENDMDL
MODEL 2
REMARK VINA RESULT:    -3.589      1.470      2.697
REMARK INTER + INTRA:          -3.575
REMARK INTER:                  -4.420
REMARK INTRA:                   0.845
REMARK UNBOUND:                 0.854
REMARK SMILES CC1=CC=CC(C)(C)CC1=O
REMARK SMILES IDX 1 1 2 2 3 3 10 4 11 5 9 6 4 8 5 9 6 10 7 11 8 12
REMARK H PARENT
REMARK Flexibility Score: 80.00
ROOT
ATOM      1  C   UNL     1      20.603  26.410  37.337  1.00  0.00     0.048 C 
ATOM      2  C   UNL     1      21.221  27.787  37.411  1.00  0.00    -0.008 C 
ATOM      3  C   UNL     1      22.104  28.031  38.404  1.00  0.00     0.007 C 
ENDROOT
BRANCH   2   4
ATOM      4  C   UNL     1      20.841  28.748  36.341  1.00  0.00     0.159 C 
ATOM      5  O   UNL     1      19.944  28.412  35.519  1.00  0.00    -0.295 OA
BRANCH   4   6
ATOM      6  C   UNL     1      21.486  30.088  36.146  1.00  0.00     0.091 CG0
ATOM      7  G   UNL     1      21.472  30.981  37.407  1.00  0.00     0.000 G0
ENDBRANCH   4   6
ENDBRANCH   2   4
BRANCH   3   8
ATOM      8  C   UNL     1      22.847  29.270  38.728  1.00  0.00    -0.003 C 
ATOM      9  C   UNL     1      22.585  30.524  38.343  1.00  0.00    -0.020 C 
BRANCH   9  10
ATOM     10  C   UNL     1      21.480  30.958  37.411  1.00  0.00    -0.010 CG0
ATOM     11  C   UNL     1      21.762  32.412  36.969  1.00  0.00     0.016 C 
ATOM     12  C   UNL     1      20.119  30.941  38.146  1.00  0.00     0.016 C 
ATOM     13  G   UNL     1      21.487  30.062  36.152  1.00  0.00     0.000 G0
ENDBRANCH   9  10
ENDBRANCH   3   8
TORSDOF 0
ENDMDL
MODEL 3
REMARK VINA RESULT:    -3.478      1.563      2.534
REMARK INTER + INTRA:          -3.437
REMARK INTER:                  -4.289
REMARK INTRA:                   0.852
REMARK UNBOUND:                 0.854
REMARK SMILES CC1=CC=CC(C)(C)CC1=O
REMARK SMILES IDX 1 1 2 2 3 3 10 4 11 5 9 6 4 8 5 9 6 10 7 11 8 12
REMARK H PARENT
REMARK Flexibility Score: 80.00
ROOT
ATOM      1  C   UNL     1      21.031  26.911  37.007  1.00  0.00     0.048 C 
ATOM      2  C   UNL     1      20.604  28.361  37.005  1.00  0.00    -0.008 C 
ATOM      3  C   UNL     1      19.579  28.716  36.200  1.00  0.00     0.007 C 
ENDROOT
BRANCH   2   4
ATOM      4  C   UNL     1      21.321  29.270  37.938  1.00  0.00     0.159 C 
ATOM      5  O   UNL     1      22.282  28.807  38.612  1.00  0.00    -0.295 OA
BRANCH   4   6
ATOM      6  C   UNL     1      20.951  30.706  38.165  1.00  0.00     0.091 CG0
ATOM      7  G   UNL     1      20.795  31.527  36.865  1.00  0.00     0.000 G0
ENDBRANCH   4   6
ENDBRANCH   2   4
BRANCH   3   8
ATOM      8  C   UNL     1      18.961  30.044  35.983  1.00  0.00    -0.003 C 
ATOM      9  C   UNL     1      19.473  31.253  36.237  1.00  0.00    -0.020 C 
BRANCH   9  10
ATOM     10  C   UNL     1      20.807  31.539  36.882  1.00  0.00    -0.010 CG0
ATOM     11  C   UNL     1      20.843  33.031  37.282  1.00  0.00     0.016 C 
ATOM     12  C   UNL     1      21.954  31.290  35.875  1.00  0.00     0.016 C 
ATOM     13  G   UNL     1      20.949  30.693  38.167  1.00  0.00     0.000 G0
ENDBRANCH   9  10
ENDBRANCH   3   8
TORSDOF 0
ENDMDL
MODEL 4
REMARK VINA RESULT:    -3.401      1.011      1.145
REMARK INTER + INTRA:          -3.342
REMARK INTER:                  -4.185
REMARK INTRA:                   0.843
REMARK UNBOUND:                 0.854
REMARK SMILES CC1=CC=CC(C)(C)CC1=O
REMARK SMILES IDX 1 1 2 2 3 3 10 4 11 5 9 6 4 8 5 9 6 10 7 11 8 12
REMARK H PARENT
REMARK Flexibility Score: 80.00
ROOT
ATOM      1  C   UNL     1      18.433  29.099  36.034  1.00  0.00     0.048 C 
ATOM      2  C   UNL     1      19.639  29.387  36.898  1.00  0.00    -0.008 C 
ATOM      3  C   UNL     1      19.674  30.563  37.561  1.00  0.00     0.007 C 
ENDROOT
BRANCH   2   4
ATOM      4  C   UNL     1      20.668  28.317  36.986  1.00  0.00     0.159 C 
ATOM      5  O   UNL     1      20.535  27.291  36.263  1.00  0.00    -0.295 OA
BRANCH   4   6
ATOM      6  C   UNL     1      21.846  28.357  37.914  1.00  0.00     0.091 CG0
ATOM      7  G   UNL     1      22.690  29.645  37.801  1.00  0.00     0.000 G0
ENDBRANCH   4   6
ENDBRANCH   2   4
BRANCH   3   8
ATOM      8  C   UNL     1      20.717  31.114  38.456  1.00  0.00    -0.003 C 
ATOM      9  C   UNL     1      22.004  30.764  38.552  1.00  0.00    -0.020 C 
BRANCH   9  10
ATOM     10  C   UNL     1      22.684  29.650  37.792  1.00  0.00    -0.010 CG0
ATOM     11  C   UNL     1      24.054  29.379  38.454  1.00  0.00     0.016 C 
ATOM     12  C   UNL     1      22.940  30.078  36.328  1.00  0.00     0.016 C 
ATOM     13  G   UNL     1      21.836  28.364  37.898  1.00  0.00     0.000 G0
ENDBRANCH   9  10
ENDBRANCH   3   8
TORSDOF 0
ENDMDL
MODEL 5
REMARK VINA RESULT:    -3.389      1.704      2.557
REMARK INTER + INTRA:          -3.328
REMARK INTER:                  -4.164
REMARK INTRA:                   0.836
REMARK UNBOUND:                 0.854
REMARK SMILES CC1=CC=CC(C)(C)CC1=O
REMARK SMILES IDX 1 1 2 2 3 3 10 4 11 5 9 6 4 8 5 9 6 10 7 11 8 12
REMARK H PARENT
REMARK Flexibility Score: 80.00
ROOT
ATOM      1  C   UNL     1      17.672  29.260  36.569  1.00  0.00     0.048 C 
ATOM      2  C   UNL     1      19.167  29.460  36.475  1.00  0.00    -0.008 C 
ATOM      3  C   UNL     1      19.958  28.371  36.593  1.00  0.00     0.007 C 
ENDROOT
BRANCH   2   4
ATOM      4  C   UNL     1      19.641  30.844  36.205  1.00  0.00     0.159 C 
ATOM      5  O   UNL     1      18.788  31.772  36.149  1.00  0.00    -0.295 OA
BRANCH   4   6
ATOM      6  C   UNL     1      21.073  31.208  35.952  1.00  0.00     0.091 CG0
ATOM      7  G   UNL     1      22.053  30.688  37.028  1.00  0.00     0.000 G0
ENDBRANCH   4   6
ENDBRANCH   2   4
BRANCH   3   8
ATOM      8  C   UNL     1      21.435  28.265  36.555  1.00  0.00    -0.003 C 
ATOM      9  C   UNL     1      22.345  29.222  36.765  1.00  0.00    -0.020 C 
BRANCH   9  10
ATOM     10  C   UNL     1      22.061  30.681  37.028  1.00  0.00    -0.010 CG0
ATOM     11  C   UNL     1      23.382  31.467  36.876  1.00  0.00     0.016 C 
ATOM     12  C   UNL     1      21.556  30.876  38.477  1.00  0.00     0.016 C 
ATOM     13  G   UNL     1      21.063  31.209  35.973  1.00  0.00     0.000 G0
ENDBRANCH   9  10
ENDBRANCH   3   8
TORSDOF 0
ENDMDL
MODEL 6
REMARK VINA RESULT:    -3.321      1.529      2.861
REMARK INTER + INTRA:          -3.243
REMARK INTER:                  -4.095
REMARK INTRA:                   0.852
REMARK UNBOUND:                 0.854
REMARK SMILES CC1=CC=CC(C)(C)CC1=O
REMARK SMILES IDX 1 1 2 2 3 3 10 4 11 5 9 6 4 8 5 9 6 10 7 11 8 12
REMARK H PARENT
REMARK Flexibility Score: 80.00
ROOT
ATOM      1  C   UNL     1      20.508  26.958  37.100  1.00  0.00     0.048 C 
ATOM      2  C   UNL     1      20.560  28.467  37.131  1.00  0.00    -0.008 C 
ATOM      3  C   UNL     1      21.407  29.053  38.005  1.00  0.00     0.007 C 
ENDROOT
BRANCH   2   4
ATOM      4  C   UNL     1      19.703  29.186  36.149  1.00  0.00     0.159 C 
ATOM      5  O   UNL     1      18.921  28.511  35.424  1.00  0.00    -0.295 OA
BRANCH   4   6
ATOM      6  C   UNL     1      19.735  30.670  35.933  1.00  0.00     0.091 CG0
ATOM      7  G   UNL     1      19.589  31.497  37.230  1.00  0.00     0.000 G0
ENDBRANCH   4   6
ENDBRANCH   2   4
BRANCH   3   8
ATOM      8  C   UNL     1      21.658  30.489  38.264  1.00  0.00    -0.003 C 
ATOM      9  C   UNL     1      20.885  31.538  37.964  1.00  0.00    -0.020 C 
BRANCH   9  10
ATOM     10  C   UNL     1      19.577  31.495  37.212  1.00  0.00    -0.010 CG0
ATOM     11  C   UNL     1      19.206  32.938  36.802  1.00  0.00     0.016 C 
ATOM     12  C   UNL     1      18.451  30.957  38.125  1.00  0.00     0.016 C 
ATOM     13  G   UNL     1      19.750  30.659  35.925  1.00  0.00     0.000 G0
ENDBRANCH   9  10
ENDBRANCH   3   8
TORSDOF 0
ENDMDL
MODEL 7
REMARK VINA RESULT:    -3.106      2.883      4.341
REMARK INTER + INTRA:          -2.978
REMARK INTER:                  -3.824
REMARK INTRA:                   0.846
REMARK UNBOUND:                 0.854
REMARK SMILES CC1=CC=CC(C)(C)CC1=O
REMARK SMILES IDX 1 1 2 2 3 3 10 4 11 5 9 6 4 8 5 9 6 10 7 11 8 12
REMARK H PARENT
REMARK Flexibility Score: 80.00
ROOT
ATOM      1  C   UNL     1      24.481  28.228  40.268  1.00  0.00     0.048 C 
ATOM      2  C   UNL     1      23.596  28.913  39.253  1.00  0.00    -0.008 C 
ATOM      3  C   UNL     1      22.488  28.261  38.839  1.00  0.00     0.007 C 
ENDROOT
BRANCH   2   4
ATOM      4  C   UNL     1      23.997  30.282  38.833  1.00  0.00     0.159 C 
ATOM      5  O   UNL     1      25.090  30.747  39.258  1.00  0.00    -0.295 OA
BRANCH   4   6
ATOM      6  C   UNL     1      23.164  31.172  37.959  1.00  0.00     0.091 CG0
ATOM      7  G   UNL     1      22.699  30.506  36.645  1.00  0.00     0.000 G0
ENDBRANCH   4   6
ENDBRANCH   2   4
BRANCH   3   8
ATOM      8  C   UNL     1      21.457  28.673  37.859  1.00  0.00    -0.003 C 
ATOM      9  C   UNL     1      21.541  29.603  36.902  1.00  0.00    -0.020 C 
BRANCH   9  10
ATOM     10  C   UNL     1      22.717  30.514  36.645  1.00  0.00    -0.010 CG0
ATOM     11  C   UNL     1      22.258  31.641  35.692  1.00  0.00     0.016 C 
ATOM     12  C   UNL     1      23.856  29.736  35.947  1.00  0.00     0.016 C 
ATOM     13  G   UNL     1      23.166  31.162  37.974  1.00  0.00     0.000 G0
ENDBRANCH   9  10
ENDBRANCH   3   8
TORSDOF 0
ENDMDL
MODEL 8
REMARK VINA RESULT:    -3.048      2.413      4.601
REMARK INTER + INTRA:          -2.906
REMARK INTER:                  -3.746
REMARK INTRA:                   0.840
REMARK UNBOUND:                 0.854
REMARK SMILES CC1=CC=CC(C)(C)CC1=O
REMARK SMILES IDX 1 1 2 2 3 3 10 4 11 5 9 6 4 8 5 9 6 10 7 11 8 12
REMARK H PARENT
REMARK Flexibility Score: 80.00
ROOT
ATOM      1  C   UNL     1      25.710  30.848  39.597  1.00  0.00     0.048 C 
ATOM      2  C   UNL     1      24.333  30.427  39.139  1.00  0.00    -0.008 C 
ATOM      3  C   UNL     1      23.925  29.174  39.432  1.00  0.00     0.007 C 
ENDROOT
BRANCH   2   4
ATOM      4  C   UNL     1      23.516  31.458  38.443  1.00  0.00     0.159 C 
ATOM      5  O   UNL     1      24.043  32.578  38.196  1.00  0.00    -0.295 OA
BRANCH   4   6
ATOM      6  C   UNL     1      22.083  31.268  38.046  1.00  0.00     0.091 CG0
ATOM      7  G   UNL     1      21.822  29.982  37.231  1.00  0.00     0.000 G0
ENDBRANCH   4   6
ENDBRANCH   2   4
BRANCH   3   8
ATOM      8  C   UNL     1      22.652  28.491  39.106  1.00  0.00    -0.003 C 
ATOM      9  C   UNL     1      21.762  28.796  38.156  1.00  0.00    -0.020 C 
BRANCH   9  10
ATOM     10  C   UNL     1      21.826  29.980  37.221  1.00  0.00    -0.010 CG0
ATOM     11  C   UNL     1      20.450  30.130  36.534  1.00  0.00     0.016 C 
ATOM     12  C   UNL     1      22.883  29.736  36.118  1.00  0.00     0.016 C 
ATOM     13  G   UNL     1      22.101  31.264  38.035  1.00  0.00     0.000 G0
ENDBRANCH   9  10
ENDBRANCH   3   8
TORSDOF 0
ENDMDL
MODEL 9
REMARK VINA RESULT:    -2.913      2.996      4.338
REMARK INTER + INTRA:          -2.741
REMARK INTER:                  -3.595
REMARK INTRA:                   0.854
REMARK UNBOUND:                 0.854
REMARK SMILES CC1=CC=CC(C)(C)CC1=O
REMARK SMILES IDX 1 1 2 2 3 3 10 4 11 5 9 6 4 8 5 9 6 10 7 11 8 12
REMARK H PARENT
REMARK Flexibility Score: 80.00
ROOT
ATOM      1  C   UNL     1      22.304  27.872  40.470  1.00  0.00     0.048 C 
ATOM      2  C   UNL     1      23.113  28.710  39.508  1.00  0.00    -0.008 C 
ATOM      3  C   UNL     1      24.458  28.697  39.635  1.00  0.00     0.007 C 
ENDROOT
BRANCH   2   4
ATOM      4  C   UNL     1      22.354  29.443  38.459  1.00  0.00     0.159 C 
ATOM      5  O   UNL     1      21.093  29.411  38.495  1.00  0.00    -0.295 OA
BRANCH   4   6
ATOM      6  C   UNL     1      22.992  30.192  37.328  1.00  0.00     0.091 CG0
ATOM      7  G   UNL     1      24.055  31.220  37.775  1.00  0.00     0.000 G0
ENDBRANCH   4   6
ENDBRANCH   2   4
BRANCH   3   8
ATOM      8  C   UNL     1      25.490  29.418  38.855  1.00  0.00    -0.003 C 
ATOM      9  C   UNL     1      25.348  30.504  38.087  1.00  0.00    -0.020 C 
BRANCH   9  10
ATOM     10  C   UNL     1      24.053  31.217  37.783  1.00  0.00    -0.010 CG0
ATOM     11  C   UNL     1      24.301  32.193  36.610  1.00  0.00     0.016 C 
ATOM     12  C   UNL     1      23.598  32.049  39.005  1.00  0.00     0.016 C 
ATOM     13  G   UNL     1      22.991  30.188  37.335  1.00  0.00     0.000 G0
ENDBRANCH   9  10
ENDBRANCH   3   8
TORSDOF 0
ENDMDL
