MODEL 1
REMARK VINA RESULT:    -4.047      0.000      0.000
REMARK INTER + INTRA:          -9.666
REMARK INTER:                  -7.595
REMARK INTRA:                  -2.071
REMARK UNBOUND:                -2.071
REMARK SMILES O=C([O-])CCCCCCCCCCCCCCC(=O)[O-]
REMARK SMILES IDX 10 1 9 2 8 3 7 4 6 5 5 6 4 7 2 8 1 9 3 10 11 11 12 12 13 13
REMARK SMILES IDX 14 14 15 15 16 16 17 17 18 18 19 19 20 20
REMARK H PARENT
REMARK Flexibility Score: inf
ROOT
ATOM      1  C   UNL     1      30.770   9.944 -14.146  1.00  0.00     0.000 C 
ENDROOT
BRANCH   1   2
ATOM      2  C   UNL     1      29.474   9.393 -13.539  1.00  0.00     0.000 C 
BRANCH   2   3
ATOM      3  C   UNL     1      29.602   9.243 -12.015  1.00  0.00     0.000 C 
BRANCH   3   4
ATOM      4  C   UNL     1      29.834  10.585 -11.303  1.00  0.00     0.000 C 
BRANCH   4   5
ATOM      5  C   UNL     1      28.595  11.064 -10.526  1.00  0.00     0.000 C 
BRANCH   5   6
ATOM      6  C   UNL     1      28.039  12.392 -11.066  1.00  0.00     0.006 C 
BRANCH   6   7
ATOM      7  C   UNL     1      26.514  12.497 -10.925  1.00  0.00     0.053 C 
BRANCH   7   8
ATOM      8  C   UNL     1      26.052  13.877 -11.267  1.00  0.00     0.041 C 
ATOM      9  O   UNL     1      25.001  14.340 -10.752  1.00  0.00    -0.550 OA
ATOM     10  O   UNL     1      26.809  14.673 -12.118  1.00  0.00    -0.550 OA
ENDBRANCH   7   8
ENDBRANCH   6   7
ENDBRANCH   5   6
ENDBRANCH   4   5
ENDBRANCH   3   4
ENDBRANCH   2   3
ENDBRANCH   1   2
BRANCH   1  11
ATOM     11  C   UNL     1      30.498  11.207 -14.971  1.00  0.00     0.000 C 
BRANCH  11  12
ATOM     12  C   UNL     1      28.994  11.413 -15.183  1.00  0.00     0.000 C 
BRANCH  12  13
ATOM     13  C   UNL     1      28.548  12.788 -14.662  1.00  0.00     0.000 C 
BRANCH  13  14
ATOM     14  C   UNL     1      29.692  13.570 -13.994  1.00  0.00     0.000 C 
BRANCH  14  15
ATOM     15  C   UNL     1      29.898  14.962 -14.617  1.00  0.00     0.000 C 
BRANCH  15  16
ATOM     16  C   UNL     1      29.615  14.980 -16.128  1.00  0.00     0.006 C 
BRANCH  16  17
ATOM     17  C   UNL     1      30.754  14.364 -16.951  1.00  0.00     0.053 C 
BRANCH  17  18
ATOM     18  C   UNL     1      30.204  13.465 -18.013  1.00  0.00     0.041 C 
ATOM     19  O   UNL     1      29.210  13.827 -18.697  1.00  0.00    -0.550 OA
ATOM     20  O   UNL     1      30.819  12.250 -18.283  1.00  0.00    -0.550 OA
ENDBRANCH  17  18
ENDBRANCH  16  17
ENDBRANCH  15  16
ENDBRANCH  14  15
ENDBRANCH  13  14
ENDBRANCH  12  13
ENDBRANCH  11  12
ENDBRANCH   1  11
TORSDOF 15
ENDMDL
MODEL 2
REMARK VINA RESULT:    -3.970      2.240      5.900
REMARK INTER + INTRA:          -9.522
REMARK INTER:                  -7.743
REMARK INTRA:                  -1.779
REMARK UNBOUND:                -2.071
REMARK SMILES O=C([O-])CCCCCCCCCCCCCCC(=O)[O-]
REMARK SMILES IDX 10 1 9 2 8 3 7 4 6 5 5 6 4 7 2 8 1 9 3 10 11 11 12 12 13 13
REMARK SMILES IDX 14 14 15 15 16 16 17 17 18 18 19 19 20 20
REMARK H PARENT
REMARK Flexibility Score: inf
ROOT
ATOM      1  C   UNL     1      29.188  10.525 -16.037  1.00  0.00     0.000 C 
ENDROOT
BRANCH   1   2
ATOM      2  C   UNL     1      30.344   9.967 -16.877  1.00  0.00     0.000 C 
BRANCH   2   3
ATOM      3  C   UNL     1      30.632  10.871 -18.085  1.00  0.00     0.000 C 
BRANCH   3   4
ATOM      4  C   UNL     1      30.887  12.334 -17.685  1.00  0.00     0.000 C 
BRANCH   4   5
ATOM      5  C   UNL     1      29.794  13.287 -18.200  1.00  0.00     0.000 C 
BRANCH   5   6
ATOM      6  C   UNL     1      29.155  14.114 -17.072  1.00  0.00     0.006 C 
BRANCH   6   7
ATOM      7  C   UNL     1      30.013  14.143 -15.800  1.00  0.00     0.053 C 
BRANCH   7   8
ATOM      8  C   UNL     1      29.838  15.443 -15.082  1.00  0.00     0.041 C 
ATOM      9  O   UNL     1      30.391  16.487 -15.518  1.00  0.00    -0.550 OA
ATOM     10  O   UNL     1      29.024  15.514 -13.959  1.00  0.00    -0.550 OA
ENDBRANCH   7   8
ENDBRANCH   6   7
ENDBRANCH   5   6
ENDBRANCH   4   5
ENDBRANCH   3   4
ENDBRANCH   2   3
ENDBRANCH   1   2
BRANCH   1  11
ATOM     11  C   UNL     1      29.428  10.284 -14.542  1.00  0.00     0.000 C 
BRANCH  11  12
ATOM     12  C   UNL     1      30.766   9.572 -14.306  1.00  0.00     0.000 C 
BRANCH  12  13
ATOM     13  C   UNL     1      30.638   8.517 -13.196  1.00  0.00     0.000 C 
BRANCH  13  14
ATOM     14  C   UNL     1      29.608   8.904 -12.123  1.00  0.00     0.000 C 
BRANCH  14  15
ATOM     15  C   UNL     1      30.265   9.319 -10.795  1.00  0.00     0.000 C 
BRANCH  15  16
ATOM     16  C   UNL     1      29.528  10.480 -10.109  1.00  0.00     0.006 C 
BRANCH  16  17
ATOM     17  C   UNL     1      28.543  11.192 -11.046  1.00  0.00     0.053 C 
BRANCH  17  18
ATOM     18  C   UNL     1      29.107  12.503 -11.496  1.00  0.00     0.041 C 
ATOM     19  O   UNL     1      28.451  13.565 -11.331  1.00  0.00    -0.550 OA
ATOM     20  O   UNL     1      30.379  12.558 -12.051  1.00  0.00    -0.550 OA
ENDBRANCH  17  18
ENDBRANCH  16  17
ENDBRANCH  15  16
ENDBRANCH  14  15
ENDBRANCH  13  14
ENDBRANCH  12  13
ENDBRANCH  11  12
ENDBRANCH   1  11
TORSDOF 15
ENDMDL
MODEL 3
REMARK VINA RESULT:    -3.934      2.811      4.655
REMARK INTER + INTRA:          -9.455
REMARK INTER:                  -7.397
REMARK INTRA:                  -2.057
REMARK UNBOUND:                -2.071
REMARK SMILES O=C([O-])CCCCCCCCCCCCCCC(=O)[O-]
REMARK SMILES IDX 10 1 9 2 8 3 7 4 6 5 5 6 4 7 2 8 1 9 3 10 11 11 12 12 13 13
REMARK SMILES IDX 14 14 15 15 16 16 17 17 18 18 19 19 20 20
REMARK H PARENT
REMARK Flexibility Score: inf
ROOT
ATOM      1  C   UNL     1      28.711  12.009 -16.168  1.00  0.00     0.000 C 
ENDROOT
BRANCH   1   2
ATOM      2  C   UNL     1      29.986  11.156 -16.132  1.00  0.00     0.000 C 
BRANCH   2   3
ATOM      3  C   UNL     1      29.986  10.220 -14.914  1.00  0.00     0.000 C 
BRANCH   3   4
ATOM      4  C   UNL     1      29.513  10.917 -13.628  1.00  0.00     0.000 C 
BRANCH   4   5
ATOM      5  C   UNL     1      30.676  11.518 -12.819  1.00  0.00     0.000 C 
BRANCH   5   6
ATOM      6  C   UNL     1      30.206  12.174 -11.511  1.00  0.00     0.006 C 
BRANCH   6   7
ATOM      7  C   UNL     1      29.188  11.313 -10.749  1.00  0.00     0.053 C 
BRANCH   7   8
ATOM      8  C   UNL     1      29.885  10.430  -9.763  1.00  0.00     0.041 C 
ATOM      9  O   UNL     1      29.836   9.179  -9.889  1.00  0.00    -0.550 OA
ATOM     10  O   UNL     1      30.631  10.990  -8.733  1.00  0.00    -0.550 OA
ENDBRANCH   7   8
ENDBRANCH   6   7
ENDBRANCH   5   6
ENDBRANCH   4   5
ENDBRANCH   3   4
ENDBRANCH   2   3
ENDBRANCH   1   2
BRANCH   1  11
ATOM     11  C   UNL     1      28.839  13.146 -17.188  1.00  0.00     0.000 C 
BRANCH  11  12
ATOM     12  C   UNL     1      30.122  13.954 -16.954  1.00  0.00     0.000 C 
BRANCH  12  13
ATOM     13  C   UNL     1      29.799  15.436 -16.709  1.00  0.00     0.000 C 
BRANCH  13  14
ATOM     14  C   UNL     1      30.135  15.889 -15.278  1.00  0.00     0.000 C 
BRANCH  14  15
ATOM     15  C   UNL     1      29.777  14.828 -14.223  1.00  0.00     0.000 C 
BRANCH  15  16
ATOM     16  C   UNL     1      28.522  15.199 -13.416  1.00  0.00     0.006 C 
BRANCH  16  17
ATOM     17  C   UNL     1      27.615  13.991 -13.143  1.00  0.00     0.053 C 
BRANCH  17  18
ATOM     18  C   UNL     1      26.581  14.337 -12.119  1.00  0.00     0.041 C 
ATOM     19  O   UNL     1      25.745  15.251 -12.345  1.00  0.00    -0.550 OA
ATOM     20  O   UNL     1      26.507  13.614 -10.935  1.00  0.00    -0.550 OA
ENDBRANCH  17  18
ENDBRANCH  16  17
ENDBRANCH  15  16
ENDBRANCH  14  15
ENDBRANCH  13  14
ENDBRANCH  12  13
ENDBRANCH  11  12
ENDBRANCH   1  11
TORSDOF 15
ENDMDL
MODEL 4
REMARK VINA RESULT:    -3.912      2.383      6.752
REMARK INTER + INTRA:          -9.413
REMARK INTER:                  -7.834
REMARK INTRA:                  -1.578
REMARK UNBOUND:                -2.071
REMARK SMILES O=C([O-])CCCCCCCCCCCCCCC(=O)[O-]
REMARK SMILES IDX 10 1 9 2 8 3 7 4 6 5 5 6 4 7 2 8 1 9 3 10 11 11 12 12 13 13
REMARK SMILES IDX 14 14 15 15 16 16 17 17 18 18 19 19 20 20
REMARK H PARENT
REMARK Flexibility Score: inf
ROOT
ATOM      1  C   UNL     1      28.848  12.734 -16.133  1.00  0.00     0.000 C 
ENDROOT
BRANCH   1   2
ATOM      2  C   UNL     1      28.810  13.496 -17.464  1.00  0.00     0.000 C 
BRANCH   2   3
ATOM      3  C   UNL     1      29.962  13.059 -18.381  1.00  0.00     0.000 C 
BRANCH   3   4
ATOM      4  C   UNL     1      30.762  11.877 -17.809  1.00  0.00     0.000 C 
BRANCH   4   5
ATOM      5  C   UNL     1      30.794  10.669 -18.761  1.00  0.00     0.000 C 
BRANCH   5   6
ATOM      6  C   UNL     1      30.391   9.359 -18.064  1.00  0.00     0.006 C 
BRANCH   6   7
ATOM      7  C   UNL     1      30.526   9.435 -16.537  1.00  0.00     0.053 C 
BRANCH   7   8
ATOM      8  C   UNL     1      29.664   8.402 -15.884  1.00  0.00     0.041 C 
ATOM      9  O   UNL     1      29.433   8.458 -14.648  1.00  0.00    -0.550 OA
ATOM     10  O   UNL     1      29.073   7.405 -16.650  1.00  0.00    -0.550 OA
ENDBRANCH   7   8
ENDBRANCH   6   7
ENDBRANCH   5   6
ENDBRANCH   4   5
ENDBRANCH   3   4
ENDBRANCH   2   3
ENDBRANCH   1   2
BRANCH   1  11
ATOM     11  C   UNL     1      29.167  13.678 -14.968  1.00  0.00     0.000 C 
BRANCH  11  12
ATOM     12  C   UNL     1      30.481  13.283 -14.282  1.00  0.00     0.000 C 
BRANCH  12  13
ATOM     13  C   UNL     1      30.418  11.836 -13.767  1.00  0.00     0.000 C 
BRANCH  13  14
ATOM     14  C   UNL     1      30.349  11.753 -12.233  1.00  0.00     0.000 C 
BRANCH  14  15
ATOM     15  C   UNL     1      28.923  11.485 -11.720  1.00  0.00     0.000 C 
BRANCH  15  16
ATOM     16  C   UNL     1      28.139  12.779 -11.452  1.00  0.00     0.006 C 
BRANCH  16  17
ATOM     17  C   UNL     1      26.724  12.514 -10.920  1.00  0.00     0.053 C 
BRANCH  17  18
ATOM     18  C   UNL     1      25.887  13.750 -11.027  1.00  0.00     0.041 C 
ATOM     19  O   UNL     1      25.446  14.309  -9.988  1.00  0.00    -0.550 OA
ATOM     20  O   UNL     1      25.637  14.315 -12.271  1.00  0.00    -0.550 OA
ENDBRANCH  17  18
ENDBRANCH  16  17
ENDBRANCH  15  16
ENDBRANCH  14  15
ENDBRANCH  13  14
ENDBRANCH  12  13
ENDBRANCH  11  12
ENDBRANCH   1  11
TORSDOF 15
ENDMDL
MODEL 5
REMARK VINA RESULT:    -3.906      2.943      5.138
REMARK INTER + INTRA:          -9.403
REMARK INTER:                  -7.657
REMARK INTRA:                  -1.746
REMARK UNBOUND:                -2.071
REMARK SMILES O=C([O-])CCCCCCCCCCCCCCC(=O)[O-]
REMARK SMILES IDX 10 1 9 2 8 3 7 4 6 5 5 6 4 7 2 8 1 9 3 10 11 11 12 12 13 13
REMARK SMILES IDX 14 14 15 15 16 16 17 17 18 18 19 19 20 20
REMARK H PARENT
REMARK Flexibility Score: inf
ROOT
ATOM      1  C   UNL     1      29.568  13.340 -18.248  1.00  0.00     0.000 C 
ENDROOT
BRANCH   1   2
ATOM      2  C   UNL     1      28.863  13.638 -16.919  1.00  0.00     0.000 C 
BRANCH   2   3
ATOM      3  C   UNL     1      29.797  14.388 -15.957  1.00  0.00     0.000 C 
BRANCH   3   4
ATOM      4  C   UNL     1      29.808  13.781 -14.545  1.00  0.00     0.000 C 
BRANCH   4   5
ATOM      5  C   UNL     1      28.392  13.555 -13.987  1.00  0.00     0.000 C 
BRANCH   5   6
ATOM      6  C   UNL     1      28.279  13.925 -12.499  1.00  0.00     0.006 C 
BRANCH   6   7
ATOM      7  C   UNL     1      26.916  14.533 -12.141  1.00  0.00     0.053 C 
BRANCH   7   8
ATOM      8  C   UNL     1      26.221  13.690 -11.120  1.00  0.00     0.041 C 
ATOM      9  O   UNL     1      26.589  12.503 -10.921  1.00  0.00    -0.550 OA
ATOM     10  O   UNL     1      25.197  14.230 -10.352  1.00  0.00    -0.550 OA
ENDBRANCH   7   8
ENDBRANCH   6   7
ENDBRANCH   5   6
ENDBRANCH   4   5
ENDBRANCH   3   4
ENDBRANCH   2   3
ENDBRANCH   1   2
BRANCH   1  11
ATOM     11  C   UNL     1      30.838  12.510 -18.023  1.00  0.00     0.000 C 
BRANCH  11  12
ATOM     12  C   UNL     1      30.711  11.123 -18.664  1.00  0.00     0.000 C 
BRANCH  12  13
ATOM     13  C   UNL     1      30.872  10.015 -17.612  1.00  0.00     0.000 C 
BRANCH  13  14
ATOM     14  C   UNL     1      30.768  10.542 -16.172  1.00  0.00     0.000 C 
BRANCH  14  15
ATOM     15  C   UNL     1      29.434  10.167 -15.501  1.00  0.00     0.000 C 
BRANCH  15  16
ATOM     16  C   UNL     1      29.556  10.047 -13.973  1.00  0.00     0.006 C 
BRANCH  16  17
ATOM     17  C   UNL     1      30.655   9.066 -13.543  1.00  0.00     0.053 C 
BRANCH  17  18
ATOM     18  C   UNL     1      30.252   8.347 -12.294  1.00  0.00     0.041 C 
ATOM     19  O   UNL     1      30.501   7.120 -12.160  1.00  0.00    -0.550 OA
ATOM     20  O   UNL     1      29.647   9.044 -11.256  1.00  0.00    -0.550 OA
ENDBRANCH  17  18
ENDBRANCH  16  17
ENDBRANCH  15  16
ENDBRANCH  14  15
ENDBRANCH  13  14
ENDBRANCH  12  13
ENDBRANCH  11  12
ENDBRANCH   1  11
TORSDOF 15
ENDMDL
MODEL 6
REMARK VINA RESULT:    -3.877      1.763      2.586
REMARK INTER + INTRA:          -9.349
REMARK INTER:                  -7.720
REMARK INTRA:                  -1.629
REMARK UNBOUND:                -2.071
REMARK SMILES O=C([O-])CCCCCCCCCCCCCCC(=O)[O-]
REMARK SMILES IDX 10 1 9 2 8 3 7 4 6 5 5 6 4 7 2 8 1 9 3 10 11 11 12 12 13 13
REMARK SMILES IDX 14 14 15 15 16 16 17 17 18 18 19 19 20 20
REMARK H PARENT
REMARK Flexibility Score: inf
ROOT
ATOM      1  C   UNL     1      29.509   9.433 -13.620  1.00  0.00     0.000 C 
ENDROOT
BRANCH   1   2
ATOM      2  C   UNL     1      30.636   9.450 -12.581  1.00  0.00     0.000 C 
BRANCH   2   3
ATOM      3  C   UNL     1      30.099   9.110 -11.182  1.00  0.00     0.000 C 
BRANCH   3   4
ATOM      4  C   UNL     1      29.350  10.285 -10.531  1.00  0.00     0.000 C 
BRANCH   4   5
ATOM      5  C   UNL     1      30.171  11.586 -10.537  1.00  0.00     0.000 C 
BRANCH   5   6
ATOM      6  C   UNL     1      29.439  12.741 -11.241  1.00  0.00     0.006 C 
BRANCH   6   7
ATOM      7  C   UNL     1      27.982  12.400 -11.578  1.00  0.00     0.053 C 
BRANCH   7   8
ATOM      8  C   UNL     1      27.148  13.641 -11.606  1.00  0.00     0.041 C 
ATOM      9  O   UNL     1      27.698  14.773 -11.646  1.00  0.00    -0.550 OA
ATOM     10  O   UNL     1      25.762  13.548 -11.638  1.00  0.00    -0.550 OA
ENDBRANCH   7   8
ENDBRANCH   6   7
ENDBRANCH   5   6
ENDBRANCH   4   5
ENDBRANCH   3   4
ENDBRANCH   2   3
ENDBRANCH   1   2
BRANCH   1  11
ATOM     11  C   UNL     1      29.571  10.673 -14.520  1.00  0.00     0.000 C 
BRANCH  11  12
ATOM     12  C   UNL     1      29.336  10.300 -15.989  1.00  0.00     0.000 C 
BRANCH  12  13
ATOM     13  C   UNL     1      30.621  10.475 -16.812  1.00  0.00     0.000 C 
BRANCH  13  14
ATOM     14  C   UNL     1      30.414  11.350 -18.059  1.00  0.00     0.000 C 
BRANCH  14  15
ATOM     15  C   UNL     1      30.722  12.835 -17.796  1.00  0.00     0.000 C 
BRANCH  15  16
ATOM     16  C   UNL     1      29.454  13.662 -17.530  1.00  0.00     0.006 C 
BRANCH  16  17
ATOM     17  C   UNL     1      29.766  15.092 -17.069  1.00  0.00     0.053 C 
BRANCH  17  18
ATOM     18  C   UNL     1      29.724  15.180 -15.576  1.00  0.00     0.041 C 
ATOM     19  O   UNL     1      30.154  16.207 -14.989  1.00  0.00    -0.550 OA
ATOM     20  O   UNL     1      29.162  14.148 -14.835  1.00  0.00    -0.550 OA
ENDBRANCH  17  18
ENDBRANCH  16  17
ENDBRANCH  15  16
ENDBRANCH  14  15
ENDBRANCH  13  14
ENDBRANCH  12  13
ENDBRANCH  11  12
ENDBRANCH   1  11
TORSDOF 15
ENDMDL
MODEL 7
REMARK VINA RESULT:    -3.857     16.759     18.127
REMARK INTER + INTRA:          -9.310
REMARK INTER:                  -7.578
REMARK INTRA:                  -1.732
REMARK UNBOUND:                -2.071
REMARK SMILES O=C([O-])CCCCCCCCCCCCCCC(=O)[O-]
REMARK SMILES IDX 10 1 9 2 8 3 7 4 6 5 5 6 4 7 2 8 1 9 3 10 11 11 12 12 13 13
REMARK SMILES IDX 14 14 15 15 16 16 17 17 18 18 19 19 20 20
REMARK H PARENT
REMARK Flexibility Score: inf
ROOT
ATOM      1  C   UNL     1      18.849  -0.612 -13.658  1.00  0.00     0.000 C 
ENDROOT
BRANCH   1   2
ATOM      2  C   UNL     1      18.620  -2.017 -13.089  1.00  0.00     0.000 C 
BRANCH   2   3
ATOM      3  C   UNL     1      18.095  -1.948 -11.647  1.00  0.00     0.000 C 
BRANCH   3   4
ATOM      4  C   UNL     1      16.880  -1.017 -11.500  1.00  0.00     0.000 C 
BRANCH   4   5
ATOM      5  C   UNL     1      15.676  -1.479 -12.339  1.00  0.00     0.000 C 
BRANCH   5   6
ATOM      6  C   UNL     1      14.734  -0.320 -12.704  1.00  0.00     0.006 C 
BRANCH   6   7
ATOM      7  C   UNL     1      13.366  -0.804 -13.206  1.00  0.00     0.053 C 
BRANCH   7   8
ATOM      8  C   UNL     1      13.296  -0.718 -14.697  1.00  0.00     0.041 C 
ATOM      9  O   UNL     1      12.232  -1.019 -15.299  1.00  0.00    -0.550 OA
ATOM     10  O   UNL     1      14.389  -0.256 -15.419  1.00  0.00    -0.550 OA
ENDBRANCH   7   8
ENDBRANCH   6   7
ENDBRANCH   5   6
ENDBRANCH   4   5
ENDBRANCH   3   4
ENDBRANCH   2   3
ENDBRANCH   1   2
BRANCH   1  11
ATOM     11  C   UNL     1      18.161  -0.449 -15.018  1.00  0.00     0.000 C 
BRANCH  11  12
ATOM     12  C   UNL     1      17.602  -1.787 -15.516  1.00  0.00     0.000 C 
BRANCH  12  13
ATOM     13  C   UNL     1      17.319  -1.736 -17.025  1.00  0.00     0.000 C 
BRANCH  13  14
ATOM     14  C   UNL     1      18.337  -0.877 -17.793  1.00  0.00     0.000 C 
BRANCH  14  15
ATOM     15  C   UNL     1      17.665   0.091 -18.783  1.00  0.00     0.000 C 
BRANCH  15  16
ATOM     16  C   UNL     1      16.444   0.801 -18.177  1.00  0.00     0.006 C 
BRANCH  16  17
ATOM     17  C   UNL     1      16.808   2.127 -17.496  1.00  0.00     0.053 C 
BRANCH  17  18
ATOM     18  C   UNL     1      15.996   3.247 -18.068  1.00  0.00     0.041 C 
ATOM     19  O   UNL     1      14.862   3.516 -17.592  1.00  0.00    -0.550 OA
ATOM     20  O   UNL     1      16.515   4.027 -19.093  1.00  0.00    -0.550 OA
ENDBRANCH  17  18
ENDBRANCH  16  17
ENDBRANCH  15  16
ENDBRANCH  14  15
ENDBRANCH  13  14
ENDBRANCH  12  13
ENDBRANCH  11  12
ENDBRANCH   1  11
TORSDOF 15
ENDMDL
MODEL 8
REMARK VINA RESULT:    -3.857      1.428      2.855
REMARK INTER + INTRA:          -9.309
REMARK INTER:                  -7.501
REMARK INTRA:                  -1.808
REMARK UNBOUND:                -2.071
REMARK SMILES O=C([O-])CCCCCCCCCCCCCCC(=O)[O-]
REMARK SMILES IDX 10 1 9 2 8 3 7 4 6 5 5 6 4 7 2 8 1 9 3 10 11 11 12 12 13 13
REMARK SMILES IDX 14 14 15 15 16 16 17 17 18 18 19 19 20 20
REMARK H PARENT
REMARK Flexibility Score: inf
ROOT
ATOM      1  C   UNL     1      30.016   9.346 -10.749  1.00  0.00     0.000 C 
ENDROOT
BRANCH   1   2
ATOM      2  C   UNL     1      31.012  10.507 -10.852  1.00  0.00     0.000 C 
BRANCH   2   3
ATOM      3  C   UNL     1      30.296  11.859 -10.724  1.00  0.00     0.000 C 
BRANCH   3   4
ATOM      4  C   UNL     1      30.000  12.507 -12.086  1.00  0.00     0.000 C 
BRANCH   4   5
ATOM      5  C   UNL     1      28.492  12.617 -12.374  1.00  0.00     0.000 C 
BRANCH   5   6
ATOM      6  C   UNL     1      27.660  12.787 -11.093  1.00  0.00     0.006 C 
BRANCH   6   7
ATOM      7  C   UNL     1      26.149  12.773 -11.362  1.00  0.00     0.053 C 
BRANCH   7   8
ATOM      8  C   UNL     1      25.555  14.116 -11.080  1.00  0.00     0.041 C 
ATOM      9  O   UNL     1      25.327  14.471  -9.894  1.00  0.00    -0.550 OA
ATOM     10  O   UNL     1      25.299  14.997 -12.123  1.00  0.00    -0.550 OA
ENDBRANCH   7   8
ENDBRANCH   6   7
ENDBRANCH   5   6
ENDBRANCH   4   5
ENDBRANCH   3   4
ENDBRANCH   2   3
ENDBRANCH   1   2
BRANCH   1  11
ATOM     11  C   UNL     1      30.068   8.463 -12.001  1.00  0.00     0.000 C 
BRANCH  11  12
ATOM     12  C   UNL     1      29.214   9.055 -13.129  1.00  0.00     0.000 C 
BRANCH  12  13
ATOM     13  C   UNL     1      29.624   8.474 -14.491  1.00  0.00     0.000 C 
BRANCH  13  14
ATOM     14  C   UNL     1      30.592   9.387 -15.260  1.00  0.00     0.000 C 
BRANCH  14  15
ATOM     15  C   UNL     1      30.157  10.863 -15.235  1.00  0.00     0.000 C 
BRANCH  15  16
ATOM     16  C   UNL     1      28.947  11.138 -16.142  1.00  0.00     0.006 C 
BRANCH  16  17
ATOM     17  C   UNL     1      28.463  12.592 -16.059  1.00  0.00     0.053 C 
BRANCH  17  18
ATOM     18  C   UNL     1      29.201  13.444 -17.044  1.00  0.00     0.041 C 
ATOM     19  O   UNL     1      29.532  14.620 -16.741  1.00  0.00    -0.550 OA
ATOM     20  O   UNL     1      29.567  12.921 -18.277  1.00  0.00    -0.550 OA
ENDBRANCH  17  18
ENDBRANCH  16  17
ENDBRANCH  15  16
ENDBRANCH  14  15
ENDBRANCH  13  14
ENDBRANCH  12  13
ENDBRANCH  11  12
ENDBRANCH   1  11
TORSDOF 15
ENDMDL
MODEL 9
REMARK VINA RESULT:    -3.781      2.795      4.485
REMARK INTER + INTRA:          -9.168
REMARK INTER:                  -7.491
REMARK INTRA:                  -1.677
REMARK UNBOUND:                -2.071
REMARK SMILES O=C([O-])CCCCCCCCCCCCCCC(=O)[O-]
REMARK SMILES IDX 10 1 9 2 8 3 7 4 6 5 5 6 4 7 2 8 1 9 3 10 11 11 12 12 13 13
REMARK SMILES IDX 14 14 15 15 16 16 17 17 18 18 19 19 20 20
REMARK H PARENT
REMARK Flexibility Score: inf
ROOT
ATOM      1  C   UNL     1      28.514  12.497 -16.101  1.00  0.00     0.000 C 
ENDROOT
BRANCH   1   2
ATOM      2  C   UNL     1      28.846  13.328 -14.855  1.00  0.00     0.000 C 
BRANCH   2   3
ATOM      3  C   UNL     1      29.873  12.604 -13.971  1.00  0.00     0.000 C 
BRANCH   3   4
ATOM      4  C   UNL     1      29.500  11.137 -13.705  1.00  0.00     0.000 C 
BRANCH   4   5
ATOM      5  C   UNL     1      29.366  10.823 -12.204  1.00  0.00     0.000 C 
BRANCH   5   6
ATOM      6  C   UNL     1      28.967  12.057 -11.379  1.00  0.00     0.006 C 
BRANCH   6   7
ATOM      7  C   UNL     1      27.453  12.146 -11.141  1.00  0.00     0.053 C 
BRANCH   7   8
ATOM      8  C   UNL     1      26.997  13.569 -11.205  1.00  0.00     0.041 C 
ATOM      9  O   UNL     1      27.745  14.452 -11.701  1.00  0.00    -0.550 OA
ATOM     10  O   UNL     1      25.726  13.913 -10.763  1.00  0.00    -0.550 OA
ENDBRANCH   7   8
ENDBRANCH   6   7
ENDBRANCH   5   6
ENDBRANCH   4   5
ENDBRANCH   3   4
ENDBRANCH   2   3
ENDBRANCH   1   2
BRANCH   1  11
ATOM     11  C   UNL     1      28.765  13.302 -17.382  1.00  0.00     0.000 C 
BRANCH  11  12
ATOM     12  C   UNL     1      30.258  13.332 -17.731  1.00  0.00     0.000 C 
BRANCH  12  13
ATOM     13  C   UNL     1      30.887  11.939 -17.573  1.00  0.00     0.000 C 
BRANCH  13  14
ATOM     14  C   UNL     1      30.709  11.060 -18.822  1.00  0.00     0.000 C 
BRANCH  14  15
ATOM     15  C   UNL     1      30.653   9.560 -18.485  1.00  0.00     0.000 C 
BRANCH  15  16
ATOM     16  C   UNL     1      29.961   9.282 -17.141  1.00  0.00     0.006 C 
BRANCH  16  17
ATOM     17  C   UNL     1      30.134   7.830 -16.675  1.00  0.00     0.053 C 
BRANCH  17  18
ATOM     18  C   UNL     1      28.842   7.085 -16.799  1.00  0.00     0.041 C 
ATOM     19  O   UNL     1      28.079   7.297 -17.778  1.00  0.00    -0.550 OA
ATOM     20  O   UNL     1      28.503   6.121 -15.859  1.00  0.00    -0.550 OA
ENDBRANCH  17  18
ENDBRANCH  16  17
ENDBRANCH  15  16
ENDBRANCH  14  15
ENDBRANCH  13  14
ENDBRANCH  12  13
ENDBRANCH  11  12
ENDBRANCH   1  11
TORSDOF 15
ENDMDL
