MODEL 1
REMARK VINA RESULT:    -9.273      0.000      0.000
REMARK INTER + INTRA:         -13.782
REMARK INTER:                 -13.068
REMARK INTRA:                  -0.714
REMARK UNBOUND:                -0.714
REMARK SMILES COc1c(O[C@@H]2O[C@H](C(=O)[O-])[C@H](O)[C@@H](O)[C@@H]2O)cc(O)c2c(=O)cc(-c3ccccc3)oc12
REMARK SMILES IDX 5 1 6 2 8 3 12 4 7 5 14 6 16 7 9 8 10 9 11 10 13 11 15 13
REMARK SMILES IDX 17 15 4 17 3 18 18 19 33 20 19 21 21 22 32 23 22 24 25 25
REMARK SMILES IDX 24 26 23 27 2 28 1 29 20 30 26 32 27 33 31 34 28 35 30 36
REMARK SMILES IDX 29 37
REMARK H PARENT 13 12 15 14 17 16 20 31
REMARK Flexibility Score: inf
ROOT
ATOM      1  O   UNL     1     -65.609 -38.777 -31.033  1.00  0.00    -0.458 OA
ENDROOT
BRANCH   1   2
ATOM      2  C   UNL     1     -64.314 -38.859 -30.431  1.00  0.00     0.339 C 
ATOM      3  C   UNL     1     -64.889 -40.466 -28.766  1.00  0.00     0.199 C 
ATOM      4  C   UNL     1     -64.777 -39.409 -27.636  1.00  0.00     0.180 C 
ATOM      5  O   UNL     1     -64.071 -40.152 -29.886  1.00  0.00    -0.328 OA
ATOM      6  C   UNL     1     -65.036 -37.993 -28.172  1.00  0.00     0.181 C 
ATOM      7  C   UNL     1     -64.135 -37.740 -29.383  1.00  0.00     0.214 C 
BRANCH   3   8
ATOM      8  C   UNL     1     -66.298 -40.825 -29.187  1.00  0.00     0.073 C 
ATOM      9  O   UNL     1     -66.524 -41.470 -30.245  1.00  0.00    -0.547 OA
ATOM     10  O   UNL     1     -67.370 -40.443 -28.385  1.00  0.00    -0.547 OA
ENDBRANCH   3   8
BRANCH   4  11
ATOM     11  O   UNL     1     -65.667 -39.696 -26.586  1.00  0.00    -0.387 OA
ATOM     12  H   UNL     1     -66.258 -40.424 -26.905  1.00  0.00     0.211 HD
ENDBRANCH   4  11
BRANCH   6  13
ATOM     13  O   UNL     1     -64.743 -37.045 -27.176  1.00  0.00    -0.387 OA
ATOM     14  H   UNL     1     -63.756 -36.933 -27.167  1.00  0.00     0.211 HD
ENDBRANCH   6  13
BRANCH   7  15
ATOM     15  O   UNL     1     -64.454 -36.493 -29.946  1.00  0.00    -0.384 OA
ATOM     16  H   UNL     1     -63.813 -36.335 -30.691  1.00  0.00     0.211 HD
ENDBRANCH   7  15
ENDBRANCH   1   2
BRANCH   1  17
ATOM     17  C   UNL     1     -65.877 -38.874 -32.409  1.00  0.00     0.172 A 
ATOM     18  C   UNL     1     -66.149 -37.696 -33.126  1.00  0.00     0.205 A 
ATOM     19  C   UNL     1     -65.915 -40.112 -33.078  1.00  0.00     0.097 A 
ATOM     20  C   UNL     1     -66.490 -37.760 -34.483  1.00  0.00     0.188 A 
ATOM     21  C   UNL     1     -66.241 -40.186 -34.439  1.00  0.00     0.134 A 
ATOM     22  C   UNL     1     -66.532 -39.004 -35.156  1.00  0.00     0.111 A 
ATOM     23  O   UNL     1     -66.768 -36.634 -35.133  1.00  0.00    -0.452 OA
ATOM     24  C   UNL     1     -66.861 -38.996 -36.527  1.00  0.00     0.197 A 
ATOM     25  C   UNL     1     -67.093 -36.591 -36.425  1.00  0.00     0.138 A 
ATOM     26  C   UNL     1     -67.138 -37.785 -37.163  1.00  0.00     0.100 A 
ATOM     27  O   UNL     1     -66.904 -40.061 -37.199  1.00  0.00    -0.289 OA
BRANCH  18  28
ATOM     28  O   UNL     1     -66.116 -36.446 -32.497  1.00  0.00    -0.490 OA
ATOM     29  C   UNL     1     -65.415 -35.335 -33.043  1.00  0.00     0.278 C 
ENDBRANCH  18  28
BRANCH  21  30
ATOM     30  O   UNL     1     -66.281 -41.431 -35.068  1.00  0.00    -0.507 OA
ATOM     31  H   UNL     1     -65.656 -42.185 -34.796  1.00  0.00     0.293 HD
ENDBRANCH  21  30
BRANCH  25  32
ATOM     32  C   UNL     1     -67.378 -35.269 -37.042  1.00  0.00     0.017 A 
ATOM     33  C   UNL     1     -68.587 -35.079 -37.738  1.00  0.00     0.012 A 
ATOM     34  C   UNL     1     -66.457 -34.203 -36.978  1.00  0.00     0.012 A 
ATOM     35  C   UNL     1     -68.878 -33.850 -38.335  1.00  0.00     0.001 A 
ATOM     36  C   UNL     1     -66.755 -32.974 -37.577  1.00  0.00     0.001 A 
ATOM     37  C   UNL     1     -67.966 -32.797 -38.249  1.00  0.00     0.000 A 
ENDBRANCH  25  32
ENDBRANCH   1  17
TORSDOF 9
ENDMDL
MODEL 2
REMARK VINA RESULT:    -8.781      1.949      3.748
REMARK INTER + INTRA:         -13.089
REMARK INTER:                 -12.138
REMARK INTRA:                  -0.952
REMARK UNBOUND:                -0.714
REMARK SMILES COc1c(O[C@@H]2O[C@H](C(=O)[O-])[C@H](O)[C@@H](O)[C@@H]2O)cc(O)c2c(=O)cc(-c3ccccc3)oc12
REMARK SMILES IDX 5 1 6 2 8 3 12 4 7 5 14 6 16 7 9 8 10 9 11 10 13 11 15 13
REMARK SMILES IDX 17 15 4 17 3 18 18 19 33 20 19 21 21 22 32 23 22 24 25 25
REMARK SMILES IDX 24 26 23 27 2 28 1 29 20 30 26 32 27 33 31 34 28 35 30 36
REMARK SMILES IDX 29 37
REMARK H PARENT 13 12 15 14 17 16 20 31
REMARK Flexibility Score: inf
ROOT
ATOM      1  O   UNL     1     -65.273 -38.024 -30.059  1.00  0.00    -0.458 OA
ENDROOT
BRANCH   1   2
ATOM      2  C   UNL     1     -63.996 -38.562 -29.702  1.00  0.00     0.339 C 
ATOM      3  C   UNL     1     -64.815 -40.276 -28.262  1.00  0.00     0.199 C 
ATOM      4  C   UNL     1     -64.280 -39.545 -27.004  1.00  0.00     0.180 C 
ATOM      5  O   UNL     1     -64.072 -39.958 -29.432  1.00  0.00    -0.328 OA
ATOM      6  C   UNL     1     -64.183 -38.030 -27.240  1.00  0.00     0.181 C 
ATOM      7  C   UNL     1     -63.389 -37.771 -28.523  1.00  0.00     0.214 C 
BRANCH   3   8
ATOM      8  C   UNL     1     -66.306 -40.164 -28.499  1.00  0.00     0.073 C 
ATOM      9  O   UNL     1     -66.891 -40.877 -29.358  1.00  0.00    -0.547 OA
ATOM     10  O   UNL     1     -67.051 -39.260 -27.747  1.00  0.00    -0.547 OA
ENDBRANCH   3   8
BRANCH   4  11
ATOM     11  O   UNL     1     -65.091 -39.806 -25.885  1.00  0.00    -0.387 OA
ATOM     12  H   UNL     1     -64.569 -39.539 -25.086  1.00  0.00     0.211 HD
ENDBRANCH   4  11
BRANCH   6  13
ATOM     13  O   UNL     1     -63.522 -37.420 -26.161  1.00  0.00    -0.387 OA
ATOM     14  H   UNL     1     -63.916 -36.514 -26.057  1.00  0.00     0.211 HD
ENDBRANCH   6  13
BRANCH   7  15
ATOM     15  O   UNL     1     -63.400 -36.395 -28.806  1.00  0.00    -0.384 OA
ATOM     16  H   UNL     1     -62.459 -36.076 -28.749  1.00  0.00     0.211 HD
ENDBRANCH   7  15
ENDBRANCH   1   2
BRANCH   1  17
ATOM     17  C   UNL     1     -65.563 -37.329 -31.245  1.00  0.00     0.172 A 
ATOM     18  C   UNL     1     -65.702 -38.062 -32.436  1.00  0.00     0.205 A 
ATOM     19  C   UNL     1     -65.682 -35.927 -31.281  1.00  0.00     0.097 A 
ATOM     20  C   UNL     1     -65.921 -37.398 -33.650  1.00  0.00     0.188 A 
ATOM     21  C   UNL     1     -65.916 -35.254 -32.487  1.00  0.00     0.134 A 
ATOM     22  C   UNL     1     -66.038 -35.989 -33.688  1.00  0.00     0.111 A 
ATOM     23  O   UNL     1     -66.024 -38.111 -34.767  1.00  0.00    -0.452 OA
ATOM     24  C   UNL     1     -66.280 -35.385 -34.939  1.00  0.00     0.197 A 
ATOM     25  C   UNL     1     -66.242 -37.573 -35.967  1.00  0.00     0.138 A 
ATOM     26  C   UNL     1     -66.386 -36.182 -36.080  1.00  0.00     0.100 A 
ATOM     27  O   UNL     1     -66.411 -34.137 -35.052  1.00  0.00    -0.289 OA
BRANCH  18  28
ATOM     28  O   UNL     1     -65.595 -39.457 -32.440  1.00  0.00    -0.490 OA
ATOM     29  C   UNL     1     -66.729 -40.311 -32.336  1.00  0.00     0.278 C 
ENDBRANCH  18  28
BRANCH  21  30
ATOM     30  O   UNL     1     -66.016 -33.862 -32.488  1.00  0.00    -0.507 OA
ATOM     31  H   UNL     1     -66.857 -33.390 -32.167  1.00  0.00     0.293 HD
ENDBRANCH  21  30
BRANCH  25  32
ATOM     32  C   UNL     1     -66.342 -38.477 -37.143  1.00  0.00     0.017 A 
ATOM     33  C   UNL     1     -65.243 -39.285 -37.487  1.00  0.00     0.012 A 
ATOM     34  C   UNL     1     -67.500 -38.526 -37.947  1.00  0.00     0.012 A 
ATOM     35  C   UNL     1     -65.305 -40.138 -38.593  1.00  0.00     0.001 A 
ATOM     36  C   UNL     1     -67.556 -39.383 -39.052  1.00  0.00     0.001 A 
ATOM     37  C   UNL     1     -66.464 -40.191 -39.370  1.00  0.00     0.000 A 
ENDBRANCH  25  32
ENDBRANCH   1  17
TORSDOF 9
ENDMDL
MODEL 3
REMARK VINA RESULT:    -8.345      2.695      8.406
REMARK INTER + INTRA:         -12.474
REMARK INTER:                 -11.595
REMARK INTRA:                  -0.879
REMARK UNBOUND:                -0.714
REMARK SMILES COc1c(O[C@@H]2O[C@H](C(=O)[O-])[C@H](O)[C@@H](O)[C@@H]2O)cc(O)c2c(=O)cc(-c3ccccc3)oc12
REMARK SMILES IDX 5 1 6 2 8 3 12 4 7 5 14 6 16 7 9 8 10 9 11 10 13 11 15 13
REMARK SMILES IDX 17 15 4 17 3 18 18 19 33 20 19 21 21 22 32 23 22 24 25 25
REMARK SMILES IDX 24 26 23 27 2 28 1 29 20 30 26 32 27 33 31 34 28 35 30 36
REMARK SMILES IDX 29 37
REMARK H PARENT 13 12 15 14 17 16 20 31
REMARK Flexibility Score: inf
ROOT
ATOM      1  O   UNL     1     -67.065 -39.505 -37.025  1.00  0.00    -0.458 OA
ENDROOT
BRANCH   1   2
ATOM      2  C   UNL     1     -66.828 -39.410 -38.432  1.00  0.00     0.339 C 
ATOM      3  C   UNL     1     -68.487 -40.988 -39.096  1.00  0.00     0.199 C 
ATOM      4  C   UNL     1     -67.409 -42.023 -39.509  1.00  0.00     0.180 C 
ATOM      5  O   UNL     1     -68.015 -39.649 -39.181  1.00  0.00    -0.328 OA
ATOM      6  C   UNL     1     -66.105 -41.812 -38.725  1.00  0.00     0.181 C 
ATOM      7  C   UNL     1     -65.675 -40.348 -38.849  1.00  0.00     0.214 C 
BRANCH   3   8
ATOM      8  C   UNL     1     -69.176 -41.254 -37.774  1.00  0.00     0.073 C 
ATOM      9  O   UNL     1     -70.125 -40.531 -37.370  1.00  0.00    -0.547 OA
ATOM     10  O   UNL     1     -68.760 -42.327 -36.991  1.00  0.00    -0.547 OA
ENDBRANCH   3   8
BRANCH   4  11
ATOM     11  O   UNL     1     -67.874 -43.337 -39.324  1.00  0.00    -0.387 OA
ATOM     12  H   UNL     1     -67.694 -43.825 -40.167  1.00  0.00     0.211 HD
ENDBRANCH   4  11
BRANCH   6  13
ATOM     13  O   UNL     1     -65.094 -42.633 -39.250  1.00  0.00    -0.387 OA
ATOM     14  H   UNL     1     -64.659 -43.083 -38.479  1.00  0.00     0.211 HD
ENDBRANCH   6  13
BRANCH   7  15
ATOM     15  O   UNL     1     -64.551 -40.125 -38.036  1.00  0.00    -0.384 OA
ATOM     16  H   UNL     1     -64.687 -39.249 -37.583  1.00  0.00     0.211 HD
ENDBRANCH   7  15
ENDBRANCH   1   2
BRANCH   1  17
ATOM     17  C   UNL     1     -66.757 -38.515 -36.076  1.00  0.00     0.172 A 
ATOM     18  C   UNL     1     -66.422 -38.915 -34.771  1.00  0.00     0.205 A 
ATOM     19  C   UNL     1     -66.808 -37.143 -36.384  1.00  0.00     0.097 A 
ATOM     20  C   UNL     1     -66.179 -37.956 -33.781  1.00  0.00     0.188 A 
ATOM     21  C   UNL     1     -66.552 -36.174 -35.405  1.00  0.00     0.134 A 
ATOM     22  C   UNL     1     -66.233 -36.575 -34.088  1.00  0.00     0.111 A 
ATOM     23  O   UNL     1     -65.889 -38.359 -32.547  1.00  0.00    -0.452 OA
ATOM     24  C   UNL     1     -65.955 -35.662 -33.050  1.00  0.00     0.197 A 
ATOM     25  C   UNL     1     -65.632 -37.523 -31.541  1.00  0.00     0.138 A 
ATOM     26  C   UNL     1     -65.651 -36.139 -31.774  1.00  0.00     0.100 A 
ATOM     27  O   UNL     1     -65.969 -34.417 -33.249  1.00  0.00    -0.289 OA
BRANCH  18  28
ATOM     28  O   UNL     1     -66.356 -40.270 -34.428  1.00  0.00    -0.490 OA
ATOM     29  C   UNL     1     -65.552 -41.202 -35.142  1.00  0.00     0.278 C 
ENDBRANCH  18  28
BRANCH  21  30
ATOM     30  O   UNL     1     -66.623 -34.822 -35.742  1.00  0.00    -0.507 OA
ATOM     31  H   UNL     1     -67.114 -34.506 -36.574  1.00  0.00     0.293 HD
ENDBRANCH  21  30
BRANCH  25  32
ATOM     32  C   UNL     1     -65.317 -38.096 -30.206  1.00  0.00     0.017 A 
ATOM     33  C   UNL     1     -65.918 -39.306 -29.815  1.00  0.00     0.012 A 
ATOM     34  C   UNL     1     -64.453 -37.443 -29.301  1.00  0.00     0.012 A 
ATOM     35  C   UNL     1     -65.647 -39.863 -28.562  1.00  0.00     0.001 A 
ATOM     36  C   UNL     1     -64.185 -38.007 -28.049  1.00  0.00     0.001 A 
ATOM     37  C   UNL     1     -64.776 -39.217 -27.683  1.00  0.00     0.000 A 
ENDBRANCH  25  32
ENDBRANCH   1  17
TORSDOF 9
ENDMDL
MODEL 4
REMARK VINA RESULT:    -8.251      4.775      9.517
REMARK INTER + INTRA:         -12.342
REMARK INTER:                 -11.677
REMARK INTRA:                  -0.665
REMARK UNBOUND:                -0.714
REMARK SMILES COc1c(O[C@@H]2O[C@H](C(=O)[O-])[C@H](O)[C@@H](O)[C@@H]2O)cc(O)c2c(=O)cc(-c3ccccc3)oc12
REMARK SMILES IDX 5 1 6 2 8 3 12 4 7 5 14 6 16 7 9 8 10 9 11 10 13 11 15 13
REMARK SMILES IDX 17 15 4 17 3 18 18 19 33 20 19 21 21 22 32 23 22 24 25 25
REMARK SMILES IDX 24 26 23 27 2 28 1 29 20 30 26 32 27 33 31 34 28 35 30 36
REMARK SMILES IDX 29 37
REMARK H PARENT 13 12 15 14 17 16 20 31
REMARK Flexibility Score: inf
ROOT
ATOM      1  O   UNL     1     -67.067 -43.139 -39.837  1.00  0.00    -0.458 OA
ENDROOT
BRANCH   1   2
ATOM      2  C   UNL     1     -66.231 -44.285 -40.013  1.00  0.00     0.339 C 
ATOM      3  C   UNL     1     -66.370 -44.360 -42.392  1.00  0.00     0.199 C 
ATOM      4  C   UNL     1     -67.239 -45.645 -42.351  1.00  0.00     0.180 C 
ATOM      5  O   UNL     1     -65.529 -44.237 -41.252  1.00  0.00    -0.328 OA
ATOM      6  C   UNL     1     -68.022 -45.744 -41.033  1.00  0.00     0.181 C 
ATOM      7  C   UNL     1     -67.053 -45.582 -39.858  1.00  0.00     0.214 C 
BRANCH   3   8
ATOM      8  C   UNL     1     -67.117 -43.075 -42.677  1.00  0.00     0.073 C 
ATOM      9  O   UNL     1     -68.304 -42.905 -42.290  1.00  0.00    -0.547 OA
ATOM     10  O   UNL     1     -66.479 -42.054 -43.375  1.00  0.00    -0.547 OA
ENDBRANCH   3   8
BRANCH   4  11
ATOM     11  O   UNL     1     -68.125 -45.691 -43.441  1.00  0.00    -0.387 OA
ATOM     12  H   UNL     1     -68.727 -46.462 -43.287  1.00  0.00     0.211 HD
ENDBRANCH   4  11
BRANCH   6  13
ATOM     13  O   UNL     1     -68.646 -46.999 -40.942  1.00  0.00    -0.387 OA
ATOM     14  H   UNL     1     -68.188 -47.596 -41.590  1.00  0.00     0.211 HD
ENDBRANCH   6  13
BRANCH   7  15
ATOM     15  O   UNL     1     -67.782 -45.553 -38.657  1.00  0.00    -0.384 OA
ATOM     16  H   UNL     1     -68.666 -45.974 -38.840  1.00  0.00     0.211 HD
ENDBRANCH   7  15
ENDBRANCH   1   2
BRANCH   1  17
ATOM     17  C   UNL     1     -67.054 -42.282 -38.722  1.00  0.00     0.172 A 
ATOM     18  C   UNL     1     -67.342 -40.921 -38.916  1.00  0.00     0.205 A 
ATOM     19  C   UNL     1     -66.728 -42.741 -37.431  1.00  0.00     0.097 A 
ATOM     20  C   UNL     1     -67.268 -40.025 -37.843  1.00  0.00     0.188 A 
ATOM     21  C   UNL     1     -66.667 -41.855 -36.347  1.00  0.00     0.134 A 
ATOM     22  C   UNL     1     -66.939 -40.483 -36.545  1.00  0.00     0.111 A 
ATOM     23  O   UNL     1     -67.521 -38.737 -38.057  1.00  0.00    -0.452 OA
ATOM     24  C   UNL     1     -66.904 -39.532 -35.504  1.00  0.00     0.197 A 
ATOM     25  C   UNL     1     -67.487 -37.811 -37.099  1.00  0.00     0.138 A 
ATOM     26  C   UNL     1     -67.183 -38.193 -35.783  1.00  0.00     0.100 A 
ATOM     27  O   UNL     1     -66.633 -39.865 -34.319  1.00  0.00    -0.289 OA
BRANCH  18  28
ATOM     28  O   UNL     1     -67.674 -40.429 -40.184  1.00  0.00    -0.490 OA
ATOM     29  C   UNL     1     -66.738 -39.742 -41.007  1.00  0.00     0.278 C 
ENDBRANCH  18  28
BRANCH  21  30
ATOM     30  O   UNL     1     -66.329 -42.341 -35.083  1.00  0.00    -0.507 OA
ATOM     31  H   UNL     1     -66.321 -41.737 -34.266  1.00  0.00     0.293 HD
ENDBRANCH  21  30
BRANCH  25  32
ATOM     32  C   UNL     1     -67.791 -36.402 -37.463  1.00  0.00     0.017 A 
ATOM     33  C   UNL     1     -66.927 -35.377 -37.035  1.00  0.00     0.012 A 
ATOM     34  C   UNL     1     -68.943 -36.056 -38.201  1.00  0.00     0.012 A 
ATOM     35  C   UNL     1     -67.193 -34.043 -37.354  1.00  0.00     0.001 A 
ATOM     36  C   UNL     1     -69.202 -34.719 -38.518  1.00  0.00     0.001 A 
ATOM     37  C   UNL     1     -68.326 -33.715 -38.101  1.00  0.00     0.000 A 
ENDBRANCH  25  32
ENDBRANCH   1  17
TORSDOF 9
ENDMDL
MODEL 5
REMARK VINA RESULT:    -8.221      5.031      8.720
REMARK INTER + INTRA:         -12.300
REMARK INTER:                 -10.888
REMARK INTRA:                  -1.412
REMARK UNBOUND:                -0.714
REMARK SMILES COc1c(O[C@@H]2O[C@H](C(=O)[O-])[C@H](O)[C@@H](O)[C@@H]2O)cc(O)c2c(=O)cc(-c3ccccc3)oc12
REMARK SMILES IDX 5 1 6 2 8 3 12 4 7 5 14 6 16 7 9 8 10 9 11 10 13 11 15 13
REMARK SMILES IDX 17 15 4 17 3 18 18 19 33 20 19 21 21 22 32 23 22 24 25 25
REMARK SMILES IDX 24 26 23 27 2 28 1 29 20 30 26 32 27 33 31 34 28 35 30 36
REMARK SMILES IDX 29 37
REMARK H PARENT 13 12 15 14 17 16 20 31
REMARK Flexibility Score: inf
ROOT
ATOM      1  O   UNL     1     -67.082 -39.207 -37.374  1.00  0.00    -0.458 OA
ENDROOT
BRANCH   1   2
ATOM      2  C   UNL     1     -66.616 -37.856 -37.316  1.00  0.00     0.339 C 
ATOM      3  C   UNL     1     -65.317 -38.102 -35.332  1.00  0.00     0.199 C 
ATOM      4  C   UNL     1     -66.317 -37.245 -34.511  1.00  0.00     0.180 C 
ATOM      5  O   UNL     1     -65.327 -37.772 -36.714  1.00  0.00    -0.328 OA
ATOM      6  C   UNL     1     -67.727 -37.305 -35.117  1.00  0.00     0.181 C 
ATOM      7  C   UNL     1     -67.651 -36.958 -36.606  1.00  0.00     0.214 C 
BRANCH   3   8
ATOM      8  C   UNL     1     -65.405 -39.597 -35.113  1.00  0.00     0.073 C 
ATOM      9  O   UNL     1     -66.279 -40.100 -34.358  1.00  0.00    -0.547 OA
ATOM     10  O   UNL     1     -64.508 -40.437 -35.767  1.00  0.00    -0.547 OA
ENDBRANCH   3   8
BRANCH   4  11
ATOM     11  O   UNL     1     -66.352 -37.658 -33.168  1.00  0.00    -0.387 OA
ATOM     12  H   UNL     1     -65.515 -38.161 -33.002  1.00  0.00     0.211 HD
ENDBRANCH   4  11
BRANCH   6  13
ATOM     13  O   UNL     1     -68.563 -36.377 -34.472  1.00  0.00    -0.387 OA
ATOM     14  H   UNL     1     -68.824 -36.781 -33.603  1.00  0.00     0.211 HD
ENDBRANCH   6  13
BRANCH   7  15
ATOM     15  O   UNL     1     -68.919 -37.129 -37.187  1.00  0.00    -0.384 OA
ATOM     16  H   UNL     1     -69.525 -37.467 -36.473  1.00  0.00     0.211 HD
ENDBRANCH   7  15
ENDBRANCH   1   2
BRANCH   1  17
ATOM     17  C   UNL     1     -67.141 -40.001 -38.532  1.00  0.00     0.172 A 
ATOM     18  C   UNL     1     -67.181 -41.398 -38.388  1.00  0.00     0.205 A 
ATOM     19  C   UNL     1     -67.124 -39.442 -39.824  1.00  0.00     0.097 A 
ATOM     20  C   UNL     1     -67.167 -42.224 -39.519  1.00  0.00     0.188 A 
ATOM     21  C   UNL     1     -67.125 -40.258 -40.963  1.00  0.00     0.134 A 
ATOM     22  C   UNL     1     -67.148 -41.663 -40.818  1.00  0.00     0.111 A 
ATOM     23  O   UNL     1     -67.181 -43.543 -39.357  1.00  0.00    -0.452 OA
ATOM     24  C   UNL     1     -67.158 -42.550 -41.915  1.00  0.00     0.197 A 
ATOM     25  C   UNL     1     -67.180 -44.410 -40.369  1.00  0.00     0.138 A 
ATOM     26  C   UNL     1     -67.178 -43.927 -41.688  1.00  0.00     0.100 A 
ATOM     27  O   UNL     1     -67.157 -42.128 -43.102  1.00  0.00    -0.289 OA
BRANCH  18  28
ATOM     28  O   UNL     1     -67.203 -41.991 -37.121  1.00  0.00    -0.490 OA
ATOM     29  C   UNL     1     -68.396 -42.504 -36.538  1.00  0.00     0.278 C 
ENDBRANCH  18  28
BRANCH  21  30
ATOM     30  O   UNL     1     -67.096 -39.671 -42.228  1.00  0.00    -0.507 OA
ATOM     31  H   UNL     1     -66.303 -39.117 -42.540  1.00  0.00     0.293 HD
ENDBRANCH  21  30
BRANCH  25  32
ATOM     32  C   UNL     1     -67.200 -45.864 -40.060  1.00  0.00     0.017 A 
ATOM     33  C   UNL     1     -67.979 -46.330 -38.985  1.00  0.00     0.012 A 
ATOM     34  C   UNL     1     -66.432 -46.792 -40.795  1.00  0.00     0.012 A 
ATOM     35  C   UNL     1     -68.009 -47.690 -38.665  1.00  0.00     0.001 A 
ATOM     36  C   UNL     1     -66.469 -48.152 -40.471  1.00  0.00     0.001 A 
ATOM     37  C   UNL     1     -67.260 -48.600 -39.412  1.00  0.00     0.000 A 
ENDBRANCH  25  32
ENDBRANCH   1  17
TORSDOF 9
ENDMDL
MODEL 6
REMARK VINA RESULT:    -8.166      3.071      8.802
REMARK INTER + INTRA:         -12.223
REMARK INTER:                 -11.190
REMARK INTRA:                  -1.032
REMARK UNBOUND:                -0.714
REMARK SMILES COc1c(O[C@@H]2O[C@H](C(=O)[O-])[C@H](O)[C@@H](O)[C@@H]2O)cc(O)c2c(=O)cc(-c3ccccc3)oc12
REMARK SMILES IDX 5 1 6 2 8 3 12 4 7 5 14 6 16 7 9 8 10 9 11 10 13 11 15 13
REMARK SMILES IDX 17 15 4 17 3 18 18 19 33 20 19 21 21 22 32 23 22 24 25 25
REMARK SMILES IDX 24 26 23 27 2 28 1 29 20 30 26 32 27 33 31 34 28 35 30 36
REMARK SMILES IDX 29 37
REMARK H PARENT 13 12 15 14 17 16 20 31
REMARK Flexibility Score: inf
ROOT
ATOM      1  O   UNL     1     -67.129 -39.983 -38.395  1.00  0.00    -0.458 OA
ENDROOT
BRANCH   1   2
ATOM      2  C   UNL     1     -68.247 -40.199 -39.260  1.00  0.00     0.339 C 
ATOM      3  C   UNL     1     -68.217 -42.581 -39.156  1.00  0.00     0.199 C 
ATOM      4  C   UNL     1     -67.722 -42.688 -40.622  1.00  0.00     0.180 C 
ATOM      5  O   UNL     1     -68.953 -41.388 -38.917  1.00  0.00    -0.328 OA
ATOM      6  C   UNL     1     -66.949 -41.429 -41.042  1.00  0.00     0.181 C 
ATOM      7  C   UNL     1     -67.796 -40.192 -40.736  1.00  0.00     0.214 C 
BRANCH   3   8
ATOM      8  C   UNL     1     -67.163 -42.809 -38.093  1.00  0.00     0.073 C 
ATOM      9  O   UNL     1     -67.478 -43.046 -36.896  1.00  0.00    -0.547 OA
ATOM     10  O   UNL     1     -65.817 -42.765 -38.444  1.00  0.00    -0.547 OA
ENDBRANCH   3   8
BRANCH   4  11
ATOM     11  O   UNL     1     -66.920 -43.828 -40.802  1.00  0.00    -0.387 OA
ATOM     12  H   UNL     1     -66.293 -43.860 -40.035  1.00  0.00     0.211 HD
ENDBRANCH   4  11
BRANCH   6  13
ATOM     13  O   UNL     1     -66.680 -41.472 -42.420  1.00  0.00    -0.387 OA
ATOM     14  H   UNL     1     -66.885 -40.570 -42.782  1.00  0.00     0.211 HD
ENDBRANCH   6  13
BRANCH   7  15
ATOM     15  O   UNL     1     -67.045 -39.036 -41.007  1.00  0.00    -0.384 OA
ATOM     16  H   UNL     1     -67.661 -38.379 -41.430  1.00  0.00     0.211 HD
ENDBRANCH   7  15
ENDBRANCH   1   2
BRANCH   1  17
ATOM     17  C   UNL     1     -67.013 -38.945 -37.454  1.00  0.00     0.172 A 
ATOM     18  C   UNL     1     -66.602 -39.264 -36.149  1.00  0.00     0.205 A 
ATOM     19  C   UNL     1     -67.329 -37.610 -37.771  1.00  0.00     0.097 A 
ATOM     20  C   UNL     1     -66.544 -38.269 -35.166  1.00  0.00     0.188 A 
ATOM     21  C   UNL     1     -67.259 -36.604 -36.798  1.00  0.00     0.134 A 
ATOM     22  C   UNL     1     -66.863 -36.927 -35.481  1.00  0.00     0.111 A 
ATOM     23  O   UNL     1     -66.176 -38.599 -33.932  1.00  0.00    -0.452 OA
ATOM     24  C   UNL     1     -66.762 -35.969 -34.450  1.00  0.00     0.197 A 
ATOM     25  C   UNL     1     -66.080 -37.723 -32.932  1.00  0.00     0.138 A 
ATOM     26  C   UNL     1     -66.366 -36.370 -33.173  1.00  0.00     0.100 A 
ATOM     27  O   UNL     1     -67.016 -34.752 -34.657  1.00  0.00    -0.289 OA
BRANCH  18  28
ATOM     28  O   UNL     1     -66.275 -40.578 -35.797  1.00  0.00    -0.490 OA
ATOM     29  C   UNL     1     -64.931 -41.044 -35.743  1.00  0.00     0.278 C 
ENDBRANCH  18  28
BRANCH  21  30
ATOM     30  O   UNL     1     -67.591 -35.293 -37.143  1.00  0.00    -0.507 OA
ATOM     31  H   UNL     1     -67.837 -35.040 -38.096  1.00  0.00     0.293 HD
ENDBRANCH  21  30
BRANCH  25  32
ATOM     32  C   UNL     1     -65.655 -38.215 -31.595  1.00  0.00     0.017 A 
ATOM     33  C   UNL     1     -66.041 -39.502 -31.179  1.00  0.00     0.012 A 
ATOM     34  C   UNL     1     -64.899 -37.414 -30.713  1.00  0.00     0.012 A 
ATOM     35  C   UNL     1     -65.663 -39.987 -29.923  1.00  0.00     0.001 A 
ATOM     36  C   UNL     1     -64.522 -37.906 -29.459  1.00  0.00     0.001 A 
ATOM     37  C   UNL     1     -64.899 -39.191 -29.068  1.00  0.00     0.000 A 
ENDBRANCH  25  32
ENDBRANCH   1  17
TORSDOF 9
ENDMDL
MODEL 7
REMARK VINA RESULT:    -8.130      4.861      8.733
REMARK INTER + INTRA:         -12.171
REMARK INTER:                 -11.120
REMARK INTRA:                  -1.052
REMARK UNBOUND:                -0.714
REMARK SMILES COc1c(O[C@@H]2O[C@H](C(=O)[O-])[C@H](O)[C@@H](O)[C@@H]2O)cc(O)c2c(=O)cc(-c3ccccc3)oc12
REMARK SMILES IDX 5 1 6 2 8 3 12 4 7 5 14 6 16 7 9 8 10 9 11 10 13 11 15 13
REMARK SMILES IDX 17 15 4 17 3 18 18 19 33 20 19 21 21 22 32 23 22 24 25 25
REMARK SMILES IDX 24 26 23 27 2 28 1 29 20 30 26 32 27 33 31 34 28 35 30 36
REMARK SMILES IDX 29 37
REMARK H PARENT 13 12 15 14 17 16 20 31
REMARK Flexibility Score: inf
ROOT
ATOM      1  O   UNL     1     -66.832 -39.114 -37.029  1.00  0.00    -0.458 OA
ENDROOT
BRANCH   1   2
ATOM      2  C   UNL     1     -67.712 -39.214 -35.905  1.00  0.00     0.339 C 
ATOM      3  C   UNL     1     -68.261 -36.897 -35.783  1.00  0.00     0.199 C 
ATOM      4  C   UNL     1     -67.449 -36.722 -34.473  1.00  0.00     0.180 C 
ATOM      5  O   UNL     1     -68.737 -38.226 -35.953  1.00  0.00    -0.328 OA
ATOM      6  C   UNL     1     -66.324 -37.764 -34.374  1.00  0.00     0.181 C 
ATOM      7  C   UNL     1     -66.911 -39.161 -34.587  1.00  0.00     0.214 C 
BRANCH   3   8
ATOM      8  C   UNL     1     -67.596 -36.377 -37.039  1.00  0.00     0.073 C 
ATOM      9  O   UNL     1     -68.219 -36.305 -38.131  1.00  0.00    -0.547 OA
ATOM     10  O   UNL     1     -66.269 -35.958 -36.986  1.00  0.00    -0.547 OA
ENDBRANCH   3   8
BRANCH   4  11
ATOM     11  O   UNL     1     -66.914 -35.426 -34.380  1.00  0.00    -0.387 OA
ATOM     12  H   UNL     1     -66.178 -35.468 -33.719  1.00  0.00     0.211 HD
ENDBRANCH   4  11
BRANCH   6  13
ATOM     13  O   UNL     1     -65.730 -37.705 -33.101  1.00  0.00    -0.387 OA
ATOM     14  H   UNL     1     -65.268 -38.572 -32.959  1.00  0.00     0.211 HD
ENDBRANCH   6  13
BRANCH   7  15
ATOM     15  O   UNL     1     -65.868 -40.103 -34.616  1.00  0.00    -0.384 OA
ATOM     16  H   UNL     1     -65.469 -40.070 -35.527  1.00  0.00     0.211 HD
ENDBRANCH   7  15
ENDBRANCH   1   2
BRANCH   1  17
ATOM     17  C   UNL     1     -66.939 -39.855 -38.218  1.00  0.00     0.172 A 
ATOM     18  C   UNL     1     -66.921 -41.258 -38.140  1.00  0.00     0.205 A 
ATOM     19  C   UNL     1     -67.027 -39.236 -39.479  1.00  0.00     0.097 A 
ATOM     20  C   UNL     1     -66.953 -42.029 -39.309  1.00  0.00     0.188 A 
ATOM     21  C   UNL     1     -67.075 -39.998 -40.654  1.00  0.00     0.134 A 
ATOM     22  C   UNL     1     -67.039 -41.408 -40.578  1.00  0.00     0.111 A 
ATOM     23  O   UNL     1     -66.911 -43.354 -39.211  1.00  0.00    -0.452 OA
ATOM     24  C   UNL     1     -67.091 -42.243 -41.713  1.00  0.00     0.197 A 
ATOM     25  C   UNL     1     -66.947 -44.172 -40.262  1.00  0.00     0.138 A 
ATOM     26  C   UNL     1     -67.048 -43.629 -41.553  1.00  0.00     0.100 A 
ATOM     27  O   UNL     1     -67.183 -41.766 -42.876  1.00  0.00    -0.289 OA
BRANCH  18  28
ATOM     28  O   UNL     1     -66.839 -41.909 -36.905  1.00  0.00    -0.490 OA
ATOM     29  C   UNL     1     -67.895 -42.715 -36.394  1.00  0.00     0.278 C 
ENDBRANCH  18  28
BRANCH  21  30
ATOM     30  O   UNL     1     -67.150 -39.351 -41.889  1.00  0.00    -0.507 OA
ATOM     31  H   UNL     1     -66.539 -38.572 -42.119  1.00  0.00     0.293 HD
ENDBRANCH  21  30
BRANCH  25  32
ATOM     32  C   UNL     1     -66.895 -45.638 -40.024  1.00  0.00     0.017 A 
ATOM     33  C   UNL     1     -67.923 -46.253 -39.284  1.00  0.00     0.012 A 
ATOM     34  C   UNL     1     -65.827 -46.432 -40.491  1.00  0.00     0.012 A 
ATOM     35  C   UNL     1     -67.896 -47.628 -39.037  1.00  0.00     0.001 A 
ATOM     36  C   UNL     1     -65.807 -47.808 -40.241  1.00  0.00     0.001 A 
ATOM     37  C   UNL     1     -66.842 -48.405 -39.521  1.00  0.00     0.000 A 
ENDBRANCH  25  32
ENDBRANCH   1  17
TORSDOF 9
ENDMDL
MODEL 8
REMARK VINA RESULT:    -7.528      2.701      8.401
REMARK INTER + INTRA:         -11.323
REMARK INTER:                 -10.632
REMARK INTRA:                  -0.692
REMARK UNBOUND:                -0.714
REMARK SMILES COc1c(O[C@@H]2O[C@H](C(=O)[O-])[C@H](O)[C@@H](O)[C@@H]2O)cc(O)c2c(=O)cc(-c3ccccc3)oc12
REMARK SMILES IDX 5 1 6 2 8 3 12 4 7 5 14 6 16 7 9 8 10 9 11 10 13 11 15 13
REMARK SMILES IDX 17 15 4 17 3 18 18 19 33 20 19 21 21 22 32 23 22 24 25 25
REMARK SMILES IDX 24 26 23 27 2 28 1 29 20 30 26 32 27 33 31 34 28 35 30 36
REMARK SMILES IDX 29 37
REMARK H PARENT 13 12 15 14 17 16 20 31
REMARK Flexibility Score: inf
ROOT
ATOM      1  O   UNL     1     -66.897 -39.864 -35.777  1.00  0.00    -0.458 OA
ENDROOT
BRANCH   1   2
ATOM      2  C   UNL     1     -66.010 -40.539 -36.673  1.00  0.00     0.339 C 
ATOM      3  C   UNL     1     -67.240 -40.090 -38.665  1.00  0.00     0.199 C 
ATOM      4  C   UNL     1     -67.669 -41.575 -38.794  1.00  0.00     0.180 C 
ATOM      5  O   UNL     1     -66.012 -39.939 -37.965  1.00  0.00    -0.328 OA
ATOM      6  C   UNL     1     -67.688 -42.270 -37.425  1.00  0.00     0.181 C 
ATOM      7  C   UNL     1     -66.344 -42.045 -36.728  1.00  0.00     0.214 C 
BRANCH   3   8
ATOM      8  C   UNL     1     -68.302 -39.147 -38.141  1.00  0.00     0.073 C 
ATOM      9  O   UNL     1     -69.387 -39.576 -37.667  1.00  0.00    -0.547 OA
ATOM     10  O   UNL     1     -68.073 -37.774 -38.176  1.00  0.00    -0.547 OA
ENDBRANCH   3   8
BRANCH   4  11
ATOM     11  O   UNL     1     -68.930 -41.685 -39.407  1.00  0.00    -0.387 OA
ATOM     12  H   UNL     1     -69.107 -42.653 -39.524  1.00  0.00     0.211 HD
ENDBRANCH   4  11
BRANCH   6  13
ATOM     13  O   UNL     1     -67.893 -43.650 -37.592  1.00  0.00    -0.387 OA
ATOM     14  H   UNL     1     -67.562 -43.882 -38.499  1.00  0.00     0.211 HD
ENDBRANCH   6  13
BRANCH   7  15
ATOM     15  O   UNL     1     -66.401 -42.576 -35.428  1.00  0.00    -0.384 OA
ATOM     16  H   UNL     1     -65.758 -43.336 -35.394  1.00  0.00     0.211 HD
ENDBRANCH   7  15
ENDBRANCH   1   2
BRANCH   1  17
ATOM     17  C   UNL     1     -66.544 -38.807 -34.920  1.00  0.00     0.172 A 
ATOM     18  C   UNL     1     -66.256 -39.099 -33.576  1.00  0.00     0.205 A 
ATOM     19  C   UNL     1     -66.505 -37.470 -35.359  1.00  0.00     0.097 A 
ATOM     20  C   UNL     1     -65.970 -38.065 -32.676  1.00  0.00     0.188 A 
ATOM     21  C   UNL     1     -66.204 -36.429 -34.470  1.00  0.00     0.134 A 
ATOM     22  C   UNL     1     -65.933 -36.720 -33.115  1.00  0.00     0.111 A 
ATOM     23  O   UNL     1     -65.726 -38.364 -31.404  1.00  0.00    -0.452 OA
ATOM     24  C   UNL     1     -65.616 -35.729 -32.163  1.00  0.00     0.197 A 
ATOM     25  C   UNL     1     -65.434 -37.452 -30.476  1.00  0.00     0.138 A 
ATOM     26  C   UNL     1     -65.363 -36.099 -30.841  1.00  0.00     0.100 A 
ATOM     27  O   UNL     1     -65.549 -34.511 -32.479  1.00  0.00    -0.289 OA
BRANCH  18  28
ATOM     28  O   UNL     1     -66.281 -40.416 -33.104  1.00  0.00    -0.490 OA
ATOM     29  C   UNL     1     -66.708 -40.748 -31.788  1.00  0.00     0.278 C 
ENDBRANCH  18  28
BRANCH  21  30
ATOM     30  O   UNL     1     -66.186 -35.114 -34.936  1.00  0.00    -0.507 OA
ATOM     31  H   UNL     1     -65.313 -34.610 -35.073  1.00  0.00     0.293 HD
ENDBRANCH  21  30
BRANCH  25  32
ATOM     32  C   UNL     1     -65.177 -37.911 -29.086  1.00  0.00     0.017 A 
ATOM     33  C   UNL     1     -65.943 -38.966 -28.555  1.00  0.00     0.012 A 
ATOM     34  C   UNL     1     -64.206 -37.298 -28.267  1.00  0.00     0.012 A 
ATOM     35  C   UNL     1     -65.729 -39.413 -27.248  1.00  0.00     0.001 A 
ATOM     36  C   UNL     1     -63.996 -37.751 -26.960  1.00  0.00     0.001 A 
ATOM     37  C   UNL     1     -64.752 -38.810 -26.455  1.00  0.00     0.000 A 
ENDBRANCH  25  32
ENDBRANCH   1  17
TORSDOF 9
ENDMDL
