MODEL 1
REMARK VINA RESULT:    -2.277      0.000      0.000
REMARK INTER + INTRA:          -2.277
REMARK INTER:                  -2.277
REMARK INTRA:                   0.000
REMARK UNBOUND:                 0.000
REMARK SMILES CC(=O)[O-]
REMARK SMILES IDX 1 1 2 2 3 3 4 4
REMARK H PARENT
REMARK Flexibility Score: inf
ROOT
ATOM      1  C   UNL     1      10.470  10.480  36.243  1.00  0.00     0.063 C 
ATOM      2  C   UNL     1       9.187  10.779  36.942  1.00  0.00     0.038 C 
ATOM      3  O   UNL     1       8.089  10.581  36.359  1.00  0.00    -0.550 OA
ATOM      4  O   UNL     1       9.201  11.329  38.218  1.00  0.00    -0.550 OA
ENDROOT
TORSDOF 0
ENDMDL
MODEL 2
REMARK VINA RESULT:    -2.069     17.427     17.872
REMARK INTER + INTRA:          -2.069
REMARK INTER:                  -2.069
REMARK INTRA:                   0.000
REMARK UNBOUND:                 0.000
REMARK SMILES CC(=O)[O-]
REMARK SMILES IDX 1 1 2 2 3 3 4 4
REMARK H PARENT
REMARK Flexibility Score: inf
ROOT
ATOM      1  C   UNL     1       6.329  13.429  53.100  1.00  0.00     0.063 C 
ATOM      2  C   UNL     1       6.644  14.330  54.246  1.00  0.00     0.038 C 
ATOM      3  O   UNL     1       6.296  15.540  54.213  1.00  0.00    -0.550 OA
ATOM      4  O   UNL     1       7.368  13.851  55.330  1.00  0.00    -0.550 OA
ENDROOT
TORSDOF 0
ENDMDL
MODEL 3
REMARK VINA RESULT:    -2.064      1.736      1.976
REMARK INTER + INTRA:          -2.064
REMARK INTER:                  -2.064
REMARK INTRA:                   0.000
REMARK UNBOUND:                 0.000
REMARK SMILES CC(=O)[O-]
REMARK SMILES IDX 1 1 2 2 3 3 4 4
REMARK H PARENT
REMARK Flexibility Score: inf
ROOT
ATOM      1  C   UNL     1       8.442  10.664  36.565  1.00  0.00     0.063 C 
ATOM      2  C   UNL     1       9.868  11.086  36.458  1.00  0.00     0.038 C 
ATOM      3  O   UNL     1      10.704  10.346  35.875  1.00  0.00    -0.550 OA
ATOM      4  O   UNL     1      10.290  12.271  37.048  1.00  0.00    -0.550 OA
ENDROOT
TORSDOF 0
ENDMDL
MODEL 4
REMARK VINA RESULT:    -2.039     16.696     17.000
REMARK INTER + INTRA:          -2.039
REMARK INTER:                  -2.039
REMARK INTRA:                   0.000
REMARK UNBOUND:                 0.000
REMARK SMILES CC(=O)[O-]
REMARK SMILES IDX 1 1 2 2 3 3 4 4
REMARK H PARENT
REMARK Flexibility Score: inf
ROOT
ATOM      1  C   UNL     1       6.421  15.266  54.097  1.00  0.00     0.063 C 
ATOM      2  C   UNL     1       6.807  14.058  53.312  1.00  0.00     0.038 C 
ATOM      3  O   UNL     1       5.919  13.290  52.856  1.00  0.00    -0.550 OA
ATOM      4  O   UNL     1       8.148  13.746  53.130  1.00  0.00    -0.550 OA
ENDROOT
TORSDOF 0
ENDMDL
MODEL 5
REMARK VINA RESULT:    -2.026      2.169      2.519
REMARK INTER + INTRA:          -2.026
REMARK INTER:                  -2.026
REMARK INTRA:                   0.000
REMARK UNBOUND:                 0.000
REMARK SMILES CC(=O)[O-]
REMARK SMILES IDX 1 1 2 2 3 3 4 4
REMARK H PARENT
REMARK Flexibility Score: inf
ROOT
ATOM      1  C   UNL     1      10.684  10.403  36.062  1.00  0.00     0.063 C 
ATOM      2  C   UNL     1      11.013  10.520  37.511  1.00  0.00     0.038 C 
ATOM      3  O   UNL     1      11.809  11.412  37.909  1.00  0.00    -0.550 OA
ATOM      4  O   UNL     1      10.486   9.612  38.421  1.00  0.00    -0.550 OA
ENDROOT
TORSDOF 0
ENDMDL
MODEL 6
REMARK VINA RESULT:    -2.022     16.936     17.350
REMARK INTER + INTRA:          -2.022
REMARK INTER:                  -2.022
REMARK INTRA:                   0.000
REMARK UNBOUND:                 0.000
REMARK SMILES CC(=O)[O-]
REMARK SMILES IDX 1 1 2 2 3 3 4 4
REMARK H PARENT
REMARK Flexibility Score: inf
ROOT
ATOM      1  C   UNL     1       6.304  11.104  54.932  1.00  0.00     0.063 C 
ATOM      2  C   UNL     1       5.655  10.408  53.784  1.00  0.00     0.038 C 
ATOM      3  O   UNL     1       4.973  11.062  52.951  1.00  0.00    -0.550 OA
ATOM      4  O   UNL     1       5.756   9.028  53.658  1.00  0.00    -0.550 OA
ENDROOT
TORSDOF 0
ENDMDL
MODEL 7
REMARK VINA RESULT:    -2.020     16.314     16.941
REMARK INTER + INTRA:          -2.020
REMARK INTER:                  -2.020
REMARK INTRA:                   0.000
REMARK UNBOUND:                 0.000
REMARK SMILES CC(=O)[O-]
REMARK SMILES IDX 1 1 2 2 3 3 4 4
REMARK H PARENT
REMARK Flexibility Score: inf
ROOT
ATOM      1  C   UNL     1       7.446  15.276  52.059  1.00  0.00     0.063 C 
ATOM      2  C   UNL     1       6.702  14.671  53.200  1.00  0.00     0.038 C 
ATOM      3  O   UNL     1       6.358  15.384  54.180  1.00  0.00    -0.550 OA
ATOM      4  O   UNL     1       6.433  13.308  53.212  1.00  0.00    -0.550 OA
ENDROOT
TORSDOF 0
ENDMDL
MODEL 8
REMARK VINA RESULT:    -1.976     16.635     17.299
REMARK INTER + INTRA:          -1.976
REMARK INTER:                  -1.976
REMARK INTRA:                   0.000
REMARK UNBOUND:                 0.000
REMARK SMILES CC(=O)[O-]
REMARK SMILES IDX 1 1 2 2 3 3 4 4
REMARK H PARENT
REMARK Flexibility Score: inf
ROOT
ATOM      1  C   UNL     1       6.212   9.654  53.252  1.00  0.00     0.063 C 
ATOM      2  C   UNL     1       6.079  10.989  53.901  1.00  0.00     0.038 C 
ATOM      3  O   UNL     1       6.114  11.088  55.157  1.00  0.00    -0.550 OA
ATOM      4  O   UNL     1       5.860  12.122  53.127  1.00  0.00    -0.550 OA
ENDROOT
TORSDOF 0
ENDMDL
MODEL 9
REMARK VINA RESULT:    -1.867     17.435     18.043
REMARK INTER + INTRA:          -1.867
REMARK INTER:                  -1.867
REMARK INTRA:                   0.000
REMARK UNBOUND:                 0.000
REMARK SMILES CC(=O)[O-]
REMARK SMILES IDX 1 1 2 2 3 3 4 4
REMARK H PARENT
REMARK Flexibility Score: inf
ROOT
ATOM      1  C   UNL     1       7.339  13.122  55.355  1.00  0.00     0.063 C 
ATOM      2  C   UNL     1       6.615  12.030  54.641  1.00  0.00     0.038 C 
ATOM      3  O   UNL     1       6.269  12.181  53.440  1.00  0.00    -0.550 OA
ATOM      4  O   UNL     1       6.271  10.866  55.316  1.00  0.00    -0.550 OA
ENDROOT
TORSDOF 0
ENDMDL
