MODEL 1
REMARK VINA RESULT:    -4.144      0.000      0.000
REMARK INTER + INTRA:          -5.495
REMARK INTER:                  -5.840
REMARK INTRA:                   0.345
REMARK UNBOUND:                 0.345
REMARK SMILES CC1=CCC(=C(C)C)C(=O)CC(C)=CCC1
REMARK SMILES IDX 12 1 14 2 13 3 15 4 16 5 2 6 1 7 3 8 11 10 9 11 10 12 5 13
REMARK SMILES IDX 6 14 7 15 8 16 4 17
REMARK H PARENT
REMARK Flexibility Score: 60.00
ROOT
ATOM      1  C   UNL     1     -15.010  14.941 -30.912  1.00  0.00    -0.070 C 
ATOM      2  C   UNL     1     -16.224  15.063 -30.311  1.00  0.00    -0.027 C 
ATOM      3  C   UNL     1     -14.074  16.125 -30.896  1.00  0.00     0.039 C 
ENDROOT
BRANCH   2   4
ATOM      4  C   UNL     1     -17.319  14.024 -30.310  1.00  0.00     0.032 C 
BRANCH   4   5
ATOM      5  C   UNL     1     -17.625  13.464 -28.914  1.00  0.00     0.034 C 
BRANCH   5   6
ATOM      6  C   UNL     1     -17.000  12.093 -28.749  1.00  0.00    -0.077 C 
ATOM      7  C   UNL     1     -17.840  10.883 -29.069  1.00  0.00     0.039 C 
ATOM      8  C   UNL     1     -15.705  11.899 -28.406  1.00  0.00    -0.023 CG0
ATOM      9  G   UNL     1     -14.719  12.981 -28.038  1.00  0.00     0.000 G0
ENDBRANCH   5   6
ENDBRANCH   4   5
ENDBRANCH   2   4
BRANCH   1  10
ATOM     10  C   UNL     1     -14.462  13.640 -31.483  1.00  0.00     0.111 C 
BRANCH  10  11
ATOM     11  C   UNL     1     -13.831  12.737 -30.454  1.00  0.00     0.163 C 
ATOM     12  O   UNL     1     -13.446  11.597 -30.833  1.00  0.00    -0.294 OA
BRANCH  11  13
ATOM     13  C   UNL     1     -13.597  13.164 -29.034  1.00  0.00    -0.002 C 
ATOM     14  C   UNL     1     -12.381  13.657 -28.642  1.00  0.00    -0.069 C 
ATOM     15  C   UNL     1     -11.275  13.933 -29.639  1.00  0.00     0.039 C 
ATOM     16  C   UNL     1     -12.089  14.001 -27.199  1.00  0.00     0.039 C 
BRANCH  13  17
ATOM     17  C   UNL     1     -14.725  12.983 -28.019  1.00  0.00     0.066 CG0
ATOM     18  G   UNL     1     -15.685  11.889 -28.422  1.00  0.00     0.000 G0
ENDBRANCH  13  17
ENDBRANCH  11  13
ENDBRANCH  10  11
ENDBRANCH   1  10
TORSDOF 0
ENDMDL
MODEL 2
REMARK VINA RESULT:    -4.027      1.790      3.663
REMARK INTER + INTRA:          -5.330
REMARK INTER:                  -5.582
REMARK INTRA:                   0.251
REMARK UNBOUND:                 0.345
REMARK SMILES CC1=CCC(=C(C)C)C(=O)CC(C)=CCC1
REMARK SMILES IDX 12 1 14 2 13 3 15 4 16 5 2 6 1 7 3 8 11 10 9 11 10 12 5 13
REMARK SMILES IDX 6 14 7 15 8 16 4 17
REMARK H PARENT
REMARK Flexibility Score: 60.00
ROOT
ATOM      1  C   UNL     1     -17.944  12.952 -29.320  1.00  0.00    -0.070 C 
ATOM      2  C   UNL     1     -17.790  11.866 -28.518  1.00  0.00    -0.027 C 
ATOM      3  C   UNL     1     -19.230  13.104 -30.094  1.00  0.00     0.039 C 
ENDROOT
BRANCH   2   4
ATOM      4  C   UNL     1     -16.544  11.503 -27.747  1.00  0.00     0.032 C 
BRANCH   4   5
ATOM      5  C   UNL     1     -15.450  10.875 -28.621  1.00  0.00     0.034 C 
BRANCH   5   6
ATOM      6  C   UNL     1     -14.130  11.589 -28.405  1.00  0.00    -0.077 C 
ATOM      7  C   UNL     1     -13.409  11.376 -27.099  1.00  0.00     0.039 C 
ATOM      8  C   UNL     1     -13.526  12.345 -29.352  1.00  0.00    -0.023 CG0
ATOM      9  G   UNL     1     -14.098  12.681 -30.709  1.00  0.00     0.000 G0
ENDBRANCH   5   6
ENDBRANCH   4   5
ENDBRANCH   2   4
BRANCH   1  10
ATOM     10  C   UNL     1     -16.961  14.115 -29.387  1.00  0.00     0.111 C 
BRANCH  10  11
ATOM     11  C   UNL     1     -16.204  14.202 -30.688  1.00  0.00     0.163 C 
ATOM     12  O   UNL     1     -16.866  14.444 -31.735  1.00  0.00    -0.294 OA
BRANCH  11  13
ATOM     13  C   UNL     1     -14.711  14.071 -30.768  1.00  0.00    -0.002 C 
ATOM     14  C   UNL     1     -13.919  15.176 -30.936  1.00  0.00    -0.069 C 
ATOM     15  C   UNL     1     -14.490  16.577 -30.898  1.00  0.00     0.039 C 
ATOM     16  C   UNL     1     -12.423  15.062 -31.118  1.00  0.00     0.039 C 
BRANCH  13  17
ATOM     17  C   UNL     1     -14.094  12.674 -30.719  1.00  0.00     0.066 CG0
ATOM     18  G   UNL     1     -13.543  12.342 -29.354  1.00  0.00     0.000 G0
ENDBRANCH  13  17
ENDBRANCH  11  13
ENDBRANCH  10  11
ENDBRANCH   1  10
TORSDOF 0
ENDMDL
MODEL 3
REMARK VINA RESULT:    -3.942      1.810      4.483
REMARK INTER + INTRA:          -5.210
REMARK INTER:                  -5.836
REMARK INTRA:                   0.626
REMARK UNBOUND:                 0.345
REMARK SMILES CC1=CCC(=C(C)C)C(=O)CC(C)=CCC1
REMARK SMILES IDX 12 1 14 2 13 3 15 4 16 5 2 6 1 7 3 8 11 10 9 11 10 12 5 13
REMARK SMILES IDX 6 14 7 15 8 16 4 17
REMARK H PARENT
REMARK Flexibility Score: 60.00
ROOT
ATOM      1  C   UNL     1     -12.869  13.537 -28.508  1.00  0.00    -0.070 C 
ATOM      2  C   UNL     1     -12.496  14.481 -29.413  1.00  0.00    -0.027 C 
ATOM      3  C   UNL     1     -12.381  13.667 -27.086  1.00  0.00     0.039 C 
ENDROOT
BRANCH   2   4
ATOM      4  C   UNL     1     -12.809  14.463 -30.890  1.00  0.00     0.032 C 
BRANCH   4   5
ATOM      5  C   UNL     1     -14.117  15.182 -31.244  1.00  0.00     0.034 C 
BRANCH   5   6
ATOM      6  C   UNL     1     -15.106  14.206 -31.851  1.00  0.00    -0.077 C 
ATOM      7  C   UNL     1     -14.870  13.737 -33.263  1.00  0.00     0.039 C 
ATOM      8  C   UNL     1     -16.144  13.672 -31.165  1.00  0.00    -0.023 CG0
ATOM      9  G   UNL     1     -16.544  14.027 -29.753  1.00  0.00     0.000 G0
ENDBRANCH   5   6
ENDBRANCH   4   5
ENDBRANCH   2   4
BRANCH   1  10
ATOM     10  C   UNL     1     -13.868  12.423 -28.792  1.00  0.00     0.111 C 
BRANCH  10  11
ATOM     11  C   UNL     1     -15.182  12.581 -28.071  1.00  0.00     0.163 C 
ATOM     12  O   UNL     1     -15.167  12.535 -26.809  1.00  0.00    -0.294 OA
BRANCH  11  13
ATOM     13  C   UNL     1     -16.474  12.845 -28.787  1.00  0.00    -0.002 C 
ATOM     14  C   UNL     1     -17.546  12.007 -28.630  1.00  0.00    -0.069 C 
ATOM     15  C   UNL     1     -17.532  10.877 -27.623  1.00  0.00     0.039 C 
ATOM     16  C   UNL     1     -18.825  12.195 -29.415  1.00  0.00     0.039 C 
BRANCH  13  17
ATOM     17  C   UNL     1     -16.552  14.033 -29.745  1.00  0.00     0.066 CG0
ATOM     18  G   UNL     1     -16.135  13.664 -31.148  1.00  0.00     0.000 G0
ENDBRANCH  13  17
ENDBRANCH  11  13
ENDBRANCH  10  11
ENDBRANCH   1  10
TORSDOF 0
ENDMDL
MODEL 4
REMARK VINA RESULT:    -3.869      2.056      5.091
REMARK INTER + INTRA:          -5.107
REMARK INTER:                  -5.278
REMARK INTRA:                   0.170
REMARK UNBOUND:                 0.345
REMARK SMILES CC1=CCC(=C(C)C)C(=O)CC(C)=CCC1
REMARK SMILES IDX 12 1 14 2 13 3 15 4 16 5 2 6 1 7 3 8 11 10 9 11 10 12 5 13
REMARK SMILES IDX 6 14 7 15 8 16 4 17
REMARK H PARENT
REMARK Flexibility Score: 60.00
ROOT
ATOM      1  C   UNL     1     -13.540  11.791 -27.778  1.00  0.00    -0.070 C 
ATOM      2  C   UNL     1     -12.378  12.496 -27.755  1.00  0.00    -0.027 C 
ATOM      3  C   UNL     1     -13.991  11.100 -26.515  1.00  0.00     0.039 C 
ENDROOT
BRANCH   2   4
ATOM      4  C   UNL     1     -11.728  13.169 -28.940  1.00  0.00     0.032 C 
BRANCH   4   5
ATOM      5  C   UNL     1     -12.266  14.580 -29.209  1.00  0.00     0.034 C 
BRANCH   5   6
ATOM      6  C   UNL     1     -12.698  14.711 -30.656  1.00  0.00    -0.077 C 
ATOM      7  C   UNL     1     -11.645  14.605 -31.728  1.00  0.00     0.039 C 
ATOM      8  C   UNL     1     -13.991  14.840 -31.041  1.00  0.00    -0.023 CG0
ATOM      9  G   UNL     1     -15.176  14.976 -30.115  1.00  0.00     0.000 G0
ENDBRANCH   5   6
ENDBRANCH   4   5
ENDBRANCH   2   4
BRANCH   1  10
ATOM     10  C   UNL     1     -14.505  11.764 -28.957  1.00  0.00     0.111 C 
BRANCH  10  11
ATOM     11  C   UNL     1     -15.640  12.750 -28.842  1.00  0.00     0.163 C 
ATOM     12  O   UNL     1     -16.264  12.799 -27.746  1.00  0.00    -0.294 OA
BRANCH  11  13
ATOM     13  C   UNL     1     -16.006  13.697 -29.947  1.00  0.00    -0.002 C 
ATOM     14  C   UNL     1     -17.009  13.393 -30.828  1.00  0.00    -0.069 C 
ATOM     15  C   UNL     1     -17.887  12.173 -30.643  1.00  0.00     0.039 C 
ATOM     16  C   UNL     1     -17.331  14.283 -32.007  1.00  0.00     0.039 C 
BRANCH  13  17
ATOM     17  C   UNL     1     -15.196  14.984 -30.108  1.00  0.00     0.066 CG0
ATOM     18  G   UNL     1     -14.018  14.804 -31.035  1.00  0.00     0.000 G0
ENDBRANCH  13  17
ENDBRANCH  11  13
ENDBRANCH  10  11
ENDBRANCH   1  10
TORSDOF 0
ENDMDL
MODEL 5
REMARK VINA RESULT:    -3.813      1.474      2.173
REMARK INTER + INTRA:          -5.028
REMARK INTER:                  -5.369
REMARK INTRA:                   0.341
REMARK UNBOUND:                 0.345
REMARK SMILES CC1=CCC(=C(C)C)C(=O)CC(C)=CCC1
REMARK SMILES IDX 12 1 14 2 13 3 15 4 16 5 2 6 1 7 3 8 11 10 9 11 10 12 5 13
REMARK SMILES IDX 6 14 7 15 8 16 4 17
REMARK H PARENT
REMARK Flexibility Score: 60.00
ROOT
ATOM      1  C   UNL     1     -16.866  13.688 -30.856  1.00  0.00    -0.070 C 
ATOM      2  C   UNL     1     -17.877  12.964 -30.306  1.00  0.00    -0.027 C 
ATOM      3  C   UNL     1     -17.040  14.225 -32.255  1.00  0.00     0.039 C 
ENDROOT
BRANCH   2   4
ATOM      4  C   UNL     1     -17.842  12.274 -28.964  1.00  0.00     0.032 C 
BRANCH   4   5
ATOM      5  C   UNL     1     -16.957  11.020 -28.948  1.00  0.00     0.034 C 
BRANCH   5   6
ATOM      6  C   UNL     1     -15.915  11.127 -27.851  1.00  0.00    -0.077 C 
ATOM      7  C   UNL     1     -16.379  11.078 -26.418  1.00  0.00     0.039 C 
ATOM      8  C   UNL     1     -14.584  11.184 -28.090  1.00  0.00    -0.023 CG0
ATOM      9  G   UNL     1     -13.934  11.256 -29.451  1.00  0.00     0.000 G0
ENDBRANCH   5   6
ENDBRANCH   4   5
ENDBRANCH   2   4
BRANCH   1  10
ATOM     10  C   UNL     1     -15.614  14.123 -30.105  1.00  0.00     0.111 C 
BRANCH  10  11
ATOM     11  C   UNL     1     -14.338  13.537 -30.651  1.00  0.00     0.163 C 
ATOM     12  O   UNL     1     -14.000  13.859 -31.824  1.00  0.00    -0.294 OA
BRANCH  11  13
ATOM     13  C   UNL     1     -13.441  12.648 -29.839  1.00  0.00    -0.002 C 
ATOM     14  C   UNL     1     -12.185  13.059 -29.480  1.00  0.00    -0.069 C 
ATOM     15  C   UNL     1     -11.702  14.468 -29.749  1.00  0.00     0.039 C 
ATOM     16  C   UNL     1     -11.228  12.146 -28.748  1.00  0.00     0.039 C 
BRANCH  13  17
ATOM     17  C   UNL     1     -13.935  11.249 -29.472  1.00  0.00     0.066 CG0
ATOM     18  G   UNL     1     -14.585  11.212 -28.110  1.00  0.00     0.000 G0
ENDBRANCH  13  17
ENDBRANCH  11  13
ENDBRANCH  10  11
ENDBRANCH   1  10
TORSDOF 0
ENDMDL
MODEL 6
REMARK VINA RESULT:    -2.308     11.318     13.232
REMARK INTER + INTRA:          -2.908
REMARK INTER:                  -3.278
REMARK INTRA:                   0.371
REMARK UNBOUND:                 0.345
REMARK SMILES CC1=CCC(=C(C)C)C(=O)CC(C)=CCC1
REMARK SMILES IDX 12 1 14 2 13 3 15 4 16 5 2 6 1 7 3 8 11 10 9 11 10 12 5 13
REMARK SMILES IDX 6 14 7 15 8 16 4 17
REMARK H PARENT
REMARK Flexibility Score: 60.00
ROOT
ATOM      1  C   UNL     1     -26.571  17.320 -30.812  1.00  0.00    -0.070 C 
ATOM      2  C   UNL     1     -27.653  17.545 -31.604  1.00  0.00    -0.027 C 
ATOM      3  C   UNL     1     -26.336  15.924 -30.289  1.00  0.00     0.039 C 
ENDROOT
BRANCH   2   4
ATOM      4  C   UNL     1     -28.096  18.887 -32.136  1.00  0.00     0.032 C 
BRANCH   4   5
ATOM      5  C   UNL     1     -27.680  19.130 -33.593  1.00  0.00     0.034 C 
BRANCH   5   6
ATOM      6  C   UNL     1     -27.206  20.559 -33.772  1.00  0.00    -0.077 C 
ATOM      7  C   UNL     1     -28.242  21.652 -33.837  1.00  0.00     0.039 C 
ATOM      8  C   UNL     1     -25.900  20.915 -33.797  1.00  0.00    -0.023 CG0
ATOM      9  G   UNL     1     -24.727  19.965 -33.757  1.00  0.00     0.000 G0
ENDBRANCH   5   6
ENDBRANCH   4   5
ENDBRANCH   2   4
BRANCH   1  10
ATOM     10  C   UNL     1     -25.488  18.352 -30.524  1.00  0.00     0.111 C 
BRANCH  10  11
ATOM     11  C   UNL     1     -24.458  18.480 -31.617  1.00  0.00     0.163 C 
ATOM     12  O   UNL     1     -23.847  17.434 -31.970  1.00  0.00    -0.294 OA
BRANCH  11  13
ATOM     13  C   UNL     1     -24.183  19.774 -32.325  1.00  0.00    -0.002 C 
ATOM     14  C   UNL     1     -23.517  20.791 -31.694  1.00  0.00    -0.069 C 
ATOM     15  C   UNL     1     -22.900  20.608 -30.324  1.00  0.00     0.039 C 
ATOM     16  C   UNL     1     -23.314  22.137 -32.351  1.00  0.00     0.039 C 
BRANCH  13  17
ATOM     17  C   UNL     1     -24.715  19.959 -33.746  1.00  0.00     0.066 CG0
ATOM     18  G   UNL     1     -25.880  20.917 -33.799  1.00  0.00     0.000 G0
ENDBRANCH  13  17
ENDBRANCH  11  13
ENDBRANCH  10  11
ENDBRANCH   1  10
TORSDOF 0
ENDMDL
MODEL 7
REMARK VINA RESULT:    -1.653      2.014      3.028
REMARK INTER + INTRA:          -1.984
REMARK INTER:                  -3.667
REMARK INTRA:                   1.683
REMARK UNBOUND:                 0.345
REMARK SMILES CC1=CCC(=C(C)C)C(=O)CC(C)=CCC1
REMARK SMILES IDX 12 1 14 2 13 3 15 4 16 5 2 6 1 7 3 8 11 10 9 11 10 12 5 13
REMARK SMILES IDX 6 14 7 15 8 16 4 17
REMARK H PARENT
REMARK Flexibility Score: 60.00
ROOT
ATOM      1  C   UNL     1     -16.156  14.497 -30.456  1.00  0.00    -0.070 C 
ATOM      2  C   UNL     1     -16.433  13.522 -29.550  1.00  0.00    -0.027 C 
ATOM      3  C   UNL     1     -16.194  15.936 -30.004  1.00  0.00     0.039 C 
ENDROOT
BRANCH   2   4
ATOM      4  C   UNL     1     -16.535  12.044 -29.843  1.00  0.00     0.032 C 
BRANCH   4   5
ATOM      5  C   UNL     1     -15.742  11.173 -28.860  1.00  0.00     0.034 C 
BRANCH   5   6
ATOM      6  C   UNL     1     -14.419  11.832 -28.523  1.00  0.00    -0.077 C 
ATOM      7  C   UNL     1     -14.062  12.017 -27.071  1.00  0.00     0.039 C 
ATOM      8  C   UNL     1     -13.505  12.190 -29.456  1.00  0.00    -0.023 CG0
ATOM      9  G   UNL     1     -13.688  12.094 -30.952  1.00  0.00     0.000 G0
ENDBRANCH   5   6
ENDBRANCH   4   5
ENDBRANCH   2   4
BRANCH   1  10
ATOM     10  C   UNL     1     -15.668  14.236 -31.876  1.00  0.00     0.111 C 
BRANCH  10  11
ATOM     11  C   UNL     1     -14.183  14.423 -32.056  1.00  0.00     0.163 C 
ATOM     12  O   UNL     1     -13.780  15.548 -32.463  1.00  0.00    -0.294 OA
BRANCH  11  13
ATOM     13  C   UNL     1     -13.184  13.355 -31.719  1.00  0.00    -0.002 C 
ATOM     14  C   UNL     1     -11.878  13.468 -32.115  1.00  0.00    -0.069 C 
ATOM     15  C   UNL     1     -11.351  14.726 -32.770  1.00  0.00     0.039 C 
ATOM     16  C   UNL     1     -10.875  12.362 -31.874  1.00  0.00     0.039 C 
BRANCH  13  17
ATOM     17  C   UNL     1     -13.665  12.109 -30.977  1.00  0.00     0.066 CG0
ATOM     18  G   UNL     1     -13.495  12.234 -29.482  1.00  0.00     0.000 G0
ENDBRANCH  13  17
ENDBRANCH  11  13
ENDBRANCH  10  11
ENDBRANCH   1  10
TORSDOF 0
ENDMDL
