MODEL 1
REMARK VINA RESULT:    -4.607      0.000      0.000
REMARK INTER + INTRA:         -11.148
REMARK INTER:                  -8.647
REMARK INTRA:                  -2.500
REMARK UNBOUND:                -2.500
REMARK SMILES CCCCCCCCCCCCCC=CC=CC(=O)OC
REMARK SMILES IDX 9 1 8 2 7 3 6 4 5 5 4 6 3 7 2 8 1 9 10 10 11 11 12 12 13 13
REMARK SMILES IDX 14 14 15 15 16 16 17 17 18 18 19 19 20 20 21 21
REMARK H PARENT
REMARK Flexibility Score: inf
ROOT
ATOM      1  C   UNL     1       2.415  50.489   8.609  1.00  0.00     0.000 C 
ENDROOT
BRANCH   1   2
ATOM      2  C   UNL     1       1.971  51.454   7.495  1.00  0.00     0.000 C 
BRANCH   2   3
ATOM      3  C   UNL     1       1.280  52.711   8.049  1.00  0.00     0.000 C 
BRANCH   3   4
ATOM      4  C   UNL     1       1.692  53.990   7.297  1.00  0.00    -0.000 C 
BRANCH   4   5
ATOM      5  C   UNL     1       2.535  53.694   6.047  1.00  0.00    -0.000 C 
BRANCH   5   6
ATOM      6  C   UNL     1       3.747  54.632   5.917  1.00  0.00    -0.000 C 
BRANCH   6   7
ATOM      7  C   UNL     1       4.218  54.808   4.461  1.00  0.00    -0.000 C 
BRANCH   7   8
ATOM      8  C   UNL     1       5.584  54.175   4.139  1.00  0.00    -0.003 C 
ATOM      9  C   UNL     1       6.175  54.663   2.816  1.00  0.00     0.004 C 
ENDBRANCH   7   8
ENDBRANCH   6   7
ENDBRANCH   5   6
ENDBRANCH   4   5
ENDBRANCH   3   4
ENDBRANCH   2   3
ENDBRANCH   1   2
BRANCH   1  10
ATOM     10  C   UNL     1       3.943  50.334   8.683  1.00  0.00     0.000 C 
BRANCH  10  11
ATOM     11  C   UNL     1       4.679  51.166   7.618  1.00  0.00     0.000 C 
BRANCH  11  12
ATOM     12  C   UNL     1       5.529  52.290   8.228  1.00  0.00     0.004 C 
BRANCH  12  13
ATOM     13  C   UNL     1       4.888  52.902   9.483  1.00  0.00     0.027 C 
BRANCH  13  14
ATOM     14  C   UNL     1       5.041  54.396   9.496  1.00  0.00    -0.027 C 
ATOM     15  C   UNL     1       3.986  55.205   9.635  1.00  0.00    -0.004 C 
BRANCH  15  16
ATOM     16  C   UNL     1       4.152  56.672   9.606  1.00  0.00     0.007 C 
ATOM     17  C   UNL     1       4.282  57.453  10.689  1.00  0.00     0.093 C 
BRANCH  17  18
ATOM     18  C   UNL     1       4.431  56.990  12.083  1.00  0.00     0.330 C 
ATOM     19  O   UNL     1       3.502  57.133  12.923  1.00  0.00    -0.247 OA
BRANCH  18  20
ATOM     20  O   UNL     1       5.604  56.321  12.441  1.00  0.00    -0.466 OA
ATOM     21  C   UNL     1       6.891  56.733  11.992  1.00  0.00     0.282 C 
ENDBRANCH  18  20
ENDBRANCH  17  18
ENDBRANCH  15  16
ENDBRANCH  13  14
ENDBRANCH  12  13
ENDBRANCH  11  12
ENDBRANCH  10  11
ENDBRANCH   1  10
TORSDOF 15
ENDMDL
MODEL 2
REMARK VINA RESULT:    -4.594      2.652      6.269
REMARK INTER + INTRA:         -11.122
REMARK INTER:                  -7.793
REMARK INTRA:                  -3.330
REMARK UNBOUND:                -2.500
REMARK SMILES CCCCCCCCCCCCCC=CC=CC(=O)OC
REMARK SMILES IDX 9 1 8 2 7 3 6 4 5 5 4 6 3 7 2 8 1 9 10 10 11 11 12 12 13 13
REMARK SMILES IDX 14 14 15 15 16 16 17 17 18 18 19 19 20 20 21 21
REMARK H PARENT
REMARK Flexibility Score: inf
ROOT
ATOM      1  C   UNL     1       4.404  56.824  10.307  1.00  0.00     0.000 C 
ENDROOT
BRANCH   1   2
ATOM      2  C   UNL     1       4.585  55.759   9.210  1.00  0.00     0.000 C 
BRANCH   2   3
ATOM      3  C   UNL     1       5.039  54.404   9.779  1.00  0.00     0.000 C 
BRANCH   3   4
ATOM      4  C   UNL     1       4.582  54.193  11.235  1.00  0.00    -0.000 C 
BRANCH   4   5
ATOM      5  C   UNL     1       4.078  52.765  11.495  1.00  0.00    -0.000 C 
BRANCH   5   6
ATOM      6  C   UNL     1       4.121  51.885  10.234  1.00  0.00    -0.000 C 
BRANCH   6   7
ATOM      7  C   UNL     1       2.866  51.010  10.068  1.00  0.00    -0.000 C 
BRANCH   7   8
ATOM      8  C   UNL     1       2.912  50.023   8.887  1.00  0.00    -0.003 C 
ATOM      9  C   UNL     1       4.329  49.763   8.377  1.00  0.00     0.004 C 
ENDBRANCH   7   8
ENDBRANCH   6   7
ENDBRANCH   5   6
ENDBRANCH   4   5
ENDBRANCH   3   4
ENDBRANCH   2   3
ENDBRANCH   1   2
BRANCH   1  10
ATOM     10  C   UNL     1       3.189  57.731  10.054  1.00  0.00     0.000 C 
BRANCH  10  11
ATOM     11  C   UNL     1       1.956  57.320  10.878  1.00  0.00     0.000 C 
BRANCH  11  12
ATOM     12  C   UNL     1       1.005  56.397  10.101  1.00  0.00     0.004 C 
BRANCH  12  13
ATOM     13  C   UNL     1       1.004  54.958  10.642  1.00  0.00     0.027 C 
BRANCH  13  14
ATOM     14  C   UNL     1       0.886  53.961   9.525  1.00  0.00    -0.027 C 
ATOM     15  C   UNL     1       1.585  54.093   8.394  1.00  0.00    -0.004 C 
BRANCH  15  16
ATOM     16  C   UNL     1       1.425  53.123   7.292  1.00  0.00     0.007 C 
ATOM     17  C   UNL     1       2.348  52.867   6.352  1.00  0.00     0.093 C 
BRANCH  17  18
ATOM     18  C   UNL     1       3.731  53.384   6.327  1.00  0.00     0.330 C 
ATOM     19  O   UNL     1       4.690  52.708   6.788  1.00  0.00    -0.247 OA
BRANCH  18  20
ATOM     20  O   UNL     1       3.971  54.617   5.714  1.00  0.00    -0.466 OA
ATOM     21  C   UNL     1       4.415  54.730   4.366  1.00  0.00     0.282 C 
ENDBRANCH  18  20
ENDBRANCH  17  18
ENDBRANCH  15  16
ENDBRANCH  13  14
ENDBRANCH  12  13
ENDBRANCH  11  12
ENDBRANCH  10  11
ENDBRANCH   1  10
TORSDOF 15
ENDMDL
MODEL 3
REMARK VINA RESULT:    -4.525      2.938      5.208
REMARK INTER + INTRA:         -10.993
REMARK INTER:                  -8.445
REMARK INTRA:                  -2.548
REMARK UNBOUND:                -2.500
REMARK SMILES CCCCCCCCCCCCCC=CC=CC(=O)OC
REMARK SMILES IDX 9 1 8 2 7 3 6 4 5 5 4 6 3 7 2 8 1 9 10 10 11 11 12 12 13 13
REMARK SMILES IDX 14 14 15 15 16 16 17 17 18 18 19 19 20 20 21 21
REMARK H PARENT
REMARK Flexibility Score: inf
ROOT
ATOM      1  C   UNL     1       0.857  55.582  10.479  1.00  0.00     0.000 C 
ENDROOT
BRANCH   1   2
ATOM      2  C   UNL     1      -0.436  55.621   9.646  1.00  0.00     0.000 C 
BRANCH   2   3
ATOM      3  C   UNL     1      -0.569  54.406   8.712  1.00  0.00     0.000 C 
BRANCH   3   4
ATOM      4  C   UNL     1       0.798  53.842   8.281  1.00  0.00    -0.000 C 
BRANCH   4   5
ATOM      5  C   UNL     1       0.983  53.846   6.755  1.00  0.00    -0.000 C 
BRANCH   5   6
ATOM      6  C   UNL     1       2.370  53.334   6.329  1.00  0.00    -0.000 C 
BRANCH   6   7
ATOM      7  C   UNL     1       3.127  54.327   5.428  1.00  0.00    -0.000 C 
BRANCH   7   8
ATOM      8  C   UNL     1       4.572  53.922   5.083  1.00  0.00    -0.003 C 
ATOM      9  C   UNL     1       5.147  52.877   6.039  1.00  0.00     0.004 C 
ENDBRANCH   7   8
ENDBRANCH   6   7
ENDBRANCH   5   6
ENDBRANCH   4   5
ENDBRANCH   3   4
ENDBRANCH   2   3
ENDBRANCH   1   2
BRANCH   1  10
ATOM     10  C   UNL     1       1.580  56.938  10.512  1.00  0.00     0.000 C 
BRANCH  10  11
ATOM     11  C   UNL     1       3.059  56.816  10.921  1.00  0.00     0.000 C 
BRANCH  11  12
ATOM     12  C   UNL     1       4.017  56.992   9.733  1.00  0.00     0.004 C 
BRANCH  12  13
ATOM     13  C   UNL     1       4.158  55.713   8.893  1.00  0.00     0.027 C 
BRANCH  13  14
ATOM     14  C   UNL     1       4.568  54.547   9.745  1.00  0.00    -0.027 C 
ATOM     15  C   UNL     1       4.161  53.304   9.470  1.00  0.00    -0.004 C 
BRANCH  15  16
ATOM     16  C   UNL     1       4.543  52.175  10.344  1.00  0.00     0.007 C 
ATOM     17  C   UNL     1       4.334  50.880  10.063  1.00  0.00     0.093 C 
BRANCH  17  18
ATOM     18  C   UNL     1       3.831  50.337   8.786  1.00  0.00     0.330 C 
ATOM     19  O   UNL     1       4.614  49.836   7.934  1.00  0.00    -0.247 OA
BRANCH  18  20
ATOM     20  O   UNL     1       2.451  50.322   8.565  1.00  0.00    -0.466 OA
ATOM     21  C   UNL     1       1.506  50.157   9.618  1.00  0.00     0.282 C 
ENDBRANCH  18  20
ENDBRANCH  17  18
ENDBRANCH  15  16
ENDBRANCH  13  14
ENDBRANCH  12  13
ENDBRANCH  11  12
ENDBRANCH  10  11
ENDBRANCH   1  10
TORSDOF 15
ENDMDL
MODEL 4
REMARK VINA RESULT:    -4.450      2.791      5.522
REMARK INTER + INTRA:         -10.852
REMARK INTER:                  -8.339
REMARK INTRA:                  -2.513
REMARK UNBOUND:                -2.500
REMARK SMILES CCCCCCCCCCCCCC=CC=CC(=O)OC
REMARK SMILES IDX 9 1 8 2 7 3 6 4 5 5 4 6 3 7 2 8 1 9 10 10 11 11 12 12 13 13
REMARK SMILES IDX 14 14 15 15 16 16 17 17 18 18 19 19 20 20 21 21
REMARK H PARENT
REMARK Flexibility Score: inf
ROOT
ATOM      1  C   UNL     1       2.251  57.453  11.016  1.00  0.00     0.000 C 
ENDROOT
BRANCH   1   2
ATOM      2  C   UNL     1       1.113  56.813  10.201  1.00  0.00     0.000 C 
BRANCH   2   3
ATOM      3  C   UNL     1       1.217  55.279  10.152  1.00  0.00     0.000 C 
BRANCH   3   4
ATOM      4  C   UNL     1      -0.008  54.627   9.486  1.00  0.00    -0.000 C 
BRANCH   4   5
ATOM      5  C   UNL     1       0.253  54.240   8.021  1.00  0.00    -0.000 C 
BRANCH   5   6
ATOM      6  C   UNL     1       1.660  53.655   7.808  1.00  0.00    -0.000 C 
BRANCH   6   7
ATOM      7  C   UNL     1       2.116  53.706   6.338  1.00  0.00    -0.000 C 
BRANCH   7   8
ATOM      8  C   UNL     1       3.332  54.610   6.065  1.00  0.00    -0.003 C 
ATOM      9  C   UNL     1       4.289  54.030   5.023  1.00  0.00     0.004 C 
ENDBRANCH   7   8
ENDBRANCH   6   7
ENDBRANCH   5   6
ENDBRANCH   4   5
ENDBRANCH   3   4
ENDBRANCH   2   3
ENDBRANCH   1   2
BRANCH   1  10
ATOM     10  C   UNL     1       3.349  58.055  10.125  1.00  0.00     0.000 C 
BRANCH  10  11
ATOM     11  C   UNL     1       4.245  56.985   9.476  1.00  0.00     0.000 C 
BRANCH  11  12
ATOM     12  C   UNL     1       5.230  56.354  10.471  1.00  0.00     0.004 C 
BRANCH  12  13
ATOM     13  C   UNL     1       4.976  54.852  10.682  1.00  0.00     0.027 C 
BRANCH  13  14
ATOM     14  C   UNL     1       5.029  54.107   9.379  1.00  0.00    -0.027 C 
ATOM     15  C   UNL     1       4.990  52.771   9.337  1.00  0.00    -0.004 C 
BRANCH  15  16
ATOM     16  C   UNL     1       5.082  52.055   8.048  1.00  0.00     0.007 C 
ATOM     17  C   UNL     1       4.535  50.857   7.793  1.00  0.00     0.093 C 
BRANCH  17  18
ATOM     18  C   UNL     1       3.626  50.108   8.684  1.00  0.00     0.330 C 
ATOM     19  O   UNL     1       4.073  49.352   9.589  1.00  0.00    -0.247 OA
BRANCH  18  20
ATOM     20  O   UNL     1       2.249  50.307   8.552  1.00  0.00    -0.466 OA
ATOM     21  C   UNL     1       1.336  50.086   9.622  1.00  0.00     0.282 C 
ENDBRANCH  18  20
ENDBRANCH  17  18
ENDBRANCH  15  16
ENDBRANCH  13  14
ENDBRANCH  12  13
ENDBRANCH  11  12
ENDBRANCH  10  11
ENDBRANCH   1  10
TORSDOF 15
ENDMDL
MODEL 5
REMARK VINA RESULT:    -4.427      1.478      3.973
REMARK INTER + INTRA:         -10.809
REMARK INTER:                  -7.907
REMARK INTRA:                  -2.902
REMARK UNBOUND:                -2.500
REMARK SMILES CCCCCCCCCCCCCC=CC=CC(=O)OC
REMARK SMILES IDX 9 1 8 2 7 3 6 4 5 5 4 6 3 7 2 8 1 9 10 10 11 11 12 12 13 13
REMARK SMILES IDX 14 14 15 15 16 16 17 17 18 18 19 19 20 20 21 21
REMARK H PARENT
REMARK Flexibility Score: inf
ROOT
ATOM      1  C   UNL     1       3.041  54.513   6.417  1.00  0.00     0.000 C 
ENDROOT
BRANCH   1   2
ATOM      2  C   UNL     1       1.775  53.757   6.855  1.00  0.00     0.000 C 
BRANCH   2   3
ATOM      3  C   UNL     1       1.482  53.926   8.356  1.00  0.00     0.000 C 
BRANCH   3   4
ATOM      4  C   UNL     1       1.398  52.578   9.095  1.00  0.00    -0.000 C 
BRANCH   4   5
ATOM      5  C   UNL     1       1.789  51.389   8.202  1.00  0.00    -0.000 C 
BRANCH   5   6
ATOM      6  C   UNL     1       2.069  50.111   9.011  1.00  0.00    -0.000 C 
BRANCH   6   7
ATOM      7  C   UNL     1       3.309  50.231   9.915  1.00  0.00    -0.000 C 
BRANCH   7   8
ATOM      8  C   UNL     1       4.345  49.103   9.752  1.00  0.00    -0.003 C 
ATOM      9  C   UNL     1       4.749  48.866   8.297  1.00  0.00     0.004 C 
ENDBRANCH   7   8
ENDBRANCH   6   7
ENDBRANCH   5   6
ENDBRANCH   4   5
ENDBRANCH   3   4
ENDBRANCH   2   3
ENDBRANCH   1   2
BRANCH   1  10
ATOM     10  C   UNL     1       3.724  53.867   5.201  1.00  0.00     0.000 C 
BRANCH  10  11
ATOM     11  C   UNL     1       5.146  53.364   5.512  1.00  0.00     0.000 C 
BRANCH  11  12
ATOM     12  C   UNL     1       5.150  52.125   6.419  1.00  0.00     0.004 C 
BRANCH  12  13
ATOM     13  C   UNL     1       6.128  52.258   7.598  1.00  0.00     0.027 C 
BRANCH  13  14
ATOM     14  C   UNL     1       5.396  52.547   8.878  1.00  0.00    -0.027 C 
ATOM     15  C   UNL     1       5.133  53.800   9.264  1.00  0.00    -0.004 C 
BRANCH  15  16
ATOM     16  C   UNL     1       4.447  54.065  10.545  1.00  0.00     0.007 C 
ATOM     17  C   UNL     1       4.525  55.213  11.236  1.00  0.00     0.093 C 
BRANCH  17  18
ATOM     18  C   UNL     1       5.175  56.459  10.783  1.00  0.00     0.330 C 
ATOM     19  O   UNL     1       4.552  57.305  10.086  1.00  0.00    -0.247 OA
BRANCH  18  20
ATOM     20  O   UNL     1       6.482  56.720  11.202  1.00  0.00    -0.466 OA
ATOM     21  C   UNL     1       6.891  56.597  12.560  1.00  0.00     0.282 C 
ENDBRANCH  18  20
ENDBRANCH  17  18
ENDBRANCH  15  16
ENDBRANCH  13  14
ENDBRANCH  12  13
ENDBRANCH  11  12
ENDBRANCH  10  11
ENDBRANCH   1  10
TORSDOF 15
ENDMDL
MODEL 6
REMARK VINA RESULT:    -4.396     13.510     15.397
REMARK INTER + INTRA:         -10.752
REMARK INTER:                  -8.172
REMARK INTRA:                  -2.580
REMARK UNBOUND:                -2.500
REMARK SMILES CCCCCCCCCCCCCC=CC=CC(=O)OC
REMARK SMILES IDX 9 1 8 2 7 3 6 4 5 5 4 6 3 7 2 8 1 9 10 10 11 11 12 12 13 13
REMARK SMILES IDX 14 14 15 15 16 16 17 17 18 18 19 19 20 20 21 21
REMARK H PARENT
REMARK Flexibility Score: inf
ROOT
ATOM      1  C   UNL     1      -9.286  63.345   2.905  1.00  0.00     0.000 C 
ENDROOT
BRANCH   1   2
ATOM      2  C   UNL     1      -8.929  64.690   2.248  1.00  0.00     0.000 C 
BRANCH   2   3
ATOM      3  C   UNL     1      -9.689  65.869   2.880  1.00  0.00     0.000 C 
BRANCH   3   4
ATOM      4  C   UNL     1     -10.667  65.418   3.981  1.00  0.00    -0.000 C 
BRANCH   4   5
ATOM      5  C   UNL     1     -10.361  66.062   5.342  1.00  0.00    -0.000 C 
BRANCH   5   6
ATOM      6  C   UNL     1      -8.973  66.726   5.382  1.00  0.00    -0.000 C 
BRANCH   6   7
ATOM      7  C   UNL     1      -8.008  66.041   6.367  1.00  0.00    -0.000 C 
BRANCH   7   8
ATOM      8  C   UNL     1      -7.206  64.865   5.780  1.00  0.00    -0.003 C 
ATOM      9  C   UNL     1      -6.236  65.290   4.678  1.00  0.00     0.004 C 
ENDBRANCH   7   8
ENDBRANCH   6   7
ENDBRANCH   5   6
ENDBRANCH   4   5
ENDBRANCH   3   4
ENDBRANCH   2   3
ENDBRANCH   1   2
BRANCH   1  10
ATOM     10  C   UNL     1      -8.232  62.259   2.636  1.00  0.00     0.000 C 
BRANCH  10  11
ATOM     11  C   UNL     1      -7.512  61.796   3.915  1.00  0.00     0.000 C 
BRANCH  11  12
ATOM     12  C   UNL     1      -6.274  60.936   3.620  1.00  0.00     0.004 C 
BRANCH  12  13
ATOM     13  C   UNL     1      -5.000  61.776   3.438  1.00  0.00     0.027 C 
BRANCH  13  14
ATOM     14  C   UNL     1      -4.114  61.685   4.647  1.00  0.00    -0.027 C 
ATOM     15  C   UNL     1      -4.506  62.150   5.836  1.00  0.00    -0.004 C 
BRANCH  15  16
ATOM     16  C   UNL     1      -3.604  62.087   7.005  1.00  0.00     0.007 C 
ATOM     17  C   UNL     1      -3.364  63.104   7.847  1.00  0.00     0.093 C 
BRANCH  17  18
ATOM     18  C   UNL     1      -4.057  64.408   7.857  1.00  0.00     0.330 C 
ATOM     19  O   UNL     1      -3.677  65.356   7.118  1.00  0.00    -0.247 OA
BRANCH  18  20
ATOM     20  O   UNL     1      -5.196  64.552   8.655  1.00  0.00    -0.466 OA
ATOM     21  C   UNL     1      -5.746  63.477   9.409  1.00  0.00     0.282 C 
ENDBRANCH  18  20
ENDBRANCH  17  18
ENDBRANCH  15  16
ENDBRANCH  13  14
ENDBRANCH  12  13
ENDBRANCH  11  12
ENDBRANCH  10  11
ENDBRANCH   1  10
TORSDOF 15
ENDMDL
MODEL 7
REMARK VINA RESULT:    -4.384      3.206      6.684
REMARK INTER + INTRA:         -10.729
REMARK INTER:                  -8.193
REMARK INTRA:                  -2.536
REMARK UNBOUND:                -2.500
REMARK SMILES CCCCCCCCCCCCCC=CC=CC(=O)OC
REMARK SMILES IDX 9 1 8 2 7 3 6 4 5 5 4 6 3 7 2 8 1 9 10 10 11 11 12 12 13 13
REMARK SMILES IDX 14 14 15 15 16 16 17 17 18 18 19 19 20 20 21 21
REMARK H PARENT
REMARK Flexibility Score: inf
ROOT
ATOM      1  C   UNL     1       4.395  58.329  11.671  1.00  0.00     0.000 C 
ENDROOT
BRANCH   1   2
ATOM      2  C   UNL     1       3.600  58.204  10.359  1.00  0.00     0.000 C 
BRANCH   2   3
ATOM      3  C   UNL     1       2.096  57.994  10.603  1.00  0.00     0.000 C 
BRANCH   3   4
ATOM      4  C   UNL     1       1.811  56.794  11.526  1.00  0.00    -0.000 C 
BRANCH   4   5
ATOM      5  C   UNL     1       1.092  55.648  10.798  1.00  0.00    -0.000 C 
BRANCH   5   6
ATOM      6  C   UNL     1       0.059  56.154   9.775  1.00  0.00    -0.000 C 
BRANCH   6   7
ATOM      7  C   UNL     1      -0.363  55.074   8.762  1.00  0.00    -0.000 C 
BRANCH   7   8
ATOM      8  C   UNL     1      -0.581  53.672   9.358  1.00  0.00    -0.003 C 
ATOM      9  C   UNL     1      -1.875  53.557  10.163  1.00  0.00     0.004 C 
ENDBRANCH   7   8
ENDBRANCH   6   7
ENDBRANCH   5   6
ENDBRANCH   4   5
ENDBRANCH   3   4
ENDBRANCH   2   3
ENDBRANCH   1   2
BRANCH   1  10
ATOM     10  C   UNL     1       5.602  57.379  11.723  1.00  0.00     0.000 C 
BRANCH  10  11
ATOM     11  C   UNL     1       5.320  56.099  12.531  1.00  0.00     0.000 C 
BRANCH  11  12
ATOM     12  C   UNL     1       4.862  54.930  11.646  1.00  0.00     0.004 C 
BRANCH  12  13
ATOM     13  C   UNL     1       5.352  55.060  10.194  1.00  0.00     0.027 C 
BRANCH  13  14
ATOM     14  C   UNL     1       4.454  54.312   9.252  1.00  0.00    -0.027 C 
ATOM     15  C   UNL     1       3.859  54.922   8.222  1.00  0.00    -0.004 C 
BRANCH  15  16
ATOM     16  C   UNL     1       2.948  54.178   7.329  1.00  0.00     0.007 C 
ATOM     17  C   UNL     1       3.271  53.719   6.110  1.00  0.00     0.093 C 
BRANCH  17  18
ATOM     18  C   UNL     1       4.616  53.736   5.501  1.00  0.00     0.330 C 
ATOM     19  O   UNL     1       5.427  52.788   5.680  1.00  0.00    -0.247 OA
BRANCH  18  20
ATOM     20  O   UNL     1       4.953  54.798   4.658  1.00  0.00    -0.466 OA
ATOM     21  C   UNL     1       5.243  54.618   3.275  1.00  0.00     0.282 C 
ENDBRANCH  18  20
ENDBRANCH  17  18
ENDBRANCH  15  16
ENDBRANCH  13  14
ENDBRANCH  12  13
ENDBRANCH  11  12
ENDBRANCH  10  11
ENDBRANCH   1  10
TORSDOF 15
ENDMDL
MODEL 8
REMARK VINA RESULT:    -4.346      1.474      4.532
REMARK INTER + INTRA:         -10.658
REMARK INTER:                  -7.722
REMARK INTRA:                  -2.935
REMARK UNBOUND:                -2.500
REMARK SMILES CCCCCCCCCCCCCC=CC=CC(=O)OC
REMARK SMILES IDX 9 1 8 2 7 3 6 4 5 5 4 6 3 7 2 8 1 9 10 10 11 11 12 12 13 13
REMARK SMILES IDX 14 14 15 15 16 16 17 17 18 18 19 19 20 20 21 21
REMARK H PARENT
REMARK Flexibility Score: inf
ROOT
ATOM      1  C   UNL     1       3.445  53.945   5.306  1.00  0.00     0.000 C 
ENDROOT
BRANCH   1   2
ATOM      2  C   UNL     1       4.601  53.732   6.300  1.00  0.00     0.000 C 
BRANCH   2   3
ATOM      3  C   UNL     1       5.623  52.698   5.797  1.00  0.00     0.000 C 
BRANCH   3   4
ATOM      4  C   UNL     1       5.890  51.585   6.826  1.00  0.00    -0.000 C 
BRANCH   4   5
ATOM      5  C   UNL     1       5.057  51.752   8.107  1.00  0.00    -0.000 C 
BRANCH   5   6
ATOM      6  C   UNL     1       4.159  50.535   8.389  1.00  0.00    -0.000 C 
BRANCH   6   7
ATOM      7  C   UNL     1       3.841  50.356   9.885  1.00  0.00    -0.000 C 
BRANCH   7   8
ATOM      8  C   UNL     1       4.895  50.933  10.848  1.00  0.00    -0.003 C 
ATOM      9  C   UNL     1       4.292  51.825  11.932  1.00  0.00     0.004 C 
ENDBRANCH   7   8
ENDBRANCH   6   7
ENDBRANCH   5   6
ENDBRANCH   4   5
ENDBRANCH   3   4
ENDBRANCH   2   3
ENDBRANCH   1   2
BRANCH   1  10
ATOM     10  C   UNL     1       2.081  54.065   6.003  1.00  0.00     0.000 C 
BRANCH  10  11
ATOM     11  C   UNL     1       1.647  52.759   6.693  1.00  0.00     0.000 C 
BRANCH  11  12
ATOM     12  C   UNL     1       1.411  52.936   8.200  1.00  0.00     0.004 C 
BRANCH  12  13
ATOM     13  C   UNL     1       1.727  54.360   8.686  1.00  0.00     0.027 C 
BRANCH  13  14
ATOM     14  C   UNL     1       2.935  54.371   9.577  1.00  0.00    -0.027 C 
ATOM     15  C   UNL     1       4.008  55.115   9.290  1.00  0.00    -0.004 C 
BRANCH  15  16
ATOM     16  C   UNL     1       5.202  55.083  10.159  1.00  0.00     0.007 C 
ATOM     17  C   UNL     1       5.471  55.969  11.130  1.00  0.00     0.093 C 
BRANCH  17  18
ATOM     18  C   UNL     1       4.570  57.036  11.608  1.00  0.00     0.330 C 
ATOM     19  O   UNL     1       4.101  57.021  12.778  1.00  0.00    -0.247 OA
BRANCH  18  20
ATOM     20  O   UNL     1       4.298  58.111  10.757  1.00  0.00    -0.466 OA
ATOM     21  C   UNL     1       3.003  58.691  10.643  1.00  0.00     0.282 C 
ENDBRANCH  18  20
ENDBRANCH  17  18
ENDBRANCH  15  16
ENDBRANCH  13  14
ENDBRANCH  12  13
ENDBRANCH  11  12
ENDBRANCH  10  11
ENDBRANCH   1  10
TORSDOF 15
ENDMDL
MODEL 9
REMARK VINA RESULT:    -4.323      2.964      6.099
REMARK INTER + INTRA:         -10.615
REMARK INTER:                  -7.714
REMARK INTRA:                  -2.901
REMARK UNBOUND:                -2.500
REMARK SMILES CCCCCCCCCCCCCC=CC=CC(=O)OC
REMARK SMILES IDX 9 1 8 2 7 3 6 4 5 5 4 6 3 7 2 8 1 9 10 10 11 11 12 12 13 13
REMARK SMILES IDX 14 14 15 15 16 16 17 17 18 18 19 19 20 20 21 21
REMARK H PARENT
REMARK Flexibility Score: inf
ROOT
ATOM      1  C   UNL     1       2.940  58.543  10.483  1.00  0.00     0.000 C 
ENDROOT
BRANCH   1   2
ATOM      2  C   UNL     1       1.757  58.009  11.310  1.00  0.00     0.000 C 
BRANCH   2   3
ATOM      3  C   UNL     1       0.816  57.121  10.479  1.00  0.00     0.000 C 
BRANCH   3   4
ATOM      4  C   UNL     1       0.457  55.807  11.199  1.00  0.00    -0.000 C 
BRANCH   4   5
ATOM      5  C   UNL     1       1.090  54.576  10.530  1.00  0.00    -0.000 C 
BRANCH   5   6
ATOM      6  C   UNL     1       1.154  54.705   8.999  1.00  0.00    -0.000 C 
BRANCH   6   7
ATOM      7  C   UNL     1       1.019  53.352   8.275  1.00  0.00    -0.000 C 
BRANCH   7   8
ATOM      8  C   UNL     1       1.279  52.115   9.154  1.00  0.00    -0.003 C 
ATOM      9  C   UNL     1       1.702  50.886   8.351  1.00  0.00     0.004 C 
ENDBRANCH   7   8
ENDBRANCH   6   7
ENDBRANCH   5   6
ENDBRANCH   4   5
ENDBRANCH   3   4
ENDBRANCH   2   3
ENDBRANCH   1   2
BRANCH   1  10
ATOM     10  C   UNL     1       3.820  57.418   9.915  1.00  0.00     0.000 C 
BRANCH  10  11
ATOM     11  C   UNL     1       4.964  57.018  10.864  1.00  0.00     0.000 C 
BRANCH  11  12
ATOM     12  C   UNL     1       5.577  55.655  10.511  1.00  0.00     0.004 C 
BRANCH  12  13
ATOM     13  C   UNL     1       4.630  54.484  10.817  1.00  0.00     0.027 C 
BRANCH  13  14
ATOM     14  C   UNL     1       4.697  53.437   9.741  1.00  0.00    -0.027 C 
ATOM     15  C   UNL     1       4.746  53.768   8.447  1.00  0.00    -0.004 C 
BRANCH  15  16
ATOM     16  C   UNL     1       4.772  52.724   7.403  1.00  0.00     0.007 C 
ATOM     17  C   UNL     1       4.378  52.897   6.132  1.00  0.00     0.093 C 
BRANCH  17  18
ATOM     18  C   UNL     1       3.993  54.178   5.507  1.00  0.00     0.330 C 
ATOM     19  O   UNL     1       2.811  54.611   5.577  1.00  0.00    -0.247 OA
BRANCH  18  20
ATOM     20  O   UNL     1       4.986  54.945   4.892  1.00  0.00    -0.466 OA
ATOM     21  C   UNL     1       5.733  54.480   3.772  1.00  0.00     0.282 C 
ENDBRANCH  18  20
ENDBRANCH  17  18
ENDBRANCH  15  16
ENDBRANCH  13  14
ENDBRANCH  12  13
ENDBRANCH  11  12
ENDBRANCH  10  11
ENDBRANCH   1  10
TORSDOF 15
ENDMDL
