MODEL 1
REMARK VINA RESULT:    -4.151      0.000      0.000
REMARK INTER + INTRA:          -6.330
REMARK INTER:                  -6.334
REMARK INTRA:                   0.004
REMARK UNBOUND:                 0.004
REMARK SMILES CC1=CCC[C@H](C)C(=O)C[C@@H](C(C)C)C(=O)C1
REMARK SMILES IDX 8 1 9 2 6 3 7 4 5 5 4 6 3 7 2 8 1 9 10 11 11 12 15 13 16 14
REMARK SMILES IDX 17 15 12 17 13 18 14 19
REMARK H PARENT
REMARK Flexibility Score: 70.00
ROOT
ATOM      1  C   UNL     1      15.809  28.199  29.578  1.00  0.00     0.136 C 
ATOM      2  O   UNL     1      14.706  28.225  29.051  1.00  0.00    -0.299 OA
ENDROOT
BRANCH   1   3
ATOM      3  C   UNL     1      16.631  26.929  29.408  1.00  0.00     0.053 C 
ATOM      4  C   UNL     1      15.814  25.692  29.813  1.00  0.00     0.016 C 
BRANCH   3   5
ATOM      5  C   UNL     1      17.449  26.744  28.095  1.00  0.00     0.015 C 
BRANCH   5   6
ATOM      6  C   UNL     1      18.466  27.814  27.631  1.00  0.00     0.028 C 
BRANCH   6   7
ATOM      7  C   UNL     1      19.693  27.961  28.494  1.00  0.00    -0.028 C 
ATOM      8  C   UNL     1      20.146  29.111  29.050  1.00  0.00    -0.070 CG0
ATOM      9  C   UNL     1      21.390  29.039  29.899  1.00  0.00     0.039 C 
ATOM     10  G   UNL     1      19.498  30.468  28.839  1.00  0.00     0.000 G0
ENDBRANCH   6   7
ENDBRANCH   5   6
ENDBRANCH   3   5
ENDBRANCH   1   3
BRANCH   1  11
ATOM     11  C   UNL     1      16.219  29.414  30.383  1.00  0.00     0.087 C 
BRANCH  11  12
ATOM     12  C   UNL     1      16.906  30.475  29.485  1.00  0.00     0.066 C 
BRANCH  12  13
ATOM     13  C   UNL     1      18.374  30.669  29.838  1.00  0.00     0.140 C 
ATOM     14  O   UNL     1      18.661  30.958  30.990  1.00  0.00    -0.299 OA
BRANCH  13  15
ATOM     15  C   UNL     1      19.497  30.462  28.850  1.00  0.00     0.106 CG0
ATOM     16  G   UNL     1      20.152  29.105  29.033  1.00  0.00     0.000 G0
ENDBRANCH  13  15
ENDBRANCH  12  13
BRANCH  12  17
ATOM     17  C   UNL     1      16.137  31.832  29.363  1.00  0.00    -0.006 C 
ATOM     18  C   UNL     1      17.021  33.048  29.038  1.00  0.00     0.008 C 
ATOM     19  C   UNL     1      15.296  32.122  30.619  1.00  0.00     0.008 C 
ENDBRANCH  12  17
ENDBRANCH  11  12
ENDBRANCH   1  11
TORSDOF 1
ENDMDL
MODEL 2
REMARK VINA RESULT:    -3.819      2.161      5.464
REMARK INTER + INTRA:          -5.824
REMARK INTER:                  -5.547
REMARK INTRA:                  -0.277
REMARK UNBOUND:                 0.004
REMARK SMILES CC1=CCC[C@H](C)C(=O)C[C@@H](C(C)C)C(=O)C1
REMARK SMILES IDX 8 1 9 2 6 3 7 4 5 5 4 6 3 7 2 8 1 9 10 11 11 12 15 13 16 14
REMARK SMILES IDX 17 15 12 17 13 18 14 19
REMARK H PARENT
REMARK Flexibility Score: 70.00
ROOT
ATOM      1  C   UNL     1      19.518  31.537  29.948  1.00  0.00     0.136 C 
ATOM      2  O   UNL     1      20.541  31.597  29.279  1.00  0.00    -0.299 OA
ENDROOT
BRANCH   1   3
ATOM      3  C   UNL     1      18.699  32.813  30.080  1.00  0.00     0.053 C 
ATOM      4  C   UNL     1      19.600  34.003  30.449  1.00  0.00     0.016 C 
BRANCH   3   5
ATOM      5  C   UNL     1      17.643  33.137  28.981  1.00  0.00     0.015 C 
BRANCH   5   6
ATOM      6  C   UNL     1      16.169  32.692  29.136  1.00  0.00     0.028 C 
BRANCH   6   7
ATOM      7  C   UNL     1      15.758  32.283  30.527  1.00  0.00    -0.028 C 
ATOM      8  C   UNL     1      15.576  31.013  30.965  1.00  0.00    -0.070 CG0
ATOM      9  C   UNL     1      15.178  30.817  32.406  1.00  0.00     0.039 C 
ATOM     10  G   UNL     1      15.710  29.784  30.083  1.00  0.00     0.000 G0
ENDBRANCH   6   7
ENDBRANCH   5   6
ENDBRANCH   3   5
ENDBRANCH   1   3
BRANCH   1  11
ATOM     11  C   UNL     1      19.202  30.213  30.610  1.00  0.00     0.087 C 
BRANCH  11  12
ATOM     12  C   UNL     1      18.302  29.334  29.703  1.00  0.00     0.066 C 
BRANCH  12  13
ATOM     13  C   UNL     1      16.969  29.002  30.359  1.00  0.00     0.140 C 
ATOM     14  O   UNL     1      16.936  28.100  31.184  1.00  0.00    -0.299 OA
BRANCH  13  15
ATOM     15  C   UNL     1      15.698  29.772  30.087  1.00  0.00     0.106 CG0
ATOM     16  G   UNL     1      15.588  30.992  30.984  1.00  0.00     0.000 G0
ENDBRANCH  13  15
ENDBRANCH  12  13
BRANCH  12  17
ATOM     17  C   UNL     1      19.004  28.070  29.106  1.00  0.00    -0.006 C 
ATOM     18  C   UNL     1      20.529  28.190  28.955  1.00  0.00     0.008 C 
ATOM     19  C   UNL     1      18.379  27.656  27.762  1.00  0.00     0.008 C 
ENDBRANCH  12  17
ENDBRANCH  11  12
ENDBRANCH   1  11
TORSDOF 1
ENDMDL
MODEL 3
REMARK VINA RESULT:    -3.758      1.412      3.939
REMARK INTER + INTRA:          -5.731
REMARK INTER:                  -5.775
REMARK INTRA:                   0.044
REMARK UNBOUND:                 0.004
REMARK SMILES CC1=CCC[C@H](C)C(=O)C[C@@H](C(C)C)C(=O)C1
REMARK SMILES IDX 8 1 9 2 6 3 7 4 5 5 4 6 3 7 2 8 1 9 10 11 11 12 15 13 16 14
REMARK SMILES IDX 17 15 12 17 13 18 14 19
REMARK H PARENT
REMARK Flexibility Score: 70.00
ROOT
ATOM      1  C   UNL     1      19.614  31.095  30.136  1.00  0.00     0.136 C 
ATOM      2  O   UNL     1      19.327  31.560  31.231  1.00  0.00    -0.299 OA
ENDROOT
BRANCH   1   3
ATOM      3  C   UNL     1      21.084  30.801  29.871  1.00  0.00     0.053 C 
ATOM      4  C   UNL     1      21.982  31.627  30.805  1.00  0.00     0.016 C 
BRANCH   3   5
ATOM      5  C   UNL     1      21.529  29.316  29.716  1.00  0.00     0.015 C 
BRANCH   5   6
ATOM      6  C   UNL     1      20.555  28.155  30.031  1.00  0.00     0.028 C 
BRANCH   6   7
ATOM      7  C   UNL     1      19.766  27.635  28.857  1.00  0.00    -0.028 C 
ATOM      8  C   UNL     1      18.415  27.559  28.774  1.00  0.00    -0.070 CG0
ATOM      9  C   UNL     1      17.818  27.020  27.498  1.00  0.00     0.039 C 
ATOM     10  G   UNL     1      17.473  27.946  29.901  1.00  0.00     0.000 G0
ENDBRANCH   6   7
ENDBRANCH   5   6
ENDBRANCH   3   5
ENDBRANCH   1   3
BRANCH   1  11
ATOM     11  C   UNL     1      18.484  30.907  29.147  1.00  0.00     0.087 C 
BRANCH  11  12
ATOM     12  C   UNL     1      17.151  30.588  29.872  1.00  0.00     0.066 C 
BRANCH  12  13
ATOM     13  C   UNL     1      16.659  29.177  29.581  1.00  0.00     0.140 C 
ATOM     14  O   UNL     1      15.587  29.042  29.011  1.00  0.00    -0.299 OA
BRANCH  13  15
ATOM     15  C   UNL     1      17.458  27.938  29.908  1.00  0.00     0.106 CG0
ATOM     16  G   UNL     1      18.420  27.587  28.787  1.00  0.00     0.000 G0
ENDBRANCH  13  15
ENDBRANCH  12  13
BRANCH  12  17
ATOM     17  C   UNL     1      16.028  31.661  29.689  1.00  0.00    -0.006 C 
ATOM     18  C   UNL     1      16.489  32.972  29.030  1.00  0.00     0.008 C 
ATOM     19  C   UNL     1      15.316  31.969  31.018  1.00  0.00     0.008 C 
ENDBRANCH  12  17
ENDBRANCH  11  12
ENDBRANCH   1  11
TORSDOF 1
ENDMDL
MODEL 4
REMARK VINA RESULT:    -3.745      1.933      4.232
REMARK INTER + INTRA:          -5.711
REMARK INTER:                  -5.794
REMARK INTRA:                   0.083
REMARK UNBOUND:                 0.004
REMARK SMILES CC1=CCC[C@H](C)C(=O)C[C@@H](C(C)C)C(=O)C1
REMARK SMILES IDX 8 1 9 2 6 3 7 4 5 5 4 6 3 7 2 8 1 9 10 11 11 12 15 13 16 14
REMARK SMILES IDX 17 15 12 17 13 18 14 19
REMARK H PARENT
REMARK Flexibility Score: 70.00
ROOT
ATOM      1  C   UNL     1      17.782  26.308  27.916  1.00  0.00     0.136 C 
ATOM      2  O   UNL     1      18.549  25.356  27.932  1.00  0.00    -0.299 OA
ENDROOT
BRANCH   1   3
ATOM      3  C   UNL     1      16.309  26.018  28.168  1.00  0.00     0.053 C 
ATOM      4  C   UNL     1      15.840  24.815  27.334  1.00  0.00     0.016 C 
BRANCH   3   5
ATOM      5  C   UNL     1      15.794  26.008  29.638  1.00  0.00     0.015 C 
BRANCH   5   6
ATOM      6  C   UNL     1      16.112  27.175  30.603  1.00  0.00     0.028 C 
BRANCH   6   7
ATOM      7  C   UNL     1      15.567  28.520  30.195  1.00  0.00    -0.028 C 
ATOM      8  C   UNL     1      16.273  29.675  30.111  1.00  0.00    -0.070 CG0
ATOM      9  C   UNL     1      15.539  30.915  29.665  1.00  0.00     0.039 C 
ATOM     10  G   UNL     1      17.741  29.800  30.475  1.00  0.00     0.000 G0
ENDBRANCH   6   7
ENDBRANCH   5   6
ENDBRANCH   3   5
ENDBRANCH   1   3
BRANCH   1  11
ATOM     11  C   UNL     1      18.373  27.666  27.602  1.00  0.00     0.087 C 
BRANCH  11  12
ATOM     12  C   UNL     1      19.148  28.236  28.818  1.00  0.00     0.066 C 
BRANCH  12  13
ATOM     13  C   UNL     1      18.626  29.599  29.249  1.00  0.00     0.140 C 
ATOM     14  O   UNL     1      18.893  30.569  28.555  1.00  0.00    -0.299 OA
BRANCH  13  15
ATOM     15  C   UNL     1      17.744  29.804  30.458  1.00  0.00     0.106 CG0
ATOM     16  G   UNL     1      16.275  29.656  30.103  1.00  0.00     0.000 G0
ENDBRANCH  13  15
ENDBRANCH  12  13
BRANCH  12  17
ATOM     17  C   UNL     1      20.705  28.210  28.678  1.00  0.00    -0.006 C 
ATOM     18  C   UNL     1      21.334  26.807  28.713  1.00  0.00     0.008 C 
ATOM     19  C   UNL     1      21.384  29.111  29.724  1.00  0.00     0.008 C 
ENDBRANCH  12  17
ENDBRANCH  11  12
ENDBRANCH   1  11
TORSDOF 1
ENDMDL
MODEL 5
REMARK VINA RESULT:    -3.696      1.788      4.574
REMARK INTER + INTRA:          -5.637
REMARK INTER:                  -5.536
REMARK INTRA:                  -0.101
REMARK UNBOUND:                 0.004
REMARK SMILES CC1=CCC[C@H](C)C(=O)C[C@@H](C(C)C)C(=O)C1
REMARK SMILES IDX 8 1 9 2 6 3 7 4 5 5 4 6 3 7 2 8 1 9 10 11 11 12 15 13 16 14
REMARK SMILES IDX 17 15 12 17 13 18 14 19
REMARK H PARENT
REMARK Flexibility Score: 70.00
ROOT
ATOM      1  C   UNL     1      19.417  27.839  28.815  1.00  0.00     0.136 C 
ATOM      2  O   UNL     1      19.289  27.589  27.624  1.00  0.00    -0.299 OA
ENDROOT
BRANCH   1   3
ATOM      3  C   UNL     1      20.780  28.332  29.278  1.00  0.00     0.053 C 
ATOM      4  C   UNL     1      21.903  27.690  28.448  1.00  0.00     0.016 C 
BRANCH   3   5
ATOM      5  C   UNL     1      20.974  29.857  29.531  1.00  0.00     0.015 C 
BRANCH   5   6
ATOM      6  C   UNL     1      20.006  30.643  30.448  1.00  0.00     0.028 C 
BRANCH   6   7
ATOM      7  C   UNL     1      18.978  31.484  29.736  1.00  0.00    -0.028 C 
ATOM      8  C   UNL     1      17.636  31.288  29.752  1.00  0.00    -0.070 CG0
ATOM      9  C   UNL     1      16.776  32.258  28.983  1.00  0.00     0.039 C 
ATOM     10  G   UNL     1      16.957  30.132  30.464  1.00  0.00     0.000 G0
ENDBRANCH   6   7
ENDBRANCH   5   6
ENDBRANCH   3   5
ENDBRANCH   1   3
BRANCH   1  11
ATOM     11  C   UNL     1      18.220  27.588  29.706  1.00  0.00     0.087 C 
BRANCH  11  12
ATOM     12  C   UNL     1      16.895  27.934  28.977  1.00  0.00     0.066 C 
BRANCH  12  13
ATOM     13  C   UNL     1      16.246  29.197  29.527  1.00  0.00     0.140 C 
ATOM     14  O   UNL     1      15.086  29.433  29.225  1.00  0.00    -0.299 OA
BRANCH  13  15
ATOM     15  C   UNL     1      16.946  30.142  30.475  1.00  0.00     0.106 CG0
ATOM     16  G   UNL     1      17.638  31.267  29.726  1.00  0.00     0.000 G0
ENDBRANCH  13  15
ENDBRANCH  12  13
BRANCH  12  17
ATOM     17  C   UNL     1      15.883  26.749  28.853  1.00  0.00    -0.006 C 
ATOM     18  C   UNL     1      15.351  26.211  30.192  1.00  0.00     0.008 C 
ATOM     19  C   UNL     1      16.463  25.592  28.021  1.00  0.00     0.008 C 
ENDBRANCH  12  17
ENDBRANCH  11  12
ENDBRANCH   1  11
TORSDOF 1
ENDMDL
MODEL 6
REMARK VINA RESULT:    -3.634      2.263      3.370
REMARK INTER + INTRA:          -5.542
REMARK INTER:                  -5.594
REMARK INTRA:                   0.052
REMARK UNBOUND:                 0.004
REMARK SMILES CC1=CCC[C@H](C)C(=O)C[C@@H](C(C)C)C(=O)C1
REMARK SMILES IDX 8 1 9 2 6 3 7 4 5 5 4 6 3 7 2 8 1 9 10 11 11 12 15 13 16 14
REMARK SMILES IDX 17 15 12 17 13 18 14 19
REMARK H PARENT
REMARK Flexibility Score: 70.00
ROOT
ATOM      1  C   UNL     1      19.322  27.933  28.701  1.00  0.00     0.136 C 
ATOM      2  O   UNL     1      19.004  28.086  27.530  1.00  0.00    -0.299 OA
ENDROOT
BRANCH   1   3
ATOM      3  C   UNL     1      20.447  26.950  28.993  1.00  0.00     0.053 C 
ATOM      4  C   UNL     1      20.104  25.553  28.452  1.00  0.00     0.016 C 
BRANCH   3   5
ATOM      5  C   UNL     1      21.914  27.393  28.712  1.00  0.00     0.015 C 
BRANCH   5   6
ATOM      6  C   UNL     1      22.340  28.874  28.856  1.00  0.00     0.028 C 
BRANCH   6   7
ATOM      7  C   UNL     1      23.050  29.223  30.139  1.00  0.00    -0.028 C 
ATOM      8  C   UNL     1      22.637  30.131  31.058  1.00  0.00    -0.070 CG0
ATOM      9  C   UNL     1      23.488  30.321  32.288  1.00  0.00     0.039 C 
ATOM     10  G   UNL     1      21.396  30.992  30.902  1.00  0.00     0.000 G0
ENDBRANCH   6   7
ENDBRANCH   5   6
ENDBRANCH   3   5
ENDBRANCH   1   3
BRANCH   1  11
ATOM     11  C   UNL     1      18.532  28.702  29.738  1.00  0.00     0.087 C 
BRANCH  11  12
ATOM     12  C   UNL     1      19.092  30.137  29.918  1.00  0.00     0.066 C 
BRANCH  12  13
ATOM     13  C   UNL     1      20.124  30.218  31.035  1.00  0.00     0.140 C 
ATOM     14  O   UNL     1      19.929  29.574  32.055  1.00  0.00    -0.299 OA
BRANCH  13  15
ATOM     15  C   UNL     1      21.407  31.008  30.920  1.00  0.00     0.106 CG0
ATOM     16  G   UNL     1      22.623  30.112  31.063  1.00  0.00     0.000 G0
ENDBRANCH  13  15
ENDBRANCH  12  13
BRANCH  12  17
ATOM     17  C   UNL     1      18.008  31.259  30.026  1.00  0.00    -0.006 C 
ATOM     18  C   UNL     1      16.587  30.824  29.628  1.00  0.00     0.008 C 
ATOM     19  C   UNL     1      18.409  32.514  29.231  1.00  0.00     0.008 C 
ENDBRANCH  12  17
ENDBRANCH  11  12
ENDBRANCH   1  11
TORSDOF 1
ENDMDL
MODEL 7
REMARK VINA RESULT:    -3.600      1.434      2.119
REMARK INTER + INTRA:          -5.490
REMARK INTER:                  -5.398
REMARK INTRA:                  -0.092
REMARK UNBOUND:                 0.004
REMARK SMILES CC1=CCC[C@H](C)C(=O)C[C@@H](C(C)C)C(=O)C1
REMARK SMILES IDX 8 1 9 2 6 3 7 4 5 5 4 6 3 7 2 8 1 9 10 11 11 12 15 13 16 14
REMARK SMILES IDX 17 15 12 17 13 18 14 19
REMARK H PARENT
REMARK Flexibility Score: 70.00
ROOT
ATOM      1  C   UNL     1      17.587  27.870  29.759  1.00  0.00     0.136 C 
ATOM      2  O   UNL     1      16.517  27.277  29.790  1.00  0.00    -0.299 OA
ENDROOT
BRANCH   1   3
ATOM      3  C   UNL     1      18.678  27.289  28.871  1.00  0.00     0.053 C 
ATOM      4  C   UNL     1      18.394  27.589  27.391  1.00  0.00     0.016 C 
BRANCH   3   5
ATOM      5  C   UNL     1      20.165  27.500  29.285  1.00  0.00     0.015 C 
BRANCH   5   6
ATOM      6  C   UNL     1      21.003  28.654  28.684  1.00  0.00     0.028 C 
BRANCH   6   7
ATOM      7  C   UNL     1      21.758  29.495  29.682  1.00  0.00    -0.028 C 
ATOM      8  C   UNL     1      21.435  30.753  30.071  1.00  0.00    -0.070 CG0
ATOM      9  C   UNL     1      22.317  31.417  31.099  1.00  0.00     0.039 C 
ATOM     10  G   UNL     1      20.267  31.542  29.508  1.00  0.00     0.000 G0
ENDBRANCH   6   7
ENDBRANCH   5   6
ENDBRANCH   3   5
ENDBRANCH   1   3
BRANCH   1  11
ATOM     11  C   UNL     1      17.725  29.092  30.641  1.00  0.00     0.087 C 
BRANCH  11  12
ATOM     12  C   UNL     1      17.870  30.382  29.793  1.00  0.00     0.066 C 
BRANCH  12  13
ATOM     13  C   UNL     1      18.991  31.281  30.297  1.00  0.00     0.140 C 
ATOM     14  O   UNL     1      18.882  31.778  31.409  1.00  0.00    -0.299 OA
BRANCH  13  15
ATOM     15  C   UNL     1      20.258  31.542  29.517  1.00  0.00     0.106 CG0
ATOM     16  G   UNL     1      21.429  30.764  30.088  1.00  0.00     0.000 G0
ENDBRANCH  13  15
ENDBRANCH  12  13
BRANCH  12  17
ATOM     17  C   UNL     1      16.539  31.167  29.553  1.00  0.00    -0.006 C 
ATOM     18  C   UNL     1      16.716  32.668  29.272  1.00  0.00     0.008 C 
ATOM     19  C   UNL     1      15.546  30.968  30.711  1.00  0.00     0.008 C 
ENDBRANCH  12  17
ENDBRANCH  11  12
ENDBRANCH   1  11
TORSDOF 1
ENDMDL
MODEL 8
REMARK VINA RESULT:    -3.576      2.075      2.951
REMARK INTER + INTRA:          -5.454
REMARK INTER:                  -5.442
REMARK INTRA:                  -0.012
REMARK UNBOUND:                 0.004
REMARK SMILES CC1=CCC[C@H](C)C(=O)C[C@@H](C(C)C)C(=O)C1
REMARK SMILES IDX 8 1 9 2 6 3 7 4 5 5 4 6 3 7 2 8 1 9 10 11 11 12 15 13 16 14
REMARK SMILES IDX 17 15 12 17 13 18 14 19
REMARK H PARENT
REMARK Flexibility Score: 70.00
ROOT
ATOM      1  C   UNL     1      18.945  28.592  28.901  1.00  0.00     0.136 C 
ATOM      2  O   UNL     1      18.770  29.041  27.776  1.00  0.00    -0.299 OA
ENDROOT
BRANCH   1   3
ATOM      3  C   UNL     1      19.932  27.442  29.044  1.00  0.00     0.053 C 
ATOM      4  C   UNL     1      19.448  26.208  28.266  1.00  0.00     0.016 C 
BRANCH   3   5
ATOM      5  C   UNL     1      21.452  27.741  28.873  1.00  0.00     0.015 C 
BRANCH   5   6
ATOM      6  C   UNL     1      22.063  29.073  29.371  1.00  0.00     0.028 C 
BRANCH   6   7
ATOM      7  C   UNL     1      21.889  29.357  30.841  1.00  0.00    -0.028 C 
ATOM      8  C   UNL     1      21.188  30.385  31.379  1.00  0.00    -0.070 CG0
ATOM      9  C   UNL     1      21.124  30.481  32.882  1.00  0.00     0.039 C 
ATOM     10  G   UNL     1      20.499  31.461  30.559  1.00  0.00     0.000 G0
ENDBRANCH   6   7
ENDBRANCH   5   6
ENDBRANCH   3   5
ENDBRANCH   1   3
BRANCH   1  11
ATOM     11  C   UNL     1      18.126  29.196  30.021  1.00  0.00     0.087 C 
BRANCH  11  12
ATOM     12  C   UNL     1      18.023  30.737  29.872  1.00  0.00     0.066 C 
BRANCH  12  13
ATOM     13  C   UNL     1      19.000  31.471  30.780  1.00  0.00     0.140 C 
ATOM     14  O   UNL     1      18.558  32.053  31.760  1.00  0.00    -0.299 OA
BRANCH  13  15
ATOM     15  C   UNL     1      20.495  31.466  30.564  1.00  0.00     0.106 CG0
ATOM     16  G   UNL     1      21.170  30.385  31.388  1.00  0.00     0.000 G0
ENDBRANCH  13  15
ENDBRANCH  12  13
BRANCH  12  17
ATOM     17  C   UNL     1      16.572  31.312  29.968  1.00  0.00    -0.006 C 
ATOM     18  C   UNL     1      15.453  30.283  29.737  1.00  0.00     0.008 C 
ATOM     19  C   UNL     1      16.376  32.514  29.027  1.00  0.00     0.008 C 
ENDBRANCH  12  17
ENDBRANCH  11  12
ENDBRANCH   1  11
TORSDOF 1
ENDMDL
MODEL 9
REMARK VINA RESULT:    -3.536      2.154      4.391
REMARK INTER + INTRA:          -5.393
REMARK INTER:                  -5.127
REMARK INTRA:                  -0.266
REMARK UNBOUND:                 0.004
REMARK SMILES CC1=CCC[C@H](C)C(=O)C[C@@H](C(C)C)C(=O)C1
REMARK SMILES IDX 8 1 9 2 6 3 7 4 5 5 4 6 3 7 2 8 1 9 10 11 11 12 15 13 16 14
REMARK SMILES IDX 17 15 12 17 13 18 14 19
REMARK H PARENT
REMARK Flexibility Score: 70.00
ROOT
ATOM      1  C   UNL     1      19.705  28.255  28.827  1.00  0.00     0.136 C 
ATOM      2  O   UNL     1      20.315  27.268  29.216  1.00  0.00    -0.299 OA
ENDROOT
BRANCH   1   3
ATOM      3  C   UNL     1      18.239  28.068  28.465  1.00  0.00     0.053 C 
ATOM      4  C   UNL     1      18.059  26.865  27.525  1.00  0.00     0.016 C 
BRANCH   3   5
ATOM      5  C   UNL     1      17.176  28.146  29.601  1.00  0.00     0.015 C 
BRANCH   5   6
ATOM      6  C   UNL     1      16.983  29.442  30.424  1.00  0.00     0.028 C 
BRANCH   6   7
ATOM      7  C   UNL     1      16.820  30.705  29.617  1.00  0.00    -0.028 C 
ATOM      8  C   UNL     1      17.585  31.820  29.716  1.00  0.00    -0.070 CG0
ATOM      9  C   UNL     1      17.265  32.974  28.800  1.00  0.00     0.039 C 
ATOM     10  G   UNL     1      18.715  31.987  30.715  1.00  0.00     0.000 G0
ENDBRANCH   6   7
ENDBRANCH   5   6
ENDBRANCH   3   5
ENDBRANCH   1   3
BRANCH   1  11
ATOM     11  C   UNL     1      20.487  29.546  28.704  1.00  0.00     0.087 C 
BRANCH  11  12
ATOM     12  C   UNL     1      20.636  30.244  30.081  1.00  0.00     0.066 C 
BRANCH  12  13
ATOM     13  C   UNL     1      20.061  31.654  30.079  1.00  0.00     0.140 C 
ATOM     14  O   UNL     1      20.683  32.534  29.502  1.00  0.00    -0.299 OA
BRANCH  13  15
ATOM     15  C   UNL     1      18.731  32.006  30.703  1.00  0.00     0.106 CG0
ATOM     16  G   UNL     1      17.591  31.814  29.719  1.00  0.00     0.000 G0
ENDBRANCH  13  15
ENDBRANCH  12  13
BRANCH  12  17
ATOM     17  C   UNL     1      22.073  30.187  30.696  1.00  0.00    -0.006 C 
ATOM     18  C   UNL     1      23.049  29.246  29.970  1.00  0.00     0.008 C 
ATOM     19  C   UNL     1      22.035  29.840  32.195  1.00  0.00     0.008 C 
ENDBRANCH  12  17
ENDBRANCH  11  12
ENDBRANCH   1  11
TORSDOF 1
ENDMDL
