MODEL 1
REMARK VINA RESULT:    -5.238      0.000      0.000
REMARK INTER + INTRA:          -9.487
REMARK INTER:                  -9.065
REMARK INTRA:                  -0.422
REMARK UNBOUND:                -0.422
REMARK SMILES CCCCCCCCCCCCCCO
REMARK SMILES IDX 8 1 7 2 6 3 5 4 4 5 3 6 2 7 1 8 9 9 10 10 11 11 12 12 13 13
REMARK SMILES IDX 14 14 15 15
REMARK H PARENT 15 16
REMARK Flexibility Score: inf
ROOT
ATOM      1  C   UNL     1      -9.766  -2.233  -9.245  1.00  0.00     0.000 C 
ENDROOT
BRANCH   1   2
ATOM      2  C   UNL     1      -9.618  -3.575  -9.978  1.00  0.00    -0.000 C 
BRANCH   2   3
ATOM      3  C   UNL     1      -8.265  -4.252  -9.708  1.00  0.00    -0.000 C 
BRANCH   3   4
ATOM      4  C   UNL     1      -8.385  -5.466  -8.774  1.00  0.00    -0.000 C 
BRANCH   4   5
ATOM      5  C   UNL     1      -9.855  -5.784  -8.473  1.00  0.00    -0.000 C 
BRANCH   5   6
ATOM      6  C   UNL     1      -9.974  -6.824  -7.349  1.00  0.00    -0.000 C 
BRANCH   6   7
ATOM      7  C   UNL     1     -10.927  -6.378  -6.230  1.00  0.00    -0.003 C 
ATOM      8  C   UNL     1     -10.198  -6.058  -4.925  1.00  0.00     0.004 C 
ENDBRANCH   6   7
ENDBRANCH   5   6
ENDBRANCH   4   5
ENDBRANCH   3   4
ENDBRANCH   2   3
ENDBRANCH   1   2
BRANCH   1   9
ATOM      9  C   UNL     1     -10.768  -1.321  -9.969  1.00  0.00     0.000 C 
BRANCH   9  10
ATOM     10  C   UNL     1     -10.379   0.165  -9.901  1.00  0.00     0.000 C 
BRANCH  10  11
ATOM     11  C   UNL     1     -11.584   1.078  -9.616  1.00  0.00     0.000 C 
BRANCH  11  12
ATOM     12  C   UNL     1     -11.174   2.544  -9.396  1.00  0.00     0.002 C 
BRANCH  12  13
ATOM     13  C   UNL     1     -12.322   3.529  -9.670  1.00  0.00     0.028 C 
BRANCH  13  14
ATOM     14  C   UNL     1     -13.642   3.044  -9.058  1.00  0.00     0.156 C 
BRANCH  14  15
ATOM     15  O   UNL     1     -13.992   3.818  -7.944  1.00  0.00    -0.396 OA
ATOM     16  H   UNL     1     -14.350   3.191  -7.262  1.00  0.00     0.210 HD
ENDBRANCH  14  15
ENDBRANCH  13  14
ENDBRANCH  12  13
ENDBRANCH  11  12
ENDBRANCH  10  11
ENDBRANCH   9  10
ENDBRANCH   1   9
TORSDOF 13
ENDMDL
MODEL 2
REMARK VINA RESULT:    -5.095      2.750      7.960
REMARK INTER + INTRA:          -9.241
REMARK INTER:                  -8.720
REMARK INTRA:                  -0.521
REMARK UNBOUND:                -0.422
REMARK SMILES CCCCCCCCCCCCCCO
REMARK SMILES IDX 8 1 7 2 6 3 5 4 4 5 3 6 2 7 1 8 9 9 10 10 11 11 12 12 13 13
REMARK SMILES IDX 14 14 15 15
REMARK H PARENT 15 16
REMARK Flexibility Score: inf
ROOT
ATOM      1  C   UNL     1      -9.585  -3.340  -9.011  1.00  0.00     0.000 C 
ENDROOT
BRANCH   1   2
ATOM      2  C   UNL     1      -9.696  -2.267 -10.105  1.00  0.00    -0.000 C 
BRANCH   2   3
ATOM      3  C   UNL     1     -10.893  -1.327  -9.896  1.00  0.00    -0.000 C 
BRANCH   3   4
ATOM      4  C   UNL     1     -10.476   0.147  -9.776  1.00  0.00    -0.000 C 
BRANCH   4   5
ATOM      5  C   UNL     1     -11.705   1.057  -9.652  1.00  0.00    -0.000 C 
BRANCH   5   6
ATOM      6  C   UNL     1     -11.290   2.499  -9.324  1.00  0.00    -0.000 C 
BRANCH   6   7
ATOM      7  C   UNL     1     -12.434   3.504  -9.529  1.00  0.00    -0.003 C 
ATOM      8  C   UNL     1     -13.404   3.545  -8.348  1.00  0.00     0.004 C 
ENDBRANCH   6   7
ENDBRANCH   5   6
ENDBRANCH   4   5
ENDBRANCH   3   4
ENDBRANCH   2   3
ENDBRANCH   1   2
BRANCH   1   9
ATOM      9  C   UNL     1      -8.247  -4.087  -9.110  1.00  0.00     0.000 C 
BRANCH   9  10
ATOM     10  C   UNL     1      -8.415  -5.615  -9.108  1.00  0.00     0.000 C 
BRANCH  10  11
ATOM     11  C   UNL     1      -9.832  -6.052  -8.696  1.00  0.00     0.000 C 
BRANCH  11  12
ATOM     12  C   UNL     1      -9.849  -6.815  -7.361  1.00  0.00     0.002 C 
BRANCH  12  13
ATOM     13  C   UNL     1     -11.063  -6.458  -6.488  1.00  0.00     0.028 C 
BRANCH  13  14
ATOM     14  C   UNL     1     -10.636  -5.863  -5.142  1.00  0.00     0.156 C 
BRANCH  14  15
ATOM     15  O   UNL     1      -9.402  -5.207  -5.252  1.00  0.00    -0.396 OA
ATOM     16  H   UNL     1      -8.812  -5.799  -5.788  1.00  0.00     0.210 HD
ENDBRANCH  14  15
ENDBRANCH  13  14
ENDBRANCH  12  13
ENDBRANCH  11  12
ENDBRANCH  10  11
ENDBRANCH   9  10
ENDBRANCH   1   9
TORSDOF 13
ENDMDL
MODEL 3
REMARK VINA RESULT:    -4.985     15.918     17.536
REMARK INTER + INTRA:          -9.050
REMARK INTER:                  -7.741
REMARK INTRA:                  -1.309
REMARK UNBOUND:                -0.422
REMARK SMILES CCCCCCCCCCCCCCO
REMARK SMILES IDX 8 1 7 2 6 3 5 4 4 5 3 6 2 7 1 8 9 9 10 10 11 11 12 12 13 13
REMARK SMILES IDX 14 14 15 15
REMARK H PARENT 15 16
REMARK Flexibility Score: inf
ROOT
ATOM      1  C   UNL     1     -10.535   5.004   7.956  1.00  0.00     0.000 C 
ENDROOT
BRANCH   1   2
ATOM      2  C   UNL     1     -11.653   3.951   7.904  1.00  0.00    -0.000 C 
BRANCH   2   3
ATOM      3  C   UNL     1     -11.389   2.857   6.858  1.00  0.00    -0.000 C 
BRANCH   3   4
ATOM      4  C   UNL     1     -12.397   2.889   5.699  1.00  0.00    -0.000 C 
BRANCH   4   5
ATOM      5  C   UNL     1     -13.480   3.949   5.943  1.00  0.00    -0.000 C 
BRANCH   5   6
ATOM      6  C   UNL     1     -13.547   4.945   4.776  1.00  0.00    -0.000 C 
BRANCH   6   7
ATOM      7  C   UNL     1     -14.073   6.324   5.206  1.00  0.00    -0.003 C 
ATOM      8  C   UNL     1     -13.066   7.103   6.051  1.00  0.00     0.004 C 
ENDBRANCH   6   7
ENDBRANCH   5   6
ENDBRANCH   4   5
ENDBRANCH   3   4
ENDBRANCH   2   3
ENDBRANCH   1   2
BRANCH   1   9
ATOM      9  C   UNL     1      -9.911   5.208   6.568  1.00  0.00     0.000 C 
BRANCH   9  10
ATOM     10  C   UNL     1      -9.298   6.607   6.389  1.00  0.00     0.000 C 
BRANCH  10  11
ATOM     11  C   UNL     1      -9.552   7.188   4.988  1.00  0.00     0.000 C 
BRANCH  11  12
ATOM     12  C   UNL     1      -9.191   8.680   4.894  1.00  0.00     0.002 C 
BRANCH  12  13
ATOM     13  C   UNL     1      -8.339   9.161   6.080  1.00  0.00     0.028 C 
BRANCH  13  14
ATOM     14  C   UNL     1      -7.071   9.883   5.609  1.00  0.00     0.156 C 
BRANCH  14  15
ATOM     15  O   UNL     1      -6.051   9.780   6.566  1.00  0.00    -0.396 OA
ATOM     16  H   UNL     1      -6.377  10.245   7.380  1.00  0.00     0.210 HD
ENDBRANCH  14  15
ENDBRANCH  13  14
ENDBRANCH  12  13
ENDBRANCH  11  12
ENDBRANCH  10  11
ENDBRANCH   9  10
ENDBRANCH   1   9
TORSDOF 13
ENDMDL
MODEL 4
REMARK VINA RESULT:    -4.825     15.535     17.806
REMARK INTER + INTRA:          -8.773
REMARK INTER:                  -7.792
REMARK INTRA:                  -0.981
REMARK UNBOUND:                -0.422
REMARK SMILES CCCCCCCCCCCCCCO
REMARK SMILES IDX 8 1 7 2 6 3 5 4 4 5 3 6 2 7 1 8 9 9 10 10 11 11 12 12 13 13
REMARK SMILES IDX 14 14 15 15
REMARK H PARENT 15 16
REMARK Flexibility Score: inf
ROOT
ATOM      1  C   UNL     1      -9.987   5.640   6.827  1.00  0.00     0.000 C 
ENDROOT
BRANCH   1   2
ATOM      2  C   UNL     1      -9.837   5.735   5.300  1.00  0.00    -0.000 C 
BRANCH   2   3
ATOM      3  C   UNL     1      -9.420   7.138   4.832  1.00  0.00    -0.000 C 
BRANCH   3   4
ATOM      4  C   UNL     1     -10.404   8.229   5.280  1.00  0.00    -0.000 C 
BRANCH   4   5
ATOM      5  C   UNL     1      -9.687   9.573   5.465  1.00  0.00    -0.000 C 
BRANCH   5   6
ATOM      6  C   UNL     1      -8.189   9.445   5.150  1.00  0.00    -0.000 C 
BRANCH   6   7
ATOM      7  C   UNL     1      -7.301   9.774   6.360  1.00  0.00    -0.003 C 
ATOM      8  C   UNL     1      -6.020  10.511   5.969  1.00  0.00     0.004 C 
ENDBRANCH   6   7
ENDBRANCH   5   6
ENDBRANCH   4   5
ENDBRANCH   3   4
ENDBRANCH   2   3
ENDBRANCH   1   2
BRANCH   1   9
ATOM      9  C   UNL     1     -10.614   4.297   7.232  1.00  0.00     0.000 C 
BRANCH   9  10
ATOM     10  C   UNL     1     -12.077   4.436   7.685  1.00  0.00     0.000 C 
BRANCH  10  11
ATOM     11  C   UNL     1     -13.057   3.717   6.742  1.00  0.00     0.000 C 
BRANCH  11  12
ATOM     12  C   UNL     1     -13.436   4.573   5.522  1.00  0.00     0.002 C 
BRANCH  12  13
ATOM     13  C   UNL     1     -12.845   4.031   4.210  1.00  0.00     0.028 C 
BRANCH  13  14
ATOM     14  C   UNL     1     -11.990   2.781   4.448  1.00  0.00     0.156 C 
BRANCH  14  15
ATOM     15  O   UNL     1     -10.958   2.692   3.504  1.00  0.00    -0.396 OA
ATOM     16  H   UNL     1     -11.305   2.141   2.754  1.00  0.00     0.210 HD
ENDBRANCH  14  15
ENDBRANCH  13  14
ENDBRANCH  12  13
ENDBRANCH  11  12
ENDBRANCH  10  11
ENDBRANCH   9  10
ENDBRANCH   1   9
TORSDOF 13
ENDMDL
MODEL 5
REMARK VINA RESULT:    -4.823     16.372     18.664
REMARK INTER + INTRA:          -8.770
REMARK INTER:                  -7.964
REMARK INTRA:                  -0.805
REMARK UNBOUND:                -0.422
REMARK SMILES CCCCCCCCCCCCCCO
REMARK SMILES IDX 8 1 7 2 6 3 5 4 4 5 3 6 2 7 1 8 9 9 10 10 11 11 12 12 13 13
REMARK SMILES IDX 14 14 15 15
REMARK H PARENT 15 16
REMARK Flexibility Score: inf
ROOT
ATOM      1  C   UNL     1     -10.263   5.088   5.107  1.00  0.00     0.000 C 
ENDROOT
BRANCH   1   2
ATOM      2  C   UNL     1      -9.705   6.330   5.820  1.00  0.00    -0.000 C 
BRANCH   2   3
ATOM      3  C   UNL     1      -9.345   7.461   4.845  1.00  0.00    -0.000 C 
BRANCH   3   4
ATOM      4  C   UNL     1      -9.150   8.812   5.551  1.00  0.00    -0.000 C 
BRANCH   4   5
ATOM      5  C   UNL     1      -7.864   9.501   5.074  1.00  0.00    -0.000 C 
BRANCH   5   6
ATOM      6  C   UNL     1      -7.089  10.099   6.256  1.00  0.00    -0.000 C 
BRANCH   6   7
ATOM      7  C   UNL     1      -7.920  11.117   7.054  1.00  0.00    -0.003 C 
ATOM      8  C   UNL     1      -7.164  11.686   8.254  1.00  0.00     0.004 C 
ENDBRANCH   6   7
ENDBRANCH   5   6
ENDBRANCH   4   5
ENDBRANCH   3   4
ENDBRANCH   2   3
ENDBRANCH   1   2
BRANCH   1   9
ATOM      9  C   UNL     1     -11.793   5.164   4.993  1.00  0.00     0.000 C 
BRANCH   9  10
ATOM     10  C   UNL     1     -12.444   3.789   4.776  1.00  0.00     0.000 C 
BRANCH  10  11
ATOM     11  C   UNL     1     -12.000   2.753   5.823  1.00  0.00     0.000 C 
BRANCH  11  12
ATOM     12  C   UNL     1     -12.652   2.985   7.196  1.00  0.00     0.002 C 
BRANCH  12  13
ATOM     13  C   UNL     1     -11.632   3.359   8.283  1.00  0.00     0.028 C 
BRANCH  13  14
ATOM     14  C   UNL     1     -11.685   4.855   8.619  1.00  0.00     0.156 C 
BRANCH  14  15
ATOM     15  O   UNL     1     -10.460   5.297   9.137  1.00  0.00    -0.396 OA
ATOM     16  H   UNL     1     -10.160   4.607   9.786  1.00  0.00     0.210 HD
ENDBRANCH  14  15
ENDBRANCH  13  14
ENDBRANCH  12  13
ENDBRANCH  11  12
ENDBRANCH  10  11
ENDBRANCH   9  10
ENDBRANCH   1   9
TORSDOF 13
ENDMDL
MODEL 6
REMARK VINA RESULT:    -4.822     16.058     17.554
REMARK INTER + INTRA:          -8.768
REMARK INTER:                  -7.519
REMARK INTRA:                  -1.250
REMARK UNBOUND:                -0.422
REMARK SMILES CCCCCCCCCCCCCCO
REMARK SMILES IDX 8 1 7 2 6 3 5 4 4 5 3 6 2 7 1 8 9 9 10 10 11 11 12 12 13 13
REMARK SMILES IDX 14 14 15 15
REMARK H PARENT 15 16
REMARK Flexibility Score: inf
ROOT
ATOM      1  C   UNL     1     -11.768   6.619   5.816  1.00  0.00     0.000 C 
ENDROOT
BRANCH   1   2
ATOM      2  C   UNL     1     -12.673   5.396   5.602  1.00  0.00    -0.000 C 
BRANCH   2   3
ATOM      3  C   UNL     1     -11.968   4.261   4.844  1.00  0.00    -0.000 C 
BRANCH   3   4
ATOM      4  C   UNL     1     -12.077   2.909   5.565  1.00  0.00    -0.000 C 
BRANCH   4   5
ATOM      5  C   UNL     1     -12.854   3.049   6.881  1.00  0.00    -0.000 C 
BRANCH   5   6
ATOM      6  C   UNL     1     -11.958   2.724   8.085  1.00  0.00    -0.000 C 
BRANCH   6   7
ATOM      7  C   UNL     1     -12.027   3.799   9.180  1.00  0.00    -0.003 C 
ATOM      8  C   UNL     1     -10.967   4.887   9.008  1.00  0.00     0.004 C 
ENDBRANCH   6   7
ENDBRANCH   5   6
ENDBRANCH   4   5
ENDBRANCH   3   4
ENDBRANCH   2   3
ENDBRANCH   1   2
BRANCH   1   9
ATOM      9  C   UNL     1     -10.295   6.259   5.572  1.00  0.00     0.000 C 
BRANCH   9  10
ATOM     10  C   UNL     1      -9.455   7.462   5.114  1.00  0.00     0.000 C 
BRANCH  10  11
ATOM     11  C   UNL     1     -10.227   8.790   5.204  1.00  0.00     0.000 C 
BRANCH  11  12
ATOM     12  C   UNL     1      -9.363   9.940   5.746  1.00  0.00     0.002 C 
BRANCH  12  13
ATOM     13  C   UNL     1      -8.046   9.449   6.370  1.00  0.00     0.028 C 
BRANCH  13  14
ATOM     14  C   UNL     1      -6.827   9.949   5.585  1.00  0.00     0.156 C 
BRANCH  14  15
ATOM     15  O   UNL     1      -5.713  10.090   6.424  1.00  0.00    -0.396 OA
ATOM     16  H   UNL     1      -4.910   9.975   5.852  1.00  0.00     0.210 HD
ENDBRANCH  14  15
ENDBRANCH  13  14
ENDBRANCH  12  13
ENDBRANCH  11  12
ENDBRANCH  10  11
ENDBRANCH   9  10
ENDBRANCH   1   9
TORSDOF 13
ENDMDL
MODEL 7
REMARK VINA RESULT:    -4.709     15.790     17.301
REMARK INTER + INTRA:          -8.573
REMARK INTER:                  -7.493
REMARK INTRA:                  -1.080
REMARK UNBOUND:                -0.422
REMARK SMILES CCCCCCCCCCCCCCO
REMARK SMILES IDX 8 1 7 2 6 3 5 4 4 5 3 6 2 7 1 8 9 9 10 10 11 11 12 12 13 13
REMARK SMILES IDX 14 14 15 15
REMARK H PARENT 15 16
REMARK Flexibility Score: inf
ROOT
ATOM      1  C   UNL     1     -10.445   6.542   5.766  1.00  0.00     0.000 C 
ENDROOT
BRANCH   1   2
ATOM      2  C   UNL     1      -9.931   5.277   6.471  1.00  0.00    -0.000 C 
BRANCH   2   3
ATOM      3  C   UNL     1     -10.782   4.890   7.690  1.00  0.00    -0.000 C 
BRANCH   3   4
ATOM      4  C   UNL     1     -11.312   3.450   7.611  1.00  0.00    -0.000 C 
BRANCH   4   5
ATOM      5  C   UNL     1     -12.566   3.374   6.730  1.00  0.00    -0.000 C 
BRANCH   5   6
ATOM      6  C   UNL     1     -12.232   2.801   5.345  1.00  0.00    -0.000 C 
BRANCH   6   7
ATOM      7  C   UNL     1     -12.567   3.776   4.206  1.00  0.00    -0.003 C 
ATOM      8  C   UNL     1     -13.566   4.854   4.625  1.00  0.00     0.004 C 
ENDBRANCH   6   7
ENDBRANCH   5   6
ENDBRANCH   4   5
ENDBRANCH   3   4
ENDBRANCH   2   3
ENDBRANCH   1   2
BRANCH   1   9
ATOM      9  C   UNL     1      -9.389   7.096   4.798  1.00  0.00     0.000 C 
BRANCH   9  10
ATOM     10  C   UNL     1      -9.260   8.626   4.869  1.00  0.00     0.000 C 
BRANCH  10  11
ATOM     11  C   UNL     1      -8.452   9.094   6.092  1.00  0.00     0.000 C 
BRANCH  11  12
ATOM     12  C   UNL     1      -8.666  10.584   6.405  1.00  0.00     0.002 C 
BRANCH  12  13
ATOM     13  C   UNL     1     -10.147  10.994   6.359  1.00  0.00     0.028 C 
BRANCH  13  14
ATOM     14  C   UNL     1     -10.372  12.201   5.440  1.00  0.00     0.156 C 
BRANCH  14  15
ATOM     15  O   UNL     1     -10.042  11.890   4.114  1.00  0.00    -0.396 OA
ATOM     16  H   UNL     1     -10.105  12.737   3.600  1.00  0.00     0.210 HD
ENDBRANCH  14  15
ENDBRANCH  13  14
ENDBRANCH  12  13
ENDBRANCH  11  12
ENDBRANCH  10  11
ENDBRANCH   9  10
ENDBRANCH   1   9
TORSDOF 13
ENDMDL
MODEL 8
REMARK VINA RESULT:    -4.700     16.266     17.772
REMARK INTER + INTRA:          -8.556
REMARK INTER:                  -7.678
REMARK INTRA:                  -0.878
REMARK UNBOUND:                -0.422
REMARK SMILES CCCCCCCCCCCCCCO
REMARK SMILES IDX 8 1 7 2 6 3 5 4 4 5 3 6 2 7 1 8 9 9 10 10 11 11 12 12 13 13
REMARK SMILES IDX 14 14 15 15
REMARK H PARENT 15 16
REMARK Flexibility Score: inf
ROOT
ATOM      1  C   UNL     1     -10.317   6.012   5.493  1.00  0.00     0.000 C 
ENDROOT
BRANCH   1   2
ATOM      2  C   UNL     1     -10.093   5.240   6.803  1.00  0.00    -0.000 C 
BRANCH   2   3
ATOM      3  C   UNL     1     -11.319   5.275   7.729  1.00  0.00    -0.000 C 
BRANCH   3   4
ATOM      4  C   UNL     1     -11.630   3.906   8.353  1.00  0.00    -0.000 C 
BRANCH   4   5
ATOM      5  C   UNL     1     -11.977   2.875   7.271  1.00  0.00    -0.000 C 
BRANCH   5   6
ATOM      6  C   UNL     1     -13.150   3.359   6.406  1.00  0.00    -0.000 C 
BRANCH   6   7
ATOM      7  C   UNL     1     -12.802   3.401   4.909  1.00  0.00    -0.003 C 
ATOM      8  C   UNL     1     -13.538   4.514   4.163  1.00  0.00     0.004 C 
ENDBRANCH   6   7
ENDBRANCH   5   6
ENDBRANCH   4   5
ENDBRANCH   3   4
ENDBRANCH   2   3
ENDBRANCH   1   2
BRANCH   1   9
ATOM      9  C   UNL     1      -9.337   7.189   5.377  1.00  0.00     0.000 C 
BRANCH   9  10
ATOM     10  C   UNL     1     -10.047   8.539   5.188  1.00  0.00     0.000 C 
BRANCH  10  11
ATOM     11  C   UNL     1      -9.071   9.728   5.214  1.00  0.00     0.000 C 
BRANCH  11  12
ATOM     12  C   UNL     1      -7.658   9.322   5.666  1.00  0.00     0.002 C 
BRANCH  12  13
ATOM     13  C   UNL     1      -6.792  10.528   6.063  1.00  0.00     0.028 C 
BRANCH  13  14
ATOM     14  C   UNL     1      -7.382  11.278   7.263  1.00  0.00     0.156 C 
BRANCH  14  15
ATOM     15  O   UNL     1      -7.821  10.382   8.248  1.00  0.00    -0.396 OA
ATOM     16  H   UNL     1      -7.070  10.274   8.889  1.00  0.00     0.210 HD
ENDBRANCH  14  15
ENDBRANCH  13  14
ENDBRANCH  12  13
ENDBRANCH  11  12
ENDBRANCH  10  11
ENDBRANCH   9  10
ENDBRANCH   1   9
TORSDOF 13
ENDMDL
MODEL 9
REMARK VINA RESULT:    -4.596     16.453     18.945
REMARK INTER + INTRA:          -8.376
REMARK INTER:                  -7.644
REMARK INTRA:                  -0.732
REMARK UNBOUND:                -0.422
REMARK SMILES CCCCCCCCCCCCCCO
REMARK SMILES IDX 8 1 7 2 6 3 5 4 4 5 3 6 2 7 1 8 9 9 10 10 11 11 12 12 13 13
REMARK SMILES IDX 14 14 15 15
REMARK H PARENT 15 16
REMARK Flexibility Score: inf
ROOT
ATOM      1  C   UNL     1     -10.536   6.386   5.628  1.00  0.00     0.000 C 
ENDROOT
BRANCH   1   2
ATOM      2  C   UNL     1      -9.382   7.100   4.905  1.00  0.00    -0.000 C 
BRANCH   2   3
ATOM      3  C   UNL     1      -9.308   8.597   5.241  1.00  0.00    -0.000 C 
BRANCH   3   4
ATOM      4  C   UNL     1      -8.036   8.968   6.018  1.00  0.00    -0.000 C 
BRANCH   4   5
ATOM      5  C   UNL     1      -8.276  10.190   6.914  1.00  0.00    -0.000 C 
BRANCH   5   6
ATOM      6  C   UNL     1      -9.592  10.892   6.546  1.00  0.00    -0.000 C 
BRANCH   6   7
ATOM      7  C   UNL     1      -9.603  12.375   6.948  1.00  0.00    -0.003 C 
ATOM      8  C   UNL     1      -8.469  12.736   7.907  1.00  0.00     0.004 C 
ENDBRANCH   6   7
ENDBRANCH   5   6
ENDBRANCH   4   5
ENDBRANCH   3   4
ENDBRANCH   2   3
ENDBRANCH   1   2
BRANCH   1   9
ATOM      9  C   UNL     1     -10.001   5.472   6.741  1.00  0.00     0.000 C 
BRANCH   9  10
ATOM     10  C   UNL     1     -11.090   5.054   7.743  1.00  0.00     0.000 C 
BRANCH  10  11
ATOM     11  C   UNL     1     -11.230   3.526   7.859  1.00  0.00     0.000 C 
BRANCH  11  12
ATOM     12  C   UNL     1     -12.614   3.026   7.414  1.00  0.00     0.002 C 
BRANCH  12  13
ATOM     13  C   UNL     1     -12.964   3.447   5.977  1.00  0.00     0.028 C 
BRANCH  13  14
ATOM     14  C   UNL     1     -11.996   2.835   4.957  1.00  0.00     0.156 C 
BRANCH  14  15
ATOM     15  O   UNL     1     -11.802   1.470   5.207  1.00  0.00    -0.396 OA
ATOM     16  H   UNL     1     -12.142   1.297   6.123  1.00  0.00     0.210 HD
ENDBRANCH  14  15
ENDBRANCH  13  14
ENDBRANCH  12  13
ENDBRANCH  11  12
ENDBRANCH  10  11
ENDBRANCH   9  10
ENDBRANCH   1   9
TORSDOF 13
ENDMDL
