MODEL 1
REMARK VINA RESULT:    -5.678      0.000      0.000
REMARK INTER + INTRA:         -17.345
REMARK INTER:                 -14.307
REMARK INTRA:                  -3.037
REMARK UNBOUND:                -3.037
REMARK SMILES CCCCCCCCCCCCCCCCCCCCCCCCCCCC(=O)[O-]
REMARK SMILES IDX 15 1 16 2 17 3 18 4 19 5 20 6 21 7 22 8 23 9 24 10 25 11
REMARK SMILES IDX 26 12 27 13 28 14 29 15 30 16 14 17 13 18 12 19 11 20 10 21
REMARK SMILES IDX 9 22 8 23 7 24 6 25 5 26 4 27 3 28 2 29 1 30
REMARK H PARENT
REMARK Flexibility Score: inf
ROOT
ATOM      1  C   UNL     1       2.992  -1.367  38.032  1.00  0.00     0.000 C 
ENDROOT
BRANCH   1   2
ATOM      2  C   UNL     1       3.532   0.034  37.722  1.00  0.00     0.000 C 
BRANCH   2   3
ATOM      3  C   UNL     1       4.704  -0.037  36.736  1.00  0.00     0.000 C 
BRANCH   3   4
ATOM      4  C   UNL     1       5.210  -1.476  36.578  1.00  0.00     0.000 C 
BRANCH   4   5
ATOM      5  C   UNL     1       6.624  -1.500  35.984  1.00  0.00     0.000 C 
BRANCH   5   6
ATOM      6  C   UNL     1       7.116  -0.079  35.671  1.00  0.00     0.000 C 
BRANCH   6   7
ATOM      7  C   UNL     1       8.418  -0.077  34.844  1.00  0.00     0.000 C 
BRANCH   7   8
ATOM      8  C   UNL     1       8.751   1.287  34.216  1.00  0.00     0.000 C 
BRANCH   8   9
ATOM      9  C   UNL     1      10.177   1.763  34.536  1.00  0.00     0.000 C 
BRANCH   9  10
ATOM     10  C   UNL     1      11.249   0.947  33.798  1.00  0.00     0.000 C 
BRANCH  10  11
ATOM     11  C   UNL     1      12.410   0.528  34.717  1.00  0.00     0.000 C 
BRANCH  11  12
ATOM     12  C   UNL     1      12.506   1.383  35.993  1.00  0.00     0.006 C 
BRANCH  12  13
ATOM     13  C   UNL     1      13.510   2.544  35.891  1.00  0.00     0.053 C 
BRANCH  13  14
ATOM     14  C   UNL     1      12.863   3.838  35.499  1.00  0.00     0.041 C 
ATOM     15  O   UNL     1      12.435   4.628  36.381  1.00  0.00    -0.550 OA
ATOM     16  O   UNL     1      12.763   4.187  34.158  1.00  0.00    -0.550 OA
ENDBRANCH  13  14
ENDBRANCH  12  13
ENDBRANCH  11  12
ENDBRANCH  10  11
ENDBRANCH   9  10
ENDBRANCH   8   9
ENDBRANCH   7   8
ENDBRANCH   6   7
ENDBRANCH   5   6
ENDBRANCH   4   5
ENDBRANCH   3   4
ENDBRANCH   2   3
ENDBRANCH   1   2
BRANCH   1  17
ATOM     17  C   UNL     1       2.014  -1.334  39.217  1.00  0.00     0.000 C 
BRANCH  17  18
ATOM     18  C   UNL     1       2.661  -1.790  40.536  1.00  0.00     0.000 C 
BRANCH  18  19
ATOM     19  C   UNL     1       1.624  -2.209  41.592  1.00  0.00     0.000 C 
BRANCH  19  20
ATOM     20  C   UNL     1       0.187  -2.230  41.039  1.00  0.00     0.000 C 
BRANCH  20  21
ATOM     21  C   UNL     1      -0.493  -3.610  41.068  1.00  0.00     0.000 C 
BRANCH  21  22
ATOM     22  C   UNL     1       0.498  -4.783  41.245  1.00  0.00    -0.000 C 
BRANCH  22  23
ATOM     23  C   UNL     1       0.661  -5.656  39.985  1.00  0.00    -0.000 C 
BRANCH  23  24
ATOM     24  C   UNL     1       1.359  -4.968  38.792  1.00  0.00    -0.000 C 
BRANCH  24  25
ATOM     25  C   UNL     1       2.897  -4.950  38.850  1.00  0.00    -0.000 C 
BRANCH  25  26
ATOM     26  C   UNL     1       3.536  -6.216  38.254  1.00  0.00    -0.000 C 
BRANCH  26  27
ATOM     27  C   UNL     1       4.480  -5.906  37.082  1.00  0.00    -0.000 C 
BRANCH  27  28
ATOM     28  C   UNL     1       3.879  -4.898  36.090  1.00  0.00    -0.000 C 
BRANCH  28  29
ATOM     29  C   UNL     1       4.845  -4.628  34.931  1.00  0.00    -0.003 C 
ATOM     30  C   UNL     1       6.253  -5.112  35.265  1.00  0.00     0.004 C 
ENDBRANCH  28  29
ENDBRANCH  27  28
ENDBRANCH  26  27
ENDBRANCH  25  26
ENDBRANCH  24  25
ENDBRANCH  23  24
ENDBRANCH  22  23
ENDBRANCH  21  22
ENDBRANCH  20  21
ENDBRANCH  19  20
ENDBRANCH  18  19
ENDBRANCH  17  18
ENDBRANCH   1  17
TORSDOF 26
ENDMDL
MODEL 2
REMARK VINA RESULT:    -5.610      1.439      3.494
REMARK INTER + INTRA:         -17.175
REMARK INTER:                 -13.572
REMARK INTRA:                  -3.603
REMARK UNBOUND:                -3.037
REMARK SMILES CCCCCCCCCCCCCCCCCCCCCCCCCCCC(=O)[O-]
REMARK SMILES IDX 15 1 16 2 17 3 18 4 19 5 20 6 21 7 22 8 23 9 24 10 25 11
REMARK SMILES IDX 26 12 27 13 28 14 29 15 30 16 14 17 13 18 12 19 11 20 10 21
REMARK SMILES IDX 9 22 8 23 7 24 6 25 5 26 4 27 3 28 2 29 1 30
REMARK H PARENT
REMARK Flexibility Score: inf
ROOT
ATOM      1  C   UNL     1       2.186  -1.627  40.398  1.00  0.00     0.000 C 
ENDROOT
BRANCH   1   2
ATOM      2  C   UNL     1       2.929  -0.485  39.694  1.00  0.00     0.000 C 
BRANCH   2   3
ATOM      3  C   UNL     1       2.768  -0.582  38.173  1.00  0.00     0.000 C 
BRANCH   3   4
ATOM      4  C   UNL     1       3.852   0.224  37.448  1.00  0.00     0.000 C 
BRANCH   4   5
ATOM      5  C   UNL     1       4.794  -0.700  36.665  1.00  0.00     0.000 C 
BRANCH   5   6
ATOM      6  C   UNL     1       5.992   0.079  36.103  1.00  0.00     0.000 C 
BRANCH   6   7
ATOM      7  C   UNL     1       7.237  -0.812  35.915  1.00  0.00     0.000 C 
BRANCH   7   8
ATOM      8  C   UNL     1       8.529  -0.022  35.642  1.00  0.00     0.000 C 
BRANCH   8   9
ATOM      9  C   UNL     1       8.545   0.637  34.253  1.00  0.00     0.000 C 
BRANCH   9  10
ATOM     10  C   UNL     1       9.856   0.380  33.495  1.00  0.00     0.000 C 
BRANCH  10  11
ATOM     11  C   UNL     1      11.082   0.363  34.424  1.00  0.00     0.000 C 
BRANCH  11  12
ATOM     12  C   UNL     1      12.126   1.435  34.063  1.00  0.00     0.006 C 
BRANCH  12  13
ATOM     13  C   UNL     1      11.726   2.861  34.478  1.00  0.00     0.053 C 
BRANCH  13  14
ATOM     14  C   UNL     1      12.531   3.378  35.632  1.00  0.00     0.041 C 
ATOM     15  O   UNL     1      13.436   2.667  36.144  1.00  0.00    -0.550 OA
ATOM     16  O   UNL     1      12.304   4.658  36.120  1.00  0.00    -0.550 OA
ENDBRANCH  13  14
ENDBRANCH  12  13
ENDBRANCH  11  12
ENDBRANCH  10  11
ENDBRANCH   9  10
ENDBRANCH   8   9
ENDBRANCH   7   8
ENDBRANCH   6   7
ENDBRANCH   5   6
ENDBRANCH   4   5
ENDBRANCH   3   4
ENDBRANCH   2   3
ENDBRANCH   1   2
BRANCH   1  17
ATOM     17  C   UNL     1       3.003  -2.928  40.357  1.00  0.00     0.000 C 
BRANCH  17  18
ATOM     18  C   UNL     1       2.266  -4.071  39.640  1.00  0.00     0.000 C 
BRANCH  18  19
ATOM     19  C   UNL     1       3.193  -4.899  38.733  1.00  0.00     0.000 C 
BRANCH  19  20
ATOM     20  C   UNL     1       3.831  -4.060  37.611  1.00  0.00     0.000 C 
BRANCH  20  21
ATOM     21  C   UNL     1       3.096  -4.129  36.260  1.00  0.00     0.000 C 
BRANCH  21  22
ATOM     22  C   UNL     1       2.642  -5.556  35.876  1.00  0.00    -0.000 C 
BRANCH  22  23
ATOM     23  C   UNL     1       2.864  -5.902  34.391  1.00  0.00    -0.000 C 
BRANCH  23  24
ATOM     24  C   UNL     1       3.154  -4.697  33.469  1.00  0.00    -0.000 C 
BRANCH  24  25
ATOM     25  C   UNL     1       4.274  -4.913  32.436  1.00  0.00    -0.000 C 
BRANCH  25  26
ATOM     26  C   UNL     1       5.621  -5.286  33.079  1.00  0.00    -0.000 C 
BRANCH  26  27
ATOM     27  C   UNL     1       6.107  -4.232  34.085  1.00  0.00    -0.000 C 
BRANCH  27  28
ATOM     28  C   UNL     1       6.527  -4.847  35.429  1.00  0.00    -0.000 C 
BRANCH  28  29
ATOM     29  C   UNL     1       6.698  -6.365  35.308  1.00  0.00    -0.003 C 
ATOM     30  C   UNL     1       5.863  -7.097  36.355  1.00  0.00     0.004 C 
ENDBRANCH  28  29
ENDBRANCH  27  28
ENDBRANCH  26  27
ENDBRANCH  25  26
ENDBRANCH  24  25
ENDBRANCH  23  24
ENDBRANCH  22  23
ENDBRANCH  21  22
ENDBRANCH  20  21
ENDBRANCH  19  20
ENDBRANCH  18  19
ENDBRANCH  17  18
ENDBRANCH   1  17
TORSDOF 26
ENDMDL
MODEL 3
REMARK VINA RESULT:    -5.550      3.718      9.918
REMARK INTER + INTRA:         -17.024
REMARK INTER:                 -13.759
REMARK INTRA:                  -3.265
REMARK UNBOUND:                -3.037
REMARK SMILES CCCCCCCCCCCCCCCCCCCCCCCCCCCC(=O)[O-]
REMARK SMILES IDX 15 1 16 2 17 3 18 4 19 5 20 6 21 7 22 8 23 9 24 10 25 11
REMARK SMILES IDX 26 12 27 13 28 14 29 15 30 16 14 17 13 18 12 19 11 20 10 21
REMARK SMILES IDX 9 22 8 23 7 24 6 25 5 26 4 27 3 28 2 29 1 30
REMARK H PARENT
REMARK Flexibility Score: inf
ROOT
ATOM      1  C   UNL     1       4.855  -5.359  34.065  1.00  0.00     0.000 C 
ENDROOT
BRANCH   1   2
ATOM      2  C   UNL     1       6.374  -5.524  33.938  1.00  0.00     0.000 C 
BRANCH   2   3
ATOM      3  C   UNL     1       6.831  -6.861  34.532  1.00  0.00     0.000 C 
BRANCH   3   4
ATOM      4  C   UNL     1       5.761  -7.944  34.349  1.00  0.00     0.000 C 
BRANCH   4   5
ATOM      5  C   UNL     1       5.498  -8.685  35.666  1.00  0.00     0.000 C 
BRANCH   5   6
ATOM      6  C   UNL     1       5.391  -7.703  36.842  1.00  0.00     0.000 C 
BRANCH   6   7
ATOM      7  C   UNL     1       3.939  -7.245  37.094  1.00  0.00     0.000 C 
BRANCH   7   8
ATOM      8  C   UNL     1       3.786  -6.315  38.311  1.00  0.00     0.000 C 
BRANCH   8   9
ATOM      9  C   UNL     1       2.348  -5.802  38.495  1.00  0.00     0.000 C 
BRANCH   9  10
ATOM     10  C   UNL     1       2.007  -4.653  37.534  1.00  0.00     0.000 C 
BRANCH  10  11
ATOM     11  C   UNL     1       1.822  -3.310  38.262  1.00  0.00     0.000 C 
BRANCH  11  12
ATOM     12  C   UNL     1       3.098  -2.831  38.976  1.00  0.00     0.006 C 
BRANCH  12  13
ATOM     13  C   UNL     1       3.016  -2.897  40.511  1.00  0.00     0.053 C 
BRANCH  13  14
ATOM     14  C   UNL     1       2.195  -1.788  41.096  1.00  0.00     0.041 C 
ATOM     15  O   UNL     1       2.674  -0.627  41.196  1.00  0.00    -0.550 OA
ATOM     16  O   UNL     1       0.889  -2.029  41.502  1.00  0.00    -0.550 OA
ENDBRANCH  13  14
ENDBRANCH  12  13
ENDBRANCH  11  12
ENDBRANCH  10  11
ENDBRANCH   9  10
ENDBRANCH   8   9
ENDBRANCH   7   8
ENDBRANCH   6   7
ENDBRANCH   5   6
ENDBRANCH   4   5
ENDBRANCH   3   4
ENDBRANCH   2   3
ENDBRANCH   1   2
BRANCH   1  17
ATOM     17  C   UNL     1       4.499  -4.098  34.868  1.00  0.00     0.000 C 
BRANCH  17  18
ATOM     18  C   UNL     1       5.358  -3.937  36.133  1.00  0.00     0.000 C 
BRANCH  18  19
ATOM     19  C   UNL     1       6.108  -2.595  36.175  1.00  0.00     0.000 C 
BRANCH  19  20
ATOM     20  C   UNL     1       5.177  -1.403  36.463  1.00  0.00     0.000 C 
BRANCH  20  21
ATOM     21  C   UNL     1       5.843  -0.021  36.334  1.00  0.00     0.000 C 
BRANCH  21  22
ATOM     22  C   UNL     1       7.213  -0.061  35.618  1.00  0.00    -0.000 C 
BRANCH  22  23
ATOM     23  C   UNL     1       8.124   1.137  35.949  1.00  0.00    -0.000 C 
BRANCH  23  24
ATOM     24  C   UNL     1       9.045   1.602  34.799  1.00  0.00    -0.000 C 
BRANCH  24  25
ATOM     25  C   UNL     1       9.349   0.538  33.729  1.00  0.00    -0.000 C 
BRANCH  25  26
ATOM     26  C   UNL     1      10.778  -0.023  33.828  1.00  0.00    -0.000 C 
BRANCH  26  27
ATOM     27  C   UNL     1      11.637   0.726  34.859  1.00  0.00    -0.000 C 
BRANCH  27  28
ATOM     28  C   UNL     1      13.075   0.961  34.371  1.00  0.00    -0.000 C 
BRANCH  28  29
ATOM     29  C   UNL     1      13.360   2.458  34.208  1.00  0.00    -0.003 C 
ATOM     30  C   UNL     1      12.203   3.166  33.509  1.00  0.00     0.004 C 
ENDBRANCH  28  29
ENDBRANCH  27  28
ENDBRANCH  26  27
ENDBRANCH  25  26
ENDBRANCH  24  25
ENDBRANCH  23  24
ENDBRANCH  22  23
ENDBRANCH  21  22
ENDBRANCH  20  21
ENDBRANCH  19  20
ENDBRANCH  18  19
ENDBRANCH  17  18
ENDBRANCH   1  17
TORSDOF 26
ENDMDL
MODEL 4
REMARK VINA RESULT:    -5.543      1.369      3.389
REMARK INTER + INTRA:         -17.006
REMARK INTER:                 -13.460
REMARK INTRA:                  -3.546
REMARK UNBOUND:                -3.037
REMARK SMILES CCCCCCCCCCCCCCCCCCCCCCCCCCCC(=O)[O-]
REMARK SMILES IDX 15 1 16 2 17 3 18 4 19 5 20 6 21 7 22 8 23 9 24 10 25 11
REMARK SMILES IDX 26 12 27 13 28 14 29 15 30 16 14 17 13 18 12 19 11 20 10 21
REMARK SMILES IDX 9 22 8 23 7 24 6 25 5 26 4 27 3 28 2 29 1 30
REMARK H PARENT
REMARK Flexibility Score: inf
ROOT
ATOM      1  C   UNL     1       2.540  -1.360  38.622  1.00  0.00     0.000 C 
ENDROOT
BRANCH   1   2
ATOM      2  C   UNL     1       3.259  -0.006  38.617  1.00  0.00     0.000 C 
BRANCH   2   3
ATOM      3  C   UNL     1       3.715   0.368  37.203  1.00  0.00     0.000 C 
BRANCH   3   4
ATOM      4  C   UNL     1       4.890  -0.508  36.750  1.00  0.00     0.000 C 
BRANCH   4   5
ATOM      5  C   UNL     1       5.940   0.324  36.001  1.00  0.00     0.000 C 
BRANCH   5   6
ATOM      6  C   UNL     1       7.336  -0.302  36.133  1.00  0.00     0.000 C 
BRANCH   6   7
ATOM      7  C   UNL     1       7.870  -0.835  34.787  1.00  0.00     0.000 C 
BRANCH   7   8
ATOM      8  C   UNL     1       8.042   0.256  33.714  1.00  0.00     0.000 C 
BRANCH   8   9
ATOM      9  C   UNL     1       9.433   0.910  33.743  1.00  0.00     0.000 C 
BRANCH   9  10
ATOM     10  C   UNL     1      10.562  -0.099  33.484  1.00  0.00     0.000 C 
BRANCH  10  11
ATOM     11  C   UNL     1      11.765   0.109  34.420  1.00  0.00     0.000 C 
BRANCH  11  12
ATOM     12  C   UNL     1      11.496   1.146  35.526  1.00  0.00     0.006 C 
BRANCH  12  13
ATOM     13  C   UNL     1      12.706   2.040  35.849  1.00  0.00     0.053 C 
BRANCH  13  14
ATOM     14  C   UNL     1      12.501   3.466  35.437  1.00  0.00     0.041 C 
ATOM     15  O   UNL     1      12.904   4.404  36.174  1.00  0.00    -0.550 OA
ATOM     16  O   UNL     1      11.893   3.758  34.223  1.00  0.00    -0.550 OA
ENDBRANCH  13  14
ENDBRANCH  12  13
ENDBRANCH  11  12
ENDBRANCH  10  11
ENDBRANCH   9  10
ENDBRANCH   8   9
ENDBRANCH   7   8
ENDBRANCH   6   7
ENDBRANCH   5   6
ENDBRANCH   4   5
ENDBRANCH   3   4
ENDBRANCH   2   3
ENDBRANCH   1   2
BRANCH   1  17
ATOM     17  C   UNL     1       2.746  -2.093  39.957  1.00  0.00     0.000 C 
BRANCH  17  18
ATOM     18  C   UNL     1       2.183  -3.524  39.943  1.00  0.00     0.000 C 
BRANCH  18  19
ATOM     19  C   UNL     1       2.323  -4.204  38.570  1.00  0.00     0.000 C 
BRANCH  19  20
ATOM     20  C   UNL     1       3.742  -4.748  38.319  1.00  0.00     0.000 C 
BRANCH  20  21
ATOM     21  C   UNL     1       4.478  -4.098  37.134  1.00  0.00     0.000 C 
BRANCH  21  22
ATOM     22  C   UNL     1       3.684  -4.153  35.809  1.00  0.00    -0.000 C 
BRANCH  22  23
ATOM     23  C   UNL     1       4.572  -4.224  34.552  1.00  0.00    -0.000 C 
BRANCH  23  24
ATOM     24  C   UNL     1       6.085  -4.379  34.821  1.00  0.00    -0.000 C 
BRANCH  24  25
ATOM     25  C   UNL     1       6.756  -5.583  34.137  1.00  0.00    -0.000 C 
BRANCH  25  26
ATOM     26  C   UNL     1       7.030  -6.748  35.105  1.00  0.00    -0.000 C 
BRANCH  26  27
ATOM     27  C   UNL     1       5.776  -7.590  35.387  1.00  0.00    -0.000 C 
BRANCH  27  28
ATOM     28  C   UNL     1       5.592  -7.895  36.881  1.00  0.00    -0.000 C 
BRANCH  28  29
ATOM     29  C   UNL     1       4.110  -8.075  37.226  1.00  0.00    -0.003 C 
ATOM     30  C   UNL     1       3.231  -7.868  35.996  1.00  0.00     0.004 C 
ENDBRANCH  28  29
ENDBRANCH  27  28
ENDBRANCH  26  27
ENDBRANCH  25  26
ENDBRANCH  24  25
ENDBRANCH  23  24
ENDBRANCH  22  23
ENDBRANCH  21  22
ENDBRANCH  20  21
ENDBRANCH  19  20
ENDBRANCH  18  19
ENDBRANCH  17  18
ENDBRANCH   1  17
TORSDOF 26
ENDMDL
MODEL 5
REMARK VINA RESULT:    -5.528      3.928      9.451
REMARK INTER + INTRA:         -16.968
REMARK INTER:                 -13.310
REMARK INTRA:                  -3.658
REMARK UNBOUND:                -3.037
REMARK SMILES CCCCCCCCCCCCCCCCCCCCCCCCCCCC(=O)[O-]
REMARK SMILES IDX 15 1 16 2 17 3 18 4 19 5 20 6 21 7 22 8 23 9 24 10 25 11
REMARK SMILES IDX 26 12 27 13 28 14 29 15 30 16 14 17 13 18 12 19 11 20 10 21
REMARK SMILES IDX 9 22 8 23 7 24 6 25 5 26 4 27 3 28 2 29 1 30
REMARK H PARENT
REMARK Flexibility Score: inf
ROOT
ATOM      1  C   UNL     1       2.627  -1.130  40.144  1.00  0.00     0.000 C 
ENDROOT
BRANCH   1   2
ATOM      2  C   UNL     1       2.141  -2.157  41.173  1.00  0.00     0.000 C 
BRANCH   2   3
ATOM      3  C   UNL     1       0.810  -2.780  40.740  1.00  0.00     0.000 C 
BRANCH   3   4
ATOM      4  C   UNL     1       0.703  -4.237  41.204  1.00  0.00     0.000 C 
BRANCH   4   5
ATOM      5  C   UNL     1       1.174  -5.200  40.106  1.00  0.00     0.000 C 
BRANCH   5   6
ATOM      6  C   UNL     1       0.717  -4.724  38.720  1.00  0.00     0.000 C 
BRANCH   6   7
ATOM      7  C   UNL     1       1.876  -4.675  37.703  1.00  0.00     0.000 C 
BRANCH   7   8
ATOM      8  C   UNL     1       3.270  -4.768  38.350  1.00  0.00     0.000 C 
BRANCH   8   9
ATOM      9  C   UNL     1       4.219  -3.648  37.891  1.00  0.00     0.000 C 
BRANCH   9  10
ATOM     10  C   UNL     1       4.462  -3.669  36.374  1.00  0.00     0.000 C 
BRANCH  10  11
ATOM     11  C   UNL     1       5.940  -3.903  36.016  1.00  0.00     0.000 C 
BRANCH  11  12
ATOM     12  C   UNL     1       6.195  -5.283  35.385  1.00  0.00     0.006 C 
BRANCH  12  13
ATOM     13  C   UNL     1       4.915  -6.100  35.134  1.00  0.00     0.053 C 
BRANCH  13  14
ATOM     14  C   UNL     1       4.930  -7.430  35.824  1.00  0.00     0.041 C 
ATOM     15  O   UNL     1       4.690  -8.484  35.177  1.00  0.00    -0.550 OA
ATOM     16  O   UNL     1       5.242  -7.509  37.175  1.00  0.00    -0.550 OA
ENDBRANCH  13  14
ENDBRANCH  12  13
ENDBRANCH  11  12
ENDBRANCH  10  11
ENDBRANCH   9  10
ENDBRANCH   8   9
ENDBRANCH   7   8
ENDBRANCH   6   7
ENDBRANCH   5   6
ENDBRANCH   4   5
ENDBRANCH   3   4
ENDBRANCH   2   3
ENDBRANCH   1   2
BRANCH   1  17
ATOM     17  C   UNL     1       1.733  -1.133  38.894  1.00  0.00     0.000 C 
BRANCH  17  18
ATOM     18  C   UNL     1       2.332  -0.324  37.731  1.00  0.00     0.000 C 
BRANCH  18  19
ATOM     19  C   UNL     1       3.809   0.039  37.960  1.00  0.00     0.000 C 
BRANCH  19  20
ATOM     20  C   UNL     1       4.548   0.377  36.652  1.00  0.00     0.000 C 
BRANCH  20  21
ATOM     21  C   UNL     1       5.843  -0.421  36.420  1.00  0.00     0.000 C 
BRANCH  21  22
ATOM     22  C   UNL     1       6.952   0.393  35.717  1.00  0.00    -0.000 C 
BRANCH  22  23
ATOM     23  C   UNL     1       7.789   1.265  36.674  1.00  0.00    -0.000 C 
BRANCH  23  24
ATOM     24  C   UNL     1       9.319   1.173  36.481  1.00  0.00    -0.000 C 
BRANCH  24  25
ATOM     25  C   UNL     1       9.820   1.457  35.054  1.00  0.00    -0.000 C 
BRANCH  25  26
ATOM     26  C   UNL     1      11.069   0.638  34.682  1.00  0.00    -0.000 C 
BRANCH  26  27
ATOM     27  C   UNL     1      12.248   1.522  34.248  1.00  0.00    -0.000 C 
BRANCH  27  28
ATOM     28  C   UNL     1      13.128   1.956  35.430  1.00  0.00    -0.000 C 
BRANCH  28  29
ATOM     29  C   UNL     1      13.449   3.452  35.354  1.00  0.00    -0.003 C 
ATOM     30  C   UNL     1      12.350   4.284  36.008  1.00  0.00     0.004 C 
ENDBRANCH  28  29
ENDBRANCH  27  28
ENDBRANCH  26  27
ENDBRANCH  25  26
ENDBRANCH  24  25
ENDBRANCH  23  24
ENDBRANCH  22  23
ENDBRANCH  21  22
ENDBRANCH  20  21
ENDBRANCH  19  20
ENDBRANCH  18  19
ENDBRANCH  17  18
ENDBRANCH   1  17
TORSDOF 26
ENDMDL
MODEL 6
REMARK VINA RESULT:    -5.519      1.614      4.605
REMARK INTER + INTRA:         -16.944
REMARK INTER:                 -13.052
REMARK INTRA:                  -3.892
REMARK UNBOUND:                -3.037
REMARK SMILES CCCCCCCCCCCCCCCCCCCCCCCCCCCC(=O)[O-]
REMARK SMILES IDX 15 1 16 2 17 3 18 4 19 5 20 6 21 7 22 8 23 9 24 10 25 11
REMARK SMILES IDX 26 12 27 13 28 14 29 15 30 16 14 17 13 18 12 19 11 20 10 21
REMARK SMILES IDX 9 22 8 23 7 24 6 25 5 26 4 27 3 28 2 29 1 30
REMARK H PARENT
REMARK Flexibility Score: inf
ROOT
ATOM      1  C   UNL     1       3.377  -3.233  39.442  1.00  0.00     0.000 C 
ENDROOT
BRANCH   1   2
ATOM      2  C   UNL     1       2.630  -2.151  40.230  1.00  0.00     0.000 C 
BRANCH   2   3
ATOM      3  C   UNL     1       2.665  -0.810  39.488  1.00  0.00     0.000 C 
BRANCH   3   4
ATOM      4  C   UNL     1       3.087  -0.997  38.026  1.00  0.00     0.000 C 
BRANCH   4   5
ATOM      5  C   UNL     1       3.511   0.339  37.401  1.00  0.00     0.000 C 
BRANCH   5   6
ATOM      6  C   UNL     1       4.900   0.230  36.753  1.00  0.00     0.000 C 
BRANCH   6   7
ATOM      7  C   UNL     1       5.259  -1.223  36.377  1.00  0.00     0.000 C 
BRANCH   7   8
ATOM      8  C   UNL     1       6.738  -1.415  35.995  1.00  0.00     0.000 C 
BRANCH   8   9
ATOM      9  C   UNL     1       7.438  -0.097  35.625  1.00  0.00     0.000 C 
BRANCH   9  10
ATOM     10  C   UNL     1       8.062  -0.136  34.222  1.00  0.00     0.000 C 
BRANCH  10  11
ATOM     11  C   UNL     1       9.479   0.463  34.190  1.00  0.00     0.000 C 
BRANCH  11  12
ATOM     12  C   UNL     1       9.663   1.628  35.178  1.00  0.00     0.006 C 
BRANCH  12  13
ATOM     13  C   UNL     1      10.857   1.453  36.132  1.00  0.00     0.053 C 
BRANCH  13  14
ATOM     14  C   UNL     1      12.177   1.679  35.458  1.00  0.00     0.041 C 
ATOM     15  O   UNL     1      13.133   0.883  35.652  1.00  0.00    -0.550 OA
ATOM     16  O   UNL     1      12.340   2.751  34.590  1.00  0.00    -0.550 OA
ENDBRANCH  13  14
ENDBRANCH  12  13
ENDBRANCH  11  12
ENDBRANCH  10  11
ENDBRANCH   9  10
ENDBRANCH   8   9
ENDBRANCH   7   8
ENDBRANCH   6   7
ENDBRANCH   5   6
ENDBRANCH   4   5
ENDBRANCH   3   4
ENDBRANCH   2   3
ENDBRANCH   1   2
BRANCH   1  17
ATOM     17  C   UNL     1       2.443  -4.397  39.076  1.00  0.00     0.000 C 
BRANCH  17  18
ATOM     18  C   UNL     1       2.323  -4.608  37.558  1.00  0.00     0.000 C 
BRANCH  18  19
ATOM     19  C   UNL     1       3.669  -4.455  36.828  1.00  0.00     0.000 C 
BRANCH  19  20
ATOM     20  C   UNL     1       3.519  -4.462  35.296  1.00  0.00     0.000 C 
BRANCH  20  21
ATOM     21  C   UNL     1       4.848  -4.470  34.520  1.00  0.00     0.000 C 
BRANCH  21  22
ATOM     22  C   UNL     1       6.062  -4.891  35.379  1.00  0.00    -0.000 C 
BRANCH  22  23
ATOM     23  C   UNL     1       6.604  -6.295  35.048  1.00  0.00    -0.000 C 
BRANCH  23  24
ATOM     24  C   UNL     1       5.684  -7.469  35.450  1.00  0.00    -0.000 C 
BRANCH  24  25
ATOM     25  C   UNL     1       5.621  -7.767  36.958  1.00  0.00    -0.000 C 
BRANCH  25  26
ATOM     26  C   UNL     1       4.180  -7.869  37.491  1.00  0.00    -0.000 C 
BRANCH  26  27
ATOM     27  C   UNL     1       3.171  -8.244  36.395  1.00  0.00    -0.000 C 
BRANCH  27  28
ATOM     28  C   UNL     1       1.730  -8.325  36.922  1.00  0.00    -0.000 C 
BRANCH  28  29
ATOM     29  C   UNL     1       1.712  -8.623  38.425  1.00  0.00    -0.003 C 
ATOM     30  C   UNL     1       0.807  -7.644  39.169  1.00  0.00     0.004 C 
ENDBRANCH  28  29
ENDBRANCH  27  28
ENDBRANCH  26  27
ENDBRANCH  25  26
ENDBRANCH  24  25
ENDBRANCH  23  24
ENDBRANCH  22  23
ENDBRANCH  21  22
ENDBRANCH  20  21
ENDBRANCH  19  20
ENDBRANCH  18  19
ENDBRANCH  17  18
ENDBRANCH   1  17
TORSDOF 26
ENDMDL
MODEL 7
REMARK VINA RESULT:    -5.517      1.164      1.643
REMARK INTER + INTRA:         -16.941
REMARK INTER:                 -13.462
REMARK INTRA:                  -3.479
REMARK UNBOUND:                -3.037
REMARK SMILES CCCCCCCCCCCCCCCCCCCCCCCCCCCC(=O)[O-]
REMARK SMILES IDX 15 1 16 2 17 3 18 4 19 5 20 6 21 7 22 8 23 9 24 10 25 11
REMARK SMILES IDX 26 12 27 13 28 14 29 15 30 16 14 17 13 18 12 19 11 20 10 21
REMARK SMILES IDX 9 22 8 23 7 24 6 25 5 26 4 27 3 28 2 29 1 30
REMARK H PARENT
REMARK Flexibility Score: inf
ROOT
ATOM      1  C   UNL     1       3.127  -1.682  38.876  1.00  0.00     0.000 C 
ENDROOT
BRANCH   1   2
ATOM      2  C   UNL     1       3.013  -0.154  38.831  1.00  0.00     0.000 C 
BRANCH   2   3
ATOM      3  C   UNL     1       3.532   0.396  37.498  1.00  0.00     0.000 C 
BRANCH   3   4
ATOM      4  C   UNL     1       4.488  -0.596  36.824  1.00  0.00     0.000 C 
BRANCH   4   5
ATOM      5  C   UNL     1       5.773   0.104  36.364  1.00  0.00     0.000 C 
BRANCH   5   6
ATOM      6  C   UNL     1       6.816  -0.916  35.884  1.00  0.00     0.000 C 
BRANCH   6   7
ATOM      7  C   UNL     1       7.887  -0.277  34.975  1.00  0.00     0.000 C 
BRANCH   7   8
ATOM      8  C   UNL     1       8.768   0.760  35.692  1.00  0.00     0.000 C 
BRANCH   8   9
ATOM      9  C   UNL     1       9.330   1.830  34.740  1.00  0.00     0.000 C 
BRANCH   9  10
ATOM     10  C   UNL     1      10.313   1.245  33.714  1.00  0.00     0.000 C 
BRANCH  10  11
ATOM     11  C   UNL     1      11.258   0.200  34.330  1.00  0.00     0.000 C 
BRANCH  11  12
ATOM     12  C   UNL     1      12.717   0.681  34.412  1.00  0.00     0.006 C 
BRANCH  12  13
ATOM     13  C   UNL     1      13.015   1.565  35.635  1.00  0.00     0.053 C 
BRANCH  13  14
ATOM     14  C   UNL     1      13.158   3.014  35.283  1.00  0.00     0.041 C 
ATOM     15  O   UNL     1      12.778   3.905  36.089  1.00  0.00    -0.550 OA
ATOM     16  O   UNL     1      13.741   3.383  34.078  1.00  0.00    -0.550 OA
ENDBRANCH  13  14
ENDBRANCH  12  13
ENDBRANCH  11  12
ENDBRANCH  10  11
ENDBRANCH   9  10
ENDBRANCH   8   9
ENDBRANCH   7   8
ENDBRANCH   6   7
ENDBRANCH   5   6
ENDBRANCH   4   5
ENDBRANCH   3   4
ENDBRANCH   2   3
ENDBRANCH   1   2
BRANCH   1  17
ATOM     17  C   UNL     1       2.951  -2.210  40.308  1.00  0.00     0.000 C 
BRANCH  17  18
ATOM     18  C   UNL     1       1.700  -1.645  41.001  1.00  0.00     0.000 C 
BRANCH  18  19
ATOM     19  C   UNL     1       0.624  -2.717  41.248  1.00  0.00     0.000 C 
BRANCH  19  20
ATOM     20  C   UNL     1      -0.675  -2.446  40.468  1.00  0.00     0.000 C 
BRANCH  20  21
ATOM     21  C   UNL     1      -0.468  -2.037  38.998  1.00  0.00     0.000 C 
BRANCH  21  22
ATOM     22  C   UNL     1      -0.597  -3.215  38.006  1.00  0.00    -0.000 C 
BRANCH  22  23
ATOM     23  C   UNL     1       0.753  -3.838  37.599  1.00  0.00    -0.000 C 
BRANCH  23  24
ATOM     24  C   UNL     1       1.063  -5.212  38.233  1.00  0.00    -0.000 C 
BRANCH  24  25
ATOM     25  C   UNL     1       2.461  -5.345  38.864  1.00  0.00    -0.000 C 
BRANCH  25  26
ATOM     26  C   UNL     1       3.542  -5.754  37.849  1.00  0.00    -0.000 C 
BRANCH  26  27
ATOM     27  C   UNL     1       4.454  -4.582  37.453  1.00  0.00    -0.000 C 
BRANCH  27  28
ATOM     28  C   UNL     1       4.313  -4.199  35.972  1.00  0.00    -0.000 C 
BRANCH  28  29
ATOM     29  C   UNL     1       3.557  -5.281  35.195  1.00  0.00    -0.003 C 
ATOM     30  C   UNL     1       2.549  -4.663  34.230  1.00  0.00     0.004 C 
ENDBRANCH  28  29
ENDBRANCH  27  28
ENDBRANCH  26  27
ENDBRANCH  25  26
ENDBRANCH  24  25
ENDBRANCH  23  24
ENDBRANCH  22  23
ENDBRANCH  21  22
ENDBRANCH  20  21
ENDBRANCH  19  20
ENDBRANCH  18  19
ENDBRANCH  17  18
ENDBRANCH   1  17
TORSDOF 26
ENDMDL
MODEL 8
REMARK VINA RESULT:    -5.485      1.420      4.541
REMARK INTER + INTRA:         -16.859
REMARK INTER:                 -13.689
REMARK INTRA:                  -3.170
REMARK UNBOUND:                -3.037
REMARK SMILES CCCCCCCCCCCCCCCCCCCCCCCCCCCC(=O)[O-]
REMARK SMILES IDX 15 1 16 2 17 3 18 4 19 5 20 6 21 7 22 8 23 9 24 10 25 11
REMARK SMILES IDX 26 12 27 13 28 14 29 15 30 16 14 17 13 18 12 19 11 20 10 21
REMARK SMILES IDX 9 22 8 23 7 24 6 25 5 26 4 27 3 28 2 29 1 30
REMARK H PARENT
REMARK Flexibility Score: inf
ROOT
ATOM      1  C   UNL     1       4.929  -4.112  35.376  1.00  0.00     0.000 C 
ENDROOT
BRANCH   1   2
ATOM      2  C   UNL     1       5.364  -3.352  36.635  1.00  0.00     0.000 C 
BRANCH   2   3
ATOM      3  C   UNL     1       6.326  -2.213  36.283  1.00  0.00     0.000 C 
BRANCH   3   4
ATOM      4  C   UNL     1       5.615  -0.855  36.320  1.00  0.00     0.000 C 
BRANCH   4   5
ATOM      5  C   UNL     1       6.594   0.288  36.020  1.00  0.00     0.000 C 
BRANCH   5   6
ATOM      6  C   UNL     1       7.904  -0.249  35.423  1.00  0.00     0.000 C 
BRANCH   6   7
ATOM      7  C   UNL     1       8.249   0.413  34.073  1.00  0.00     0.000 C 
BRANCH   7   8
ATOM      8  C   UNL     1       9.272   1.557  34.189  1.00  0.00     0.000 C 
BRANCH   8   9
ATOM      9  C   UNL     1      10.596   1.250  33.470  1.00  0.00     0.000 C 
BRANCH   9  10
ATOM     10  C   UNL     1      11.364   0.090  34.121  1.00  0.00     0.000 C 
BRANCH  10  11
ATOM     11  C   UNL     1      12.700   0.539  34.738  1.00  0.00     0.000 C 
BRANCH  11  12
ATOM     12  C   UNL     1      12.521   1.479  35.944  1.00  0.00     0.006 C 
BRANCH  12  13
ATOM     13  C   UNL     1      13.408   2.735  35.891  1.00  0.00     0.053 C 
BRANCH  13  14
ATOM     14  C   UNL     1      12.639   3.974  35.545  1.00  0.00     0.041 C 
ATOM     15  O   UNL     1      12.121   4.102  34.404  1.00  0.00    -0.550 OA
ATOM     16  O   UNL     1      12.467   4.974  36.494  1.00  0.00    -0.550 OA
ENDBRANCH  13  14
ENDBRANCH  12  13
ENDBRANCH  11  12
ENDBRANCH  10  11
ENDBRANCH   9  10
ENDBRANCH   8   9
ENDBRANCH   7   8
ENDBRANCH   6   7
ENDBRANCH   5   6
ENDBRANCH   4   5
ENDBRANCH   3   4
ENDBRANCH   2   3
ENDBRANCH   1   2
BRANCH   1  17
ATOM     17  C   UNL     1       6.123  -4.364  34.442  1.00  0.00     0.000 C 
BRANCH  17  18
ATOM     18  C   UNL     1       6.424  -5.860  34.252  1.00  0.00     0.000 C 
BRANCH  18  19
ATOM     19  C   UNL     1       6.582  -6.608  35.587  1.00  0.00     0.000 C 
BRANCH  19  20
ATOM     20  C   UNL     1       5.594  -7.780  35.732  1.00  0.00     0.000 C 
BRANCH  20  21
ATOM     21  C   UNL     1       4.242  -7.407  36.364  1.00  0.00     0.000 C 
BRANCH  21  22
ATOM     22  C   UNL     1       4.352  -6.964  37.841  1.00  0.00    -0.000 C 
BRANCH  22  23
ATOM     23  C   UNL     1       3.262  -5.965  38.276  1.00  0.00    -0.000 C 
BRANCH  23  24
ATOM     24  C   UNL     1       2.056  -5.847  37.318  1.00  0.00    -0.000 C 
BRANCH  24  25
ATOM     25  C   UNL     1       1.729  -4.420  36.845  1.00  0.00    -0.000 C 
BRANCH  25  26
ATOM     26  C   UNL     1       1.498  -3.440  38.008  1.00  0.00    -0.000 C 
BRANCH  26  27
ATOM     27  C   UNL     1       2.099  -2.051  37.740  1.00  0.00    -0.000 C 
BRANCH  27  28
ATOM     28  C   UNL     1       2.773  -1.449  38.982  1.00  0.00    -0.000 C 
BRANCH  28  29
ATOM     29  C   UNL     1       1.846  -1.525  40.200  1.00  0.00    -0.003 C 
ATOM     30  C   UNL     1       2.590  -2.049  41.425  1.00  0.00     0.004 C 
ENDBRANCH  28  29
ENDBRANCH  27  28
ENDBRANCH  26  27
ENDBRANCH  25  26
ENDBRANCH  24  25
ENDBRANCH  23  24
ENDBRANCH  22  23
ENDBRANCH  21  22
ENDBRANCH  20  21
ENDBRANCH  19  20
ENDBRANCH  18  19
ENDBRANCH  17  18
ENDBRANCH   1  17
TORSDOF 26
ENDMDL
MODEL 9
REMARK VINA RESULT:    -5.463      2.278      6.158
REMARK INTER + INTRA:         -16.805
REMARK INTER:                 -12.036
REMARK INTRA:                  -4.769
REMARK UNBOUND:                -3.037
REMARK SMILES CCCCCCCCCCCCCCCCCCCCCCCCCCCC(=O)[O-]
REMARK SMILES IDX 15 1 16 2 17 3 18 4 19 5 20 6 21 7 22 8 23 9 24 10 25 11
REMARK SMILES IDX 26 12 27 13 28 14 29 15 30 16 14 17 13 18 12 19 11 20 10 21
REMARK SMILES IDX 9 22 8 23 7 24 6 25 5 26 4 27 3 28 2 29 1 30
REMARK H PARENT
REMARK Flexibility Score: inf
ROOT
ATOM      1  C   UNL     1       3.195  -4.046  36.516  1.00  0.00     0.000 C 
ENDROOT
BRANCH   1   2
ATOM      2  C   UNL     1       4.123  -4.072  37.736  1.00  0.00     0.000 C 
BRANCH   2   3
ATOM      3  C   UNL     1       3.329  -3.877  39.032  1.00  0.00     0.000 C 
BRANCH   3   4
ATOM      4  C   UNL     1       1.860  -3.548  38.738  1.00  0.00     0.000 C 
BRANCH   4   5
ATOM      5  C   UNL     1       1.461  -2.205  39.364  1.00  0.00     0.000 C 
BRANCH   5   6
ATOM      6  C   UNL     1       2.570  -1.158  39.180  1.00  0.00     0.000 C 
BRANCH   6   7
ATOM      7  C   UNL     1       2.463  -0.421  37.829  1.00  0.00     0.000 C 
BRANCH   7   8
ATOM      8  C   UNL     1       3.728   0.372  37.454  1.00  0.00     0.000 C 
BRANCH   8   9
ATOM      9  C   UNL     1       4.783  -0.487  36.738  1.00  0.00     0.000 C 
BRANCH   9  10
ATOM     10  C   UNL     1       6.039   0.315  36.364  1.00  0.00     0.000 C 
BRANCH  10  11
ATOM     11  C   UNL     1       7.043  -0.510  35.541  1.00  0.00     0.000 C 
BRANCH  11  12
ATOM     12  C   UNL     1       8.263   0.309  35.083  1.00  0.00     0.006 C 
BRANCH  12  13
ATOM     13  C   UNL     1       9.092  -0.373  33.979  1.00  0.00     0.053 C 
BRANCH  13  14
ATOM     14  C   UNL     1      10.405   0.306  33.737  1.00  0.00     0.041 C 
ATOM     15  O   UNL     1      10.439   1.481  33.284  1.00  0.00    -0.550 OA
ATOM     16  O   UNL     1      11.593  -0.346  34.043  1.00  0.00    -0.550 OA
ENDBRANCH  13  14
ENDBRANCH  12  13
ENDBRANCH  11  12
ENDBRANCH  10  11
ENDBRANCH   9  10
ENDBRANCH   8   9
ENDBRANCH   7   8
ENDBRANCH   6   7
ENDBRANCH   5   6
ENDBRANCH   4   5
ENDBRANCH   3   4
ENDBRANCH   2   3
ENDBRANCH   1   2
BRANCH   1  17
ATOM     17  C   UNL     1       3.998  -4.125  35.208  1.00  0.00     0.000 C 
BRANCH  17  18
ATOM     18  C   UNL     1       5.512  -3.971  35.428  1.00  0.00     0.000 C 
BRANCH  18  19
ATOM     19  C   UNL     1       6.311  -4.011  34.114  1.00  0.00     0.000 C 
BRANCH  19  20
ATOM     20  C   UNL     1       5.536  -4.686  32.968  1.00  0.00     0.000 C 
BRANCH  20  21
ATOM     21  C   UNL     1       6.190  -5.965  32.415  1.00  0.00     0.000 C 
BRANCH  21  22
ATOM     22  C   UNL     1       6.973  -6.767  33.479  1.00  0.00    -0.000 C 
BRANCH  22  23
ATOM     23  C   UNL     1       6.261  -8.055  33.938  1.00  0.00    -0.000 C 
BRANCH  23  24
ATOM     24  C   UNL     1       5.180  -7.859  35.024  1.00  0.00    -0.000 C 
BRANCH  24  25
ATOM     25  C   UNL     1       5.693  -7.326  36.374  1.00  0.00    -0.000 C 
BRANCH  25  26
ATOM     26  C   UNL     1       4.753  -7.657  37.547  1.00  0.00    -0.000 C 
BRANCH  26  27
ATOM     27  C   UNL     1       3.279  -7.736  37.119  1.00  0.00    -0.000 C 
BRANCH  27  28
ATOM     28  C   UNL     1       2.312  -7.403  38.265  1.00  0.00    -0.000 C 
BRANCH  28  29
ATOM     29  C   UNL     1       0.924  -7.044  37.725  1.00  0.00    -0.003 C 
ATOM     30  C   UNL     1       0.958  -6.845  36.212  1.00  0.00     0.004 C 
ENDBRANCH  28  29
ENDBRANCH  27  28
ENDBRANCH  26  27
ENDBRANCH  25  26
ENDBRANCH  24  25
ENDBRANCH  23  24
ENDBRANCH  22  23
ENDBRANCH  21  22
ENDBRANCH  20  21
ENDBRANCH  19  20
ENDBRANCH  18  19
ENDBRANCH  17  18
ENDBRANCH   1  17
TORSDOF 26
ENDMDL
