MODEL 1
REMARK VINA RESULT:    -4.207      0.000      0.000
REMARK INTER + INTRA:          -9.458
REMARK INTER:                  -7.650
REMARK INTRA:                  -1.808
REMARK UNBOUND:                -1.808
REMARK SMILES CCCCCC=CCC=CCCCCCCCC(=O)[O-]
REMARK SMILES IDX 11 1 12 2 13 3 14 4 15 5 16 6 17 7 18 8 19 9 20 10 10 11
REMARK SMILES IDX 9 12 8 13 7 14 6 15 5 16 4 17 3 18 2 19 1 20
REMARK H PARENT
REMARK Flexibility Score: inf
ROOT
ATOM      1  C   UNL     1     -93.431  -5.674 -42.519  1.00  0.00     0.027 C 
ENDROOT
BRANCH   1   2
ATOM      2  C   UNL     1     -94.901  -5.836 -42.108  1.00  0.00     0.004 C 
BRANCH   2   3
ATOM      3  C   UNL     1     -95.846  -5.823 -43.322  1.00  0.00     0.000 C 
BRANCH   3   4
ATOM      4  C   UNL     1     -97.073  -4.923 -43.103  1.00  0.00     0.000 C 
BRANCH   4   5
ATOM      5  C   UNL     1     -96.696  -3.445 -42.926  1.00  0.00     0.000 C 
BRANCH   5   6
ATOM      6  C   UNL     1     -95.984  -2.907 -44.177  1.00  0.00     0.006 C 
BRANCH   6   7
ATOM      7  C   UNL     1     -94.765  -2.043 -43.824  1.00  0.00     0.053 C 
BRANCH   7   8
ATOM      8  C   UNL     1     -94.924  -0.635 -44.310  1.00  0.00     0.041 C 
ATOM      9  O   UNL     1     -96.003  -0.269 -44.845  1.00  0.00    -0.550 OA
ATOM     10  O   UNL     1     -93.895   0.281 -44.139  1.00  0.00    -0.550 OA
ENDBRANCH   7   8
ENDBRANCH   6   7
ENDBRANCH   5   6
ENDBRANCH   4   5
ENDBRANCH   3   4
ENDBRANCH   2   3
ENDBRANCH   1   2
BRANCH   1  11
ATOM     11  C   UNL     1     -92.484  -6.126 -41.434  1.00  0.00    -0.031 C 
ATOM     12  C   UNL     1     -92.034  -7.386 -41.293  1.00  0.00    -0.027 C 
BRANCH  12  13
ATOM     13  C   UNL     1     -92.457  -8.531 -42.181  1.00  0.00     0.054 C 
BRANCH  13  14
ATOM     14  C   UNL     1     -93.011  -9.672 -41.366  1.00  0.00    -0.027 C 
ATOM     15  C   UNL     1     -94.292 -10.084 -41.411  1.00  0.00    -0.031 C 
BRANCH  15  16
ATOM     16  C   UNL     1     -95.339  -9.507 -42.329  1.00  0.00     0.027 C 
BRANCH  16  17
ATOM     17  C   UNL     1     -96.748  -9.755 -41.770  1.00  0.00     0.004 C 
BRANCH  17  18
ATOM     18  C   UNL     1     -97.525  -8.452 -41.525  1.00  0.00     0.000 C 
BRANCH  18  19
ATOM     19  C   UNL     1     -98.990  -8.703 -41.139  1.00  0.00    -0.003 C 
ATOM     20  C   UNL     1     -99.178  -8.632 -39.626  1.00  0.00     0.004 C 
ENDBRANCH  18  19
ENDBRANCH  17  18
ENDBRANCH  16  17
ENDBRANCH  15  16
ENDBRANCH  13  14
ENDBRANCH  12  13
ENDBRANCH   1  11
TORSDOF 14
ENDMDL
MODEL 2
REMARK VINA RESULT:    -4.029      2.036      4.295
REMARK INTER + INTRA:          -9.134
REMARK INTER:                  -7.033
REMARK INTRA:                  -2.101
REMARK UNBOUND:                -1.808
REMARK SMILES CCCCCC=CCC=CCCCCCCCC(=O)[O-]
REMARK SMILES IDX 11 1 12 2 13 3 14 4 15 5 16 6 17 7 18 8 19 9 20 10 10 11
REMARK SMILES IDX 9 12 8 13 7 14 6 15 5 16 4 17 3 18 2 19 1 20
REMARK H PARENT
REMARK Flexibility Score: inf
ROOT
ATOM      1  C   UNL     1     -97.204  -2.549 -42.038  1.00  0.00     0.027 C 
ENDROOT
BRANCH   1   2
ATOM      2  C   UNL     1     -97.493  -1.140 -42.578  1.00  0.00     0.004 C 
BRANCH   2   3
ATOM      3  C   UNL     1     -96.212  -0.302 -42.723  1.00  0.00     0.000 C 
BRANCH   3   4
ATOM      4  C   UNL     1     -94.956  -1.171 -42.898  1.00  0.00     0.000 C 
BRANCH   4   5
ATOM      5  C   UNL     1     -94.403  -1.128 -44.331  1.00  0.00     0.000 C 
BRANCH   5   6
ATOM      6  C   UNL     1     -94.596   0.265 -44.951  1.00  0.00     0.006 C 
BRANCH   6   7
ATOM      7  C   UNL     1     -93.332   1.129 -44.840  1.00  0.00     0.053 C 
BRANCH   7   8
ATOM      8  C   UNL     1     -93.599   2.411 -44.113  1.00  0.00     0.041 C 
ATOM      9  O   UNL     1     -93.456   2.471 -42.863  1.00  0.00    -0.550 OA
ATOM     10  O   UNL     1     -93.970   3.549 -44.818  1.00  0.00    -0.550 OA
ENDBRANCH   7   8
ENDBRANCH   6   7
ENDBRANCH   5   6
ENDBRANCH   4   5
ENDBRANCH   3   4
ENDBRANCH   2   3
ENDBRANCH   1   2
BRANCH   1  11
ATOM     11  C   UNL     1     -97.404  -3.612 -43.091  1.00  0.00    -0.031 C 
ATOM     12  C   UNL     1     -96.636  -4.709 -43.218  1.00  0.00    -0.027 C 
BRANCH  12  13
ATOM     13  C   UNL     1     -95.438  -4.999 -42.349  1.00  0.00     0.054 C 
BRANCH  13  14
ATOM     14  C   UNL     1     -94.156  -4.874 -43.133  1.00  0.00    -0.027 C 
ATOM     15  C   UNL     1     -93.407  -5.918 -43.533  1.00  0.00    -0.031 C 
BRANCH  15  16
ATOM     16  C   UNL     1     -93.775  -7.364 -43.313  1.00  0.00     0.027 C 
BRANCH  16  17
ATOM     17  C   UNL     1     -94.707  -7.863 -44.426  1.00  0.00     0.004 C 
BRANCH  17  18
ATOM     18  C   UNL     1     -95.844  -8.750 -43.893  1.00  0.00     0.000 C 
BRANCH  18  19
ATOM     19  C   UNL     1     -95.972  -8.687 -42.364  1.00  0.00    -0.003 C 
ATOM     20  C   UNL     1     -97.351  -8.180 -41.950  1.00  0.00     0.004 C 
ENDBRANCH  18  19
ENDBRANCH  17  18
ENDBRANCH  16  17
ENDBRANCH  15  16
ENDBRANCH  13  14
ENDBRANCH  12  13
ENDBRANCH   1  11
TORSDOF 14
ENDMDL
MODEL 3
REMARK VINA RESULT:    -3.954      1.553      2.321
REMARK INTER + INTRA:          -8.998
REMARK INTER:                  -7.112
REMARK INTRA:                  -1.886
REMARK UNBOUND:                -1.808
REMARK SMILES CCCCCC=CCC=CCCCCCCCC(=O)[O-]
REMARK SMILES IDX 11 1 12 2 13 3 14 4 15 5 16 6 17 7 18 8 19 9 20 10 10 11
REMARK SMILES IDX 9 12 8 13 7 14 6 15 5 16 4 17 3 18 2 19 1 20
REMARK H PARENT
REMARK Flexibility Score: inf
ROOT
ATOM      1  C   UNL     1     -92.695  -6.673 -40.900  1.00  0.00     0.027 C 
ENDROOT
BRANCH   1   2
ATOM      2  C   UNL     1     -92.464  -5.854 -42.179  1.00  0.00     0.004 C 
BRANCH   2   3
ATOM      3  C   UNL     1     -93.767  -5.234 -42.712  1.00  0.00     0.000 C 
BRANCH   3   4
ATOM      4  C   UNL     1     -95.007  -5.718 -41.944  1.00  0.00     0.000 C 
BRANCH   4   5
ATOM      5  C   UNL     1     -96.240  -5.865 -42.848  1.00  0.00     0.000 C 
BRANCH   5   6
ATOM      6  C   UNL     1     -96.459  -4.598 -43.688  1.00  0.00     0.006 C 
BRANCH   6   7
ATOM      7  C   UNL     1     -97.510  -3.666 -43.071  1.00  0.00     0.053 C 
BRANCH   7   8
ATOM      8  C   UNL     1     -96.879  -2.490 -42.392  1.00  0.00     0.041 C 
ATOM      9  O   UNL     1     -97.498  -1.876 -41.483  1.00  0.00    -0.550 OA
ATOM     10  O   UNL     1     -95.594  -2.092 -42.736  1.00  0.00    -0.550 OA
ENDBRANCH   7   8
ENDBRANCH   6   7
ENDBRANCH   5   6
ENDBRANCH   4   5
ENDBRANCH   3   4
ENDBRANCH   2   3
ENDBRANCH   1   2
BRANCH   1  11
ATOM     11  C   UNL     1     -92.088  -8.053 -40.992  1.00  0.00    -0.031 C 
ATOM     12  C   UNL     1     -92.677  -9.105 -41.588  1.00  0.00    -0.027 C 
BRANCH  12  13
ATOM     13  C   UNL     1     -94.052  -9.055 -42.208  1.00  0.00     0.054 C 
BRANCH  13  14
ATOM     14  C   UNL     1     -94.929 -10.157 -41.670  1.00  0.00    -0.027 C 
ATOM     15  C   UNL     1     -96.234 -10.300 -41.966  1.00  0.00    -0.031 C 
BRANCH  15  16
ATOM     16  C   UNL     1     -96.990  -9.420 -42.929  1.00  0.00     0.027 C 
BRANCH  16  17
ATOM     17  C   UNL     1     -98.360  -9.034 -42.352  1.00  0.00     0.004 C 
BRANCH  17  18
ATOM     18  C   UNL     1     -98.268  -8.503 -40.913  1.00  0.00     0.000 C 
BRANCH  18  19
ATOM     19  C   UNL     1     -99.220  -9.231 -39.953  1.00  0.00    -0.003 C 
ATOM     20  C   UNL     1     -99.589  -8.343 -38.768  1.00  0.00     0.004 C 
ENDBRANCH  18  19
ENDBRANCH  17  18
ENDBRANCH  16  17
ENDBRANCH  15  16
ENDBRANCH  13  14
ENDBRANCH  12  13
ENDBRANCH   1  11
TORSDOF 14
ENDMDL
MODEL 4
REMARK VINA RESULT:    -3.933      2.530      5.108
REMARK INTER + INTRA:          -8.960
REMARK INTER:                  -7.075
REMARK INTRA:                  -1.885
REMARK UNBOUND:                -1.808
REMARK SMILES CCCCCC=CCC=CCCCCCCCC(=O)[O-]
REMARK SMILES IDX 11 1 12 2 13 3 14 4 15 5 16 6 17 7 18 8 19 9 20 10 10 11
REMARK SMILES IDX 9 12 8 13 7 14 6 15 5 16 4 17 3 18 2 19 1 20
REMARK H PARENT
REMARK Flexibility Score: inf
ROOT
ATOM      1  C   UNL     1     -95.910  -3.070 -44.134  1.00  0.00     0.027 C 
ENDROOT
BRANCH   1   2
ATOM      2  C   UNL     1     -94.571  -2.356 -43.901  1.00  0.00     0.004 C 
BRANCH   2   3
ATOM      3  C   UNL     1     -94.761  -0.875 -43.530  1.00  0.00     0.000 C 
BRANCH   3   4
ATOM      4  C   UNL     1     -94.892   0.030 -44.765  1.00  0.00     0.000 C 
BRANCH   4   5
ATOM      5  C   UNL     1     -93.574   0.732 -45.125  1.00  0.00     0.000 C 
BRANCH   5   6
ATOM      6  C   UNL     1     -93.221   1.802 -44.081  1.00  0.00     0.006 C 
BRANCH   6   7
ATOM      7  C   UNL     1     -94.408   2.723 -43.769  1.00  0.00     0.053 C 
BRANCH   7   8
ATOM      8  C   UNL     1     -94.584   2.922 -42.295  1.00  0.00     0.041 C 
ATOM      9  O   UNL     1     -95.195   2.060 -41.609  1.00  0.00    -0.550 OA
ATOM     10  O   UNL     1     -94.043   4.039 -41.672  1.00  0.00    -0.550 OA
ENDBRANCH   7   8
ENDBRANCH   6   7
ENDBRANCH   5   6
ENDBRANCH   4   5
ENDBRANCH   3   4
ENDBRANCH   2   3
ENDBRANCH   1   2
BRANCH   1  11
ATOM     11  C   UNL     1     -96.493  -3.618 -42.853  1.00  0.00    -0.031 C 
ATOM     12  C   UNL     1     -97.184  -4.769 -42.763  1.00  0.00    -0.027 C 
BRANCH  12  13
ATOM     13  C   UNL     1     -97.510  -5.645 -43.947  1.00  0.00     0.054 C 
BRANCH  13  14
ATOM     14  C   UNL     1     -97.342  -7.104 -43.604  1.00  0.00    -0.027 C 
ATOM     15  C   UNL     1     -96.344  -7.881 -44.066  1.00  0.00    -0.031 C 
BRANCH  15  16
ATOM     16  C   UNL     1     -95.217  -7.390 -44.938  1.00  0.00     0.027 C 
BRANCH  16  17
ATOM     17  C   UNL     1     -93.901  -7.341 -44.148  1.00  0.00     0.004 C 
BRANCH  17  18
ATOM     18  C   UNL     1     -93.642  -5.965 -43.514  1.00  0.00     0.000 C 
BRANCH  18  19
ATOM     19  C   UNL     1     -93.664  -6.010 -41.979  1.00  0.00    -0.003 C 
ATOM     20  C   UNL     1     -92.265  -5.806 -41.404  1.00  0.00     0.004 C 
ENDBRANCH  18  19
ENDBRANCH  17  18
ENDBRANCH  16  17
ENDBRANCH  15  16
ENDBRANCH  13  14
ENDBRANCH  12  13
ENDBRANCH   1  11
TORSDOF 14
ENDMDL
MODEL 5
REMARK VINA RESULT:    -3.889      1.127      2.312
REMARK INTER + INTRA:          -8.880
REMARK INTER:                  -7.436
REMARK INTRA:                  -1.444
REMARK UNBOUND:                -1.808
REMARK SMILES CCCCCC=CCC=CCCCCCCCC(=O)[O-]
REMARK SMILES IDX 11 1 12 2 13 3 14 4 15 5 16 6 17 7 18 8 19 9 20 10 10 11
REMARK SMILES IDX 9 12 8 13 7 14 6 15 5 16 4 17 3 18 2 19 1 20
REMARK H PARENT
REMARK Flexibility Score: inf
ROOT
ATOM      1  C   UNL     1     -95.427  -5.231 -42.362  1.00  0.00     0.027 C 
ENDROOT
BRANCH   1   2
ATOM      2  C   UNL     1     -96.520  -4.439 -43.095  1.00  0.00     0.004 C 
BRANCH   2   3
ATOM      3  C   UNL     1     -96.981  -3.210 -42.293  1.00  0.00     0.000 C 
BRANCH   3   4
ATOM      4  C   UNL     1     -96.792  -1.896 -43.068  1.00  0.00     0.000 C 
BRANCH   4   5
ATOM      5  C   UNL     1     -95.759  -2.021 -44.197  1.00  0.00     0.000 C 
BRANCH   5   6
ATOM      6  C   UNL     1     -94.584  -1.056 -43.975  1.00  0.00     0.006 C 
BRANCH   6   7
ATOM      7  C   UNL     1     -95.041   0.292 -43.399  1.00  0.00     0.053 C 
BRANCH   7   8
ATOM      8  C   UNL     1     -94.296   1.438 -44.011  1.00  0.00     0.041 C 
ATOM      9  O   UNL     1     -93.112   1.280 -44.412  1.00  0.00    -0.550 OA
ATOM     10  O   UNL     1     -94.918   2.668 -44.172  1.00  0.00    -0.550 OA
ENDBRANCH   7   8
ENDBRANCH   6   7
ENDBRANCH   5   6
ENDBRANCH   4   5
ENDBRANCH   3   4
ENDBRANCH   2   3
ENDBRANCH   1   2
BRANCH   1  11
ATOM     11  C   UNL     1     -94.106  -5.184 -43.092  1.00  0.00    -0.031 C 
ATOM     12  C   UNL     1     -92.958  -5.702 -42.621  1.00  0.00    -0.027 C 
BRANCH  12  13
ATOM     13  C   UNL     1     -92.829  -6.362 -41.270  1.00  0.00     0.054 C 
BRANCH  13  14
ATOM     14  C   UNL     1     -92.221  -7.736 -41.394  1.00  0.00    -0.027 C 
ATOM     15  C   UNL     1     -92.901  -8.836 -41.767  1.00  0.00    -0.031 C 
BRANCH  15  16
ATOM     16  C   UNL     1     -94.352  -8.840 -42.178  1.00  0.00     0.027 C 
BRANCH  16  17
ATOM     17  C   UNL     1     -95.017 -10.174 -41.811  1.00  0.00     0.004 C 
BRANCH  17  18
ATOM     18  C   UNL     1     -96.552 -10.089 -41.806  1.00  0.00     0.000 C 
BRANCH  18  19
ATOM     19  C   UNL     1     -97.061  -8.640 -41.788  1.00  0.00    -0.003 C 
ATOM     20  C   UNL     1     -98.420  -8.545 -41.099  1.00  0.00     0.004 C 
ENDBRANCH  18  19
ENDBRANCH  17  18
ENDBRANCH  16  17
ENDBRANCH  15  16
ENDBRANCH  13  14
ENDBRANCH  12  13
ENDBRANCH   1  11
TORSDOF 14
ENDMDL
MODEL 6
REMARK VINA RESULT:    -3.886      3.824      7.171
REMARK INTER + INTRA:          -8.875
REMARK INTER:                  -6.780
REMARK INTRA:                  -2.095
REMARK UNBOUND:                -1.808
REMARK SMILES CCCCCC=CCC=CCCCCCCCC(=O)[O-]
REMARK SMILES IDX 11 1 12 2 13 3 14 4 15 5 16 6 17 7 18 8 19 9 20 10 10 11
REMARK SMILES IDX 9 12 8 13 7 14 6 15 5 16 4 17 3 18 2 19 1 20
REMARK H PARENT
REMARK Flexibility Score: inf
ROOT
ATOM      1  C   UNL     1     -94.829  -7.555 -44.738  1.00  0.00     0.027 C 
ENDROOT
BRANCH   1   2
ATOM      2  C   UNL     1     -96.172  -8.131 -44.269  1.00  0.00     0.004 C 
BRANCH   2   3
ATOM      3  C   UNL     1     -96.004  -9.114 -43.097  1.00  0.00     0.000 C 
BRANCH   3   4
ATOM      4  C   UNL     1     -96.741  -8.651 -41.830  1.00  0.00     0.000 C 
BRANCH   4   5
ATOM      5  C   UNL     1     -97.986  -7.808 -42.146  1.00  0.00     0.000 C 
BRANCH   5   6
ATOM      6  C   UNL     1     -99.269  -8.558 -41.756  1.00  0.00     0.006 C 
BRANCH   6   7
ATOM      7  C   UNL     1     -99.111  -9.333 -40.440  1.00  0.00     0.053 C 
BRANCH   7   8
ATOM      8  C   UNL     1     -99.891  -8.702 -39.328  1.00  0.00     0.041 C 
ATOM      9  O   UNL     1     -99.293  -8.218 -38.332  1.00  0.00    -0.550 OA
ATOM     10  O   UNL     1    -101.275  -8.617 -39.408  1.00  0.00    -0.550 OA
ENDBRANCH   7   8
ENDBRANCH   6   7
ENDBRANCH   5   6
ENDBRANCH   4   5
ENDBRANCH   3   4
ENDBRANCH   2   3
ENDBRANCH   1   2
BRANCH   1  11
ATOM     11  C   UNL     1     -93.757  -7.678 -43.681  1.00  0.00    -0.031 C 
ATOM     12  C   UNL     1     -93.379  -6.681 -42.862  1.00  0.00    -0.027 C 
BRANCH  12  13
ATOM     13  C   UNL     1     -93.948  -5.284 -42.924  1.00  0.00     0.054 C 
BRANCH  13  14
ATOM     14  C   UNL     1     -95.267  -5.204 -42.198  1.00  0.00    -0.027 C 
ATOM     15  C   UNL     1     -96.337  -4.518 -42.643  1.00  0.00    -0.031 C 
BRANCH  15  16
ATOM     16  C   UNL     1     -96.390  -3.787 -43.960  1.00  0.00     0.027 C 
BRANCH  16  17
ATOM     17  C   UNL     1     -96.990  -2.384 -43.778  1.00  0.00     0.004 C 
BRANCH  17  18
ATOM     18  C   UNL     1     -95.966  -1.367 -43.250  1.00  0.00     0.000 C 
BRANCH  18  19
ATOM     19  C   UNL     1     -94.593  -1.507 -43.926  1.00  0.00    -0.003 C 
ATOM     20  C   UNL     1     -94.192  -0.212 -44.626  1.00  0.00     0.004 C 
ENDBRANCH  18  19
ENDBRANCH  17  18
ENDBRANCH  16  17
ENDBRANCH  15  16
ENDBRANCH  13  14
ENDBRANCH  12  13
ENDBRANCH   1  11
TORSDOF 14
ENDMDL
MODEL 7
REMARK VINA RESULT:    -3.886      1.697      3.318
REMARK INTER + INTRA:          -8.874
REMARK INTER:                  -5.936
REMARK INTRA:                  -2.938
REMARK UNBOUND:                -1.808
REMARK SMILES CCCCCC=CCC=CCCCCCCCC(=O)[O-]
REMARK SMILES IDX 11 1 12 2 13 3 14 4 15 5 16 6 17 7 18 8 19 9 20 10 10 11
REMARK SMILES IDX 9 12 8 13 7 14 6 15 5 16 4 17 3 18 2 19 1 20
REMARK H PARENT
REMARK Flexibility Score: inf
ROOT
ATOM      1  C   UNL     1     -93.922  -7.999 -43.052  1.00  0.00     0.027 C 
ENDROOT
BRANCH   1   2
ATOM      2  C   UNL     1     -93.960  -6.733 -42.184  1.00  0.00     0.004 C 
BRANCH   2   3
ATOM      3  C   UNL     1     -93.382  -5.510 -42.917  1.00  0.00     0.000 C 
BRANCH   3   4
ATOM      4  C   UNL     1     -94.409  -4.378 -43.076  1.00  0.00     0.000 C 
BRANCH   4   5
ATOM      5  C   UNL     1     -95.774  -4.730 -42.465  1.00  0.00     0.000 C 
BRANCH   5   6
ATOM      6  C   UNL     1     -96.893  -3.896 -43.106  1.00  0.00     0.006 C 
BRANCH   6   7
ATOM      7  C   UNL     1     -96.447  -3.238 -44.420  1.00  0.00     0.053 C 
BRANCH   7   8
ATOM      8  C   UNL     1     -96.648  -1.755 -44.393  1.00  0.00     0.041 C 
ATOM      9  O   UNL     1     -97.804  -1.270 -44.523  1.00  0.00    -0.550 OA
ATOM     10  O   UNL     1     -95.567  -0.908 -44.190  1.00  0.00    -0.550 OA
ENDBRANCH   7   8
ENDBRANCH   6   7
ENDBRANCH   5   6
ENDBRANCH   4   5
ENDBRANCH   3   4
ENDBRANCH   2   3
ENDBRANCH   1   2
BRANCH   1  11
ATOM     11  C   UNL     1     -94.199  -7.699 -44.506  1.00  0.00    -0.031 C 
ATOM     12  C   UNL     1     -95.366  -7.953 -45.125  1.00  0.00    -0.027 C 
BRANCH  12  13
ATOM     13  C   UNL     1     -96.543  -8.617 -44.455  1.00  0.00     0.054 C 
BRANCH  13  14
ATOM     14  C   UNL     1     -97.572  -7.598 -44.034  1.00  0.00    -0.027 C 
ATOM     15  C   UNL     1     -97.993  -7.424 -42.767  1.00  0.00    -0.031 C 
BRANCH  15  16
ATOM     16  C   UNL     1     -97.448  -8.175 -41.579  1.00  0.00     0.027 C 
BRANCH  16  17
ATOM     17  C   UNL     1     -98.300  -9.419 -41.286  1.00  0.00     0.004 C 
BRANCH  17  18
ATOM     18  C   UNL     1     -97.562 -10.729 -41.603  1.00  0.00     0.000 C 
BRANCH  18  19
ATOM     19  C   UNL     1     -96.044 -10.616 -41.399  1.00  0.00    -0.003 C 
ATOM     20  C   UNL     1     -95.291 -11.517 -42.373  1.00  0.00     0.004 C 
ENDBRANCH  18  19
ENDBRANCH  17  18
ENDBRANCH  16  17
ENDBRANCH  15  16
ENDBRANCH  13  14
ENDBRANCH  12  13
ENDBRANCH   1  11
TORSDOF 14
ENDMDL
MODEL 8
REMARK VINA RESULT:    -3.880      3.704      6.862
REMARK INTER + INTRA:          -8.863
REMARK INTER:                  -7.375
REMARK INTRA:                  -1.488
REMARK UNBOUND:                -1.808
REMARK SMILES CCCCCC=CCC=CCCCCCCCC(=O)[O-]
REMARK SMILES IDX 11 1 12 2 13 3 14 4 15 5 16 6 17 7 18 8 19 9 20 10 10 11
REMARK SMILES IDX 9 12 8 13 7 14 6 15 5 16 4 17 3 18 2 19 1 20
REMARK H PARENT
REMARK Flexibility Score: inf
ROOT
ATOM      1  C   UNL     1     -92.238  -8.503 -41.780  1.00  0.00     0.027 C 
ENDROOT
BRANCH   1   2
ATOM      2  C   UNL     1     -92.665  -9.651 -40.853  1.00  0.00     0.004 C 
BRANCH   2   3
ATOM      3  C   UNL     1     -93.916 -10.379 -41.372  1.00  0.00     0.000 C 
BRANCH   3   4
ATOM      4  C   UNL     1     -94.871  -9.443 -42.130  1.00  0.00     0.000 C 
BRANCH   4   5
ATOM      5  C   UNL     1     -96.347  -9.724 -41.813  1.00  0.00     0.000 C 
BRANCH   5   6
ATOM      6  C   UNL     1     -97.126  -8.413 -41.626  1.00  0.00     0.006 C 
BRANCH   6   7
ATOM      7  C   UNL     1     -98.644  -8.640 -41.586  1.00  0.00     0.053 C 
BRANCH   7   8
ATOM      8  C   UNL     1     -99.096  -9.138 -40.249  1.00  0.00     0.041 C 
ATOM      9  O   UNL     1     -99.309  -8.326 -39.310  1.00  0.00    -0.550 OA
ATOM     10  O   UNL     1     -99.317 -10.494 -40.047  1.00  0.00    -0.550 OA
ENDBRANCH   7   8
ENDBRANCH   6   7
ENDBRANCH   5   6
ENDBRANCH   4   5
ENDBRANCH   3   4
ENDBRANCH   2   3
ENDBRANCH   1   2
BRANCH   1  11
ATOM     11  C   UNL     1     -92.140  -7.187 -41.047  1.00  0.00    -0.031 C 
ATOM     12  C   UNL     1     -92.654  -6.027 -41.495  1.00  0.00    -0.027 C 
BRANCH  12  13
ATOM     13  C   UNL     1     -93.359  -5.880 -42.820  1.00  0.00     0.054 C 
BRANCH  13  14
ATOM     14  C   UNL     1     -94.848  -5.739 -42.628  1.00  0.00    -0.027 C 
ATOM     15  C   UNL     1     -95.543  -4.615 -42.884  1.00  0.00    -0.031 C 
BRANCH  15  16
ATOM     16  C   UNL     1     -94.944  -3.357 -43.460  1.00  0.00     0.027 C 
BRANCH  16  17
ATOM     17  C   UNL     1     -95.782  -2.130 -43.072  1.00  0.00     0.004 C 
BRANCH  17  18
ATOM     18  C   UNL     1     -97.145  -2.509 -42.474  1.00  0.00     0.000 C 
BRANCH  18  19
ATOM     19  C   UNL     1     -97.737  -1.392 -41.600  1.00  0.00    -0.003 C 
ATOM     20  C   UNL     1     -98.044  -0.150 -42.432  1.00  0.00     0.004 C 
ENDBRANCH  18  19
ENDBRANCH  17  18
ENDBRANCH  16  17
ENDBRANCH  15  16
ENDBRANCH  13  14
ENDBRANCH  12  13
ENDBRANCH   1  11
TORSDOF 14
ENDMDL
MODEL 9
REMARK VINA RESULT:    -3.861      5.192      7.544
REMARK INTER + INTRA:          -8.829
REMARK INTER:                  -7.020
REMARK INTRA:                  -1.810
REMARK UNBOUND:                -1.808
REMARK SMILES CCCCCC=CCC=CCCCCCCCC(=O)[O-]
REMARK SMILES IDX 11 1 12 2 13 3 14 4 15 5 16 6 17 7 18 8 19 9 20 10 10 11
REMARK SMILES IDX 9 12 8 13 7 14 6 15 5 16 4 17 3 18 2 19 1 20
REMARK H PARENT
REMARK Flexibility Score: inf
ROOT
ATOM      1  C   UNL     1     -92.951  -6.414 -40.992  1.00  0.00     0.027 C 
ENDROOT
BRANCH   1   2
ATOM      2  C   UNL     1     -92.099  -7.691 -41.039  1.00  0.00     0.004 C 
BRANCH   2   3
ATOM      3  C   UNL     1     -92.783  -8.816 -41.834  1.00  0.00     0.000 C 
BRANCH   3   4
ATOM      4  C   UNL     1     -92.823 -10.144 -41.062  1.00  0.00     0.000 C 
BRANCH   4   5
ATOM      5  C   UNL     1     -92.334  -9.998 -39.613  1.00  0.00     0.000 C 
BRANCH   5   6
ATOM      6  C   UNL     1     -92.263 -11.366 -38.918  1.00  0.00     0.006 C 
BRANCH   6   7
ATOM      7  C   UNL     1     -92.544 -11.268 -37.412  1.00  0.00     0.053 C 
BRANCH   7   8
ATOM      8  C   UNL     1     -93.261 -12.479 -36.901  1.00  0.00     0.041 C 
ATOM      9  O   UNL     1     -94.233 -12.352 -36.110  1.00  0.00    -0.550 OA
ATOM     10  O   UNL     1     -92.880 -13.746 -37.324  1.00  0.00    -0.550 OA
ENDBRANCH   7   8
ENDBRANCH   6   7
ENDBRANCH   5   6
ENDBRANCH   4   5
ENDBRANCH   3   4
ENDBRANCH   2   3
ENDBRANCH   1   2
BRANCH   1  11
ATOM     11  C   UNL     1     -92.791  -5.577 -42.238  1.00  0.00    -0.031 C 
ATOM     12  C   UNL     1     -93.805  -5.197 -43.035  1.00  0.00    -0.027 C 
BRANCH  12  13
ATOM     13  C   UNL     1     -95.242  -5.599 -42.812  1.00  0.00     0.054 C 
BRANCH  13  14
ATOM     14  C   UNL     1     -95.638  -6.727 -43.731  1.00  0.00    -0.027 C 
ATOM     15  C   UNL     1     -96.139  -7.905 -43.314  1.00  0.00    -0.031 C 
BRANCH  15  16
ATOM     16  C   UNL     1     -96.437  -8.241 -41.875  1.00  0.00     0.027 C 
BRANCH  16  17
ATOM     17  C   UNL     1     -96.773  -9.731 -41.723  1.00  0.00     0.004 C 
BRANCH  17  18
ATOM     18  C   UNL     1     -98.153  -9.965 -41.088  1.00  0.00     0.000 C 
BRANCH  18  19
ATOM     19  C   UNL     1     -98.910  -8.655 -40.824  1.00  0.00    -0.003 C 
ATOM     20  C   UNL     1     -99.443  -8.609 -39.394  1.00  0.00     0.004 C 
ENDBRANCH  18  19
ENDBRANCH  17  18
ENDBRANCH  16  17
ENDBRANCH  15  16
ENDBRANCH  13  14
ENDBRANCH  12  13
ENDBRANCH   1  11
TORSDOF 14
ENDMDL
