MODEL 1
REMARK VINA RESULT:    -6.166      0.000      0.000
REMARK INTER + INTRA:          -6.930
REMARK INTER:                  -6.526
REMARK INTRA:                  -0.404
REMARK UNBOUND:                -0.404
REMARK SMILES CC1=CC[C@]23[C@@H]([C@@H](C(C)C)CC[C@H]2C)[C@@H]13
REMARK SMILES IDX 14 1 13 2 12 3 11 4 7 5 6 6 5 7 15 8 2 9 3 10 4 11 1 12 8 13
REMARK SMILES IDX 9 14 10 15
REMARK H PARENT
REMARK Flexibility Score: inf
ROOT
ATOM      1  C   UNL     1     142.898 140.324 165.006  1.00  0.00     0.008 C 
ATOM      2  C   UNL     1     143.121 141.100 163.696  1.00  0.00    -0.007 C 
ATOM      3  C   UNL     1     144.414 140.659 162.940  1.00  0.00     0.004 C 
ATOM      4  C   UNL     1     145.736 141.340 163.416  1.00  0.00     0.004 C 
ATOM      5  C   UNL     1     145.599 142.853 163.784  1.00  0.00    -0.004 C 
ATOM      6  C   UNL     1     144.391 142.916 164.725  1.00  0.00     0.007 C 
ATOM      7  C   UNL     1     143.130 142.638 163.831  1.00  0.00    -0.013 C 
ATOM      8  C   UNL     1     143.142 143.722 164.903  1.00  0.00     0.025 C 
ATOM      9  C   UNL     1     143.090 145.014 164.166  1.00  0.00    -0.073 C 
ATOM     10  C   UNL     1     142.954 144.847 162.861  1.00  0.00    -0.027 C 
ATOM     11  C   UNL     1     142.901 143.406 162.499  1.00  0.00     0.035 C 
ATOM     12  C   UNL     1     143.167 146.355 164.826  1.00  0.00     0.039 C 
ENDROOT
BRANCH   5  13
ATOM     13  C   UNL     1     146.867 143.394 164.506  1.00  0.00    -0.014 C 
ATOM     14  C   UNL     1     146.707 144.883 164.859  1.00  0.00     0.007 C 
ATOM     15  C   UNL     1     148.133 143.213 163.651  1.00  0.00     0.007 C 
ENDBRANCH   5  13
TORSDOF 1
ENDMDL
MODEL 2
REMARK VINA RESULT:    -6.144      2.050      4.833
REMARK INTER + INTRA:          -6.907
REMARK INTER:                  -6.497
REMARK INTRA:                  -0.410
REMARK UNBOUND:                -0.404
REMARK SMILES CC1=CC[C@]23[C@@H]([C@@H](C(C)C)CC[C@H]2C)[C@@H]13
REMARK SMILES IDX 14 1 13 2 12 3 11 4 7 5 6 6 5 7 15 8 2 9 3 10 4 11 1 12 8 13
REMARK SMILES IDX 9 14 10 15
REMARK H PARENT
REMARK Flexibility Score: inf
ROOT
ATOM      1  C   UNL     1     140.358 147.872 164.929  1.00  0.00     0.008 C 
ATOM      2  C   UNL     1     141.168 147.624 163.644  1.00  0.00    -0.007 C 
ATOM      3  C   UNL     1     140.739 146.323 162.895  1.00  0.00     0.004 C 
ATOM      4  C   UNL     1     141.398 145.005 163.409  1.00  0.00     0.004 C 
ATOM      5  C   UNL     1     142.902 145.137 163.815  1.00  0.00    -0.004 C 
ATOM      6  C   UNL     1     142.947 146.360 164.740  1.00  0.00     0.007 C 
ATOM      7  C   UNL     1     142.702 147.608 163.820  1.00  0.00    -0.013 C 
ATOM      8  C   UNL     1     143.757 147.606 164.921  1.00  0.00     0.025 C 
ATOM      9  C   UNL     1     145.068 147.638 164.218  1.00  0.00    -0.073 C 
ATOM     10  C   UNL     1     144.937 147.756 162.907  1.00  0.00    -0.027 C 
ATOM     11  C   UNL     1     143.507 147.812 162.506  1.00  0.00     0.035 C 
ATOM     12  C   UNL     1     146.390 147.563 164.916  1.00  0.00     0.039 C 
ENDROOT
BRANCH   5  13
ATOM     13  C   UNL     1     143.415 143.877 164.570  1.00  0.00    -0.014 C 
ATOM     14  C   UNL     1     144.914 144.002 164.897  1.00  0.00     0.007 C 
ATOM     15  C   UNL     1     143.182 142.591 163.760  1.00  0.00     0.007 C 
ENDBRANCH   5  13
TORSDOF 1
ENDMDL
MODEL 3
REMARK VINA RESULT:    -6.114      3.239      6.795
REMARK INTER + INTRA:          -6.875
REMARK INTER:                  -6.464
REMARK INTRA:                  -0.411
REMARK UNBOUND:                -0.404
REMARK SMILES CC1=CC[C@]23[C@@H]([C@@H](C(C)C)CC[C@H]2C)[C@@H]13
REMARK SMILES IDX 14 1 13 2 12 3 11 4 7 5 6 6 5 7 15 8 2 9 3 10 4 11 1 12 8 13
REMARK SMILES IDX 9 14 10 15
REMARK H PARENT
REMARK Flexibility Score: inf
ROOT
ATOM      1  C   UNL     1     147.895 150.353 164.905  1.00  0.00     0.008 C 
ATOM      2  C   UNL     1     147.620 149.548 163.622  1.00  0.00    -0.007 C 
ATOM      3  C   UNL     1     146.305 149.983 162.901  1.00  0.00     0.004 C 
ATOM      4  C   UNL     1     144.996 149.324 163.438  1.00  0.00     0.004 C 
ATOM      5  C   UNL     1     145.134 147.818 163.837  1.00  0.00    -0.004 C 
ATOM      6  C   UNL     1     146.375 147.767 164.736  1.00  0.00     0.007 C 
ATOM      7  C   UNL     1     147.605 148.014 163.792  1.00  0.00    -0.013 C 
ATOM      8  C   UNL     1     147.623 146.955 164.889  1.00  0.00     0.025 C 
ATOM      9  C   UNL     1     147.639 145.647 164.181  1.00  0.00    -0.073 C 
ATOM     10  C   UNL     1     147.731 145.782 162.868  1.00  0.00    -0.027 C 
ATOM     11  C   UNL     1     147.781 147.214 162.472  1.00  0.00     0.035 C 
ATOM     12  C   UNL     1     147.576 144.322 164.874  1.00  0.00     0.039 C 
ENDROOT
BRANCH   5  13
ATOM     13  C   UNL     1     143.889 147.304 164.615  1.00  0.00    -0.014 C 
ATOM     14  C   UNL     1     144.005 145.798 164.909  1.00  0.00     0.007 C 
ATOM     15  C   UNL     1     142.584 147.567 163.844  1.00  0.00     0.007 C 
ENDBRANCH   5  13
TORSDOF 1
ENDMDL
MODEL 4
REMARK VINA RESULT:    -6.109      2.056      4.822
REMARK INTER + INTRA:          -6.870
REMARK INTER:                  -6.460
REMARK INTRA:                  -0.410
REMARK UNBOUND:                -0.404
REMARK SMILES CC1=CC[C@]23[C@@H]([C@@H](C(C)C)CC[C@H]2C)[C@@H]13
REMARK SMILES IDX 14 1 13 2 12 3 11 4 7 5 6 6 5 7 15 8 2 9 3 10 4 11 1 12 8 13
REMARK SMILES IDX 9 14 10 15
REMARK H PARENT
REMARK Flexibility Score: inf
ROOT
ATOM      1  C   UNL     1     150.412 142.862 164.909  1.00  0.00     0.008 C 
ATOM      2  C   UNL     1     149.617 143.106 163.613  1.00  0.00    -0.007 C 
ATOM      3  C   UNL     1     150.049 144.409 162.871  1.00  0.00     0.004 C 
ATOM      4  C   UNL     1     149.376 145.724 163.376  1.00  0.00     0.004 C 
ATOM      5  C   UNL     1     147.868 145.583 163.763  1.00  0.00    -0.004 C 
ATOM      6  C   UNL     1     147.817 144.360 164.687  1.00  0.00     0.007 C 
ATOM      7  C   UNL     1     148.081 143.113 163.770  1.00  0.00    -0.013 C 
ATOM      8  C   UNL     1     147.012 143.109 164.857  1.00  0.00     0.025 C 
ATOM      9  C   UNL     1     145.711 143.070 164.137  1.00  0.00    -0.073 C 
ATOM     10  C   UNL     1     145.859 142.953 162.828  1.00  0.00    -0.027 C 
ATOM     11  C   UNL     1     147.295 142.905 162.445  1.00  0.00     0.035 C 
ATOM     12  C   UNL     1     144.379 143.137 164.817  1.00  0.00     0.039 C 
ENDROOT
BRANCH   5  13
ATOM     13  C   UNL     1     147.338 146.840 164.512  1.00  0.00    -0.014 C 
ATOM     14  C   UNL     1     145.831 146.715 164.801  1.00  0.00     0.007 C 
ATOM     15  C   UNL     1     147.591 148.130 163.714  1.00  0.00     0.007 C 
ENDBRANCH   5  13
TORSDOF 1
ENDMDL
MODEL 5
REMARK VINA RESULT:    -6.009      5.263      6.875
REMARK INTER + INTRA:          -6.764
REMARK INTER:                  -6.261
REMARK INTRA:                  -0.503
REMARK UNBOUND:                -0.404
REMARK SMILES CC1=CC[C@]23[C@@H]([C@@H](C(C)C)CC[C@H]2C)[C@@H]13
REMARK SMILES IDX 14 1 13 2 12 3 11 4 7 5 6 6 5 7 15 8 2 9 3 10 4 11 1 12 8 13
REMARK SMILES IDX 9 14 10 15
REMARK H PARENT
REMARK Flexibility Score: inf
ROOT
ATOM      1  C   UNL     1     146.024 150.996 164.695  1.00  0.00     0.008 C 
ATOM      2  C   UNL     1     145.637 149.516 164.524  1.00  0.00    -0.007 C 
ATOM      3  C   UNL     1     146.839 148.543 164.739  1.00  0.00     0.004 C 
ATOM      4  C   UNL     1     147.749 148.314 163.491  1.00  0.00     0.004 C 
ATOM      5  C   UNL     1     146.985 148.223 162.130  1.00  0.00    -0.004 C 
ATOM      6  C   UNL     1     146.063 149.448 162.120  1.00  0.00     0.007 C 
ATOM      7  C   UNL     1     144.949 149.160 163.188  1.00  0.00    -0.013 C 
ATOM      8  C   UNL     1     144.632 149.778 161.831  1.00  0.00     0.025 C 
ATOM      9  C   UNL     1     143.861 148.743 161.091  1.00  0.00    -0.073 C 
ATOM     10  C   UNL     1     143.603 147.678 161.831  1.00  0.00    -0.027 C 
ATOM     11  C   UNL     1     144.169 147.816 163.199  1.00  0.00     0.035 C 
ATOM     12  C   UNL     1     143.412 148.893 159.671  1.00  0.00     0.039 C 
ENDROOT
BRANCH   5  13
ATOM     13  C   UNL     1     147.954 148.273 160.913  1.00  0.00    -0.014 C 
ATOM     14  C   UNL     1     148.019 149.691 160.318  1.00  0.00     0.007 C 
ATOM     15  C   UNL     1     147.540 147.283 159.812  1.00  0.00     0.007 C 
ENDBRANCH   5  13
TORSDOF 1
ENDMDL
MODEL 6
REMARK VINA RESULT:    -5.985      3.111      5.569
REMARK INTER + INTRA:          -6.739
REMARK INTER:                  -6.250
REMARK INTRA:                  -0.489
REMARK UNBOUND:                -0.404
REMARK SMILES CC1=CC[C@]23[C@@H]([C@@H](C(C)C)CC[C@H]2C)[C@@H]13
REMARK SMILES IDX 14 1 13 2 12 3 11 4 7 5 6 6 5 7 15 8 2 9 3 10 4 11 1 12 8 13
REMARK SMILES IDX 9 14 10 15
REMARK H PARENT
REMARK Flexibility Score: inf
ROOT
ATOM      1  C   UNL     1     139.745 146.129 164.737  1.00  0.00     0.008 C 
ATOM      2  C   UNL     1     141.210 145.688 164.570  1.00  0.00    -0.007 C 
ATOM      3  C   UNL     1     142.227 146.849 164.807  1.00  0.00     0.004 C 
ATOM      4  C   UNL     1     142.499 147.765 163.572  1.00  0.00     0.004 C 
ATOM      5  C   UNL     1     142.570 147.015 162.202  1.00  0.00    -0.004 C 
ATOM      6  C   UNL     1     141.311 146.141 162.172  1.00  0.00     0.007 C 
ATOM      7  C   UNL     1     141.548 145.003 163.228  1.00  0.00    -0.013 C 
ATOM      8  C   UNL     1     140.928 144.727 161.863  1.00  0.00     0.025 C 
ATOM      9  C   UNL     1     141.938 143.927 161.120  1.00  0.00    -0.073 C 
ATOM     10  C   UNL     1     142.987 143.619 161.863  1.00  0.00    -0.027 C 
ATOM     11  C   UNL     1     142.862 144.173 163.237  1.00  0.00     0.035 C 
ATOM     12  C   UNL     1     141.780 143.501 159.694  1.00  0.00     0.039 C 
ENDROOT
BRANCH   5  13
ATOM     13  C   UNL     1     142.565 148.000 160.998  1.00  0.00    -0.014 C 
ATOM     14  C   UNL     1     141.173 148.067 160.346  1.00  0.00     0.007 C 
ATOM     15  C   UNL     1     143.601 147.606 159.932  1.00  0.00     0.007 C 
ENDBRANCH   5  13
TORSDOF 1
ENDMDL
MODEL 7
REMARK VINA RESULT:    -5.930      5.075      6.949
REMARK INTER + INTRA:          -6.681
REMARK INTER:                  -6.301
REMARK INTRA:                  -0.379
REMARK UNBOUND:                -0.404
REMARK SMILES CC1=CC[C@]23[C@@H]([C@@H](C(C)C)CC[C@H]2C)[C@@H]13
REMARK SMILES IDX 14 1 13 2 12 3 11 4 7 5 6 6 5 7 15 8 2 9 3 10 4 11 1 12 8 13
REMARK SMILES IDX 9 14 10 15
REMARK H PARENT
REMARK Flexibility Score: inf
ROOT
ATOM      1  C   UNL     1     146.123 151.050 164.488  1.00  0.00     0.008 C 
ATOM      2  C   UNL     1     145.311 149.969 163.751  1.00  0.00    -0.007 C 
ATOM      3  C   UNL     1     145.182 148.643 164.566  1.00  0.00     0.004 C 
ATOM      4  C   UNL     1     146.380 147.652 164.427  1.00  0.00     0.004 C 
ATOM      5  C   UNL     1     146.992 147.557 162.991  1.00  0.00    -0.004 C 
ATOM      6  C   UNL     1     147.224 149.014 162.572  1.00  0.00     0.007 C 
ATOM      7  C   UNL     1     145.800 149.627 162.327  1.00  0.00    -0.013 C 
ATOM      8  C   UNL     1     146.973 149.901 161.393  1.00  0.00     0.025 C 
ATOM      9  C   UNL     1     146.638 149.210 160.118  1.00  0.00    -0.073 C 
ATOM     10  C   UNL     1     145.430 148.671 160.137  1.00  0.00    -0.027 C 
ATOM     11  C   UNL     1     144.751 148.902 161.439  1.00  0.00     0.035 C 
ATOM     12  C   UNL     1     147.556 149.144 158.938  1.00  0.00     0.039 C 
ENDROOT
BRANCH   5  13
ATOM     13  C   UNL     1     148.337 146.777 162.981  1.00  0.00    -0.014 C 
ATOM     14  C   UNL     1     148.539 146.043 161.643  1.00  0.00     0.007 C 
ATOM     15  C   UNL     1     148.416 145.758 164.130  1.00  0.00     0.007 C 
ENDBRANCH   5  13
TORSDOF 1
ENDMDL
MODEL 8
REMARK VINA RESULT:    -5.918      2.758      6.268
REMARK INTER + INTRA:          -6.667
REMARK INTER:                  -6.259
REMARK INTRA:                  -0.408
REMARK UNBOUND:                -0.404
REMARK SMILES CC1=CC[C@]23[C@@H]([C@@H](C(C)C)CC[C@H]2C)[C@@H]13
REMARK SMILES IDX 14 1 13 2 12 3 11 4 7 5 6 6 5 7 15 8 2 9 3 10 4 11 1 12 8 13
REMARK SMILES IDX 9 14 10 15
REMARK H PARENT
REMARK Flexibility Score: inf
ROOT
ATOM      1  C   UNL     1     151.003 144.634 164.551  1.00  0.00     0.008 C 
ATOM      2  C   UNL     1     149.901 145.417 163.814  1.00  0.00    -0.007 C 
ATOM      3  C   UNL     1     148.571 145.506 164.626  1.00  0.00     0.004 C 
ATOM      4  C   UNL     1     147.614 144.281 164.482  1.00  0.00     0.004 C 
ATOM      5  C   UNL     1     147.540 143.670 163.045  1.00  0.00    -0.004 C 
ATOM      6  C   UNL     1     149.003 143.479 162.629  1.00  0.00     0.007 C 
ATOM      7  C   UNL     1     149.577 144.921 162.388  1.00  0.00    -0.013 C 
ATOM      8  C   UNL     1     149.885 143.758 161.452  1.00  0.00     0.025 C 
ATOM      9  C   UNL     1     149.188 144.077 160.177  1.00  0.00    -0.073 C 
ATOM     10  C   UNL     1     148.614 145.268 160.196  1.00  0.00    -0.027 C 
ATOM     11  C   UNL     1     148.824 145.951 161.500  1.00  0.00     0.035 C 
ATOM     12  C   UNL     1     149.151 143.159 158.995  1.00  0.00     0.039 C 
ENDROOT
BRANCH   5  13
ATOM     13  C   UNL     1     146.798 142.303 163.030  1.00  0.00    -0.014 C 
ATOM     14  C   UNL     1     146.349 141.934 161.605  1.00  0.00     0.007 C 
ATOM     15  C   UNL     1     145.571 142.307 163.958  1.00  0.00     0.007 C 
ENDBRANCH   5  13
TORSDOF 1
ENDMDL
MODEL 9
REMARK VINA RESULT:    -5.915      1.805      4.193
REMARK INTER + INTRA:          -6.665
REMARK INTER:                  -6.274
REMARK INTRA:                  -0.391
REMARK UNBOUND:                -0.404
REMARK SMILES CC1=CC[C@]23[C@@H]([C@@H](C(C)C)CC[C@H]2C)[C@@H]13
REMARK SMILES IDX 14 1 13 2 12 3 11 4 7 5 6 6 5 7 15 8 2 9 3 10 4 11 1 12 8 13
REMARK SMILES IDX 9 14 10 15
REMARK H PARENT
REMARK Flexibility Score: inf
ROOT
ATOM      1  C   UNL     1     144.569 139.744 164.769  1.00  0.00     0.008 C 
ATOM      2  C   UNL     1     145.385 140.784 163.980  1.00  0.00    -0.007 C 
ATOM      3  C   UNL     1     145.552 142.134 164.746  1.00  0.00     0.004 C 
ATOM      4  C   UNL     1     144.369 143.142 164.597  1.00  0.00     0.004 C 
ATOM      5  C   UNL     1     143.730 143.199 163.172  1.00  0.00    -0.004 C 
ATOM      6  C   UNL     1     143.464 141.734 162.807  1.00  0.00     0.007 C 
ATOM      7  C   UNL     1     144.872 141.087 162.555  1.00  0.00    -0.013 C 
ATOM      8  C   UNL     1     143.675 140.803 161.654  1.00  0.00     0.025 C 
ATOM      9  C   UNL     1     143.996 141.444 160.351  1.00  0.00    -0.073 C 
ATOM     10  C   UNL     1     145.213 141.962 160.326  1.00  0.00    -0.027 C 
ATOM     11  C   UNL     1     145.915 141.763 161.622  1.00  0.00     0.035 C 
ATOM     12  C   UNL     1     143.055 141.486 159.188  1.00  0.00     0.039 C 
ENDROOT
BRANCH   5  13
ATOM     13  C   UNL     1     142.398 144.003 163.161  1.00  0.00    -0.014 C 
ATOM     14  C   UNL     1     142.125 144.600 161.770  1.00  0.00     0.007 C 
ATOM     15  C   UNL     1     142.405 145.135 164.202  1.00  0.00     0.007 C 
ENDBRANCH   5  13
TORSDOF 1
ENDMDL
