MODEL 1
REMARK VINA RESULT:    -2.796      0.000      0.000
REMARK INTER + INTRA:          -7.196
REMARK INTER:                  -5.165
REMARK INTRA:                  -2.031
REMARK UNBOUND:                -2.031
REMARK SMILES CCCCCCCCCCCCCCCCO
REMARK SMILES IDX 9 1 8 2 7 3 6 4 5 5 4 6 3 7 2 8 1 9 10 10 11 11 12 12 13 13
REMARK SMILES IDX 14 14 15 15 16 16 17 17
REMARK H PARENT 17 18
REMARK Flexibility Score: inf
ROOT
ATOM      1  C   UNL     1     142.915 146.934 140.158  1.00  0.00     0.000 C 
ENDROOT
BRANCH   1   2
ATOM      2  C   UNL     1     141.845 147.397 139.153  1.00  0.00    -0.000 C 
BRANCH   2   3
ATOM      3  C   UNL     1     140.956 148.542 139.680  1.00  0.00    -0.000 C 
BRANCH   3   4
ATOM      4  C   UNL     1     141.685 149.898 139.656  1.00  0.00    -0.000 C 
BRANCH   4   5
ATOM      5  C   UNL     1     142.256 150.235 138.268  1.00  0.00    -0.000 C 
BRANCH   5   6
ATOM      6  C   UNL     1     143.776 150.474 138.301  1.00  0.00    -0.000 C 
BRANCH   6   7
ATOM      7  C   UNL     1     144.323 150.634 139.731  1.00  0.00    -0.000 C 
BRANCH   7   8
ATOM      8  C   UNL     1     145.497 149.701 140.079  1.00  0.00    -0.003 C 
ATOM      9  C   UNL     1     146.548 149.624 138.973  1.00  0.00     0.004 C 
ENDBRANCH   7   8
ENDBRANCH   6   7
ENDBRANCH   5   6
ENDBRANCH   4   5
ENDBRANCH   3   4
ENDBRANCH   2   3
ENDBRANCH   1   2
BRANCH   1  10
ATOM     10  C   UNL     1     144.175 146.378 139.475  1.00  0.00     0.000 C 
BRANCH  10  11
ATOM     11  C   UNL     1     144.251 146.750 137.986  1.00  0.00     0.000 C 
BRANCH  11  12
ATOM     12  C   UNL     1     145.590 146.345 137.345  1.00  0.00     0.000 C 
BRANCH  12  13
ATOM     13  C   UNL     1     146.527 145.630 138.333  1.00  0.00     0.000 C 
BRANCH  13  14
ATOM     14  C   UNL     1     147.789 145.071 137.654  1.00  0.00     0.002 C 
BRANCH  14  15
ATOM     15  C   UNL     1     148.543 144.070 138.544  1.00  0.00     0.028 C 
BRANCH  15  16
ATOM     16  C   UNL     1     149.861 144.634 139.091  1.00  0.00     0.156 C 
BRANCH  16  17
ATOM     17  O   UNL     1     149.832 144.654 140.492  1.00  0.00    -0.396 OA
ATOM     18  H   UNL     1     149.130 144.010 140.771  1.00  0.00     0.210 HD
ENDBRANCH  16  17
ENDBRANCH  15  16
ENDBRANCH  14  15
ENDBRANCH  13  14
ENDBRANCH  12  13
ENDBRANCH  11  12
ENDBRANCH  10  11
ENDBRANCH   1  10
TORSDOF 15
ENDMDL
MODEL 2
REMARK VINA RESULT:    -2.720      8.946     12.043
REMARK INTER + INTRA:          -7.056
REMARK INTER:                  -4.892
REMARK INTRA:                  -2.164
REMARK UNBOUND:                -2.031
REMARK SMILES CCCCCCCCCCCCCCCCO
REMARK SMILES IDX 9 1 8 2 7 3 6 4 5 5 4 6 3 7 2 8 1 9 10 10 11 11 12 12 13 13
REMARK SMILES IDX 14 14 15 15 16 16 17 17
REMARK H PARENT 17 18
REMARK Flexibility Score: inf
ROOT
ATOM      1  C   UNL     1     148.533 161.011 139.329  1.00  0.00     0.000 C 
ENDROOT
BRANCH   1   2
ATOM      2  C   UNL     1     149.801 160.228 139.712  1.00  0.00    -0.000 C 
BRANCH   2   3
ATOM      3  C   UNL     1     150.963 160.401 138.711  1.00  0.00    -0.000 C 
BRANCH   3   4
ATOM      4  C   UNL     1     150.731 159.604 137.414  1.00  0.00    -0.000 C 
BRANCH   4   5
ATOM      5  C   UNL     1     150.180 158.194 137.681  1.00  0.00    -0.000 C 
BRANCH   5   6
ATOM      6  C   UNL     1     151.282 157.121 137.675  1.00  0.00    -0.000 C 
BRANCH   6   7
ATOM      7  C   UNL     1     151.635 156.622 139.089  1.00  0.00    -0.000 C 
BRANCH   7   8
ATOM      8  C   UNL     1     150.491 156.726 140.113  1.00  0.00    -0.003 C 
ATOM      9  C   UNL     1     149.611 155.478 140.157  1.00  0.00     0.004 C 
ENDBRANCH   7   8
ENDBRANCH   6   7
ENDBRANCH   5   6
ENDBRANCH   4   5
ENDBRANCH   3   4
ENDBRANCH   2   3
ENDBRANCH   1   2
BRANCH   1  10
ATOM     10  C   UNL     1     147.258 160.154 139.400  1.00  0.00     0.000 C 
BRANCH  10  11
ATOM     11  C   UNL     1     147.464 158.857 140.200  1.00  0.00     0.000 C 
BRANCH  11  12
ATOM     12  C   UNL     1     146.670 157.675 139.618  1.00  0.00     0.000 C 
BRANCH  12  13
ATOM     13  C   UNL     1     146.668 157.663 138.081  1.00  0.00     0.000 C 
BRANCH  13  14
ATOM     14  C   UNL     1     146.379 156.268 137.500  1.00  0.00     0.002 C 
BRANCH  14  15
ATOM     15  C   UNL     1     146.194 155.201 138.591  1.00  0.00     0.028 C 
BRANCH  15  16
ATOM     16  C   UNL     1     144.881 154.422 138.447  1.00  0.00     0.156 C 
BRANCH  16  17
ATOM     17  O   UNL     1     144.158 154.468 139.647  1.00  0.00    -0.396 OA
ATOM     18  H   UNL     1     144.175 155.413 139.952  1.00  0.00     0.210 HD
ENDBRANCH  16  17
ENDBRANCH  15  16
ENDBRANCH  14  15
ENDBRANCH  13  14
ENDBRANCH  12  13
ENDBRANCH  11  12
ENDBRANCH  10  11
ENDBRANCH   1  10
TORSDOF 15
ENDMDL
MODEL 3
REMARK VINA RESULT:    -2.709      7.538     11.228
REMARK INTER + INTRA:          -7.036
REMARK INTER:                  -5.568
REMARK INTRA:                  -1.469
REMARK UNBOUND:                -2.031
REMARK SMILES CCCCCCCCCCCCCCCCO
REMARK SMILES IDX 9 1 8 2 7 3 6 4 5 5 4 6 3 7 2 8 1 9 10 10 11 11 12 12 13 13
REMARK SMILES IDX 14 14 15 15 16 16 17 17
REMARK H PARENT 17 18
REMARK Flexibility Score: inf
ROOT
ATOM      1  C   UNL     1     154.396 145.348 136.836  1.00  0.00     0.000 C 
ENDROOT
BRANCH   1   2
ATOM      2  C   UNL     1     154.790 144.079 137.612  1.00  0.00    -0.000 C 
BRANCH   2   3
ATOM      3  C   UNL     1     154.892 144.291 139.137  1.00  0.00    -0.000 C 
BRANCH   3   4
ATOM      4  C   UNL     1     154.311 143.104 139.926  1.00  0.00    -0.000 C 
BRANCH   4   5
ATOM      5  C   UNL     1     153.340 142.257 139.086  1.00  0.00    -0.000 C 
BRANCH   5   6
ATOM      6  C   UNL     1     151.872 142.467 139.496  1.00  0.00    -0.000 C 
BRANCH   6   7
ATOM      7  C   UNL     1     151.252 143.727 138.865  1.00  0.00    -0.000 C 
BRANCH   7   8
ATOM      8  C   UNL     1     150.691 144.744 139.877  1.00  0.00    -0.003 C 
ATOM      9  C   UNL     1     151.754 145.700 140.415  1.00  0.00     0.004 C 
ENDBRANCH   7   8
ENDBRANCH   6   7
ENDBRANCH   5   6
ENDBRANCH   4   5
ENDBRANCH   3   4
ENDBRANCH   2   3
ENDBRANCH   1   2
BRANCH   1  10
ATOM     10  C   UNL     1     154.569 146.632 137.664  1.00  0.00     0.000 C 
BRANCH  10  11
ATOM     11  C   UNL     1     155.861 147.388 137.316  1.00  0.00     0.000 C 
BRANCH  11  12
ATOM     12  C   UNL     1     156.813 147.513 138.518  1.00  0.00     0.000 C 
BRANCH  12  13
ATOM     13  C   UNL     1     157.735 148.739 138.419  1.00  0.00     0.000 C 
BRANCH  13  14
ATOM     14  C   UNL     1     156.960 150.068 138.454  1.00  0.00     0.002 C 
BRANCH  14  15
ATOM     15  C   UNL     1     156.694 150.558 139.886  1.00  0.00     0.028 C 
BRANCH  15  16
ATOM     16  C   UNL     1     155.741 151.759 139.938  1.00  0.00     0.156 C 
BRANCH  16  17
ATOM     17  O   UNL     1     154.693 151.505 140.833  1.00  0.00    -0.396 OA
ATOM     18  H   UNL     1     154.761 152.187 141.552  1.00  0.00     0.210 HD
ENDBRANCH  16  17
ENDBRANCH  15  16
ENDBRANCH  14  15
ENDBRANCH  13  14
ENDBRANCH  12  13
ENDBRANCH  11  12
ENDBRANCH  10  11
ENDBRANCH   1  10
TORSDOF 15
ENDMDL
MODEL 4
REMARK VINA RESULT:    -2.670      7.377     10.202
REMARK INTER + INTRA:          -6.964
REMARK INTER:                  -4.749
REMARK INTRA:                  -2.215
REMARK UNBOUND:                -2.031
REMARK SMILES CCCCCCCCCCCCCCCCO
REMARK SMILES IDX 9 1 8 2 7 3 6 4 5 5 4 6 3 7 2 8 1 9 10 10 11 11 12 12 13 13
REMARK SMILES IDX 14 14 15 15 16 16 17 17
REMARK H PARENT 17 18
REMARK Flexibility Score: inf
ROOT
ATOM      1  C   UNL     1     154.465 142.588 140.481  1.00  0.00     0.000 C 
ENDROOT
BRANCH   1   2
ATOM      2  C   UNL     1     153.924 141.424 139.632  1.00  0.00    -0.000 C 
BRANCH   2   3
ATOM      3  C   UNL     1     152.420 141.541 139.308  1.00  0.00    -0.000 C 
BRANCH   3   4
ATOM      4  C   UNL     1     152.116 141.190 137.840  1.00  0.00    -0.000 C 
BRANCH   4   5
ATOM      5  C   UNL     1     151.755 142.427 137.001  1.00  0.00    -0.000 C 
BRANCH   5   6
ATOM      6  C   UNL     1     150.731 143.335 137.704  1.00  0.00    -0.000 C 
BRANCH   6   7
ATOM      7  C   UNL     1     151.121 144.824 137.653  1.00  0.00    -0.000 C 
BRANCH   7   8
ATOM      8  C   UNL     1     151.020 145.562 139.000  1.00  0.00    -0.003 C 
ATOM      9  C   UNL     1     150.581 144.654 140.148  1.00  0.00     0.004 C 
ENDBRANCH   7   8
ENDBRANCH   6   7
ENDBRANCH   5   6
ENDBRANCH   4   5
ENDBRANCH   3   4
ENDBRANCH   2   3
ENDBRANCH   1   2
BRANCH   1  10
ATOM     10  C   UNL     1     154.082 143.966 139.917  1.00  0.00     0.000 C 
BRANCH  10  11
ATOM     11  C   UNL     1     155.152 144.533 138.969  1.00  0.00     0.000 C 
BRANCH  11  12
ATOM     12  C   UNL     1     154.782 144.353 137.487  1.00  0.00     0.000 C 
BRANCH  12  13
ATOM     13  C   UNL     1     154.817 145.674 136.703  1.00  0.00     0.000 C 
BRANCH  13  14
ATOM     14  C   UNL     1     154.860 146.908 137.621  1.00  0.00     0.002 C 
BRANCH  14  15
ATOM     15  C   UNL     1     156.164 147.709 137.473  1.00  0.00     0.028 C 
BRANCH  15  16
ATOM     16  C   UNL     1     156.725 148.189 138.817  1.00  0.00     0.156 C 
BRANCH  16  17
ATOM     17  O   UNL     1     157.393 147.140 139.463  1.00  0.00    -0.396 OA
ATOM     18  H   UNL     1     156.841 146.895 140.252  1.00  0.00     0.210 HD
ENDBRANCH  16  17
ENDBRANCH  15  16
ENDBRANCH  14  15
ENDBRANCH  13  14
ENDBRANCH  12  13
ENDBRANCH  11  12
ENDBRANCH  10  11
ENDBRANCH   1  10
TORSDOF 15
ENDMDL
MODEL 5
REMARK VINA RESULT:    -2.660      9.023     11.909
REMARK INTER + INTRA:          -6.946
REMARK INTER:                  -4.264
REMARK INTRA:                  -2.682
REMARK UNBOUND:                -2.031
REMARK SMILES CCCCCCCCCCCCCCCCO
REMARK SMILES IDX 9 1 8 2 7 3 6 4 5 5 4 6 3 7 2 8 1 9 10 10 11 11 12 12 13 13
REMARK SMILES IDX 14 14 15 15 16 16 17 17
REMARK H PARENT 17 18
REMARK Flexibility Score: inf
ROOT
ATOM      1  C   UNL     1     148.705 155.242 136.412  1.00  0.00     0.000 C 
ENDROOT
BRANCH   1   2
ATOM      2  C   UNL     1     148.773 154.272 137.605  1.00  0.00    -0.000 C 
BRANCH   2   3
ATOM      3  C   UNL     1     149.979 154.519 138.536  1.00  0.00    -0.000 C 
BRANCH   3   4
ATOM      4  C   UNL     1     149.580 155.298 139.803  1.00  0.00    -0.000 C 
BRANCH   4   5
ATOM      5  C   UNL     1     150.357 156.616 139.953  1.00  0.00    -0.000 C 
BRANCH   5   6
ATOM      6  C   UNL     1     151.322 156.866 138.780  1.00  0.00    -0.000 C 
BRANCH   6   7
ATOM      7  C   UNL     1     150.960 158.123 137.968  1.00  0.00    -0.000 C 
BRANCH   7   8
ATOM      8  C   UNL     1     151.100 157.967 136.443  1.00  0.00    -0.003 C 
ATOM      9  C   UNL     1     152.097 156.880 136.042  1.00  0.00     0.004 C 
ENDBRANCH   7   8
ENDBRANCH   6   7
ENDBRANCH   5   6
ENDBRANCH   4   5
ENDBRANCH   3   4
ENDBRANCH   2   3
ENDBRANCH   1   2
BRANCH   1  10
ATOM     10  C   UNL     1     147.703 156.388 136.630  1.00  0.00     0.000 C 
BRANCH  10  11
ATOM     11  C   UNL     1     146.581 156.011 137.611  1.00  0.00     0.000 C 
BRANCH  11  12
ATOM     12  C   UNL     1     146.476 156.993 138.791  1.00  0.00     0.000 C 
BRANCH  12  13
ATOM     13  C   UNL     1     147.257 158.294 138.548  1.00  0.00     0.000 C 
BRANCH  13  14
ATOM     14  C   UNL     1     147.517 159.079 139.846  1.00  0.00     0.002 C 
BRANCH  14  15
ATOM     15  C   UNL     1     147.794 160.569 139.588  1.00  0.00     0.028 C 
BRANCH  15  16
ATOM     16  C   UNL     1     149.065 161.069 140.287  1.00  0.00     0.156 C 
BRANCH  16  17
ATOM     17  O   UNL     1     149.878 159.985 140.643  1.00  0.00    -0.396 OA
ATOM     18  H   UNL     1     149.347 159.163 140.471  1.00  0.00     0.210 HD
ENDBRANCH  16  17
ENDBRANCH  15  16
ENDBRANCH  14  15
ENDBRANCH  13  14
ENDBRANCH  12  13
ENDBRANCH  11  12
ENDBRANCH  10  11
ENDBRANCH   1  10
TORSDOF 15
ENDMDL
MODEL 6
REMARK VINA RESULT:    -2.656      5.523      8.537
REMARK INTER + INTRA:          -6.937
REMARK INTER:                  -5.749
REMARK INTRA:                  -1.188
REMARK UNBOUND:                -2.031
REMARK SMILES CCCCCCCCCCCCCCCCO
REMARK SMILES IDX 9 1 8 2 7 3 6 4 5 5 4 6 3 7 2 8 1 9 10 10 11 11 12 12 13 13
REMARK SMILES IDX 14 14 15 15 16 16 17 17
REMARK H PARENT 17 18
REMARK Flexibility Score: inf
ROOT
ATOM      1  C   UNL     1     145.137 152.340 137.403  1.00  0.00     0.000 C 
ENDROOT
BRANCH   1   2
ATOM      2  C   UNL     1     144.966 150.817 137.541  1.00  0.00    -0.000 C 
BRANCH   2   3
ATOM      3  C   UNL     1     145.815 150.198 138.671  1.00  0.00    -0.000 C 
BRANCH   3   4
ATOM      4  C   UNL     1     144.960 149.812 139.891  1.00  0.00    -0.000 C 
BRANCH   4   5
ATOM      5  C   UNL     1     143.475 149.634 139.537  1.00  0.00    -0.000 C 
BRANCH   5   6
ATOM      6  C   UNL     1     143.120 148.173 139.209  1.00  0.00    -0.000 C 
BRANCH   6   7
ATOM      7  C   UNL     1     144.035 147.163 139.926  1.00  0.00    -0.000 C 
BRANCH   7   8
ATOM      8  C   UNL     1     144.832 146.239 138.988  1.00  0.00    -0.003 C 
ATOM      9  C   UNL     1     144.771 146.674 137.525  1.00  0.00     0.004 C 
ENDBRANCH   7   8
ENDBRANCH   6   7
ENDBRANCH   5   6
ENDBRANCH   4   5
ENDBRANCH   3   4
ENDBRANCH   2   3
ENDBRANCH   1   2
BRANCH   1  10
ATOM     10  C   UNL     1     144.249 153.131 138.378  1.00  0.00     0.000 C 
BRANCH  10  11
ATOM     11  C   UNL     1     144.913 154.434 138.854  1.00  0.00     0.000 C 
BRANCH  11  12
ATOM     12  C   UNL     1     145.868 155.026 137.803  1.00  0.00     0.000 C 
BRANCH  12  13
ATOM     13  C   UNL     1     146.955 155.916 138.427  1.00  0.00     0.000 C 
BRANCH  13  14
ATOM     14  C   UNL     1     146.385 157.205 139.044  1.00  0.00     0.002 C 
BRANCH  14  15
ATOM     15  C   UNL     1     147.297 158.421 138.817  1.00  0.00     0.028 C 
BRANCH  15  16
ATOM     16  C   UNL     1     147.386 159.336 140.045  1.00  0.00     0.156 C 
BRANCH  16  17
ATOM     17  O   UNL     1     146.482 158.913 141.029  1.00  0.00    -0.396 OA
ATOM     18  H   UNL     1     145.615 159.354 140.827  1.00  0.00     0.210 HD
ENDBRANCH  16  17
ENDBRANCH  15  16
ENDBRANCH  14  15
ENDBRANCH  13  14
ENDBRANCH  12  13
ENDBRANCH  11  12
ENDBRANCH  10  11
ENDBRANCH   1  10
TORSDOF 15
ENDMDL
MODEL 7
REMARK VINA RESULT:    -2.627      2.713      5.609
REMARK INTER + INTRA:          -6.884
REMARK INTER:                  -4.654
REMARK INTRA:                  -2.230
REMARK UNBOUND:                -2.031
REMARK SMILES CCCCCCCCCCCCCCCCO
REMARK SMILES IDX 9 1 8 2 7 3 6 4 5 5 4 6 3 7 2 8 1 9 10 10 11 11 12 12 13 13
REMARK SMILES IDX 14 14 15 15 16 16 17 17
REMARK H PARENT 17 18
REMARK Flexibility Score: inf
ROOT
ATOM      1  C   UNL     1     143.181 146.940 140.128  1.00  0.00     0.000 C 
ENDROOT
BRANCH   1   2
ATOM      2  C   UNL     1     144.304 146.521 139.163  1.00  0.00    -0.000 C 
BRANCH   2   3
ATOM      3  C   UNL     1     143.868 146.488 137.683  1.00  0.00    -0.000 C 
BRANCH   3   4
ATOM      4  C   UNL     1     144.993 146.951 136.739  1.00  0.00    -0.000 C 
BRANCH   4   5
ATOM      5  C   UNL     1     144.482 147.875 135.622  1.00  0.00    -0.000 C 
BRANCH   5   6
ATOM      6  C   UNL     1     143.067 147.497 135.150  1.00  0.00    -0.000 C 
BRANCH   6   7
ATOM      7  C   UNL     1     143.068 146.353 134.120  1.00  0.00    -0.000 C 
BRANCH   7   8
ATOM      8  C   UNL     1     141.911 145.348 134.272  1.00  0.00    -0.003 C 
ATOM      9  C   UNL     1     141.127 145.533 135.571  1.00  0.00     0.004 C 
ENDBRANCH   7   8
ENDBRANCH   6   7
ENDBRANCH   5   6
ENDBRANCH   4   5
ENDBRANCH   3   4
ENDBRANCH   2   3
ENDBRANCH   1   2
BRANCH   1  10
ATOM     10  C   UNL     1     141.870 147.287 139.404  1.00  0.00     0.000 C 
BRANCH  10  11
ATOM     11  C   UNL     1     141.508 148.777 139.522  1.00  0.00     0.000 C 
BRANCH  11  12
ATOM     12  C   UNL     1     141.632 149.521 138.180  1.00  0.00     0.000 C 
BRANCH  12  13
ATOM     13  C   UNL     1     142.637 150.682 138.238  1.00  0.00     0.000 C 
BRANCH  13  14
ATOM     14  C   UNL     1     144.088 150.202 138.420  1.00  0.00     0.002 C 
BRANCH  14  15
ATOM     15  C   UNL     1     144.673 150.596 139.786  1.00  0.00     0.028 C 
BRANCH  15  16
ATOM     16  C   UNL     1     145.796 149.659 140.246  1.00  0.00     0.156 C 
BRANCH  16  17
ATOM     17  O   UNL     1     145.787 149.545 141.643  1.00  0.00    -0.396 OA
ATOM     18  H   UNL     1     146.706 149.763 141.952  1.00  0.00     0.210 HD
ENDBRANCH  16  17
ENDBRANCH  15  16
ENDBRANCH  14  15
ENDBRANCH  13  14
ENDBRANCH  12  13
ENDBRANCH  11  12
ENDBRANCH  10  11
ENDBRANCH   1  10
TORSDOF 15
ENDMDL
MODEL 8
REMARK VINA RESULT:    -2.596      3.846      5.602
REMARK INTER + INTRA:          -6.827
REMARK INTER:                  -5.430
REMARK INTRA:                  -1.398
REMARK UNBOUND:                -2.031
REMARK SMILES CCCCCCCCCCCCCCCCO
REMARK SMILES IDX 9 1 8 2 7 3 6 4 5 5 4 6 3 7 2 8 1 9 10 10 11 11 12 12 13 13
REMARK SMILES IDX 14 14 15 15 16 16 17 17
REMARK H PARENT 17 18
REMARK Flexibility Score: inf
ROOT
ATOM      1  C   UNL     1     145.645 149.557 140.081  1.00  0.00     0.000 C 
ENDROOT
BRANCH   1   2
ATOM      2  C   UNL     1     144.639 150.718 140.172  1.00  0.00    -0.000 C 
BRANCH   2   3
ATOM      3  C   UNL     1     144.252 151.311 138.801  1.00  0.00    -0.000 C 
BRANCH   3   4
ATOM      4  C   UNL     1     144.607 152.806 138.697  1.00  0.00    -0.000 C 
BRANCH   4   5
ATOM      5  C   UNL     1     145.663 153.086 137.615  1.00  0.00    -0.000 C 
BRANCH   5   6
ATOM      6  C   UNL     1     145.864 154.592 137.367  1.00  0.00    -0.000 C 
BRANCH   6   7
ATOM      7  C   UNL     1     145.865 155.415 138.669  1.00  0.00    -0.000 C 
BRANCH   7   8
ATOM      8  C   UNL     1     147.124 156.275 138.885  1.00  0.00    -0.003 C 
ATOM      9  C   UNL     1     146.868 157.498 139.764  1.00  0.00     0.004 C 
ENDBRANCH   7   8
ENDBRANCH   6   7
ENDBRANCH   5   6
ENDBRANCH   4   5
ENDBRANCH   3   4
ENDBRANCH   2   3
ENDBRANCH   1   2
BRANCH   1  10
ATOM     10  C   UNL     1     146.250 149.400 138.677  1.00  0.00     0.000 C 
BRANCH  10  11
ATOM     11  C   UNL     1     145.739 148.144 137.952  1.00  0.00     0.000 C 
BRANCH  11  12
ATOM     12  C   UNL     1     145.361 147.015 138.926  1.00  0.00     0.000 C 
BRANCH  12  13
ATOM     13  C   UNL     1     143.897 146.568 138.776  1.00  0.00     0.000 C 
BRANCH  13  14
ATOM     14  C   UNL     1     143.023 147.627 138.081  1.00  0.00     0.002 C 
BRANCH  14  15
ATOM     15  C   UNL     1     142.032 148.299 139.045  1.00  0.00     0.028 C 
BRANCH  15  16
ATOM     16  C   UNL     1     141.111 147.294 139.749  1.00  0.00     0.156 C 
BRANCH  16  17
ATOM     17  O   UNL     1     141.321 147.336 141.134  1.00  0.00    -0.396 OA
ATOM     18  H   UNL     1     141.140 148.269 141.421  1.00  0.00     0.210 HD
ENDBRANCH  16  17
ENDBRANCH  15  16
ENDBRANCH  14  15
ENDBRANCH  13  14
ENDBRANCH  12  13
ENDBRANCH  11  12
ENDBRANCH  10  11
ENDBRANCH   1  10
TORSDOF 15
ENDMDL
MODEL 9
REMARK VINA RESULT:    -2.584      9.037     11.166
REMARK INTER + INTRA:          -6.804
REMARK INTER:                  -4.927
REMARK INTRA:                  -1.878
REMARK UNBOUND:                -2.031
REMARK SMILES CCCCCCCCCCCCCCCCO
REMARK SMILES IDX 9 1 8 2 7 3 6 4 5 5 4 6 3 7 2 8 1 9 10 10 11 11 12 12 13 13
REMARK SMILES IDX 14 14 15 15 16 16 17 17
REMARK H PARENT 17 18
REMARK Flexibility Score: inf
ROOT
ATOM      1  C   UNL     1     149.141 155.925 140.057  1.00  0.00     0.000 C 
ENDROOT
BRANCH   1   2
ATOM      2  C   UNL     1     148.560 155.531 138.688  1.00  0.00    -0.000 C 
BRANCH   2   3
ATOM      3  C   UNL     1     147.018 155.561 138.637  1.00  0.00    -0.000 C 
BRANCH   3   4
ATOM      4  C   UNL     1     146.474 156.988 138.445  1.00  0.00    -0.000 C 
BRANCH   4   5
ATOM      5  C   UNL     1     147.307 157.806 137.445  1.00  0.00    -0.000 C 
BRANCH   5   6
ATOM      6  C   UNL     1     147.832 159.118 138.053  1.00  0.00    -0.000 C 
BRANCH   6   7
ATOM      7  C   UNL     1     147.446 159.285 139.534  1.00  0.00    -0.000 C 
BRANCH   7   8
ATOM      8  C   UNL     1     148.139 160.458 140.251  1.00  0.00    -0.003 C 
ATOM      9  C   UNL     1     149.661 160.419 140.129  1.00  0.00     0.004 C 
ENDBRANCH   7   8
ENDBRANCH   6   7
ENDBRANCH   5   6
ENDBRANCH   4   5
ENDBRANCH   3   4
ENDBRANCH   2   3
ENDBRANCH   1   2
BRANCH   1  10
ATOM     10  C   UNL     1     150.440 156.740 139.943  1.00  0.00     0.000 C 
BRANCH  10  11
ATOM     11  C   UNL     1     150.931 156.865 138.491  1.00  0.00     0.000 C 
BRANCH  11  12
ATOM     12  C   UNL     1     151.882 158.058 138.292  1.00  0.00     0.000 C 
BRANCH  12  13
ATOM     13  C   UNL     1     153.352 157.628 138.161  1.00  0.00     0.000 C 
BRANCH  13  14
ATOM     14  C   UNL     1     153.512 156.107 137.994  1.00  0.00     0.002 C 
BRANCH  14  15
ATOM     15  C   UNL     1     154.913 155.614 138.390  1.00  0.00     0.028 C 
BRANCH  15  16
ATOM     16  C   UNL     1     155.196 154.182 137.918  1.00  0.00     0.156 C 
BRANCH  16  17
ATOM     17  O   UNL     1     155.153 153.299 139.004  1.00  0.00    -0.396 OA
ATOM     18  H   UNL     1     155.084 152.384 138.624  1.00  0.00     0.210 HD
ENDBRANCH  16  17
ENDBRANCH  15  16
ENDBRANCH  14  15
ENDBRANCH  13  14
ENDBRANCH  12  13
ENDBRANCH  11  12
ENDBRANCH  10  11
ENDBRANCH   1  10
TORSDOF 15
ENDMDL
