MODEL 1
REMARK VINA RESULT:    -5.431      0.000      0.000
REMARK INTER + INTRA:         -10.620
REMARK INTER:                  -9.875
REMARK INTRA:                  -0.745
REMARK UNBOUND:                -0.745
REMARK SMILES CCCCCCCCCCCCCCCC(=O)[O-]
REMARK SMILES IDX 9 1 10 2 11 3 12 4 13 5 14 6 15 7 16 8 17 9 18 10 8 11 7 12
REMARK SMILES IDX 6 13 5 14 4 15 3 16 2 17 1 18
REMARK H PARENT
REMARK Flexibility Score: inf
ROOT
ATOM      1  C   UNL     1      42.080  -2.386  15.780  1.00  0.00     0.000 C 
ENDROOT
BRANCH   1   2
ATOM      2  C   UNL     1      41.373  -2.083  17.109  1.00  0.00     0.000 C 
BRANCH   2   3
ATOM      3  C   UNL     1      42.272  -2.351  18.329  1.00  0.00     0.000 C 
BRANCH   3   4
ATOM      4  C   UNL     1      42.764  -1.058  18.999  1.00  0.00     0.000 C 
BRANCH   4   5
ATOM      5  C   UNL     1      42.146   0.203  18.372  1.00  0.00     0.000 C 
BRANCH   5   6
ATOM      6  C   UNL     1      42.813   1.503  18.862  1.00  0.00     0.006 C 
BRANCH   6   7
ATOM      7  C   UNL     1      42.996   1.574  20.388  1.00  0.00     0.053 C 
BRANCH   7   8
ATOM      8  C   UNL     1      44.436   1.652  20.793  1.00  0.00     0.041 C 
ATOM      9  O   UNL     1      44.777   1.388  21.976  1.00  0.00    -0.550 OA
ATOM     10  O   UNL     1      45.402   2.014  19.862  1.00  0.00    -0.550 OA
ENDBRANCH   7   8
ENDBRANCH   6   7
ENDBRANCH   5   6
ENDBRANCH   4   5
ENDBRANCH   3   4
ENDBRANCH   2   3
ENDBRANCH   1   2
BRANCH   1  11
ATOM     11  C   UNL     1      41.861  -1.282  14.731  1.00  0.00     0.000 C 
BRANCH  11  12
ATOM     12  C   UNL     1      41.780   0.123  15.353  1.00  0.00    -0.000 C 
BRANCH  12  13
ATOM     13  C   UNL     1      41.195   1.185  14.397  1.00  0.00    -0.000 C 
BRANCH  13  14
ATOM     14  C   UNL     1      40.493   2.325  15.157  1.00  0.00    -0.000 C 
BRANCH  14  15
ATOM     15  C   UNL     1      39.697   3.254  14.227  1.00  0.00    -0.000 C 
BRANCH  15  16
ATOM     16  C   UNL     1      39.848   2.879  12.746  1.00  0.00    -0.000 C 
BRANCH  16  17
ATOM     17  C   UNL     1      39.335   4.005  11.841  1.00  0.00    -0.003 C 
ATOM     18  C   UNL     1      40.153   5.281  12.031  1.00  0.00     0.004 C 
ENDBRANCH  16  17
ENDBRANCH  15  16
ENDBRANCH  14  15
ENDBRANCH  13  14
ENDBRANCH  12  13
ENDBRANCH  11  12
ENDBRANCH   1  11
TORSDOF 14
ENDMDL
MODEL 2
REMARK VINA RESULT:    -5.367      1.467      1.991
REMARK INTER + INTRA:         -10.504
REMARK INTER:                  -9.598
REMARK INTRA:                  -0.906
REMARK UNBOUND:                -0.745
REMARK SMILES CCCCCCCCCCCCCCCC(=O)[O-]
REMARK SMILES IDX 9 1 10 2 11 3 12 4 13 5 14 6 15 7 16 8 17 9 18 10 8 11 7 12
REMARK SMILES IDX 6 13 5 14 4 15 3 16 2 17 1 18
REMARK H PARENT
REMARK Flexibility Score: inf
ROOT
ATOM      1  C   UNL     1      40.933  -2.409  16.545  1.00  0.00     0.000 C 
ENDROOT
BRANCH   1   2
ATOM      2  C   UNL     1      41.273  -2.434  18.043  1.00  0.00     0.000 C 
BRANCH   2   3
ATOM      3  C   UNL     1      42.597  -1.717  18.358  1.00  0.00     0.000 C 
BRANCH   3   4
ATOM      4  C   UNL     1      42.412  -0.210  18.600  1.00  0.00     0.000 C 
BRANCH   4   5
ATOM      5  C   UNL     1      43.206   0.293  19.818  1.00  0.00     0.000 C 
BRANCH   5   6
ATOM      6  C   UNL     1      44.269   1.345  19.446  1.00  0.00     0.006 C 
BRANCH   6   7
ATOM      7  C   UNL     1      44.220   2.615  20.312  1.00  0.00     0.053 C 
BRANCH   7   8
ATOM      8  C   UNL     1      42.974   3.417  20.090  1.00  0.00     0.041 C 
ATOM      9  O   UNL     1      42.447   3.468  18.948  1.00  0.00    -0.550 OA
ATOM     10  O   UNL     1      42.393   4.107  21.148  1.00  0.00    -0.550 OA
ENDBRANCH   7   8
ENDBRANCH   6   7
ENDBRANCH   5   6
ENDBRANCH   4   5
ENDBRANCH   3   4
ENDBRANCH   2   3
ENDBRANCH   1   2
BRANCH   1  11
ATOM     11  C   UNL     1      42.181  -2.249  15.660  1.00  0.00     0.000 C 
BRANCH  11  12
ATOM     12  C   UNL     1      42.107  -1.018  14.740  1.00  0.00    -0.000 C 
BRANCH  12  13
ATOM     13  C   UNL     1      41.294   0.149  15.339  1.00  0.00    -0.000 C 
BRANCH  13  14
ATOM     14  C   UNL     1      41.256   1.371  14.403  1.00  0.00    -0.000 C 
BRANCH  14  15
ATOM     15  C   UNL     1      40.575   2.588  15.045  1.00  0.00    -0.000 C 
BRANCH  15  16
ATOM     16  C   UNL     1      39.461   3.176  14.166  1.00  0.00    -0.000 C 
BRANCH  16  17
ATOM     17  C   UNL     1      40.004   3.576  12.789  1.00  0.00    -0.003 C 
ATOM     18  C   UNL     1      38.990   3.276  11.688  1.00  0.00     0.004 C 
ENDBRANCH  16  17
ENDBRANCH  15  16
ENDBRANCH  14  15
ENDBRANCH  13  14
ENDBRANCH  12  13
ENDBRANCH  11  12
ENDBRANCH   1  11
TORSDOF 14
ENDMDL
MODEL 3
REMARK VINA RESULT:    -5.334      4.849      7.395
REMARK INTER + INTRA:         -10.443
REMARK INTER:                  -9.801
REMARK INTRA:                  -0.643
REMARK UNBOUND:                -0.745
REMARK SMILES CCCCCCCCCCCCCCCC(=O)[O-]
REMARK SMILES IDX 9 1 10 2 11 3 12 4 13 5 14 6 15 7 16 8 17 9 18 10 8 11 7 12
REMARK SMILES IDX 6 13 5 14 4 15 3 16 2 17 1 18
REMARK H PARENT
REMARK Flexibility Score: inf
ROOT
ATOM      1  C   UNL     1      41.611  -1.431  16.562  1.00  0.00     0.000 C 
ENDROOT
BRANCH   1   2
ATOM      2  C   UNL     1      41.777  -0.084  15.841  1.00  0.00     0.000 C 
BRANCH   2   3
ATOM      3  C   UNL     1      41.552   1.116  16.777  1.00  0.00     0.000 C 
BRANCH   3   4
ATOM      4  C   UNL     1      40.934   2.325  16.055  1.00  0.00     0.000 C 
BRANCH   4   5
ATOM      5  C   UNL     1      41.026   2.206  14.525  1.00  0.00     0.000 C 
BRANCH   5   6
ATOM      6  C   UNL     1      39.741   2.670  13.811  1.00  0.00     0.006 C 
BRANCH   6   7
ATOM      7  C   UNL     1      39.695   4.181  13.527  1.00  0.00     0.053 C 
BRANCH   7   8
ATOM      8  C   UNL     1      39.709   4.494  12.062  1.00  0.00     0.041 C 
ATOM      9  O   UNL     1      40.532   5.327  11.599  1.00  0.00    -0.550 OA
ATOM     10  O   UNL     1      38.814   3.861  11.208  1.00  0.00    -0.550 OA
ENDBRANCH   7   8
ENDBRANCH   6   7
ENDBRANCH   5   6
ENDBRANCH   4   5
ENDBRANCH   3   4
ENDBRANCH   2   3
ENDBRANCH   1   2
BRANCH   1  11
ATOM     11  C   UNL     1      41.844  -2.631  15.630  1.00  0.00     0.000 C 
BRANCH  11  12
ATOM     12  C   UNL     1      41.797  -2.248  14.140  1.00  0.00    -0.000 C 
BRANCH  12  13
ATOM     13  C   UNL     1      41.511  -3.443  13.207  1.00  0.00    -0.000 C 
BRANCH  13  14
ATOM     14  C   UNL     1      40.049  -3.466  12.724  1.00  0.00    -0.000 C 
BRANCH  14  15
ATOM     15  C   UNL     1      39.674  -4.786  12.035  1.00  0.00    -0.000 C 
BRANCH  15  16
ATOM     16  C   UNL     1      38.362  -5.381  12.569  1.00  0.00    -0.000 C 
BRANCH  16  17
ATOM     17  C   UNL     1      37.201  -5.097  11.609  1.00  0.00    -0.003 C 
ATOM     18  C   UNL     1      36.807  -6.352  10.833  1.00  0.00     0.004 C 
ENDBRANCH  16  17
ENDBRANCH  15  16
ENDBRANCH  14  15
ENDBRANCH  13  14
ENDBRANCH  12  13
ENDBRANCH  11  12
ENDBRANCH   1  11
TORSDOF 14
ENDMDL
MODEL 4
REMARK VINA RESULT:    -5.315      1.651      2.993
REMARK INTER + INTRA:         -10.410
REMARK INTER:                  -9.379
REMARK INTRA:                  -1.031
REMARK UNBOUND:                -0.745
REMARK SMILES CCCCCCCCCCCCCCCC(=O)[O-]
REMARK SMILES IDX 9 1 10 2 11 3 12 4 13 5 14 6 15 7 16 8 17 9 18 10 8 11 7 12
REMARK SMILES IDX 6 13 5 14 4 15 3 16 2 17 1 18
REMARK H PARENT
REMARK Flexibility Score: inf
ROOT
ATOM      1  C   UNL     1      42.316   0.596  17.994  1.00  0.00     0.000 C 
ENDROOT
BRANCH   1   2
ATOM      2  C   UNL     1      42.660   1.977  18.573  1.00  0.00     0.000 C 
BRANCH   2   3
ATOM      3  C   UNL     1      43.967   1.966  19.385  1.00  0.00     0.000 C 
BRANCH   3   4
ATOM      4  C   UNL     1      43.948   2.964  20.554  1.00  0.00     0.000 C 
BRANCH   4   5
ATOM      5  C   UNL     1      42.802   2.692  21.542  1.00  0.00     0.000 C 
BRANCH   5   6
ATOM      6  C   UNL     1      43.249   1.866  22.764  1.00  0.00     0.006 C 
BRANCH   6   7
ATOM      7  C   UNL     1      43.126   0.345  22.567  1.00  0.00     0.053 C 
BRANCH   7   8
ATOM      8  C   UNL     1      44.424  -0.371  22.779  1.00  0.00     0.041 C 
ATOM      9  O   UNL     1      45.514   0.191  22.491  1.00  0.00    -0.550 OA
ATOM     10  O   UNL     1      44.430  -1.661  23.298  1.00  0.00    -0.550 OA
ENDBRANCH   7   8
ENDBRANCH   6   7
ENDBRANCH   5   6
ENDBRANCH   4   5
ENDBRANCH   3   4
ENDBRANCH   2   3
ENDBRANCH   1   2
BRANCH   1  11
ATOM     11  C   UNL     1      41.193   0.659  16.945  1.00  0.00     0.000 C 
BRANCH  11  12
ATOM     12  C   UNL     1      41.692   0.365  15.519  1.00  0.00    -0.000 C 
BRANCH  12  13
ATOM     13  C   UNL     1      41.204   1.390  14.474  1.00  0.00    -0.000 C 
BRANCH  13  14
ATOM     14  C   UNL     1      40.513   2.601  15.127  1.00  0.00    -0.000 C 
BRANCH  14  15
ATOM     15  C   UNL     1      39.449   3.237  14.219  1.00  0.00    -0.000 C 
BRANCH  15  16
ATOM     16  C   UNL     1      39.638   2.871  12.740  1.00  0.00    -0.000 C 
BRANCH  16  17
ATOM     17  C   UNL     1      39.207   4.027  11.830  1.00  0.00    -0.003 C 
ATOM     18  C   UNL     1      40.133   5.230  11.991  1.00  0.00     0.004 C 
ENDBRANCH  16  17
ENDBRANCH  15  16
ENDBRANCH  14  15
ENDBRANCH  13  14
ENDBRANCH  12  13
ENDBRANCH  11  12
ENDBRANCH   1  11
TORSDOF 14
ENDMDL
MODEL 5
REMARK VINA RESULT:    -5.278      5.978      8.404
REMARK INTER + INTRA:         -10.343
REMARK INTER:                  -9.889
REMARK INTRA:                  -0.454
REMARK UNBOUND:                -0.745
REMARK SMILES CCCCCCCCCCCCCCCC(=O)[O-]
REMARK SMILES IDX 9 1 10 2 11 3 12 4 13 5 14 6 15 7 16 8 17 9 18 10 8 11 7 12
REMARK SMILES IDX 6 13 5 14 4 15 3 16 2 17 1 18
REMARK H PARENT
REMARK Flexibility Score: inf
ROOT
ATOM      1  C   UNL     1      42.222   3.942  19.286  1.00  0.00     0.000 C 
ENDROOT
BRANCH   1   2
ATOM      2  C   UNL     1      41.067   3.167  18.634  1.00  0.00     0.000 C 
BRANCH   2   3
ATOM      3  C   UNL     1      41.521   2.357  17.407  1.00  0.00     0.000 C 
BRANCH   3   4
ATOM      4  C   UNL     1      40.667   2.638  16.160  1.00  0.00     0.000 C 
BRANCH   4   5
ATOM      5  C   UNL     1      41.025   1.719  14.981  1.00  0.00     0.000 C 
BRANCH   5   6
ATOM      6  C   UNL     1      40.867   2.412  13.613  1.00  0.00     0.006 C 
BRANCH   6   7
ATOM      7  C   UNL     1      39.802   3.522  13.595  1.00  0.00     0.053 C 
BRANCH   7   8
ATOM      8  C   UNL     1      39.595   4.101  12.229  1.00  0.00     0.041 C 
ATOM      9  O   UNL     1      38.950   3.459  11.359  1.00  0.00    -0.550 OA
ATOM     10  O   UNL     1      40.111   5.353  11.919  1.00  0.00    -0.550 OA
ENDBRANCH   7   8
ENDBRANCH   6   7
ENDBRANCH   5   6
ENDBRANCH   4   5
ENDBRANCH   3   4
ENDBRANCH   2   3
ENDBRANCH   1   2
BRANCH   1  11
ATOM     11  C   UNL     1      41.836   5.390  19.635  1.00  0.00     0.000 C 
BRANCH  11  12
ATOM     12  C   UNL     1      43.051   6.332  19.698  1.00  0.00    -0.000 C 
BRANCH  12  13
ATOM     13  C   UNL     1      43.198   7.230  18.452  1.00  0.00    -0.000 C 
BRANCH  13  14
ATOM     14  C   UNL     1      44.077   8.465  18.726  1.00  0.00    -0.000 C 
BRANCH  14  15
ATOM     15  C   UNL     1      45.578   8.143  18.686  1.00  0.00    -0.000 C 
BRANCH  15  16
ATOM     16  C   UNL     1      46.412   9.280  18.077  1.00  0.00    -0.000 C 
BRANCH  16  17
ATOM     17  C   UNL     1      47.473   8.728  17.119  1.00  0.00    -0.003 C 
ATOM     18  C   UNL     1      48.833   9.374  17.370  1.00  0.00     0.004 C 
ENDBRANCH  16  17
ENDBRANCH  15  16
ENDBRANCH  14  15
ENDBRANCH  13  14
ENDBRANCH  12  13
ENDBRANCH  11  12
ENDBRANCH   1  11
TORSDOF 14
ENDMDL
MODEL 6
REMARK VINA RESULT:    -5.209      2.677      3.924
REMARK INTER + INTRA:         -10.218
REMARK INTER:                  -9.475
REMARK INTRA:                  -0.743
REMARK UNBOUND:                -0.745
REMARK SMILES CCCCCCCCCCCCCCCC(=O)[O-]
REMARK SMILES IDX 9 1 10 2 11 3 12 4 13 5 14 6 15 7 16 8 17 9 18 10 8 11 7 12
REMARK SMILES IDX 6 13 5 14 4 15 3 16 2 17 1 18
REMARK H PARENT
REMARK Flexibility Score: inf
ROOT
ATOM      1  C   UNL     1      42.256   2.786  19.305  1.00  0.00     0.000 C 
ENDROOT
BRANCH   1   2
ATOM      2  C   UNL     1      43.183   1.608  18.968  1.00  0.00     0.000 C 
BRANCH   2   3
ATOM      3  C   UNL     1      43.425   0.686  20.176  1.00  0.00     0.000 C 
BRANCH   3   4
ATOM      4  C   UNL     1      43.059   1.351  21.513  1.00  0.00     0.000 C 
BRANCH   4   5
ATOM      5  C   UNL     1      44.296   1.679  22.366  1.00  0.00     0.000 C 
BRANCH   5   6
ATOM      6  C   UNL     1      44.767   0.486  23.221  1.00  0.00     0.006 C 
BRANCH   6   7
ATOM      7  C   UNL     1      44.225   0.498  24.661  1.00  0.00     0.053 C 
BRANCH   7   8
ATOM      8  C   UNL     1      44.030   1.885  25.192  1.00  0.00     0.041 C 
ATOM      9  O   UNL     1      45.019   2.561  25.579  1.00  0.00    -0.550 OA
ATOM     10  O   UNL     1      42.754   2.432  25.256  1.00  0.00    -0.550 OA
ENDBRANCH   7   8
ENDBRANCH   6   7
ENDBRANCH   5   6
ENDBRANCH   4   5
ENDBRANCH   3   4
ENDBRANCH   2   3
ENDBRANCH   1   2
BRANCH   1  11
ATOM     11  C   UNL     1      41.238   3.073  18.189  1.00  0.00     0.000 C 
BRANCH  11  12
ATOM     12  C   UNL     1      41.305   2.048  17.043  1.00  0.00    -0.000 C 
BRANCH  12  13
ATOM     13  C   UNL     1      40.615   2.528  15.748  1.00  0.00    -0.000 C 
BRANCH  13  14
ATOM     14  C   UNL     1      41.148   1.799  14.501  1.00  0.00    -0.000 C 
BRANCH  14  15
ATOM     15  C   UNL     1      40.868   2.568  13.201  1.00  0.00    -0.000 C 
BRANCH  15  16
ATOM     16  C   UNL     1      40.100   3.876  13.441  1.00  0.00    -0.000 C 
BRANCH  16  17
ATOM     17  C   UNL     1      39.645   4.494  12.114  1.00  0.00    -0.003 C 
ATOM     18  C   UNL     1      38.610   3.611  11.420  1.00  0.00     0.004 C 
ENDBRANCH  16  17
ENDBRANCH  15  16
ENDBRANCH  14  15
ENDBRANCH  13  14
ENDBRANCH  12  13
ENDBRANCH  11  12
ENDBRANCH   1  11
TORSDOF 14
ENDMDL
MODEL 7
REMARK VINA RESULT:    -5.143      4.359      8.373
REMARK INTER + INTRA:         -10.098
REMARK INTER:                  -9.055
REMARK INTRA:                  -1.042
REMARK UNBOUND:                -0.745
REMARK SMILES CCCCCCCCCCCCCCCC(=O)[O-]
REMARK SMILES IDX 9 1 10 2 11 3 12 4 13 5 14 6 15 7 16 8 17 9 18 10 8 11 7 12
REMARK SMILES IDX 6 13 5 14 4 15 3 16 2 17 1 18
REMARK H PARENT
REMARK Flexibility Score: inf
ROOT
ATOM      1  C   UNL     1      41.937   3.422  18.950  1.00  0.00     0.000 C 
ENDROOT
BRANCH   1   2
ATOM      2  C   UNL     1      40.891   3.009  17.903  1.00  0.00     0.000 C 
BRANCH   2   3
ATOM      3  C   UNL     1      41.456   2.026  16.863  1.00  0.00     0.000 C 
BRANCH   3   4
ATOM      4  C   UNL     1      40.575   1.919  15.607  1.00  0.00     0.000 C 
BRANCH   4   5
ATOM      5  C   UNL     1      41.385   1.569  14.348  1.00  0.00     0.000 C 
BRANCH   5   6
ATOM      6  C   UNL     1      41.149   2.559  13.190  1.00  0.00     0.006 C 
BRANCH   6   7
ATOM      7  C   UNL     1      39.818   3.324  13.285  1.00  0.00     0.053 C 
BRANCH   7   8
ATOM      8  C   UNL     1      39.499   4.084  12.034  1.00  0.00     0.041 C 
ATOM      9  O   UNL     1      38.561   3.706  11.283  1.00  0.00    -0.550 OA
ATOM     10  O   UNL     1      40.235   5.214  11.700  1.00  0.00    -0.550 OA
ENDBRANCH   7   8
ENDBRANCH   6   7
ENDBRANCH   5   6
ENDBRANCH   4   5
ENDBRANCH   3   4
ENDBRANCH   2   3
ENDBRANCH   1   2
BRANCH   1  11
ATOM     11  C   UNL     1      42.003   4.946  19.147  1.00  0.00     0.000 C 
BRANCH  11  12
ATOM     12  C   UNL     1      43.293   5.401  19.853  1.00  0.00    -0.000 C 
BRANCH  12  13
ATOM     13  C   UNL     1      43.716   4.477  21.015  1.00  0.00    -0.000 C 
BRANCH  13  14
ATOM     14  C   UNL     1      45.243   4.290  21.081  1.00  0.00    -0.000 C 
BRANCH  14  15
ATOM     15  C   UNL     1      45.650   2.833  21.346  1.00  0.00    -0.000 C 
BRANCH  15  16
ATOM     16  C   UNL     1      44.833   1.830  20.519  1.00  0.00    -0.000 C 
BRANCH  16  17
ATOM     17  C   UNL     1      44.359   0.660  21.389  1.00  0.00    -0.003 C 
ATOM     18  C   UNL     1      42.970   0.929  21.964  1.00  0.00     0.004 C 
ENDBRANCH  16  17
ENDBRANCH  15  16
ENDBRANCH  14  15
ENDBRANCH  13  14
ENDBRANCH  12  13
ENDBRANCH  11  12
ENDBRANCH   1  11
TORSDOF 14
ENDMDL
MODEL 8
REMARK VINA RESULT:    -5.046      1.776      3.177
REMARK INTER + INTRA:          -9.920
REMARK INTER:                  -8.984
REMARK INTRA:                  -0.936
REMARK UNBOUND:                -0.745
REMARK SMILES CCCCCCCCCCCCCCCC(=O)[O-]
REMARK SMILES IDX 9 1 10 2 11 3 12 4 13 5 14 6 15 7 16 8 17 9 18 10 8 11 7 12
REMARK SMILES IDX 6 13 5 14 4 15 3 16 2 17 1 18
REMARK H PARENT
REMARK Flexibility Score: inf
ROOT
ATOM      1  C   UNL     1      42.650  -0.176  18.678  1.00  0.00     0.000 C 
ENDROOT
BRANCH   1   2
ATOM      2  C   UNL     1      43.386   0.965  19.398  1.00  0.00     0.000 C 
BRANCH   2   3
ATOM      3  C   UNL     1      42.697   1.372  20.711  1.00  0.00     0.000 C 
BRANCH   3   4
ATOM      4  C   UNL     1      43.412   0.816  21.954  1.00  0.00     0.000 C 
BRANCH   4   5
ATOM      5  C   UNL     1      44.939   0.765  21.781  1.00  0.00     0.000 C 
BRANCH   5   6
ATOM      6  C   UNL     1      45.658   1.945  22.466  1.00  0.00     0.006 C 
BRANCH   6   7
ATOM      7  C   UNL     1      46.232   2.981  21.483  1.00  0.00     0.053 C 
BRANCH   7   8
ATOM      8  C   UNL     1      45.422   4.240  21.435  1.00  0.00     0.041 C 
ATOM      9  O   UNL     1      44.408   4.315  20.693  1.00  0.00    -0.550 OA
ATOM     10  O   UNL     1      45.788   5.332  22.214  1.00  0.00    -0.550 OA
ENDBRANCH   7   8
ENDBRANCH   6   7
ENDBRANCH   5   6
ENDBRANCH   4   5
ENDBRANCH   3   4
ENDBRANCH   2   3
ENDBRANCH   1   2
BRANCH   1  11
ATOM     11  C   UNL     1      41.983   0.286  17.371  1.00  0.00     0.000 C 
BRANCH  11  12
ATOM     12  C   UNL     1      41.570   1.768  17.403  1.00  0.00    -0.000 C 
BRANCH  12  13
ATOM     13  C   UNL     1      40.904   2.249  16.097  1.00  0.00    -0.000 C 
BRANCH  13  14
ATOM     14  C   UNL     1      41.328   1.401  14.883  1.00  0.00    -0.000 C 
BRANCH  14  15
ATOM     15  C   UNL     1      41.033   2.095  13.545  1.00  0.00    -0.000 C 
BRANCH  15  16
ATOM     16  C   UNL     1      40.125   3.324  13.702  1.00  0.00    -0.000 C 
BRANCH  16  17
ATOM     17  C   UNL     1      39.601   3.795  12.341  1.00  0.00    -0.003 C 
ATOM     18  C   UNL     1      40.105   5.198  12.011  1.00  0.00     0.004 C 
ENDBRANCH  16  17
ENDBRANCH  15  16
ENDBRANCH  14  15
ENDBRANCH  13  14
ENDBRANCH  12  13
ENDBRANCH  11  12
ENDBRANCH   1  11
TORSDOF 14
ENDMDL
MODEL 9
REMARK VINA RESULT:    -4.995      2.275      4.024
REMARK INTER + INTRA:          -9.828
REMARK INTER:                  -8.897
REMARK INTRA:                  -0.932
REMARK UNBOUND:                -0.745
REMARK SMILES CCCCCCCCCCCCCCCC(=O)[O-]
REMARK SMILES IDX 9 1 10 2 11 3 12 4 13 5 14 6 15 7 16 8 17 9 18 10 8 11 7 12
REMARK SMILES IDX 6 13 5 14 4 15 3 16 2 17 1 18
REMARK H PARENT
REMARK Flexibility Score: inf
ROOT
ATOM      1  C   UNL     1      41.487   2.902  19.193  1.00  0.00     0.000 C 
ENDROOT
BRANCH   1   2
ATOM      2  C   UNL     1      41.647   4.379  18.802  1.00  0.00     0.000 C 
BRANCH   2   3
ATOM      3  C   UNL     1      42.769   5.078  19.589  1.00  0.00     0.000 C 
BRANCH   3   4
ATOM      4  C   UNL     1      42.515   5.085  21.105  1.00  0.00     0.000 C 
BRANCH   4   5
ATOM      5  C   UNL     1      43.676   4.462  21.899  1.00  0.00     0.000 C 
BRANCH   5   6
ATOM      6  C   UNL     1      44.550   3.523  21.045  1.00  0.00     0.006 C 
BRANCH   6   7
ATOM      7  C   UNL     1      45.326   2.477  21.863  1.00  0.00     0.053 C 
BRANCH   7   8
ATOM      8  C   UNL     1      44.671   1.129  21.846  1.00  0.00     0.041 C 
ATOM      9  O   UNL     1      43.515   0.991  21.366  1.00  0.00    -0.550 OA
ATOM     10  O   UNL     1      45.341   0.024  22.357  1.00  0.00    -0.550 OA
ENDBRANCH   7   8
ENDBRANCH   6   7
ENDBRANCH   5   6
ENDBRANCH   4   5
ENDBRANCH   3   4
ENDBRANCH   2   3
ENDBRANCH   1   2
BRANCH   1  11
ATOM     11  C   UNL     1      41.850   1.946  18.045  1.00  0.00     0.000 C 
BRANCH  11  12
ATOM     12  C   UNL     1      41.191   2.338  16.711  1.00  0.00    -0.000 C 
BRANCH  12  13
ATOM     13  C   UNL     1      41.277   1.235  15.635  1.00  0.00    -0.000 C 
BRANCH  13  14
ATOM     14  C   UNL     1      41.051   1.789  14.216  1.00  0.00    -0.000 C 
BRANCH  14  15
ATOM     15  C   UNL     1      40.066   2.967  14.191  1.00  0.00    -0.000 C 
BRANCH  15  16
ATOM     16  C   UNL     1      40.118   3.754  12.872  1.00  0.00    -0.000 C 
BRANCH  16  17
ATOM     17  C   UNL     1      39.375   3.006  11.759  1.00  0.00    -0.003 C 
ATOM     18  C   UNL     1      38.102   3.745  11.353  1.00  0.00     0.004 C 
ENDBRANCH  16  17
ENDBRANCH  15  16
ENDBRANCH  14  15
ENDBRANCH  13  14
ENDBRANCH  12  13
ENDBRANCH  11  12
ENDBRANCH   1  11
TORSDOF 14
ENDMDL
