MODEL 1
REMARK VINA RESULT:    -4.690      0.000      0.000
REMARK INTER + INTRA:          -4.690
REMARK INTER:                  -4.690
REMARK INTRA:                   0.000
REMARK UNBOUND:                 0.000
REMARK SMILES CC1=CC[C@H]2[C@H](C1)C2(C)C
REMARK SMILES IDX 1 1 2 2 3 3 4 4 5 5 6 6 7 7 8 8 9 9 10 10
REMARK H PARENT
REMARK Flexibility Score: inf
ROOT
ATOM      1  C   UNL     1       0.641   5.620  14.881  1.00  0.00     0.039 C 
ATOM      2  C   UNL     1      -0.042   4.340  14.493  1.00  0.00    -0.077 C 
ATOM      3  C   UNL     1      -1.025   3.833  15.294  1.00  0.00    -0.028 C 
ATOM      4  C   UNL     1      -1.775   2.550  14.940  1.00  0.00     0.031 C 
ATOM      5  C   UNL     1      -1.666   2.344  13.425  1.00  0.00     0.003 C 
ATOM      6  C   UNL     1      -0.108   2.192  13.250  1.00  0.00     0.003 C 
ATOM      7  C   UNL     1       0.330   3.658  13.169  1.00  0.00     0.034 C 
ATOM      8  C   UNL     1      -1.076   1.299  12.505  1.00  0.00    -0.029 C 
ATOM      9  C   UNL     1      -1.195  -0.149  12.986  1.00  0.00     0.012 C 
ATOM     10  C   UNL     1      -1.188   1.556  10.999  1.00  0.00     0.012 C 
ENDROOT
TORSDOF 0
ENDMDL
MODEL 2
REMARK VINA RESULT:    -4.686      1.418      3.805
REMARK INTER + INTRA:          -4.686
REMARK INTER:                  -4.686
REMARK INTRA:                   0.000
REMARK UNBOUND:                 0.000
REMARK SMILES CC1=CC[C@H]2[C@H](C1)C2(C)C
REMARK SMILES IDX 1 1 2 2 3 3 4 4 5 5 6 6 7 7 8 8 9 9 10 10
REMARK H PARENT
REMARK Flexibility Score: inf
ROOT
ATOM      1  C   UNL     1      -1.649  -1.087  14.022  1.00  0.00     0.039 C 
ATOM      2  C   UNL     1      -1.769   0.410  13.992  1.00  0.00    -0.077 C 
ATOM      3  C   UNL     1      -2.722   1.023  14.754  1.00  0.00    -0.028 C 
ATOM      4  C   UNL     1      -2.877   2.542  14.787  1.00  0.00     0.031 C 
ATOM      5  C   UNL     1      -1.539   3.161  14.368  1.00  0.00     0.003 C 
ATOM      6  C   UNL     1      -1.394   2.608  12.900  1.00  0.00     0.003 C 
ATOM      7  C   UNL     1      -0.776   1.229  13.158  1.00  0.00     0.034 C 
ATOM      8  C   UNL     1      -1.048   4.041  13.240  1.00  0.00    -0.029 C 
ATOM      9  C   UNL     1      -2.025   5.121  12.770  1.00  0.00     0.012 C 
ATOM     10  C   UNL     1       0.445   4.382  13.224  1.00  0.00     0.012 C 
ENDROOT
TORSDOF 0
ENDMDL
MODEL 3
REMARK VINA RESULT:    -4.649      1.143      4.204
REMARK INTER + INTRA:          -4.649
REMARK INTER:                  -4.649
REMARK INTRA:                   0.000
REMARK UNBOUND:                 0.000
REMARK SMILES CC1=CC[C@H]2[C@H](C1)C2(C)C
REMARK SMILES IDX 1 1 2 2 3 3 4 4 5 5 6 6 7 7 8 8 9 9 10 10
REMARK H PARENT
REMARK Flexibility Score: inf
ROOT
ATOM      1  C   UNL     1      -2.007  -0.534  14.022  1.00  0.00     0.039 C 
ATOM      2  C   UNL     1      -1.342   0.796  13.815  1.00  0.00    -0.077 C 
ATOM      3  C   UNL     1      -0.919   1.150  12.566  1.00  0.00    -0.028 C 
ATOM      4  C   UNL     1      -0.260   2.498  12.287  1.00  0.00     0.031 C 
ATOM      5  C   UNL     1      -0.696   3.472  13.387  1.00  0.00     0.003 C 
ATOM      6  C   UNL     1      -0.103   2.772  14.666  1.00  0.00     0.003 C 
ATOM      7  C   UNL     1      -1.209   1.764  14.998  1.00  0.00     0.034 C 
ATOM      8  C   UNL     1      -0.011   4.270  14.474  1.00  0.00    -0.029 C 
ATOM      9  C   UNL     1       1.361   4.841  14.111  1.00  0.00     0.012 C 
ATOM     10  C   UNL     1      -0.908   5.110  15.389  1.00  0.00     0.012 C 
ENDROOT
TORSDOF 0
ENDMDL
MODEL 4
REMARK VINA RESULT:    -4.631      1.300      4.157
REMARK INTER + INTRA:          -4.631
REMARK INTER:                  -4.631
REMARK INTRA:                   0.000
REMARK UNBOUND:                 0.000
REMARK SMILES CC1=CC[C@H]2[C@H](C1)C2(C)C
REMARK SMILES IDX 1 1 2 2 3 3 4 4 5 5 6 6 7 7 8 8 9 9 10 10
REMARK H PARENT
REMARK Flexibility Score: inf
ROOT
ATOM      1  C   UNL     1      -1.755  -1.227  14.116  1.00  0.00     0.039 C 
ATOM      2  C   UNL     1      -1.408   0.126  13.565  1.00  0.00    -0.077 C 
ATOM      3  C   UNL     1      -1.188   0.270  12.225  1.00  0.00    -0.028 C 
ATOM      4  C   UNL     1      -0.858   1.624  11.600  1.00  0.00     0.031 C 
ATOM      5  C   UNL     1      -1.384   2.716  12.538  1.00  0.00     0.003 C 
ATOM      6  C   UNL     1      -0.539   2.436  13.837  1.00  0.00     0.003 C 
ATOM      7  C   UNL     1      -1.372   1.337  14.506  1.00  0.00     0.034 C 
ATOM      8  C   UNL     1      -0.784   3.846  13.345  1.00  0.00    -0.029 C 
ATOM      9  C   UNL     1       0.397   4.569  12.694  1.00  0.00     0.012 C 
ATOM     10  C   UNL     1      -1.748   4.683  14.191  1.00  0.00     0.012 C 
ENDROOT
TORSDOF 0
ENDMDL
MODEL 5
REMARK VINA RESULT:    -4.544      1.846      3.365
REMARK INTER + INTRA:          -4.544
REMARK INTER:                  -4.544
REMARK INTRA:                   0.000
REMARK UNBOUND:                 0.000
REMARK SMILES CC1=CC[C@H]2[C@H](C1)C2(C)C
REMARK SMILES IDX 1 1 2 2 3 3 4 4 5 5 6 6 7 7 8 8 9 9 10 10
REMARK H PARENT
REMARK Flexibility Score: inf
ROOT
ATOM      1  C   UNL     1      -2.212   5.260  10.596  1.00  0.00     0.039 C 
ATOM      2  C   UNL     1      -1.881   4.028  11.387  1.00  0.00    -0.077 C 
ATOM      3  C   UNL     1      -1.460   2.903  10.737  1.00  0.00    -0.028 C 
ATOM      4  C   UNL     1      -1.083   1.628  11.487  1.00  0.00     0.031 C 
ATOM      5  C   UNL     1      -0.710   2.018  12.921  1.00  0.00     0.003 C 
ATOM      6  C   UNL     1      -2.067   2.632  13.432  1.00  0.00     0.003 C 
ATOM      7  C   UNL     1      -1.958   4.072  12.919  1.00  0.00     0.034 C 
ATOM      8  C   UNL     1      -1.237   1.718  14.307  1.00  0.00    -0.029 C 
ATOM      9  C   UNL     1      -1.763   0.297  14.522  1.00  0.00     0.012 C 
ATOM     10  C   UNL     1      -0.525   2.395  15.482  1.00  0.00     0.012 C 
ENDROOT
TORSDOF 0
ENDMDL
MODEL 6
REMARK VINA RESULT:    -4.280      2.378      3.729
REMARK INTER + INTRA:          -4.280
REMARK INTER:                  -4.280
REMARK INTRA:                   0.000
REMARK UNBOUND:                 0.000
REMARK SMILES CC1=CC[C@H]2[C@H](C1)C2(C)C
REMARK SMILES IDX 1 1 2 2 3 3 4 4 5 5 6 6 7 7 8 8 9 9 10 10
REMARK H PARENT
REMARK Flexibility Score: inf
ROOT
ATOM      1  C   UNL     1      -1.448   1.995  15.235  1.00  0.00     0.039 C 
ATOM      2  C   UNL     1      -1.294   2.616  13.877  1.00  0.00    -0.077 C 
ATOM      3  C   UNL     1      -0.279   2.205  13.060  1.00  0.00    -0.028 C 
ATOM      4  C   UNL     1      -0.087   2.778  11.658  1.00  0.00     0.031 C 
ATOM      5  C   UNL     1      -1.434   3.339  11.190  1.00  0.00     0.003 C 
ATOM      6  C   UNL     1      -1.686   4.463  12.264  1.00  0.00     0.003 C 
ATOM      7  C   UNL     1      -2.319   3.654  13.401  1.00  0.00     0.034 C 
ATOM      8  C   UNL     1      -1.975   4.696  10.797  1.00  0.00    -0.029 C 
ATOM      9  C   UNL     1      -1.004   5.600  10.034  1.00  0.00     0.012 C 
ATOM     10  C   UNL     1      -3.457   4.770  10.419  1.00  0.00     0.012 C 
ENDROOT
TORSDOF 0
ENDMDL
MODEL 7
REMARK VINA RESULT:    -4.072      2.274      4.207
REMARK INTER + INTRA:          -4.072
REMARK INTER:                  -4.072
REMARK INTRA:                   0.000
REMARK UNBOUND:                 0.000
REMARK SMILES CC1=CC[C@H]2[C@H](C1)C2(C)C
REMARK SMILES IDX 1 1 2 2 3 3 4 4 5 5 6 6 7 7 8 8 9 9 10 10
REMARK H PARENT
REMARK Flexibility Score: inf
ROOT
ATOM      1  C   UNL     1      -1.024   0.237  11.794  1.00  0.00     0.039 C 
ATOM      2  C   UNL     1      -1.010   1.722  12.010  1.00  0.00    -0.077 C 
ATOM      3  C   UNL     1      -0.662   2.221  13.233  1.00  0.00    -0.028 C 
ATOM      4  C   UNL     1      -0.603   3.722  13.507  1.00  0.00     0.031 C 
ATOM      5  C   UNL     1      -0.410   4.439  12.166  1.00  0.00     0.003 C 
ATOM      6  C   UNL     1      -1.725   4.022  11.406  1.00  0.00     0.003 C 
ATOM      7  C   UNL     1      -1.322   2.658  10.835  1.00  0.00     0.034 C 
ATOM      8  C   UNL     1      -1.189   5.436  11.338  1.00  0.00    -0.029 C 
ATOM      9  C   UNL     1      -1.947   6.504  12.130  1.00  0.00     0.012 C 
ATOM     10  C   UNL     1      -0.581   5.849   9.995  1.00  0.00     0.012 C 
ENDROOT
TORSDOF 0
ENDMDL
MODEL 8
REMARK VINA RESULT:    -3.927      2.938      4.194
REMARK INTER + INTRA:          -3.927
REMARK INTER:                  -3.927
REMARK INTRA:                   0.000
REMARK UNBOUND:                 0.000
REMARK SMILES CC1=CC[C@H]2[C@H](C1)C2(C)C
REMARK SMILES IDX 1 1 2 2 3 3 4 4 5 5 6 6 7 7 8 8 9 9 10 10
REMARK H PARENT
REMARK Flexibility Score: inf
ROOT
ATOM      1  C   UNL     1      -0.766   1.170  13.015  1.00  0.00     0.039 C 
ATOM      2  C   UNL     1      -1.244   2.519  12.562  1.00  0.00    -0.077 C 
ATOM      3  C   UNL     1      -2.001   3.283  13.404  1.00  0.00    -0.028 C 
ATOM      4  C   UNL     1      -2.494   4.673  13.011  1.00  0.00     0.031 C 
ATOM      5  C   UNL     1      -1.567   5.210  11.916  1.00  0.00     0.003 C 
ATOM      6  C   UNL     1      -1.799   4.150  10.774  1.00  0.00     0.003 C 
ATOM      7  C   UNL     1      -0.819   3.046  11.185  1.00  0.00     0.034 C 
ATOM      8  C   UNL     1      -1.713   5.630  10.470  1.00  0.00    -0.029 C 
ATOM      9  C   UNL     1      -3.020   6.343  10.117  1.00  0.00     0.012 C 
ATOM     10  C   UNL     1      -0.442   6.084   9.746  1.00  0.00     0.012 C 
ENDROOT
TORSDOF 0
ENDMDL
MODEL 9
REMARK VINA RESULT:    -3.923      2.091      2.841
REMARK INTER + INTRA:          -3.923
REMARK INTER:                  -3.923
REMARK INTRA:                   0.000
REMARK UNBOUND:                 0.000
REMARK SMILES CC1=CC[C@H]2[C@H](C1)C2(C)C
REMARK SMILES IDX 1 1 2 2 3 3 4 4 5 5 6 6 7 7 8 8 9 9 10 10
REMARK H PARENT
REMARK Flexibility Score: inf
ROOT
ATOM      1  C   UNL     1      -0.591   5.691   9.943  1.00  0.00     0.039 C 
ATOM      2  C   UNL     1      -0.872   4.917  11.198  1.00  0.00    -0.077 C 
ATOM      3  C   UNL     1      -1.618   5.490  12.189  1.00  0.00    -0.028 C 
ATOM      4  C   UNL     1      -1.961   4.746  13.477  1.00  0.00     0.031 C 
ATOM      5  C   UNL     1      -1.864   3.243  13.192  1.00  0.00     0.003 C 
ATOM      6  C   UNL     1      -0.343   3.103  12.808  1.00  0.00     0.003 C 
ATOM      7  C   UNL     1      -0.373   3.472  11.321  1.00  0.00     0.034 C 
ATOM      8  C   UNL     1      -1.028   2.087  13.696  1.00  0.00    -0.029 C 
ATOM      9  C   UNL     1      -0.682   2.122  15.186  1.00  0.00     0.012 C 
ATOM     10  C   UNL     1      -1.282   0.717  13.060  1.00  0.00     0.012 C 
ENDROOT
TORSDOF 0
ENDMDL
