MODEL 1
REMARK VINA RESULT:    -4.120      0.000      0.000
REMARK INTER + INTRA:          -6.046
REMARK INTER:                  -5.806
REMARK INTRA:                  -0.240
REMARK UNBOUND:                -0.240
REMARK SMILES CCCCCCCCC(=O)[O-]
REMARK SMILES IDX 6 1 7 2 8 3 9 4 10 5 11 6 5 7 4 8 3 9 2 10 1 11
REMARK H PARENT
REMARK Flexibility Score: inf
ROOT
ATOM      1  C   UNL     1      84.738 -68.273  14.344  1.00  0.00     0.000 C 
ENDROOT
BRANCH   1   2
ATOM      2  C   UNL     1      86.247 -68.537  14.267  1.00  0.00     0.006 C 
BRANCH   2   3
ATOM      3  C   UNL     1      86.535 -69.888  13.604  1.00  0.00     0.053 C 
BRANCH   3   4
ATOM      4  C   UNL     1      87.788 -70.486  14.159  1.00  0.00     0.041 C 
ATOM      5  O   UNL     1      88.874 -70.376  13.531  1.00  0.00    -0.550 OA
ATOM      6  O   UNL     1      87.769 -71.122  15.394  1.00  0.00    -0.550 OA
ENDBRANCH   3   4
ENDBRANCH   2   3
ENDBRANCH   1   2
BRANCH   1   7
ATOM      7  C   UNL     1      84.169 -68.715  15.700  1.00  0.00     0.000 C 
BRANCH   7   8
ATOM      8  C   UNL     1      82.945 -67.875  16.125  1.00  0.00    -0.000 C 
BRANCH   8   9
ATOM      9  C   UNL     1      82.833 -66.528  15.384  1.00  0.00    -0.000 C 
BRANCH   9  10
ATOM     10  C   UNL     1      81.799 -65.555  15.972  1.00  0.00    -0.003 C 
ATOM     11  C   UNL     1      80.400 -65.752  15.390  1.00  0.00     0.004 C 
ENDBRANCH   9  10
ENDBRANCH   8   9
ENDBRANCH   7   8
ENDBRANCH   1   7
TORSDOF 7
ENDMDL
MODEL 2
REMARK VINA RESULT:    -3.654     19.441     20.482
REMARK INTER + INTRA:          -5.389
REMARK INTER:                  -4.839
REMARK INTRA:                  -0.551
REMARK UNBOUND:                -0.240
REMARK SMILES CCCCCCCCC(=O)[O-]
REMARK SMILES IDX 6 1 7 2 8 3 9 4 10 5 11 6 5 7 4 8 3 9 2 10 1 11
REMARK H PARENT
REMARK Flexibility Score: inf
ROOT
ATOM      1  C   UNL     1      74.122 -72.482  -2.389  1.00  0.00     0.000 C 
ENDROOT
BRANCH   1   2
ATOM      2  C   UNL     1      74.103 -72.293  -0.867  1.00  0.00     0.006 C 
BRANCH   2   3
ATOM      3  C   UNL     1      72.839 -71.552  -0.421  1.00  0.00     0.053 C 
BRANCH   3   4
ATOM      4  C   UNL     1      73.197 -70.359   0.407  1.00  0.00     0.041 C 
ATOM      5  O   UNL     1      74.145 -69.608   0.058  1.00  0.00    -0.550 OA
ATOM      6  O   UNL     1      72.452 -70.048   1.538  1.00  0.00    -0.550 OA
ENDBRANCH   3   4
ENDBRANCH   2   3
ENDBRANCH   1   2
BRANCH   1   7
ATOM      7  C   UNL     1      74.957 -71.388  -3.071  1.00  0.00     0.000 C 
BRANCH   7   8
ATOM      8  C   UNL     1      76.035 -71.972  -4.009  1.00  0.00    -0.000 C 
BRANCH   8   9
ATOM      9  C   UNL     1      76.325 -73.465  -3.763  1.00  0.00    -0.000 C 
BRANCH   9  10
ATOM     10  C   UNL     1      77.567 -73.746  -2.901  1.00  0.00    -0.003 C 
ATOM     11  C   UNL     1      77.295 -74.742  -1.775  1.00  0.00     0.004 C 
ENDBRANCH   9  10
ENDBRANCH   8   9
ENDBRANCH   7   8
ENDBRANCH   1   7
TORSDOF 7
ENDMDL
MODEL 3
REMARK VINA RESULT:    -3.642     19.256     19.823
REMARK INTER + INTRA:          -5.371
REMARK INTER:                  -4.944
REMARK INTRA:                  -0.427
REMARK UNBOUND:                -0.240
REMARK SMILES CCCCCCCCC(=O)[O-]
REMARK SMILES IDX 6 1 7 2 8 3 9 4 10 5 11 6 5 7 4 8 3 9 2 10 1 11
REMARK H PARENT
REMARK Flexibility Score: inf
ROOT
ATOM      1  C   UNL     1      75.792 -72.591  -4.125  1.00  0.00     0.000 C 
ENDROOT
BRANCH   1   2
ATOM      2  C   UNL     1      77.114 -72.882  -3.403  1.00  0.00     0.006 C 
BRANCH   2   3
ATOM      3  C   UNL     1      77.437 -74.378  -3.431  1.00  0.00     0.053 C 
BRANCH   3   4
ATOM      4  C   UNL     1      77.647 -74.894  -2.043  1.00  0.00     0.041 C 
ATOM      5  O   UNL     1      78.758 -75.385  -1.711  1.00  0.00    -0.550 OA
ATOM      6  O   UNL     1      76.632 -74.789  -1.100  1.00  0.00    -0.550 OA
ENDBRANCH   3   4
ENDBRANCH   2   3
ENDBRANCH   1   2
BRANCH   1   7
ATOM      7  C   UNL     1      74.869 -71.722  -3.258  1.00  0.00     0.000 C 
BRANCH   7   8
ATOM      8  C   UNL     1      74.028 -72.562  -2.273  1.00  0.00    -0.000 C 
BRANCH   8   9
ATOM      9  C   UNL     1      74.196 -72.141  -0.800  1.00  0.00    -0.000 C 
BRANCH   9  10
ATOM     10  C   UNL     1      73.126 -71.166  -0.284  1.00  0.00    -0.003 C 
ATOM     11  C   UNL     1      73.722 -69.932   0.391  1.00  0.00     0.004 C 
ENDBRANCH   9  10
ENDBRANCH   8   9
ENDBRANCH   7   8
ENDBRANCH   1   7
TORSDOF 7
ENDMDL
MODEL 4
REMARK VINA RESULT:    -3.624     19.498     20.086
REMARK INTER + INTRA:          -5.347
REMARK INTER:                  -4.694
REMARK INTRA:                  -0.653
REMARK UNBOUND:                -0.240
REMARK SMILES CCCCCCCCC(=O)[O-]
REMARK SMILES IDX 6 1 7 2 8 3 9 4 10 5 11 6 5 7 4 8 3 9 2 10 1 11
REMARK H PARENT
REMARK Flexibility Score: inf
ROOT
ATOM      1  C   UNL     1      77.254 -73.240  -3.711  1.00  0.00     0.000 C 
ENDROOT
BRANCH   1   2
ATOM      2  C   UNL     1      77.442 -74.684  -3.230  1.00  0.00     0.006 C 
BRANCH   2   3
ATOM      3  C   UNL     1      78.193 -74.726  -1.896  1.00  0.00     0.053 C 
BRANCH   3   4
ATOM      4  C   UNL     1      78.186 -76.111  -1.335  1.00  0.00     0.041 C 
ATOM      5  O   UNL     1      77.432 -76.400  -0.370  1.00  0.00    -0.550 OA
ATOM      6  O   UNL     1      78.978 -77.099  -1.909  1.00  0.00    -0.550 OA
ENDBRANCH   3   4
ENDBRANCH   2   3
ENDBRANCH   1   2
BRANCH   1   7
ATOM      7  C   UNL     1      75.798 -72.981  -4.125  1.00  0.00     0.000 C 
BRANCH   7   8
ATOM      8  C   UNL     1      75.257 -71.647  -3.567  1.00  0.00    -0.000 C 
BRANCH   8   9
ATOM      9  C   UNL     1      74.507 -71.795  -2.229  1.00  0.00    -0.000 C 
BRANCH   9  10
ATOM     10  C   UNL     1      74.086 -73.233  -1.883  1.00  0.00    -0.003 C 
ATOM     11  C   UNL     1      74.793 -73.777  -0.643  1.00  0.00     0.004 C 
ENDBRANCH   9  10
ENDBRANCH   8   9
ENDBRANCH   7   8
ENDBRANCH   1   7
TORSDOF 7
ENDMDL
MODEL 5
REMARK VINA RESULT:    -3.609     19.640     20.593
REMARK INTER + INTRA:          -5.326
REMARK INTER:                  -4.593
REMARK INTRA:                  -0.733
REMARK UNBOUND:                -0.240
REMARK SMILES CCCCCCCCC(=O)[O-]
REMARK SMILES IDX 6 1 7 2 8 3 9 4 10 5 11 6 5 7 4 8 3 9 2 10 1 11
REMARK H PARENT
REMARK Flexibility Score: inf
ROOT
ATOM      1  C   UNL     1      77.537 -73.396  -3.294  1.00  0.00     0.000 C 
ENDROOT
BRANCH   1   2
ATOM      2  C   UNL     1      76.246 -72.616  -3.574  1.00  0.00     0.006 C 
BRANCH   2   3
ATOM      3  C   UNL     1      75.036 -73.316  -2.949  1.00  0.00     0.053 C 
BRANCH   3   4
ATOM      4  C   UNL     1      74.776 -72.785  -1.575  1.00  0.00     0.041 C 
ATOM      5  O   UNL     1      74.137 -71.711  -1.422  1.00  0.00    -0.550 OA
ATOM      6  O   UNL     1      75.196 -73.500  -0.461  1.00  0.00    -0.550 OA
ENDBRANCH   3   4
ENDBRANCH   2   3
ENDBRANCH   1   2
BRANCH   1   7
ATOM      7  C   UNL     1      77.552 -74.730  -4.054  1.00  0.00     0.000 C 
BRANCH   7   8
ATOM      8  C   UNL     1      78.004 -75.907  -3.163  1.00  0.00    -0.000 C 
BRANCH   8   9
ATOM      9  C   UNL     1      78.375 -75.489  -1.727  1.00  0.00    -0.000 C 
BRANCH   9  10
ATOM     10  C   UNL     1      77.522 -76.141  -0.626  1.00  0.00    -0.003 C 
ATOM     11  C   UNL     1      76.245 -76.783  -1.166  1.00  0.00     0.004 C 
ENDBRANCH   9  10
ENDBRANCH   8   9
ENDBRANCH   7   8
ENDBRANCH   1   7
TORSDOF 7
ENDMDL
MODEL 6
REMARK VINA RESULT:    -3.593     19.819     20.405
REMARK INTER + INTRA:          -5.303
REMARK INTER:                  -4.678
REMARK INTRA:                  -0.624
REMARK UNBOUND:                -0.240
REMARK SMILES CCCCCCCCC(=O)[O-]
REMARK SMILES IDX 6 1 7 2 8 3 9 4 10 5 11 6 5 7 4 8 3 9 2 10 1 11
REMARK H PARENT
REMARK Flexibility Score: inf
ROOT
ATOM      1  C   UNL     1      77.534 -74.340  -3.664  1.00  0.00     0.000 C 
ENDROOT
BRANCH   1   2
ATOM      2  C   UNL     1      77.864 -74.502  -2.176  1.00  0.00     0.006 C 
BRANCH   2   3
ATOM      3  C   UNL     1      78.598 -75.821  -1.915  1.00  0.00     0.053 C 
BRANCH   3   4
ATOM      4  C   UNL     1      77.857 -76.641  -0.908  1.00  0.00     0.041 C 
ATOM      5  O   UNL     1      76.909 -76.135  -0.252  1.00  0.00    -0.550 OA
ATOM      6  O   UNL     1      78.181 -77.980  -0.727  1.00  0.00    -0.550 OA
ENDBRANCH   3   4
ENDBRANCH   2   3
ENDBRANCH   1   2
BRANCH   1   7
ATOM      7  C   UNL     1      76.217 -75.048  -4.018  1.00  0.00     0.000 C 
BRANCH   7   8
ATOM      8  C   UNL     1      75.064 -74.645  -3.074  1.00  0.00    -0.000 C 
BRANCH   8   9
ATOM      9  C   UNL     1      74.276 -73.410  -3.552  1.00  0.00    -0.000 C 
BRANCH   9  10
ATOM     10  C   UNL     1      74.737 -72.077  -2.942  1.00  0.00    -0.003 C 
ATOM     11  C   UNL     1      75.608 -71.257  -3.893  1.00  0.00     0.004 C 
ENDBRANCH   9  10
ENDBRANCH   8   9
ENDBRANCH   7   8
ENDBRANCH   1   7
TORSDOF 7
ENDMDL
MODEL 7
REMARK VINA RESULT:    -3.540     19.553     20.576
REMARK INTER + INTRA:          -5.229
REMARK INTER:                  -4.513
REMARK INTRA:                  -0.715
REMARK UNBOUND:                -0.240
REMARK SMILES CCCCCCCCC(=O)[O-]
REMARK SMILES IDX 6 1 7 2 8 3 9 4 10 5 11 6 5 7 4 8 3 9 2 10 1 11
REMARK H PARENT
REMARK Flexibility Score: inf
ROOT
ATOM      1  C   UNL     1      76.063 -72.969  -3.188  1.00  0.00     0.000 C 
ENDROOT
BRANCH   1   2
ATOM      2  C   UNL     1      75.083 -73.827  -2.379  1.00  0.00     0.006 C 
BRANCH   2   3
ATOM      3  C   UNL     1      75.011 -73.356  -0.923  1.00  0.00     0.053 C 
BRANCH   3   4
ATOM      4  C   UNL     1      73.880 -72.396  -0.739  1.00  0.00     0.041 C 
ATOM      5  O   UNL     1      72.737 -72.817  -0.423  1.00  0.00    -0.550 OA
ATOM      6  O   UNL     1      74.099 -71.030  -0.868  1.00  0.00    -0.550 OA
ENDBRANCH   3   4
ENDBRANCH   2   3
ENDBRANCH   1   2
BRANCH   1   7
ATOM      7  C   UNL     1      77.492 -73.523  -3.091  1.00  0.00     0.000 C 
BRANCH   7   8
ATOM      8  C   UNL     1      77.654 -74.862  -3.843  1.00  0.00    -0.000 C 
BRANCH   8   9
ATOM      9  C   UNL     1      78.100 -76.028  -2.941  1.00  0.00    -0.000 C 
BRANCH   9  10
ATOM     10  C   UNL     1      78.368 -75.644  -1.477  1.00  0.00    -0.003 C 
ATOM     11  C   UNL     1      77.370 -76.273  -0.505  1.00  0.00     0.004 C 
ENDBRANCH   9  10
ENDBRANCH   8   9
ENDBRANCH   7   8
ENDBRANCH   1   7
TORSDOF 7
ENDMDL
MODEL 8
REMARK VINA RESULT:    -3.435     19.672     20.593
REMARK INTER + INTRA:          -5.080
REMARK INTER:                  -4.382
REMARK INTRA:                  -0.698
REMARK UNBOUND:                -0.240
REMARK SMILES CCCCCCCCC(=O)[O-]
REMARK SMILES IDX 6 1 7 2 8 3 9 4 10 5 11 6 5 7 4 8 3 9 2 10 1 11
REMARK H PARENT
REMARK Flexibility Score: inf
ROOT
ATOM      1  C   UNL     1      75.040 -73.455  -3.114  1.00  0.00     0.000 C 
ENDROOT
BRANCH   1   2
ATOM      2  C   UNL     1      74.578 -72.818  -1.798  1.00  0.00     0.006 C 
BRANCH   2   3
ATOM      3  C   UNL     1      75.153 -73.567  -0.593  1.00  0.00     0.053 C 
BRANCH   3   4
ATOM      4  C   UNL     1      74.480 -74.892  -0.430  1.00  0.00     0.041 C 
ATOM      5  O   UNL     1      73.253 -74.949  -0.151  1.00  0.00    -0.550 OA
ATOM      6  O   UNL     1      75.195 -76.066  -0.634  1.00  0.00    -0.550 OA
ENDBRANCH   3   4
ENDBRANCH   2   3
ENDBRANCH   1   2
BRANCH   1   7
ATOM      7  C   UNL     1      76.119 -72.598  -3.794  1.00  0.00     0.000 C 
BRANCH   7   8
ATOM      8  C   UNL     1      77.536 -73.181  -3.603  1.00  0.00    -0.000 C 
BRANCH   8   9
ATOM      9  C   UNL     1      77.545 -74.673  -3.219  1.00  0.00    -0.000 C 
BRANCH   9  10
ATOM     10  C   UNL     1      78.288 -74.997  -1.913  1.00  0.00    -0.003 C 
ATOM     11  C   UNL     1      78.620 -76.481  -1.771  1.00  0.00     0.004 C 
ENDBRANCH   9  10
ENDBRANCH   8   9
ENDBRANCH   7   8
ENDBRANCH   1   7
TORSDOF 7
ENDMDL
MODEL 9
REMARK VINA RESULT:    -3.411     19.885     20.705
REMARK INTER + INTRA:          -5.046
REMARK INTER:                  -4.275
REMARK INTRA:                  -0.771
REMARK UNBOUND:                -0.240
REMARK SMILES CCCCCCCCC(=O)[O-]
REMARK SMILES IDX 6 1 7 2 8 3 9 4 10 5 11 6 5 7 4 8 3 9 2 10 1 11
REMARK H PARENT
REMARK Flexibility Score: inf
ROOT
ATOM      1  C   UNL     1      77.694 -73.994  -2.224  1.00  0.00     0.000 C 
ENDROOT
BRANCH   1   2
ATOM      2  C   UNL     1      77.304 -74.032  -3.707  1.00  0.00     0.006 C 
BRANCH   2   3
ATOM      3  C   UNL     1      75.793 -73.859  -3.883  1.00  0.00     0.053 C 
BRANCH   3   4
ATOM      4  C   UNL     1      75.371 -72.485  -3.472  1.00  0.00     0.041 C 
ATOM      5  O   UNL     1      74.580 -72.328  -2.505  1.00  0.00    -0.550 OA
ATOM      6  O   UNL     1      75.889 -71.373  -4.125  1.00  0.00    -0.550 OA
ENDBRANCH   3   4
ENDBRANCH   2   3
ENDBRANCH   1   2
BRANCH   1   7
ATOM      7  C   UNL     1      78.362 -75.309  -1.795  1.00  0.00     0.000 C 
BRANCH   7   8
ATOM      8  C   UNL     1      77.523 -76.080  -0.753  1.00  0.00    -0.000 C 
BRANCH   8   9
ATOM      9  C   UNL     1      76.490 -77.037  -1.378  1.00  0.00    -0.000 C 
BRANCH   9  10
ATOM     10  C   UNL     1      75.027 -76.583  -1.242  1.00  0.00    -0.003 C 
ATOM     11  C   UNL     1      74.878 -75.297  -0.430  1.00  0.00     0.004 C 
ENDBRANCH   9  10
ENDBRANCH   8   9
ENDBRANCH   7   8
ENDBRANCH   1   7
TORSDOF 7
ENDMDL
