MODEL 1
REMARK VINA RESULT:    -3.986      0.000      0.000
REMARK INTER + INTRA:         -11.294
REMARK INTER:                  -9.113
REMARK INTRA:                  -2.180
REMARK UNBOUND:                -2.180
REMARK SMILES CCCCCCCCCCCCCCCCCCCCCCCC(=O)[O-]
REMARK SMILES IDX 13 1 14 2 15 3 16 4 17 5 18 6 19 7 20 8 21 9 22 10 23 11
REMARK SMILES IDX 24 12 25 13 26 14 12 15 11 16 10 17 9 18 8 19 7 20 6 21 5 22
REMARK SMILES IDX 4 23 3 24 2 25 1 26
REMARK H PARENT
REMARK Flexibility Score: inf
ROOT
ATOM      1  C   UNL     1     -43.514  27.820  -0.164  1.00  0.00     0.000 C 
ENDROOT
BRANCH   1   2
ATOM      2  C   UNL     1     -42.282  28.621   0.292  1.00  0.00     0.000 C 
BRANCH   2   3
ATOM      3  C   UNL     1     -42.652  29.910   1.048  1.00  0.00     0.000 C 
BRANCH   3   4
ATOM      4  C   UNL     1     -43.241  29.693   2.454  1.00  0.00     0.000 C 
BRANCH   4   5
ATOM      5  C   UNL     1     -43.041  28.258   2.971  1.00  0.00     0.000 C 
BRANCH   5   6
ATOM      6  C   UNL     1     -44.367  27.497   3.152  1.00  0.00     0.000 C 
BRANCH   6   7
ATOM      7  C   UNL     1     -45.628  28.380   3.152  1.00  0.00     0.000 C 
BRANCH   7   8
ATOM      8  C   UNL     1     -46.150  28.681   4.569  1.00  0.00     0.000 C 
BRANCH   8   9
ATOM      9  C   UNL     1     -46.389  27.407   5.393  1.00  0.00     0.000 C 
BRANCH   9  10
ATOM     10  C   UNL     1     -45.388  27.253   6.552  1.00  0.00     0.006 C 
BRANCH  10  11
ATOM     11  C   UNL     1     -44.834  28.605   7.022  1.00  0.00     0.053 C 
BRANCH  11  12
ATOM     12  C   UNL     1     -43.338  28.660   6.925  1.00  0.00     0.041 C 
ATOM     13  O   UNL     1     -42.631  27.866   7.599  1.00  0.00    -0.550 OA
ATOM     14  O   UNL     1     -42.728  29.608   6.114  1.00  0.00    -0.550 OA
ENDBRANCH  11  12
ENDBRANCH  10  11
ENDBRANCH   9  10
ENDBRANCH   8   9
ENDBRANCH   7   8
ENDBRANCH   6   7
ENDBRANCH   5   6
ENDBRANCH   4   5
ENDBRANCH   3   4
ENDBRANCH   2   3
ENDBRANCH   1   2
BRANCH   1  15
ATOM     15  C   UNL     1     -44.534  28.683  -0.923  1.00  0.00     0.000 C 
BRANCH  15  16
ATOM     16  C   UNL     1     -45.890  27.984  -1.108  1.00  0.00     0.000 C 
BRANCH  16  17
ATOM     17  C   UNL     1     -45.738  26.459  -1.015  1.00  0.00     0.000 C 
BRANCH  17  18
ATOM     18  C   UNL     1     -45.730  25.779  -2.393  1.00  0.00    -0.000 C 
BRANCH  18  19
ATOM     19  C   UNL     1     -47.090  25.868  -3.107  1.00  0.00    -0.000 C 
BRANCH  19  20
ATOM     20  C   UNL     1     -47.042  26.788  -4.346  1.00  0.00    -0.000 C 
BRANCH  20  21
ATOM     21  C   UNL     1     -45.956  26.400  -5.369  1.00  0.00    -0.000 C 
BRANCH  21  22
ATOM     22  C   UNL     1     -46.382  26.522  -6.842  1.00  0.00    -0.000 C 
BRANCH  22  23
ATOM     23  C   UNL     1     -46.441  27.983  -7.324  1.00  0.00    -0.000 C 
BRANCH  23  24
ATOM     24  C   UNL     1     -45.117  28.735  -7.091  1.00  0.00    -0.000 C 
BRANCH  24  25
ATOM     25  C   UNL     1     -45.287  30.125  -6.452  1.00  0.00    -0.003 C 
ATOM     26  C   UNL     1     -45.852  30.060  -5.033  1.00  0.00     0.004 C 
ENDBRANCH  24  25
ENDBRANCH  23  24
ENDBRANCH  22  23
ENDBRANCH  21  22
ENDBRANCH  20  21
ENDBRANCH  19  20
ENDBRANCH  18  19
ENDBRANCH  17  18
ENDBRANCH  16  17
ENDBRANCH  15  16
ENDBRANCH   1  15
TORSDOF 22
ENDMDL
MODEL 2
REMARK VINA RESULT:    -3.966      4.672     10.392
REMARK INTER + INTRA:         -11.248
REMARK INTER:                  -8.540
REMARK INTRA:                  -2.708
REMARK UNBOUND:                -2.180
REMARK SMILES CCCCCCCCCCCCCCCCCCCCCCCC(=O)[O-]
REMARK SMILES IDX 13 1 14 2 15 3 16 4 17 5 18 6 19 7 20 8 21 9 22 10 23 11
REMARK SMILES IDX 24 12 25 13 26 14 12 15 11 16 10 17 9 18 8 19 7 20 6 21 5 22
REMARK SMILES IDX 4 23 3 24 2 25 1 26
REMARK H PARENT
REMARK Flexibility Score: inf
ROOT
ATOM      1  C   UNL     1     -43.062  27.122   1.629  1.00  0.00     0.000 C 
ENDROOT
BRANCH   1   2
ATOM      2  C   UNL     1     -42.444  28.173   0.691  1.00  0.00     0.000 C 
BRANCH   2   3
ATOM      3  C   UNL     1     -43.279  28.404  -0.583  1.00  0.00     0.000 C 
BRANCH   3   4
ATOM      4  C   UNL     1     -44.587  29.188  -0.370  1.00  0.00     0.000 C 
BRANCH   4   5
ATOM      5  C   UNL     1     -45.808  28.496  -1.002  1.00  0.00     0.000 C 
BRANCH   5   6
ATOM      6  C   UNL     1     -45.847  26.982  -0.723  1.00  0.00     0.000 C 
BRANCH   6   7
ATOM      7  C   UNL     1     -45.576  26.089  -1.948  1.00  0.00     0.000 C 
BRANCH   7   8
ATOM      8  C   UNL     1     -46.807  25.932  -2.860  1.00  0.00     0.000 C 
BRANCH   8   9
ATOM      9  C   UNL     1     -46.780  26.894  -4.058  1.00  0.00     0.000 C 
BRANCH   9  10
ATOM     10  C   UNL     1     -46.985  26.174  -5.402  1.00  0.00     0.006 C 
BRANCH  10  11
ATOM     11  C   UNL     1     -46.020  26.679  -6.483  1.00  0.00     0.053 C 
BRANCH  11  12
ATOM     12  C   UNL     1     -46.542  26.418  -7.864  1.00  0.00     0.041 C 
ATOM     13  O   UNL     1     -46.750  25.237  -8.250  1.00  0.00    -0.550 OA
ATOM     14  O   UNL     1     -46.769  27.477  -8.734  1.00  0.00    -0.550 OA
ENDBRANCH  11  12
ENDBRANCH  10  11
ENDBRANCH   9  10
ENDBRANCH   8   9
ENDBRANCH   7   8
ENDBRANCH   6   7
ENDBRANCH   5   6
ENDBRANCH   4   5
ENDBRANCH   3   4
ENDBRANCH   2   3
ENDBRANCH   1   2
BRANCH   1  15
ATOM     15  C   UNL     1     -43.862  27.753   2.780  1.00  0.00     0.000 C 
BRANCH  15  16
ATOM     16  C   UNL     1     -43.290  29.104   3.238  1.00  0.00     0.000 C 
BRANCH  16  17
ATOM     17  C   UNL     1     -44.408  30.037   3.723  1.00  0.00     0.000 C 
BRANCH  17  18
ATOM     18  C   UNL     1     -45.742  29.304   3.934  1.00  0.00    -0.000 C 
BRANCH  18  19
ATOM     19  C   UNL     1     -46.709  30.080   4.845  1.00  0.00    -0.000 C 
BRANCH  19  20
ATOM     20  C   UNL     1     -46.638  29.608   6.313  1.00  0.00    -0.000 C 
BRANCH  20  21
ATOM     21  C   UNL     1     -46.756  28.080   6.483  1.00  0.00    -0.000 C 
BRANCH  21  22
ATOM     22  C   UNL     1     -46.394  27.555   7.882  1.00  0.00    -0.000 C 
BRANCH  22  23
ATOM     23  C   UNL     1     -44.881  27.611   8.164  1.00  0.00    -0.000 C 
BRANCH  23  24
ATOM     24  C   UNL     1     -44.039  27.152   6.957  1.00  0.00    -0.000 C 
BRANCH  24  25
ATOM     25  C   UNL     1     -42.867  28.090   6.617  1.00  0.00    -0.003 C 
ATOM     26  C   UNL     1     -43.034  29.489   7.211  1.00  0.00     0.004 C 
ENDBRANCH  24  25
ENDBRANCH  23  24
ENDBRANCH  22  23
ENDBRANCH  21  22
ENDBRANCH  20  21
ENDBRANCH  19  20
ENDBRANCH  18  19
ENDBRANCH  17  18
ENDBRANCH  16  17
ENDBRANCH  15  16
ENDBRANCH   1  15
TORSDOF 22
ENDMDL
MODEL 3
REMARK VINA RESULT:    -3.890      4.609     10.266
REMARK INTER + INTRA:         -11.073
REMARK INTER:                  -8.820
REMARK INTRA:                  -2.254
REMARK UNBOUND:                -2.180
REMARK SMILES CCCCCCCCCCCCCCCCCCCCCCCC(=O)[O-]
REMARK SMILES IDX 13 1 14 2 15 3 16 4 17 5 18 6 19 7 20 8 21 9 22 10 23 11
REMARK SMILES IDX 24 12 25 13 26 14 12 15 11 16 10 17 9 18 8 19 7 20 6 21 5 22
REMARK SMILES IDX 4 23 3 24 2 25 1 26
REMARK H PARENT
REMARK Flexibility Score: inf
ROOT
ATOM      1  C   UNL     1     -43.884  30.110  -0.237  1.00  0.00     0.000 C 
ENDROOT
BRANCH   1   2
ATOM      2  C   UNL     1     -45.045  29.243  -0.752  1.00  0.00     0.000 C 
BRANCH   2   3
ATOM      3  C   UNL     1     -46.159  29.053   0.294  1.00  0.00     0.000 C 
BRANCH   3   4
ATOM      4  C   UNL     1     -46.667  27.608   0.448  1.00  0.00     0.000 C 
BRANCH   4   5
ATOM      5  C   UNL     1     -47.064  26.967  -0.893  1.00  0.00     0.000 C 
BRANCH   5   6
ATOM      6  C   UNL     1     -45.869  26.333  -1.630  1.00  0.00     0.000 C 
BRANCH   6   7
ATOM      7  C   UNL     1     -45.992  26.307  -3.165  1.00  0.00     0.000 C 
BRANCH   7   8
ATOM      8  C   UNL     1     -46.662  27.571  -3.734  1.00  0.00     0.000 C 
BRANCH   8   9
ATOM      9  C   UNL     1     -46.884  27.489  -5.252  1.00  0.00     0.000 C 
BRANCH   9  10
ATOM     10  C   UNL     1     -46.100  26.336  -5.905  1.00  0.00     0.006 C 
BRANCH  10  11
ATOM     11  C   UNL     1     -45.469  26.749  -7.242  1.00  0.00     0.053 C 
BRANCH  11  12
ATOM     12  C   UNL     1     -46.509  27.065  -8.276  1.00  0.00     0.041 C 
ATOM     13  O   UNL     1     -46.849  28.259  -8.487  1.00  0.00    -0.550 OA
ATOM     14  O   UNL     1     -47.123  26.039  -8.982  1.00  0.00    -0.550 OA
ENDBRANCH  11  12
ENDBRANCH  10  11
ENDBRANCH   9  10
ENDBRANCH   8   9
ENDBRANCH   7   8
ENDBRANCH   6   7
ENDBRANCH   5   6
ENDBRANCH   4   5
ENDBRANCH   3   4
ENDBRANCH   2   3
ENDBRANCH   1   2
BRANCH   1  15
ATOM     15  C   UNL     1     -42.603  29.298   0.013  1.00  0.00     0.000 C 
BRANCH  15  16
ATOM     16  C   UNL     1     -42.874  27.797   0.205  1.00  0.00     0.000 C 
BRANCH  16  17
ATOM     17  C   UNL     1     -43.179  27.479   1.676  1.00  0.00     0.000 C 
BRANCH  17  18
ATOM     18  C   UNL     1     -42.870  28.657   2.613  1.00  0.00    -0.000 C 
BRANCH  18  19
ATOM     19  C   UNL     1     -43.752  28.660   3.875  1.00  0.00    -0.000 C 
BRANCH  19  20
ATOM     20  C   UNL     1     -44.918  27.653   3.776  1.00  0.00    -0.000 C 
BRANCH  20  21
ATOM     21  C   UNL     1     -46.258  28.196   4.312  1.00  0.00    -0.000 C 
BRANCH  21  22
ATOM     22  C   UNL     1     -46.924  27.324   5.390  1.00  0.00    -0.000 C 
BRANCH  22  23
ATOM     23  C   UNL     1     -45.933  26.856   6.471  1.00  0.00    -0.000 C 
BRANCH  23  24
ATOM     24  C   UNL     1     -45.938  27.770   7.711  1.00  0.00    -0.000 C 
BRANCH  24  25
ATOM     25  C   UNL     1     -44.545  28.012   8.319  1.00  0.00    -0.003 C 
ATOM     26  C   UNL     1     -43.409  27.609   7.378  1.00  0.00     0.004 C 
ENDBRANCH  24  25
ENDBRANCH  23  24
ENDBRANCH  22  23
ENDBRANCH  21  22
ENDBRANCH  20  21
ENDBRANCH  19  20
ENDBRANCH  18  19
ENDBRANCH  17  18
ENDBRANCH  16  17
ENDBRANCH  15  16
ENDBRANCH   1  15
TORSDOF 22
ENDMDL
MODEL 4
REMARK VINA RESULT:    -3.554      1.370      3.766
REMARK INTER + INTRA:         -10.306
REMARK INTER:                  -8.101
REMARK INTRA:                  -2.205
REMARK UNBOUND:                -2.180
REMARK SMILES CCCCCCCCCCCCCCCCCCCCCCCC(=O)[O-]
REMARK SMILES IDX 13 1 14 2 15 3 16 4 17 5 18 6 19 7 20 8 21 9 22 10 23 11
REMARK SMILES IDX 24 12 25 13 26 14 12 15 11 16 10 17 9 18 8 19 7 20 6 21 5 22
REMARK SMILES IDX 4 23 3 24 2 25 1 26
REMARK H PARENT
REMARK Flexibility Score: inf
ROOT
ATOM      1  C   UNL     1     -45.214  27.522   2.188  1.00  0.00     0.000 C 
ENDROOT
BRANCH   1   2
ATOM      2  C   UNL     1     -46.306  28.042   3.138  1.00  0.00     0.000 C 
BRANCH   2   3
ATOM      3  C   UNL     1     -46.306  29.576   3.267  1.00  0.00     0.000 C 
BRANCH   3   4
ATOM      4  C   UNL     1     -47.024  30.125   4.514  1.00  0.00     0.000 C 
BRANCH   4   5
ATOM      5  C   UNL     1     -46.163  30.036   5.786  1.00  0.00     0.000 C 
BRANCH   5   6
ATOM      6  C   UNL     1     -46.948  29.516   7.005  1.00  0.00     0.000 C 
BRANCH   6   7
ATOM      7  C   UNL     1     -46.945  27.986   7.175  1.00  0.00     0.000 C 
BRANCH   7   8
ATOM      8  C   UNL     1     -46.405  27.536   8.545  1.00  0.00     0.000 C 
BRANCH   8   9
ATOM      9  C   UNL     1     -45.293  28.457   9.073  1.00  0.00     0.000 C 
BRANCH   9  10
ATOM     10  C   UNL     1     -43.885  27.884   8.832  1.00  0.00     0.006 C 
BRANCH  10  11
ATOM     11  C   UNL     1     -43.059  28.761   7.880  1.00  0.00     0.053 C 
BRANCH  11  12
ATOM     12  C   UNL     1     -42.965  28.160   6.509  1.00  0.00     0.041 C 
ATOM     13  O   UNL     1     -43.379  26.990   6.300  1.00  0.00    -0.550 OA
ATOM     14  O   UNL     1     -42.390  28.883   5.471  1.00  0.00    -0.550 OA
ENDBRANCH  11  12
ENDBRANCH  10  11
ENDBRANCH   9  10
ENDBRANCH   8   9
ENDBRANCH   7   8
ENDBRANCH   6   7
ENDBRANCH   5   6
ENDBRANCH   4   5
ENDBRANCH   3   4
ENDBRANCH   2   3
ENDBRANCH   1   2
BRANCH   1  15
ATOM     15  C   UNL     1     -43.795  27.752   2.735  1.00  0.00     0.000 C 
BRANCH  15  16
ATOM     16  C   UNL     1     -42.951  28.675   1.841  1.00  0.00     0.000 C 
BRANCH  16  17
ATOM     17  C   UNL     1     -42.604  27.986   0.514  1.00  0.00     0.000 C 
BRANCH  17  18
ATOM     18  C   UNL     1     -43.070  28.790  -0.710  1.00  0.00    -0.000 C 
BRANCH  18  19
ATOM     19  C   UNL     1     -44.547  29.213  -0.616  1.00  0.00    -0.000 C 
BRANCH  19  20
ATOM     20  C   UNL     1     -45.467  28.325  -1.480  1.00  0.00    -0.000 C 
BRANCH  20  21
ATOM     21  C   UNL     1     -45.196  26.814  -1.329  1.00  0.00    -0.000 C 
BRANCH  21  22
ATOM     22  C   UNL     1     -45.970  25.918  -2.310  1.00  0.00    -0.000 C 
BRANCH  22  23
ATOM     23  C   UNL     1     -46.712  26.724  -3.392  1.00  0.00    -0.000 C 
BRANCH  23  24
ATOM     24  C   UNL     1     -46.060  26.586  -4.782  1.00  0.00    -0.000 C 
BRANCH  24  25
ATOM     25  C   UNL     1     -45.873  27.921  -5.524  1.00  0.00    -0.003 C 
ATOM     26  C   UNL     1     -45.495  27.735  -6.993  1.00  0.00     0.004 C 
ENDBRANCH  24  25
ENDBRANCH  23  24
ENDBRANCH  22  23
ENDBRANCH  21  22
ENDBRANCH  20  21
ENDBRANCH  19  20
ENDBRANCH  18  19
ENDBRANCH  17  18
ENDBRANCH  16  17
ENDBRANCH  15  16
ENDBRANCH   1  15
TORSDOF 22
ENDMDL
MODEL 5
REMARK VINA RESULT:    -3.537      4.123     10.398
REMARK INTER + INTRA:         -10.267
REMARK INTER:                  -7.599
REMARK INTRA:                  -2.669
REMARK UNBOUND:                -2.180
REMARK SMILES CCCCCCCCCCCCCCCCCCCCCCCC(=O)[O-]
REMARK SMILES IDX 13 1 14 2 15 3 16 4 17 5 18 6 19 7 20 8 21 9 22 10 23 11
REMARK SMILES IDX 24 12 25 13 26 14 12 15 11 16 10 17 9 18 8 19 7 20 6 21 5 22
REMARK SMILES IDX 4 23 3 24 2 25 1 26
REMARK H PARENT
REMARK Flexibility Score: inf
ROOT
ATOM      1  C   UNL     1     -43.272  27.790   0.039  1.00  0.00     0.000 C 
ENDROOT
BRANCH   1   2
ATOM      2  C   UNL     1     -44.156  26.790  -0.727  1.00  0.00     0.000 C 
BRANCH   2   3
ATOM      3  C   UNL     1     -45.622  27.248  -0.834  1.00  0.00     0.000 C 
BRANCH   3   4
ATOM      4  C   UNL     1     -45.870  28.418  -1.803  1.00  0.00     0.000 C 
BRANCH   4   5
ATOM      5  C   UNL     1     -46.938  28.100  -2.864  1.00  0.00     0.000 C 
BRANCH   5   6
ATOM      6  C   UNL     1     -46.801  26.679  -3.443  1.00  0.00     0.000 C 
BRANCH   6   7
ATOM      7  C   UNL     1     -45.941  26.575  -4.715  1.00  0.00     0.000 C 
BRANCH   7   8
ATOM      8  C   UNL     1     -46.750  26.146  -5.953  1.00  0.00     0.000 C 
BRANCH   8   9
ATOM      9  C   UNL     1     -46.067  26.540  -7.272  1.00  0.00     0.000 C 
BRANCH   9  10
ATOM     10  C   UNL     1     -47.053  27.125  -8.299  1.00  0.00     0.006 C 
BRANCH  10  11
ATOM     11  C   UNL     1     -46.721  28.580  -8.658  1.00  0.00     0.053 C 
BRANCH  11  12
ATOM     12  C   UNL     1     -46.243  29.354  -7.466  1.00  0.00     0.041 C 
ATOM     13  O   UNL     1     -47.052  29.687  -6.561  1.00  0.00    -0.550 OA
ATOM     14  O   UNL     1     -44.909  29.732  -7.371  1.00  0.00    -0.550 OA
ENDBRANCH  11  12
ENDBRANCH  10  11
ENDBRANCH   9  10
ENDBRANCH   8   9
ENDBRANCH   7   8
ENDBRANCH   6   7
ENDBRANCH   5   6
ENDBRANCH   4   5
ENDBRANCH   3   4
ENDBRANCH   2   3
ENDBRANCH   1   2
BRANCH   1  15
ATOM     15  C   UNL     1     -42.980  27.341   1.480  1.00  0.00     0.000 C 
BRANCH  15  16
ATOM     16  C   UNL     1     -43.379  28.393   2.527  1.00  0.00     0.000 C 
BRANCH  16  17
ATOM     17  C   UNL     1     -44.137  29.556   1.874  1.00  0.00     0.000 C 
BRANCH  17  18
ATOM     18  C   UNL     1     -45.587  29.671   2.371  1.00  0.00    -0.000 C 
BRANCH  18  19
ATOM     19  C   UNL     1     -46.187  28.312   2.773  1.00  0.00    -0.000 C 
BRANCH  19  20
ATOM     20  C   UNL     1     -46.855  28.355   4.164  1.00  0.00    -0.000 C 
BRANCH  20  21
ATOM     21  C   UNL     1     -46.522  29.622   4.977  1.00  0.00    -0.000 C 
BRANCH  21  22
ATOM     22  C   UNL     1     -46.754  29.497   6.493  1.00  0.00    -0.000 C 
BRANCH  22  23
ATOM     23  C   UNL     1     -45.546  28.890   7.230  1.00  0.00    -0.000 C 
BRANCH  23  24
ATOM     24  C   UNL     1     -44.221  29.115   6.477  1.00  0.00    -0.000 C 
BRANCH  24  25
ATOM     25  C   UNL     1     -43.292  27.888   6.459  1.00  0.00    -0.003 C 
ATOM     26  C   UNL     1     -43.922  26.678   5.769  1.00  0.00     0.004 C 
ENDBRANCH  24  25
ENDBRANCH  23  24
ENDBRANCH  22  23
ENDBRANCH  21  22
ENDBRANCH  20  21
ENDBRANCH  19  20
ENDBRANCH  18  19
ENDBRANCH  17  18
ENDBRANCH  16  17
ENDBRANCH  15  16
ENDBRANCH   1  15
TORSDOF 22
ENDMDL
MODEL 6
REMARK VINA RESULT:    -3.514      4.256     10.651
REMARK INTER + INTRA:         -10.213
REMARK INTER:                  -8.528
REMARK INTRA:                  -1.685
REMARK UNBOUND:                -2.180
REMARK SMILES CCCCCCCCCCCCCCCCCCCCCCCC(=O)[O-]
REMARK SMILES IDX 13 1 14 2 15 3 16 4 17 5 18 6 19 7 20 8 21 9 22 10 23 11
REMARK SMILES IDX 24 12 25 13 26 14 12 15 11 16 10 17 9 18 8 19 7 20 6 21 5 22
REMARK SMILES IDX 4 23 3 24 2 25 1 26
REMARK H PARENT
REMARK Flexibility Score: inf
ROOT
ATOM      1  C   UNL     1     -44.190  28.543   1.412  1.00  0.00     0.000 C 
ENDROOT
BRANCH   1   2
ATOM      2  C   UNL     1     -43.753  28.878  -0.025  1.00  0.00     0.000 C 
BRANCH   2   3
ATOM      3  C   UNL     1     -44.860  28.615  -1.063  1.00  0.00     0.000 C 
BRANCH   3   4
ATOM      4  C   UNL     1     -45.734  27.379  -0.784  1.00  0.00     0.000 C 
BRANCH   4   5
ATOM      5  C   UNL     1     -45.166  26.093  -1.410  1.00  0.00     0.000 C 
BRANCH   5   6
ATOM      6  C   UNL     1     -45.699  25.834  -2.832  1.00  0.00     0.000 C 
BRANCH   6   7
ATOM      7  C   UNL     1     -47.045  26.507  -3.154  1.00  0.00     0.000 C 
BRANCH   7   8
ATOM      8  C   UNL     1     -46.883  27.914  -3.758  1.00  0.00     0.000 C 
BRANCH   8   9
ATOM      9  C   UNL     1     -46.841  27.896  -5.294  1.00  0.00     0.000 C 
BRANCH   9  10
ATOM     10  C   UNL     1     -45.747  28.813  -5.869  1.00  0.00     0.006 C 
BRANCH  10  11
ATOM     11  C   UNL     1     -45.381  28.443  -7.313  1.00  0.00     0.053 C 
BRANCH  11  12
ATOM     12  C   UNL     1     -45.791  27.040  -7.652  1.00  0.00     0.041 C 
ATOM     13  O   UNL     1     -45.183  26.063  -7.142  1.00  0.00    -0.550 OA
ATOM     14  O   UNL     1     -46.823  26.815  -8.554  1.00  0.00    -0.550 OA
ENDBRANCH  11  12
ENDBRANCH  10  11
ENDBRANCH   9  10
ENDBRANCH   8   9
ENDBRANCH   7   8
ENDBRANCH   6   7
ENDBRANCH   5   6
ENDBRANCH   4   5
ENDBRANCH   3   4
ENDBRANCH   2   3
ENDBRANCH   1   2
BRANCH   1  15
ATOM     15  C   UNL     1     -43.570  29.487   2.455  1.00  0.00     0.000 C 
BRANCH  15  16
ATOM     16  C   UNL     1     -43.062  28.749   3.703  1.00  0.00     0.000 C 
BRANCH  16  17
ATOM     17  C   UNL     1     -43.076  29.672   4.930  1.00  0.00     0.000 C 
BRANCH  17  18
ATOM     18  C   UNL     1     -43.151  28.896   6.254  1.00  0.00    -0.000 C 
BRANCH  18  19
ATOM     19  C   UNL     1     -43.292  29.820   7.477  1.00  0.00    -0.000 C 
BRANCH  19  20
ATOM     20  C   UNL     1     -44.151  29.188   8.593  1.00  0.00    -0.000 C 
BRANCH  20  21
ATOM     21  C   UNL     1     -44.438  27.688   8.385  1.00  0.00    -0.000 C 
BRANCH  21  22
ATOM     22  C   UNL     1     -45.928  27.306   8.397  1.00  0.00    -0.000 C 
BRANCH  22  23
ATOM     23  C   UNL     1     -46.746  28.074   7.343  1.00  0.00    -0.000 C 
BRANCH  23  24
ATOM     24  C   UNL     1     -47.007  27.238   6.075  1.00  0.00    -0.000 C 
BRANCH  24  25
ATOM     25  C   UNL     1     -46.441  27.859   4.785  1.00  0.00    -0.003 C 
ATOM     26  C   UNL     1     -46.725  29.358   4.675  1.00  0.00     0.004 C 
ENDBRANCH  24  25
ENDBRANCH  23  24
ENDBRANCH  22  23
ENDBRANCH  21  22
ENDBRANCH  20  21
ENDBRANCH  19  20
ENDBRANCH  18  19
ENDBRANCH  17  18
ENDBRANCH  16  17
ENDBRANCH  15  16
ENDBRANCH   1  15
TORSDOF 22
ENDMDL
MODEL 7
REMARK VINA RESULT:    -3.494      4.194     10.462
REMARK INTER + INTRA:         -10.169
REMARK INTER:                  -7.996
REMARK INTRA:                  -2.173
REMARK UNBOUND:                -2.180
REMARK SMILES CCCCCCCCCCCCCCCCCCCCCCCC(=O)[O-]
REMARK SMILES IDX 13 1 14 2 15 3 16 4 17 5 18 6 19 7 20 8 21 9 22 10 23 11
REMARK SMILES IDX 24 12 25 13 26 14 12 15 11 16 10 17 9 18 8 19 7 20 6 21 5 22
REMARK SMILES IDX 4 23 3 24 2 25 1 26
REMARK H PARENT
REMARK Flexibility Score: inf
ROOT
ATOM      1  C   UNL     1     -43.469  28.701   3.004  1.00  0.00     0.000 C 
ENDROOT
BRANCH   1   2
ATOM      2  C   UNL     1     -42.682  29.374   1.867  1.00  0.00     0.000 C 
BRANCH   2   3
ATOM      3  C   UNL     1     -43.452  29.389   0.533  1.00  0.00     0.000 C 
BRANCH   3   4
ATOM      4  C   UNL     1     -43.153  28.205  -0.405  1.00  0.00     0.000 C 
BRANCH   4   5
ATOM      5  C   UNL     1     -44.115  27.022  -0.199  1.00  0.00     0.000 C 
BRANCH   5   6
ATOM      6  C   UNL     1     -45.595  27.449  -0.192  1.00  0.00     0.000 C 
BRANCH   6   7
ATOM      7  C   UNL     1     -46.523  26.590  -1.071  1.00  0.00     0.000 C 
BRANCH   7   8
ATOM      8  C   UNL     1     -45.856  26.134  -2.381  1.00  0.00     0.000 C 
BRANCH   8   9
ATOM      9  C   UNL     1     -46.786  26.272  -3.597  1.00  0.00     0.000 C 
BRANCH   9  10
ATOM     10  C   UNL     1     -46.159  27.099  -4.733  1.00  0.00     0.006 C 
BRANCH  10  11
ATOM     11  C   UNL     1     -45.874  26.248  -5.979  1.00  0.00     0.053 C 
BRANCH  11  12
ATOM     12  C   UNL     1     -45.794  27.086  -7.220  1.00  0.00     0.041 C 
ATOM     13  O   UNL     1     -45.319  28.251  -7.168  1.00  0.00    -0.550 OA
ATOM     14  O   UNL     1     -46.271  26.590  -8.427  1.00  0.00    -0.550 OA
ENDBRANCH  11  12
ENDBRANCH  10  11
ENDBRANCH   9  10
ENDBRANCH   8   9
ENDBRANCH   7   8
ENDBRANCH   6   7
ENDBRANCH   5   6
ENDBRANCH   4   5
ENDBRANCH   3   4
ENDBRANCH   2   3
ENDBRANCH   1   2
BRANCH   1  15
ATOM     15  C   UNL     1     -44.796  29.414   3.309  1.00  0.00     0.000 C 
BRANCH  15  16
ATOM     16  C   UNL     1     -45.903  28.450   3.764  1.00  0.00     0.000 C 
BRANCH  16  17
ATOM     17  C   UNL     1     -47.121  29.222   4.290  1.00  0.00     0.000 C 
BRANCH  17  18
ATOM     18  C   UNL     1     -47.104  29.385   5.818  1.00  0.00    -0.000 C 
BRANCH  18  19
ATOM     19  C   UNL     1     -46.917  28.047   6.556  1.00  0.00    -0.000 C 
BRANCH  19  20
ATOM     20  C   UNL     1     -46.946  28.215   8.090  1.00  0.00    -0.000 C 
BRANCH  20  21
ATOM     21  C   UNL     1     -45.576  28.562   8.706  1.00  0.00    -0.000 C 
BRANCH  21  22
ATOM     22  C   UNL     1     -44.916  29.831   8.142  1.00  0.00    -0.000 C 
BRANCH  22  23
ATOM     23  C   UNL     1     -43.379  29.748   8.134  1.00  0.00    -0.000 C 
BRANCH  23  24
ATOM     24  C   UNL     1     -42.867  28.301   8.004  1.00  0.00    -0.000 C 
BRANCH  24  25
ATOM     25  C   UNL     1     -42.701  27.822   6.551  1.00  0.00    -0.003 C 
ATOM     26  C   UNL     1     -43.695  26.723   6.172  1.00  0.00     0.004 C 
ENDBRANCH  24  25
ENDBRANCH  23  24
ENDBRANCH  22  23
ENDBRANCH  21  22
ENDBRANCH  20  21
ENDBRANCH  19  20
ENDBRANCH  18  19
ENDBRANCH  17  18
ENDBRANCH  16  17
ENDBRANCH  15  16
ENDBRANCH   1  15
TORSDOF 22
ENDMDL
MODEL 8
REMARK VINA RESULT:    -3.440      4.487     10.812
REMARK INTER + INTRA:         -10.046
REMARK INTER:                  -7.942
REMARK INTRA:                  -2.104
REMARK UNBOUND:                -2.180
REMARK SMILES CCCCCCCCCCCCCCCCCCCCCCCC(=O)[O-]
REMARK SMILES IDX 13 1 14 2 15 3 16 4 17 5 18 6 19 7 20 8 21 9 22 10 23 11
REMARK SMILES IDX 24 12 25 13 26 14 12 15 11 16 10 17 9 18 8 19 7 20 6 21 5 22
REMARK SMILES IDX 4 23 3 24 2 25 1 26
REMARK H PARENT
REMARK Flexibility Score: inf
ROOT
ATOM      1  C   UNL     1     -43.829  29.114   1.047  1.00  0.00     0.000 C 
ENDROOT
BRANCH   1   2
ATOM      2  C   UNL     1     -43.111  27.974   0.304  1.00  0.00     0.000 C 
BRANCH   2   3
ATOM      3  C   UNL     1     -44.084  27.024  -0.417  1.00  0.00     0.000 C 
BRANCH   3   4
ATOM      4  C   UNL     1     -45.546  27.103   0.061  1.00  0.00     0.000 C 
BRANCH   4   5
ATOM      5  C   UNL     1     -46.559  26.922  -1.083  1.00  0.00     0.000 C 
BRANCH   5   6
ATOM      6  C   UNL     1     -45.999  27.353  -2.452  1.00  0.00     0.000 C 
BRANCH   6   7
ATOM      7  C   UNL     1     -46.109  28.859  -2.754  1.00  0.00     0.000 C 
BRANCH   7   8
ATOM      8  C   UNL     1     -46.908  29.156  -4.036  1.00  0.00     0.000 C 
BRANCH   8   9
ATOM      9  C   UNL     1     -46.005  29.326  -5.268  1.00  0.00     0.000 C 
BRANCH   9  10
ATOM     10  C   UNL     1     -46.653  28.791  -6.557  1.00  0.00     0.006 C 
BRANCH  10  11
ATOM     11  C   UNL     1     -45.674  27.958  -7.395  1.00  0.00     0.053 C 
BRANCH  11  12
ATOM     12  C   UNL     1     -46.363  26.824  -8.095  1.00  0.00     0.041 C 
ATOM     13  O   UNL     1     -46.258  25.650  -7.653  1.00  0.00    -0.550 OA
ATOM     14  O   UNL     1     -47.094  27.062  -9.252  1.00  0.00    -0.550 OA
ENDBRANCH  11  12
ENDBRANCH  10  11
ENDBRANCH   9  10
ENDBRANCH   8   9
ENDBRANCH   7   8
ENDBRANCH   6   7
ENDBRANCH   5   6
ENDBRANCH   4   5
ENDBRANCH   3   4
ENDBRANCH   2   3
ENDBRANCH   1   2
BRANCH   1  15
ATOM     15  C   UNL     1     -43.037  29.619   2.265  1.00  0.00     0.000 C 
BRANCH  15  16
ATOM     16  C   UNL     1     -43.520  29.006   3.589  1.00  0.00     0.000 C 
BRANCH  16  17
ATOM     17  C   UNL     1     -44.712  28.068   3.356  1.00  0.00     0.000 C 
BRANCH  17  18
ATOM     18  C   UNL     1     -45.126  27.309   4.627  1.00  0.00    -0.000 C 
BRANCH  18  19
ATOM     19  C   UNL     1     -46.528  27.703   5.124  1.00  0.00    -0.000 C 
BRANCH  19  20
ATOM     20  C   UNL     1     -46.530  29.060   5.859  1.00  0.00    -0.000 C 
BRANCH  20  21
ATOM     21  C   UNL     1     -46.864  28.957   7.360  1.00  0.00    -0.000 C 
BRANCH  21  22
ATOM     22  C   UNL     1     -46.735  27.544   7.955  1.00  0.00    -0.000 C 
BRANCH  22  23
ATOM     23  C   UNL     1     -45.622  27.446   9.015  1.00  0.00    -0.000 C 
BRANCH  23  24
ATOM     24  C   UNL     1     -44.474  28.440   8.758  1.00  0.00    -0.000 C 
BRANCH  24  25
ATOM     25  C   UNL     1     -43.397  27.919   7.790  1.00  0.00    -0.003 C 
ATOM     26  C   UNL     1     -42.619  29.045   7.107  1.00  0.00     0.004 C 
ENDBRANCH  24  25
ENDBRANCH  23  24
ENDBRANCH  22  23
ENDBRANCH  21  22
ENDBRANCH  20  21
ENDBRANCH  19  20
ENDBRANCH  18  19
ENDBRANCH  17  18
ENDBRANCH  16  17
ENDBRANCH  15  16
ENDBRANCH   1  15
TORSDOF 22
ENDMDL
MODEL 9
REMARK VINA RESULT:    -3.269      4.208     10.835
REMARK INTER + INTRA:          -9.655
REMARK INTER:                  -7.724
REMARK INTRA:                  -1.931
REMARK UNBOUND:                -2.180
REMARK SMILES CCCCCCCCCCCCCCCCCCCCCCCC(=O)[O-]
REMARK SMILES IDX 13 1 14 2 15 3 16 4 17 5 18 6 19 7 20 8 21 9 22 10 23 11
REMARK SMILES IDX 24 12 25 13 26 14 12 15 11 16 10 17 9 18 8 19 7 20 6 21 5 22
REMARK SMILES IDX 4 23 3 24 2 25 1 26
REMARK H PARENT
REMARK Flexibility Score: inf
ROOT
ATOM      1  C   UNL     1     -43.034  27.940   1.705  1.00  0.00     0.000 C 
ENDROOT
BRANCH   1   2
ATOM      2  C   UNL     1     -43.699  26.871   0.820  1.00  0.00     0.000 C 
BRANCH   2   3
ATOM      3  C   UNL     1     -43.848  27.317  -0.646  1.00  0.00     0.000 C 
BRANCH   3   4
ATOM      4  C   UNL     1     -45.146  26.861  -1.337  1.00  0.00     0.000 C 
BRANCH   4   5
ATOM      5  C   UNL     1     -46.135  28.016  -1.573  1.00  0.00     0.000 C 
BRANCH   5   6
ATOM      6  C   UNL     1     -46.735  28.009  -2.991  1.00  0.00     0.000 C 
BRANCH   6   7
ATOM      7  C   UNL     1     -46.705  26.644  -3.703  1.00  0.00     0.000 C 
BRANCH   7   8
ATOM      8  C   UNL     1     -45.984  26.692  -5.062  1.00  0.00     0.000 C 
BRANCH   8   9
ATOM      9  C   UNL     1     -46.836  26.116  -6.204  1.00  0.00     0.000 C 
BRANCH   9  10
ATOM     10  C   UNL     1     -47.049  27.120  -7.350  1.00  0.00     0.006 C 
BRANCH  10  11
ATOM     11  C   UNL     1     -47.008  28.575  -6.861  1.00  0.00     0.053 C 
BRANCH  11  12
ATOM     12  C   UNL     1     -46.127  29.429  -7.722  1.00  0.00     0.041 C 
ATOM     13  O   UNL     1     -46.478  29.719  -8.896  1.00  0.00    -0.550 OA
ATOM     14  O   UNL     1     -44.905  29.878  -7.238  1.00  0.00    -0.550 OA
ENDBRANCH  11  12
ENDBRANCH  10  11
ENDBRANCH   9  10
ENDBRANCH   8   9
ENDBRANCH   7   8
ENDBRANCH   6   7
ENDBRANCH   5   6
ENDBRANCH   4   5
ENDBRANCH   3   4
ENDBRANCH   2   3
ENDBRANCH   1   2
BRANCH   1  15
ATOM     15  C   UNL     1     -43.996  29.078   2.084  1.00  0.00     0.000 C 
BRANCH  15  16
ATOM     16  C   UNL     1     -45.455  28.612   2.209  1.00  0.00     0.000 C 
BRANCH  16  17
ATOM     17  C   UNL     1     -46.108  29.187   3.473  1.00  0.00     0.000 C 
BRANCH  17  18
ATOM     18  C   UNL     1     -46.439  28.105   4.514  1.00  0.00    -0.000 C 
BRANCH  18  19
ATOM     19  C   UNL     1     -46.514  28.662   5.947  1.00  0.00    -0.000 C 
BRANCH  19  20
ATOM     20  C   UNL     1     -46.953  27.592   6.969  1.00  0.00    -0.000 C 
BRANCH  20  21
ATOM     21  C   UNL     1     -46.335  27.776   8.369  1.00  0.00    -0.000 C 
BRANCH  21  22
ATOM     22  C   UNL     1     -44.811  27.581   8.434  1.00  0.00    -0.000 C 
BRANCH  22  23
ATOM     23  C   UNL     1     -44.049  28.908   8.609  1.00  0.00    -0.000 C 
BRANCH  23  24
ATOM     24  C   UNL     1     -42.585  28.814   8.139  1.00  0.00    -0.000 C 
BRANCH  24  25
ATOM     25  C   UNL     1     -42.404  28.102   6.786  1.00  0.00    -0.003 C 
ATOM     26  C   UNL     1     -43.022  28.876   5.621  1.00  0.00     0.004 C 
ENDBRANCH  24  25
ENDBRANCH  23  24
ENDBRANCH  22  23
ENDBRANCH  21  22
ENDBRANCH  20  21
ENDBRANCH  19  20
ENDBRANCH  18  19
ENDBRANCH  17  18
ENDBRANCH  16  17
ENDBRANCH  15  16
ENDBRANCH   1  15
TORSDOF 22
ENDMDL
