MODEL 1
REMARK VINA RESULT:    -3.977      0.000      0.000
REMARK INTER + INTRA:          -4.528
REMARK INTER:                  -4.443
REMARK INTRA:                  -0.085
REMARK UNBOUND:                -0.085
REMARK SMILES CCc1ccc(O)cc1O
REMARK SMILES IDX 3 1 9 2 8 3 6 4 5 5 4 6 2 7 1 8 10 9 7 11
REMARK H PARENT 10 10 7 12
REMARK Flexibility Score: inf
ROOT
ATOM      1  C   UNL     1     145.810 128.236 116.340  1.00  0.00    -0.006 A 
ATOM      2  C   UNL     1     145.494 128.176 117.711  1.00  0.00     0.122 A 
ATOM      3  C   UNL     1     145.336 129.362 118.445  1.00  0.00     0.092 A 
ATOM      4  C   UNL     1     145.501 130.604 117.825  1.00  0.00     0.119 A 
ATOM      5  C   UNL     1     145.829 130.664 116.465  1.00  0.00     0.047 A 
ATOM      6  C   UNL     1     145.988 129.489 115.728  1.00  0.00     0.011 A 
ENDROOT
BRANCH   1   7
ATOM      7  C   UNL     1     146.015 126.977 115.534  1.00  0.00     0.036 C 
ATOM      8  C   UNL     1     145.768 127.238 114.051  1.00  0.00     0.009 C 
ENDBRANCH   1   7
BRANCH   2   9
ATOM      9  O   UNL     1     145.340 126.942 118.342  1.00  0.00    -0.508 OA
ATOM     10  H   UNL     1     144.587 126.771 119.000  1.00  0.00     0.293 HD
ENDBRANCH   2   9
BRANCH   4  11
ATOM     11  O   UNL     1     145.341 131.771 118.570  1.00  0.00    -0.508 OA
ATOM     12  H   UNL     1     146.131 132.238 118.999  1.00  0.00     0.293 HD
ENDBRANCH   4  11
TORSDOF 3
ENDMDL
MODEL 2
REMARK VINA RESULT:    -3.904      2.611      4.035
REMARK INTER + INTRA:          -4.446
REMARK INTER:                  -4.360
REMARK INTRA:                  -0.086
REMARK UNBOUND:                -0.085
REMARK SMILES CCc1ccc(O)cc1O
REMARK SMILES IDX 3 1 9 2 8 3 6 4 5 5 4 6 2 7 1 8 10 9 7 11
REMARK H PARENT 10 10 7 12
REMARK Flexibility Score: inf
ROOT
ATOM      1  C   UNL     1     144.189 127.250 117.396  1.00  0.00    -0.006 A 
ATOM      2  C   UNL     1     145.579 127.084 117.232  1.00  0.00     0.122 A 
ATOM      3  C   UNL     1     146.140 127.126 115.947  1.00  0.00     0.092 A 
ATOM      4  C   UNL     1     145.328 127.321 114.826  1.00  0.00     0.119 A 
ATOM      5  C   UNL     1     143.945 127.472 114.987  1.00  0.00     0.047 A 
ATOM      6  C   UNL     1     143.379 127.431 116.263  1.00  0.00     0.011 A 
ENDROOT
BRANCH   1   7
ATOM      7  C   UNL     1     143.555 127.179 118.762  1.00  0.00     0.036 C 
ATOM      8  C   UNL     1     142.058 127.460 118.679  1.00  0.00     0.009 C 
ENDBRANCH   1   7
BRANCH   2   9
ATOM      9  O   UNL     1     146.396 126.876 118.342  1.00  0.00    -0.508 OA
ATOM     10  H   UNL     1     146.152 126.208 119.065  1.00  0.00     0.293 HD
ENDBRANCH   2   9
BRANCH   4  11
ATOM     11  O   UNL     1     145.904 127.360 113.557  1.00  0.00    -0.508 OA
ATOM     12  H   UNL     1     146.723 126.808 113.331  1.00  0.00     0.293 HD
ENDBRANCH   4  11
TORSDOF 3
ENDMDL
MODEL 3
REMARK VINA RESULT:    -3.888      1.855      3.826
REMARK INTER + INTRA:          -4.428
REMARK INTER:                  -4.343
REMARK INTRA:                  -0.085
REMARK UNBOUND:                -0.085
REMARK SMILES CCc1ccc(O)cc1O
REMARK SMILES IDX 3 1 9 2 8 3 6 4 5 5 4 6 2 7 1 8 10 9 7 11
REMARK H PARENT 10 10 7 12
REMARK Flexibility Score: inf
ROOT
ATOM      1  C   UNL     1     145.468 129.069 116.715  1.00  0.00    -0.006 A 
ATOM      2  C   UNL     1     145.915 127.734 116.761  1.00  0.00     0.122 A 
ATOM      3  C   UNL     1     146.086 127.013 115.570  1.00  0.00     0.092 A 
ATOM      4  C   UNL     1     145.805 127.607 114.336  1.00  0.00     0.119 A 
ATOM      5  C   UNL     1     145.347 128.930 114.290  1.00  0.00     0.047 A 
ATOM      6  C   UNL     1     145.175 129.654 115.472  1.00  0.00     0.011 A 
ENDROOT
BRANCH   1   7
ATOM      7  C   UNL     1     145.246 129.858 117.981  1.00  0.00     0.036 C 
ATOM      8  C   UNL     1     145.220 131.355 117.688  1.00  0.00     0.009 C 
ENDBRANCH   1   7
BRANCH   2   9
ATOM      9  O   UNL     1     146.186 127.127 117.987  1.00  0.00    -0.508 OA
ATOM     10  H   UNL     1     145.503 126.536 118.449  1.00  0.00     0.293 HD
ENDBRANCH   2   9
BRANCH   4  11
ATOM     11  O   UNL     1     145.982 126.875 113.164  1.00  0.00    -0.508 OA
ATOM     12  H   UNL     1     146.596 126.070 113.130  1.00  0.00     0.293 HD
ENDBRANCH   4  11
TORSDOF 3
ENDMDL
MODEL 4
REMARK VINA RESULT:    -3.815      2.681      3.802
REMARK INTER + INTRA:          -4.346
REMARK INTER:                  -4.261
REMARK INTRA:                  -0.085
REMARK UNBOUND:                -0.085
REMARK SMILES CCc1ccc(O)cc1O
REMARK SMILES IDX 3 1 9 2 8 3 6 4 5 5 4 6 2 7 1 8 10 9 7 11
REMARK H PARENT 10 10 7 12
REMARK Flexibility Score: inf
ROOT
ATOM      1  C   UNL     1     143.630 127.413 116.016  1.00  0.00    -0.006 A 
ATOM      2  C   UNL     1     144.975 127.413 115.596  1.00  0.00     0.122 A 
ATOM      3  C   UNL     1     146.000 127.229 116.536  1.00  0.00     0.092 A 
ATOM      4  C   UNL     1     145.697 127.057 117.889  1.00  0.00     0.119 A 
ATOM      5  C   UNL     1     144.361 127.071 118.309  1.00  0.00     0.047 A 
ATOM      6  C   UNL     1     143.335 127.253 117.380  1.00  0.00     0.011 A 
ENDROOT
BRANCH   1   7
ATOM      7  C   UNL     1     142.510 127.639 115.032  1.00  0.00     0.036 C 
ATOM      8  C   UNL     1     141.206 127.038 115.550  1.00  0.00     0.009 C 
ENDBRANCH   1   7
BRANCH   2   9
ATOM      9  O   UNL     1     145.290 127.597 114.250  1.00  0.00    -0.508 OA
ATOM     10  H   UNL     1     146.115 128.112 113.962  1.00  0.00     0.293 HD
ENDBRANCH   2   9
BRANCH   4  11
ATOM     11  O   UNL     1     146.729 126.875 118.808  1.00  0.00    -0.508 OA
ATOM     12  H   UNL     1     147.629 127.326 118.689  1.00  0.00     0.293 HD
ENDBRANCH   4  11
TORSDOF 3
ENDMDL
MODEL 5
REMARK VINA RESULT:    -3.811      1.765      3.459
REMARK INTER + INTRA:          -4.342
REMARK INTER:                  -4.248
REMARK INTRA:                  -0.094
REMARK UNBOUND:                -0.085
REMARK SMILES CCc1ccc(O)cc1O
REMARK SMILES IDX 3 1 9 2 8 3 6 4 5 5 4 6 2 7 1 8 10 9 7 11
REMARK H PARENT 10 10 7 12
REMARK Flexibility Score: inf
ROOT
ATOM      1  C   UNL     1     145.750 129.927 116.095  1.00  0.00    -0.006 A 
ATOM      2  C   UNL     1     145.423 129.526 117.405  1.00  0.00     0.122 A 
ATOM      3  C   UNL     1     144.443 128.544 117.612  1.00  0.00     0.092 A 
ATOM      4  C   UNL     1     143.780 127.966 116.525  1.00  0.00     0.119 A 
ATOM      5  C   UNL     1     144.094 128.373 115.223  1.00  0.00     0.047 A 
ATOM      6  C   UNL     1     145.068 129.351 115.009  1.00  0.00     0.011 A 
ENDROOT
BRANCH   1   7
ATOM      7  C   UNL     1     146.777 131.002 115.845  1.00  0.00     0.036 C 
ATOM      8  C   UNL     1     146.129 132.383 115.859  1.00  0.00     0.009 C 
ENDBRANCH   1   7
BRANCH   2   9
ATOM      9  O   UNL     1     146.069 130.106 118.497  1.00  0.00    -0.508 OA
ATOM     10  H   UNL     1     145.624 130.824 119.058  1.00  0.00     0.293 HD
ENDBRANCH   2   9
BRANCH   4  11
ATOM     11  O   UNL     1     142.810 126.992 116.751  1.00  0.00    -0.508 OA
ATOM     12  H   UNL     1     143.030 126.126 117.228  1.00  0.00     0.293 HD
ENDBRANCH   4  11
TORSDOF 3
ENDMDL
MODEL 6
REMARK VINA RESULT:    -3.803      2.604      3.514
REMARK INTER + INTRA:          -4.333
REMARK INTER:                  -4.229
REMARK INTRA:                  -0.104
REMARK UNBOUND:                -0.085
REMARK SMILES CCc1ccc(O)cc1O
REMARK SMILES IDX 3 1 9 2 8 3 6 4 5 5 4 6 2 7 1 8 10 9 7 11
REMARK H PARENT 10 10 7 12
REMARK Flexibility Score: inf
ROOT
ATOM      1  C   UNL     1     143.294 127.533 115.979  1.00  0.00    -0.006 A 
ATOM      2  C   UNL     1     143.134 127.247 117.350  1.00  0.00     0.122 A 
ATOM      3  C   UNL     1     144.262 127.033 118.155  1.00  0.00     0.092 A 
ATOM      4  C   UNL     1     145.546 127.092 117.605  1.00  0.00     0.119 A 
ATOM      5  C   UNL     1     145.706 127.363 116.241  1.00  0.00     0.047 A 
ATOM      6  C   UNL     1     144.587 127.577 115.432  1.00  0.00     0.011 A 
ENDROOT
BRANCH   1   7
ATOM      7  C   UNL     1     142.098 127.738 115.084  1.00  0.00     0.036 C 
ATOM      8  C   UNL     1     141.836 129.225 114.863  1.00  0.00     0.009 C 
ENDBRANCH   1   7
BRANCH   2   9
ATOM      9  O   UNL     1     141.857 127.172 117.906  1.00  0.00    -0.508 OA
ATOM     10  H   UNL     1     141.714 127.167 118.910  1.00  0.00     0.293 HD
ENDBRANCH   2   9
BRANCH   4  11
ATOM     11  O   UNL     1     146.655 126.877 118.421  1.00  0.00    -0.508 OA
ATOM     12  H   UNL     1     146.977 125.942 118.641  1.00  0.00     0.293 HD
ENDBRANCH   4  11
TORSDOF 3
ENDMDL
MODEL 7
REMARK VINA RESULT:    -3.680      2.741      3.030
REMARK INTER + INTRA:          -4.195
REMARK INTER:                  -4.109
REMARK INTRA:                  -0.086
REMARK UNBOUND:                -0.085
REMARK SMILES CCc1ccc(O)cc1O
REMARK SMILES IDX 3 1 9 2 8 3 6 4 5 5 4 6 2 7 1 8 10 9 7 11
REMARK H PARENT 10 10 7 12
REMARK Flexibility Score: inf
ROOT
ATOM      1  C   UNL     1     144.589 130.040 115.294  1.00  0.00    -0.006 A 
ATOM      2  C   UNL     1     143.935 131.179 115.804  1.00  0.00     0.122 A 
ATOM      3  C   UNL     1     144.688 132.242 116.326  1.00  0.00     0.092 A 
ATOM      4  C   UNL     1     146.084 132.173 116.354  1.00  0.00     0.119 A 
ATOM      5  C   UNL     1     146.734 131.036 115.860  1.00  0.00     0.047 A 
ATOM      6  C   UNL     1     145.992 129.974 115.338  1.00  0.00     0.011 A 
ENDROOT
BRANCH   1   7
ATOM      7  C   UNL     1     143.804 128.871 114.754  1.00  0.00     0.036 C 
ATOM      8  C   UNL     1     144.657 127.606 114.744  1.00  0.00     0.009 C 
ENDBRANCH   1   7
BRANCH   2   9
ATOM      9  O   UNL     1     142.543 131.253 115.794  1.00  0.00    -0.508 OA
ATOM     10  H   UNL     1     141.990 130.758 115.102  1.00  0.00     0.293 HD
ENDBRANCH   2   9
BRANCH   4  11
ATOM     11  O   UNL     1     146.815 133.239 116.877  1.00  0.00    -0.508 OA
ATOM     12  H   UNL     1     146.366 133.986 117.393  1.00  0.00     0.293 HD
ENDBRANCH   4  11
TORSDOF 3
ENDMDL
MODEL 8
REMARK VINA RESULT:    -3.672      3.036      4.364
REMARK INTER + INTRA:          -4.186
REMARK INTER:                  -4.094
REMARK INTRA:                  -0.092
REMARK UNBOUND:                -0.085
REMARK SMILES CCc1ccc(O)cc1O
REMARK SMILES IDX 3 1 9 2 8 3 6 4 5 5 4 6 2 7 1 8 10 9 7 11
REMARK H PARENT 10 10 7 12
REMARK Flexibility Score: inf
ROOT
ATOM      1  C   UNL     1     143.966 127.227 117.244  1.00  0.00    -0.006 A 
ATOM      2  C   UNL     1     143.292 127.607 116.066  1.00  0.00     0.122 A 
ATOM      3  C   UNL     1     143.974 127.606 114.840  1.00  0.00     0.092 A 
ATOM      4  C   UNL     1     145.322 127.241 114.780  1.00  0.00     0.119 A 
ATOM      5  C   UNL     1     145.996 126.877 115.952  1.00  0.00     0.047 A 
ATOM      6  C   UNL     1     145.325 126.875 117.177  1.00  0.00     0.011 A 
ENDROOT
BRANCH   1   7
ATOM      7  C   UNL     1     143.266 127.247 118.579  1.00  0.00     0.036 C 
ATOM      8  C   UNL     1     144.107 127.981 119.620  1.00  0.00     0.009 C 
ENDBRANCH   1   7
BRANCH   2   9
ATOM      9  O   UNL     1     141.951 127.986 116.116  1.00  0.00    -0.508 OA
ATOM     10  H   UNL     1     141.618 128.824 115.654  1.00  0.00     0.293 HD
ENDBRANCH   2   9
BRANCH   4  11
ATOM     11  O   UNL     1     145.983 127.247 113.553  1.00  0.00    -0.508 OA
ATOM     12  H   UNL     1     145.944 126.450 112.928  1.00  0.00     0.293 HD
ENDBRANCH   4  11
TORSDOF 3
ENDMDL
