MODEL 1
REMARK VINA RESULT:    -4.825      0.000      0.000
REMARK INTER + INTRA:          -9.864
REMARK INTER:                  -8.773
REMARK INTRA:                  -1.091
REMARK UNBOUND:                -1.091
REMARK SMILES CCCCCCCCCCCCCC[C@H](C)C(=O)[O-]
REMARK SMILES IDX 9 1 10 2 11 3 12 4 13 5 14 6 15 7 16 8 17 9 18 10 19 11 8 12
REMARK SMILES IDX 7 13 6 14 5 15 4 16 3 17 2 18 1 19
REMARK H PARENT
REMARK Flexibility Score: inf
ROOT
ATOM      1  C   UNL     1       3.307  11.435  83.926  1.00  0.00     0.000 C 
ENDROOT
BRANCH   1   2
ATOM      2  C   UNL     1       2.870  10.514  82.775  1.00  0.00     0.000 C 
BRANCH   2   3
ATOM      3  C   UNL     1       3.752   9.258  82.665  1.00  0.00     0.000 C 
BRANCH   3   4
ATOM      4  C   UNL     1       5.188   9.578  82.226  1.00  0.00     0.000 C 
BRANCH   4   5
ATOM      5  C   UNL     1       5.922   8.362  81.642  1.00  0.00     0.001 C 
BRANCH   5   6
ATOM      6  C   UNL     1       7.212   8.801  80.922  1.00  0.00     0.009 C 
BRANCH   6   7
ATOM      7  C   UNL     1       7.613   7.901  79.732  1.00  0.00     0.032 C 
ATOM      8  C   UNL     1       7.151   6.445  79.913  1.00  0.00     0.014 C 
BRANCH   7   9
ATOM      9  C   UNL     1       9.091   7.994  79.440  1.00  0.00     0.044 C 
ATOM     10  O   UNL     1       9.684   9.095  79.579  1.00  0.00    -0.550 OA
ATOM     11  O   UNL     1       9.814   6.877  79.027  1.00  0.00    -0.550 OA
ENDBRANCH   7   9
ENDBRANCH   6   7
ENDBRANCH   5   6
ENDBRANCH   4   5
ENDBRANCH   3   4
ENDBRANCH   2   3
ENDBRANCH   1   2
BRANCH   1  12
ATOM     12  C   UNL     1       2.139  11.801  84.856  1.00  0.00     0.000 C 
BRANCH  12  13
ATOM     13  C   UNL     1       1.677  10.584  85.669  1.00  0.00    -0.000 C 
BRANCH  13  14
ATOM     14  C   UNL     1       2.826  10.030  86.526  1.00  0.00    -0.000 C 
BRANCH  14  15
ATOM     15  C   UNL     1       2.403   8.827  87.385  1.00  0.00    -0.000 C 
BRANCH  15  16
ATOM     16  C   UNL     1       1.739   7.714  86.559  1.00  0.00    -0.000 C 
BRANCH  16  17
ATOM     17  C   UNL     1       2.698   7.079  85.534  1.00  0.00    -0.000 C 
BRANCH  17  18
ATOM     18  C   UNL     1       2.709   5.539  85.520  1.00  0.00    -0.003 C 
ATOM     19  C   UNL     1       1.854   4.922  86.628  1.00  0.00     0.004 C 
ENDBRANCH  17  18
ENDBRANCH  16  17
ENDBRANCH  15  16
ENDBRANCH  14  15
ENDBRANCH  13  14
ENDBRANCH  12  13
ENDBRANCH   1  12
TORSDOF 14
ENDMDL
MODEL 2
REMARK VINA RESULT:    -4.734      3.603      7.334
REMARK INTER + INTRA:          -9.700
REMARK INTER:                  -8.473
REMARK INTRA:                  -1.226
REMARK UNBOUND:                -1.091
REMARK SMILES CCCCCCCCCCCCCC[C@H](C)C(=O)[O-]
REMARK SMILES IDX 9 1 10 2 11 3 12 4 13 5 14 6 15 7 16 8 17 9 18 10 19 11 8 12
REMARK SMILES IDX 7 13 6 14 5 15 4 16 3 17 2 18 1 19
REMARK H PARENT
REMARK Flexibility Score: inf
ROOT
ATOM      1  C   UNL     1       4.873  11.648  82.835  1.00  0.00     0.000 C 
ENDROOT
BRANCH   1   2
ATOM      2  C   UNL     1       3.419  12.116  83.009  1.00  0.00     0.000 C 
BRANCH   2   3
ATOM      3  C   UNL     1       2.804  11.632  84.333  1.00  0.00     0.000 C 
BRANCH   3   4
ATOM      4  C   UNL     1       1.495  10.856  84.130  1.00  0.00     0.000 C 
BRANCH   4   5
ATOM      5  C   UNL     1       1.706   9.483  83.475  1.00  0.00     0.001 C 
BRANCH   5   6
ATOM      6  C   UNL     1       2.652   8.614  84.325  1.00  0.00     0.009 C 
BRANCH   6   7
ATOM      7  C   UNL     1       2.029   8.093  85.639  1.00  0.00     0.032 C 
ATOM      8  C   UNL     1       2.615   8.783  86.883  1.00  0.00     0.014 C 
BRANCH   7   9
ATOM      9  C   UNL     1       2.111   6.589  85.734  1.00  0.00     0.044 C 
ATOM     10  O   UNL     1       3.111   5.990  85.261  1.00  0.00    -0.550 OA
ATOM     11  O   UNL     1       1.102   5.850  86.347  1.00  0.00    -0.550 OA
ENDBRANCH   7   9
ENDBRANCH   6   7
ENDBRANCH   5   6
ENDBRANCH   4   5
ENDBRANCH   3   4
ENDBRANCH   2   3
ENDBRANCH   1   2
BRANCH   1  12
ATOM     12  C   UNL     1       5.036  10.677  81.654  1.00  0.00     0.000 C 
BRANCH  12  13
ATOM     13  C   UNL     1       5.349   9.257  82.144  1.00  0.00    -0.000 C 
BRANCH  13  14
ATOM     14  C   UNL     1       6.776   8.844  81.750  1.00  0.00    -0.000 C 
BRANCH  14  15
ATOM     15  C   UNL     1       6.803   7.755  80.665  1.00  0.00    -0.000 C 
BRANCH  15  16
ATOM     16  C   UNL     1       7.740   8.106  79.497  1.00  0.00    -0.000 C 
BRANCH  16  17
ATOM     17  C   UNL     1       8.789   7.012  79.225  1.00  0.00    -0.000 C 
BRANCH  17  18
ATOM     18  C   UNL     1       8.344   5.581  79.579  1.00  0.00    -0.003 C 
ATOM     19  C   UNL     1       9.504   4.673  79.988  1.00  0.00     0.004 C 
ENDBRANCH  17  18
ENDBRANCH  16  17
ENDBRANCH  15  16
ENDBRANCH  14  15
ENDBRANCH  13  14
ENDBRANCH  12  13
ENDBRANCH   1  12
TORSDOF 14
ENDMDL
MODEL 3
REMARK VINA RESULT:    -4.719      1.168      2.017
REMARK INTER + INTRA:          -9.671
REMARK INTER:                  -8.458
REMARK INTRA:                  -1.213
REMARK UNBOUND:                -1.091
REMARK SMILES CCCCCCCCCCCCCC[C@H](C)C(=O)[O-]
REMARK SMILES IDX 9 1 10 2 11 3 12 4 13 5 14 6 15 7 16 8 17 9 18 10 19 11 8 12
REMARK SMILES IDX 7 13 6 14 5 15 4 16 3 17 2 18 1 19
REMARK H PARENT
REMARK Flexibility Score: inf
ROOT
ATOM      1  C   UNL     1       3.465   8.987  82.754  1.00  0.00     0.000 C 
ENDROOT
BRANCH   1   2
ATOM      2  C   UNL     1       4.860   9.559  82.448  1.00  0.00     0.000 C 
BRANCH   2   3
ATOM      3  C   UNL     1       5.808   8.501  81.857  1.00  0.00     0.000 C 
BRANCH   3   4
ATOM      4  C   UNL     1       6.689   9.058  80.729  1.00  0.00     0.000 C 
BRANCH   4   5
ATOM      5  C   UNL     1       8.087   8.425  80.691  1.00  0.00     0.001 C 
BRANCH   5   6
ATOM      6  C   UNL     1       8.458   8.010  79.254  1.00  0.00     0.009 C 
BRANCH   6   7
ATOM      7  C   UNL     1       8.692   6.494  79.070  1.00  0.00     0.032 C 
ATOM      8  C   UNL     1       7.660   5.642  79.830  1.00  0.00     0.014 C 
BRANCH   7   9
ATOM      9  C   UNL     1      10.109   6.106  79.414  1.00  0.00     0.044 C 
ATOM     10  O   UNL     1      11.017   6.976  79.381  1.00  0.00    -0.550 OA
ATOM     11  O   UNL     1      10.429   4.800  79.777  1.00  0.00    -0.550 OA
ENDBRANCH   7   9
ENDBRANCH   6   7
ENDBRANCH   5   6
ENDBRANCH   4   5
ENDBRANCH   3   4
ENDBRANCH   2   3
ENDBRANCH   1   2
BRANCH   1  12
ATOM     12  C   UNL     1       2.424  10.091  82.994  1.00  0.00     0.000 C 
BRANCH  12  13
ATOM     13  C   UNL     1       1.829   9.993  84.405  1.00  0.00    -0.000 C 
BRANCH  13  14
ATOM     14  C   UNL     1       2.838  10.473  85.460  1.00  0.00    -0.000 C 
BRANCH  14  15
ATOM     15  C   UNL     1       2.636   9.803  86.828  1.00  0.00    -0.000 C 
BRANCH  15  16
ATOM     16  C   UNL     1       1.360   8.946  86.885  1.00  0.00    -0.000 C 
BRANCH  16  17
ATOM     17  C   UNL     1       1.658   7.444  87.055  1.00  0.00    -0.000 C 
BRANCH  17  18
ATOM     18  C   UNL     1       1.608   6.620  85.755  1.00  0.00    -0.003 C 
ATOM     19  C   UNL     1       2.988   6.166  85.277  1.00  0.00     0.004 C 
ENDBRANCH  17  18
ENDBRANCH  16  17
ENDBRANCH  15  16
ENDBRANCH  14  15
ENDBRANCH  13  14
ENDBRANCH  12  13
ENDBRANCH   1  12
TORSDOF 14
ENDMDL
MODEL 4
REMARK VINA RESULT:    -4.682      1.449      2.579
REMARK INTER + INTRA:          -9.605
REMARK INTER:                  -8.674
REMARK INTRA:                  -0.930
REMARK UNBOUND:                -1.091
REMARK SMILES CCCCCCCCCCCCCC[C@H](C)C(=O)[O-]
REMARK SMILES IDX 9 1 10 2 11 3 12 4 13 5 14 6 15 7 16 8 17 9 18 10 19 11 8 12
REMARK SMILES IDX 7 13 6 14 5 15 4 16 3 17 2 18 1 19
REMARK H PARENT
REMARK Flexibility Score: inf
ROOT
ATOM      1  C   UNL     1       2.382   9.334  84.947  1.00  0.00     0.000 C 
ENDROOT
BRANCH   1   2
ATOM      2  C   UNL     1       2.656   8.870  83.507  1.00  0.00     0.000 C 
BRANCH   2   3
ATOM      3  C   UNL     1       3.828   9.630  82.861  1.00  0.00     0.000 C 
BRANCH   3   4
ATOM      4  C   UNL     1       4.879   8.692  82.251  1.00  0.00     0.000 C 
BRANCH   4   5
ATOM      5  C   UNL     1       5.911   9.428  81.385  1.00  0.00     0.001 C 
BRANCH   5   6
ATOM      6  C   UNL     1       7.219   8.619  81.291  1.00  0.00     0.009 C 
BRANCH   6   7
ATOM      7  C   UNL     1       7.460   7.957  79.916  1.00  0.00     0.032 C 
ATOM      8  C   UNL     1       6.809   6.567  79.810  1.00  0.00     0.014 C 
BRANCH   7   9
ATOM      9  C   UNL     1       8.927   7.923  79.566  1.00  0.00     0.044 C 
ATOM     10  O   UNL     1       9.646   8.929  79.799  1.00  0.00    -0.550 OA
ATOM     11  O   UNL     1       9.505   6.791  78.996  1.00  0.00    -0.550 OA
ENDBRANCH   7   9
ENDBRANCH   6   7
ENDBRANCH   5   6
ENDBRANCH   4   5
ENDBRANCH   3   4
ENDBRANCH   2   3
ENDBRANCH   1   2
BRANCH   1  12
ATOM     12  C   UNL     1       2.556   8.199  85.968  1.00  0.00     0.000 C 
BRANCH  12  13
ATOM     13  C   UNL     1       2.716   6.843  85.266  1.00  0.00    -0.000 C 
BRANCH  13  14
ATOM     14  C   UNL     1       1.811   5.782  85.913  1.00  0.00    -0.000 C 
BRANCH  14  15
ATOM     15  C   UNL     1       1.009   6.329  87.105  1.00  0.00    -0.000 C 
BRANCH  15  16
ATOM     16  C   UNL     1      -0.376   5.675  87.235  1.00  0.00    -0.000 C 
BRANCH  16  17
ATOM     17  C   UNL     1      -0.310   4.245  87.805  1.00  0.00    -0.000 C 
BRANCH  17  18
ATOM     18  C   UNL     1       0.731   4.038  88.922  1.00  0.00    -0.003 C 
ATOM     19  C   UNL     1       1.792   2.995  88.569  1.00  0.00     0.004 C 
ENDBRANCH  17  18
ENDBRANCH  16  17
ENDBRANCH  15  16
ENDBRANCH  14  15
ENDBRANCH  13  14
ENDBRANCH  12  13
ENDBRANCH   1  12
TORSDOF 14
ENDMDL
MODEL 5
REMARK VINA RESULT:    -4.680      3.437      8.004
REMARK INTER + INTRA:          -9.600
REMARK INTER:                  -8.418
REMARK INTRA:                  -1.183
REMARK UNBOUND:                -1.091
REMARK SMILES CCCCCCCCCCCCCC[C@H](C)C(=O)[O-]
REMARK SMILES IDX 9 1 10 2 11 3 12 4 13 5 14 6 15 7 16 8 17 9 18 10 19 11 8 12
REMARK SMILES IDX 7 13 6 14 5 15 4 16 3 17 2 18 1 19
REMARK H PARENT
REMARK Flexibility Score: inf
ROOT
ATOM      1  C   UNL     1       5.166  10.529  82.856  1.00  0.00     0.000 C 
ENDROOT
BRANCH   1   2
ATOM      2  C   UNL     1       3.845  10.762  83.606  1.00  0.00     0.000 C 
BRANCH   2   3
ATOM      3  C   UNL     1       2.697   9.903  83.049  1.00  0.00     0.000 C 
BRANCH   3   4
ATOM      4  C   UNL     1       1.754   9.388  84.146  1.00  0.00     0.000 C 
BRANCH   4   5
ATOM      5  C   UNL     1       2.178   9.824  85.555  1.00  0.00     0.001 C 
BRANCH   5   6
ATOM      6  C   UNL     1       2.522   8.598  86.423  1.00  0.00     0.009 C 
BRANCH   6   7
ATOM      7  C   UNL     1       1.525   7.426  86.292  1.00  0.00     0.032 C 
ATOM      8  C   UNL     1       0.686   7.221  87.565  1.00  0.00     0.014 C 
BRANCH   7   9
ATOM      9  C   UNL     1       2.216   6.156  85.858  1.00  0.00     0.044 C 
ATOM     10  O   UNL     1       1.885   5.059  86.378  1.00  0.00    -0.550 OA
ATOM     11  O   UNL     1       3.209   6.175  84.881  1.00  0.00    -0.550 OA
ENDBRANCH   7   9
ENDBRANCH   6   7
ENDBRANCH   5   6
ENDBRANCH   4   5
ENDBRANCH   3   4
ENDBRANCH   2   3
ENDBRANCH   1   2
BRANCH   1  12
ATOM     12  C   UNL     1       5.250   9.119  82.248  1.00  0.00     0.000 C 
BRANCH  12  13
ATOM     13  C   UNL     1       6.414   9.013  81.253  1.00  0.00    -0.000 C 
BRANCH  13  14
ATOM     14  C   UNL     1       6.546   7.580  80.716  1.00  0.00    -0.000 C 
BRANCH  14  15
ATOM     15  C   UNL     1       7.328   7.508  79.394  1.00  0.00    -0.000 C 
BRANCH  15  16
ATOM     16  C   UNL     1       8.749   6.951  79.577  1.00  0.00    -0.000 C 
BRANCH  16  17
ATOM     17  C   UNL     1       9.842   7.984  79.244  1.00  0.00    -0.000 C 
BRANCH  17  18
ATOM     18  C   UNL     1       9.947   9.161  80.232  1.00  0.00    -0.003 C 
ATOM     19  C   UNL     1       9.550  10.502  79.614  1.00  0.00     0.004 C 
ENDBRANCH  17  18
ENDBRANCH  16  17
ENDBRANCH  15  16
ENDBRANCH  14  15
ENDBRANCH  13  14
ENDBRANCH  12  13
ENDBRANCH   1  12
TORSDOF 14
ENDMDL
MODEL 6
REMARK VINA RESULT:    -4.615      1.563      2.533
REMARK INTER + INTRA:          -9.483
REMARK INTER:                  -8.110
REMARK INTRA:                  -1.373
REMARK UNBOUND:                -1.091
REMARK SMILES CCCCCCCCCCCCCC[C@H](C)C(=O)[O-]
REMARK SMILES IDX 9 1 10 2 11 3 12 4 13 5 14 6 15 7 16 8 17 9 18 10 19 11 8 12
REMARK SMILES IDX 7 13 6 14 5 15 4 16 3 17 2 18 1 19
REMARK H PARENT
REMARK Flexibility Score: inf
ROOT
ATOM      1  C   UNL     1       3.209  12.341  81.486  1.00  0.00     0.000 C 
ENDROOT
BRANCH   1   2
ATOM      2  C   UNL     1       4.501  11.619  81.071  1.00  0.00     0.000 C 
BRANCH   2   3
ATOM      3  C   UNL     1       5.093  10.778  82.216  1.00  0.00     0.000 C 
BRANCH   3   4
ATOM      4  C   UNL     1       5.168   9.282  81.876  1.00  0.00     0.000 C 
BRANCH   4   5
ATOM      5  C   UNL     1       6.608   8.769  81.737  1.00  0.00     0.001 C 
BRANCH   5   6
ATOM      6  C   UNL     1       7.206   9.185  80.379  1.00  0.00     0.009 C 
BRANCH   6   7
ATOM      7  C   UNL     1       7.605   8.002  79.470  1.00  0.00     0.032 C 
ATOM      8  C   UNL     1       6.970   6.674  79.918  1.00  0.00     0.014 C 
BRANCH   7   9
ATOM      9  C   UNL     1       9.103   7.893  79.327  1.00  0.00     0.044 C 
ATOM     10  O   UNL     1       9.823   8.905  79.533  1.00  0.00    -0.550 OA
ATOM     11  O   UNL     1       9.707   6.687  78.980  1.00  0.00    -0.550 OA
ENDBRANCH   7   9
ENDBRANCH   6   7
ENDBRANCH   5   6
ENDBRANCH   4   5
ENDBRANCH   3   4
ENDBRANCH   2   3
ENDBRANCH   1   2
BRANCH   1  12
ATOM     12  C   UNL     1       1.989  11.859  80.684  1.00  0.00     0.000 C 
BRANCH  12  13
ATOM     13  C   UNL     1       0.722  11.861  81.550  1.00  0.00    -0.000 C 
BRANCH  13  14
ATOM     14  C   UNL     1       1.080  11.832  83.044  1.00  0.00    -0.000 C 
BRANCH  14  15
ATOM     15  C   UNL     1       0.807  10.467  83.696  1.00  0.00    -0.000 C 
BRANCH  15  16
ATOM     16  C   UNL     1       1.811   9.389  83.256  1.00  0.00    -0.000 C 
BRANCH  16  17
ATOM     17  C   UNL     1       2.636   8.827  84.429  1.00  0.00    -0.000 C 
BRANCH  17  18
ATOM     18  C   UNL     1       1.981   7.654  85.182  1.00  0.00    -0.003 C 
ATOM     19  C   UNL     1       2.911   6.451  85.347  1.00  0.00     0.004 C 
ENDBRANCH  17  18
ENDBRANCH  16  17
ENDBRANCH  15  16
ENDBRANCH  14  15
ENDBRANCH  13  14
ENDBRANCH  12  13
ENDBRANCH   1  12
TORSDOF 14
ENDMDL
MODEL 7
REMARK VINA RESULT:    -4.551      1.063      1.618
REMARK INTER + INTRA:          -9.366
REMARK INTER:                  -8.259
REMARK INTRA:                  -1.107
REMARK UNBOUND:                -1.091
REMARK SMILES CCCCCCCCCCCCCC[C@H](C)C(=O)[O-]
REMARK SMILES IDX 9 1 10 2 11 3 12 4 13 5 14 6 15 7 16 8 17 9 18 10 19 11 8 12
REMARK SMILES IDX 7 13 6 14 5 15 4 16 3 17 2 18 1 19
REMARK H PARENT
REMARK Flexibility Score: inf
ROOT
ATOM      1  C   UNL     1       4.641  11.513  83.990  1.00  0.00     0.000 C 
ENDROOT
BRANCH   1   2
ATOM      2  C   UNL     1       4.440  11.513  82.465  1.00  0.00     0.000 C 
BRANCH   2   3
ATOM      3  C   UNL     1       4.615  10.112  81.853  1.00  0.00     0.000 C 
BRANCH   3   4
ATOM      4  C   UNL     1       5.843   9.373  82.403  1.00  0.00     0.000 C 
BRANCH   4   5
ATOM      5  C   UNL     1       6.365   8.285  81.454  1.00  0.00     0.001 C 
BRANCH   5   6
ATOM      6  C   UNL     1       7.239   8.903  80.346  1.00  0.00     0.009 C 
BRANCH   6   7
ATOM      7  C   UNL     1       7.965   7.869  79.457  1.00  0.00     0.032 C 
ATOM      8  C   UNL     1       7.545   6.423  79.773  1.00  0.00     0.014 C 
BRANCH   7   9
ATOM      9  C   UNL     1       9.462   8.048  79.507  1.00  0.00     0.044 C 
ATOM     10  O   UNL     1      10.214   7.101  79.158  1.00  0.00    -0.550 OA
ATOM     11  O   UNL     1      10.029   9.250  79.924  1.00  0.00    -0.550 OA
ENDBRANCH   7   9
ENDBRANCH   6   7
ENDBRANCH   5   6
ENDBRANCH   4   5
ENDBRANCH   3   4
ENDBRANCH   2   3
ENDBRANCH   1   2
BRANCH   1  12
ATOM     12  C   UNL     1       3.563  10.696  84.719  1.00  0.00     0.000 C 
BRANCH  12  13
ATOM     13  C   UNL     1       2.255  11.489  84.842  1.00  0.00    -0.000 C 
BRANCH  13  14
ATOM     14  C   UNL     1       1.046  10.609  84.490  1.00  0.00    -0.000 C 
BRANCH  14  15
ATOM     15  C   UNL     1       1.441   9.165  84.140  1.00  0.00    -0.000 C 
BRANCH  15  16
ATOM     16  C   UNL     1       1.004   8.156  85.214  1.00  0.00    -0.000 C 
BRANCH  16  17
ATOM     17  C   UNL     1       2.193   7.561  85.993  1.00  0.00    -0.000 C 
BRANCH  17  18
ATOM     18  C   UNL     1       2.944   6.429  85.267  1.00  0.00    -0.003 C 
ATOM     19  C   UNL     1       2.580   5.037  85.784  1.00  0.00     0.004 C 
ENDBRANCH  17  18
ENDBRANCH  16  17
ENDBRANCH  15  16
ENDBRANCH  14  15
ENDBRANCH  13  14
ENDBRANCH  12  13
ENDBRANCH   1  12
TORSDOF 14
ENDMDL
MODEL 8
REMARK VINA RESULT:    -4.497      3.464      6.213
REMARK INTER + INTRA:          -9.268
REMARK INTER:                  -7.577
REMARK INTRA:                  -1.691
REMARK UNBOUND:                -1.091
REMARK SMILES CCCCCCCCCCCCCC[C@H](C)C(=O)[O-]
REMARK SMILES IDX 9 1 10 2 11 3 12 4 13 5 14 6 15 7 16 8 17 9 18 10 19 11 8 12
REMARK SMILES IDX 7 13 6 14 5 15 4 16 3 17 2 18 1 19
REMARK H PARENT
REMARK Flexibility Score: inf
ROOT
ATOM      1  C   UNL     1       3.946  12.558  81.907  1.00  0.00     0.000 C 
ENDROOT
BRANCH   1   2
ATOM      2  C   UNL     1       4.731  11.568  82.783  1.00  0.00     0.000 C 
BRANCH   2   3
ATOM      3  C   UNL     1       4.501  10.106  82.363  1.00  0.00     0.000 C 
BRANCH   3   4
ATOM      4  C   UNL     1       5.774   9.253  82.464  1.00  0.00     0.000 C 
BRANCH   4   5
ATOM      5  C   UNL     1       6.047   8.429  81.197  1.00  0.00     0.001 C 
BRANCH   5   6
ATOM      6  C   UNL     1       7.464   8.709  80.662  1.00  0.00     0.009 C 
BRANCH   6   7
ATOM      7  C   UNL     1       7.965   7.684  79.620  1.00  0.00     0.032 C 
ATOM      8  C   UNL     1       7.535   6.245  79.956  1.00  0.00     0.014 C 
BRANCH   7   9
ATOM      9  C   UNL     1       9.455   7.794  79.406  1.00  0.00     0.044 C 
ATOM     10  O   UNL     1      10.068   6.867  78.816  1.00  0.00    -0.550 OA
ATOM     11  O   UNL     1      10.164   8.911  79.841  1.00  0.00    -0.550 OA
ENDBRANCH   7   9
ENDBRANCH   6   7
ENDBRANCH   5   6
ENDBRANCH   4   5
ENDBRANCH   3   4
ENDBRANCH   2   3
ENDBRANCH   1   2
BRANCH   1  12
ATOM     12  C   UNL     1       2.854  11.863  81.079  1.00  0.00     0.000 C 
BRANCH  12  13
ATOM     13  C   UNL     1       2.594  12.613  79.765  1.00  0.00    -0.000 C 
BRANCH  13  14
ATOM     14  C   UNL     1       3.767  13.546  79.427  1.00  0.00    -0.000 C 
BRANCH  14  15
ATOM     15  C   UNL     1       4.250  13.396  77.975  1.00  0.00    -0.000 C 
BRANCH  15  16
ATOM     16  C   UNL     1       5.736  13.013  77.883  1.00  0.00    -0.000 C 
BRANCH  16  17
ATOM     17  C   UNL     1       6.158  11.994  78.959  1.00  0.00    -0.000 C 
BRANCH  17  18
ATOM     18  C   UNL     1       7.652  12.022  79.331  1.00  0.00    -0.003 C 
ATOM     19  C   UNL     1       8.502  12.824  78.344  1.00  0.00     0.004 C 
ENDBRANCH  17  18
ENDBRANCH  16  17
ENDBRANCH  15  16
ENDBRANCH  14  15
ENDBRANCH  13  14
ENDBRANCH  12  13
ENDBRANCH   1  12
TORSDOF 14
ENDMDL
MODEL 9
REMARK VINA RESULT:    -4.493      3.557      7.174
REMARK INTER + INTRA:          -9.260
REMARK INTER:                  -7.760
REMARK INTRA:                  -1.500
REMARK UNBOUND:                -1.091
REMARK SMILES CCCCCCCCCCCCCC[C@H](C)C(=O)[O-]
REMARK SMILES IDX 9 1 10 2 11 3 12 4 13 5 14 6 15 7 16 8 17 9 18 10 19 11 8 12
REMARK SMILES IDX 7 13 6 14 5 15 4 16 3 17 2 18 1 19
REMARK H PARENT
REMARK Flexibility Score: inf
ROOT
ATOM      1  C   UNL     1       4.492  12.275  82.263  1.00  0.00     0.000 C 
ENDROOT
BRANCH   1   2
ATOM      2  C   UNL     1       3.340  13.037  81.587  1.00  0.00     0.000 C 
BRANCH   2   3
ATOM      3  C   UNL     1       2.455  12.117  80.729  1.00  0.00     0.000 C 
BRANCH   3   4
ATOM      4  C   UNL     1       1.138  11.744  81.424  1.00  0.00     0.000 C 
BRANCH   4   5
ATOM      5  C   UNL     1       1.190  10.374  82.114  1.00  0.00     0.001 C 
BRANCH   5   6
ATOM      6  C   UNL     1       1.254  10.537  83.645  1.00  0.00     0.009 C 
BRANCH   6   7
ATOM      7  C   UNL     1       1.732   9.278  84.400  1.00  0.00     0.032 C 
ATOM      8  C   UNL     1       0.564   8.396  84.875  1.00  0.00     0.014 C 
BRANCH   7   9
ATOM      9  C   UNL     1       2.670   9.630  85.528  1.00  0.00     0.044 C 
ATOM     10  O   UNL     1       3.364  10.678  85.456  1.00  0.00    -0.550 OA
ATOM     11  O   UNL     1       2.777   8.819  86.656  1.00  0.00    -0.550 OA
ENDBRANCH   7   9
ENDBRANCH   6   7
ENDBRANCH   5   6
ENDBRANCH   4   5
ENDBRANCH   3   4
ENDBRANCH   2   3
ENDBRANCH   1   2
BRANCH   1  12
ATOM     12  C   UNL     1       4.842  10.973  81.524  1.00  0.00     0.000 C 
BRANCH  12  13
ATOM     13  C   UNL     1       4.955   9.796  82.501  1.00  0.00    -0.000 C 
BRANCH  13  14
ATOM     14  C   UNL     1       5.514   8.551  81.795  1.00  0.00    -0.000 C 
BRANCH  14  15
ATOM     15  C   UNL     1       6.993   8.700  81.404  1.00  0.00    -0.000 C 
BRANCH  15  16
ATOM     16  C   UNL     1       7.285   8.186  79.985  1.00  0.00    -0.000 C 
BRANCH  16  17
ATOM     17  C   UNL     1       8.792   8.134  79.667  1.00  0.00    -0.000 C 
BRANCH  17  18
ATOM     18  C   UNL     1       9.280   6.811  79.047  1.00  0.00    -0.003 C 
ATOM     19  C   UNL     1       8.509   5.590  79.551  1.00  0.00     0.004 C 
ENDBRANCH  17  18
ENDBRANCH  16  17
ENDBRANCH  15  16
ENDBRANCH  14  15
ENDBRANCH  13  14
ENDBRANCH  12  13
ENDBRANCH   1  12
TORSDOF 14
ENDMDL
