MODEL 1
REMARK VINA RESULT:    -3.541      0.000      0.000
REMARK INTER + INTRA:          -4.442
REMARK INTER:                  -4.990
REMARK INTRA:                   0.548
REMARK UNBOUND:                 0.548
REMARK SMILES CC1=CCCC(C)=CCC(C)(C)C=CC1
REMARK SMILES IDX 2 1 3 2 1 3 4 4 5 5 6 6 7 7 8 8 15 10 14 11 13 12 10 13
REMARK SMILES IDX 11 14 12 15 9 16
REMARK H PARENT
REMARK Flexibility Score: 60.00
ROOT
ATOM      1  C   UNL     1     137.193 132.339 134.450  1.00  0.00    -0.074 C 
ATOM      2  C   UNL     1     138.025 132.391 135.522  1.00  0.00    -0.027 C 
ATOM      3  C   UNL     1     137.761 132.695 133.099  1.00  0.00     0.039 C 
ENDROOT
BRANCH   2   4
ATOM      4  C   UNL     1     137.643 132.067 136.948  1.00  0.00     0.032 C 
BRANCH   4   5
ATOM      5  C   UNL     1     137.662 133.324 137.832  1.00  0.00     0.034 C 
BRANCH   5   6
ATOM      6  C   UNL     1     136.339 133.654 138.503  1.00  0.00    -0.077 C 
ATOM      7  C   UNL     1     136.204 133.365 139.980  1.00  0.00     0.039 C 
ATOM      8  C   UNL     1     135.224 134.083 137.856  1.00  0.00    -0.027 CG0
ATOM      9  G   UNL     1     135.107 134.616 136.438  1.00  0.00     0.000 G0
ENDBRANCH   5   6
ENDBRANCH   4   5
ENDBRANCH   2   4
BRANCH   1  10
ATOM     10  C   UNL     1     135.732 131.928 134.540  1.00  0.00     0.057 C 
BRANCH  10  11
ATOM     11  C   UNL     1     134.873 132.883 133.751  1.00  0.00    -0.026 C 
ATOM     12  C   UNL     1     134.003 133.807 134.222  1.00  0.00    -0.024 C 
BRANCH  12  13
ATOM     13  C   UNL     1     133.781 134.277 135.663  1.00  0.00    -0.014 C 
ATOM     14  C   UNL     1     133.046 133.148 136.426  1.00  0.00     0.016 C 
ATOM     15  C   UNL     1     132.840 135.504 135.653  1.00  0.00     0.016 C 
BRANCH  13  16
ATOM     16  C   UNL     1     135.085 134.631 136.441  1.00  0.00     0.038 CG0
ATOM     17  G   UNL     1     135.231 134.079 137.849  1.00  0.00     0.000 G0
ENDBRANCH  13  16
ENDBRANCH  12  13
ENDBRANCH  10  11
ENDBRANCH   1  10
TORSDOF 0
ENDMDL
MODEL 2
REMARK VINA RESULT:    -3.508      3.583      4.853
REMARK INTER + INTRA:          -4.395
REMARK INTER:                  -5.075
REMARK INTRA:                   0.680
REMARK UNBOUND:                 0.548
REMARK SMILES CC1=CCCC(C)=CCC(C)(C)C=CC1
REMARK SMILES IDX 2 1 3 2 1 3 4 4 5 5 6 6 7 7 8 8 15 10 14 11 13 12 10 13
REMARK SMILES IDX 11 14 12 15 9 16
REMARK H PARENT
REMARK Flexibility Score: 60.00
ROOT
ATOM      1  C   UNL     1     140.260 136.842 133.869  1.00  0.00    -0.074 C 
ATOM      2  C   UNL     1     140.222 137.775 134.853  1.00  0.00    -0.027 C 
ATOM      3  C   UNL     1     140.090 137.311 132.445  1.00  0.00     0.039 C 
ENDROOT
BRANCH   2   4
ATOM      4  C   UNL     1     140.377 137.501 136.331  1.00  0.00     0.032 C 
BRANCH   4   5
ATOM      5  C   UNL     1     139.019 137.526 137.051  1.00  0.00     0.034 C 
BRANCH   5   6
ATOM      6  C   UNL     1     138.835 136.451 138.109  1.00  0.00    -0.077 C 
ATOM      7  C   UNL     1     139.305 136.751 139.512  1.00  0.00     0.039 C 
ATOM      8  C   UNL     1     138.383 135.192 137.867  1.00  0.00    -0.027 CG0
ATOM      9  G   UNL     1     137.689 134.665 136.623  1.00  0.00     0.000 G0
ENDBRANCH   5   6
ENDBRANCH   4   5
ENDBRANCH   2   4
BRANCH   1  10
ATOM     10  C   UNL     1     140.479 135.359 134.124  1.00  0.00     0.057 C 
BRANCH  10  11
ATOM     11  C   UNL     1     139.304 134.564 133.614  1.00  0.00    -0.026 C 
ATOM     12  C   UNL     1     138.490 133.736 134.311  1.00  0.00    -0.024 C 
BRANCH  12  13
ATOM     13  C   UNL     1     138.404 133.517 135.825  1.00  0.00    -0.014 C 
ATOM     14  C   UNL     1     139.845 133.358 136.368  1.00  0.00     0.016 C 
ATOM     15  C   UNL     1     137.666 132.187 136.100  1.00  0.00     0.016 C 
BRANCH  13  16
ATOM     16  C   UNL     1     137.706 134.669 136.611  1.00  0.00     0.038 CG0
ATOM     17  G   UNL     1     138.404 135.190 137.856  1.00  0.00     0.000 G0
ENDBRANCH  13  16
ENDBRANCH  12  13
ENDBRANCH  10  11
ENDBRANCH   1  10
TORSDOF 0
ENDMDL
MODEL 3
REMARK VINA RESULT:    -3.498      5.690      6.716
REMARK INTER + INTRA:          -4.380
REMARK INTER:                  -4.977
REMARK INTRA:                   0.597
REMARK UNBOUND:                 0.548
REMARK SMILES CC1=CCCC(C)=CCC(C)(C)C=CC1
REMARK SMILES IDX 2 1 3 2 1 3 4 4 5 5 6 6 7 7 8 8 15 10 14 11 13 12 10 13
REMARK SMILES IDX 11 14 12 15 9 16
REMARK H PARENT
REMARK Flexibility Score: 60.00
ROOT
ATOM      1  C   UNL     1     139.534 138.605 136.494  1.00  0.00    -0.074 C 
ATOM      2  C   UNL     1     138.776 138.408 137.603  1.00  0.00    -0.027 C 
ATOM      3  C   UNL     1     140.839 137.857 136.389  1.00  0.00     0.039 C 
ENDROOT
BRANCH   2   4
ATOM      4  C   UNL     1     137.442 139.061 137.883  1.00  0.00     0.032 C 
BRANCH   4   5
ATOM      5  C   UNL     1     136.295 138.315 137.182  1.00  0.00     0.034 C 
BRANCH   5   6
ATOM      6  C   UNL     1     135.102 139.179 136.810  1.00  0.00    -0.077 C 
ATOM      7  C   UNL     1     133.809 138.960 137.560  1.00  0.00     0.039 C 
ATOM      8  C   UNL     1     135.071 140.059 135.774  1.00  0.00    -0.027 CG0
ATOM      9  G   UNL     1     136.239 140.607 134.972  1.00  0.00     0.000 G0
ENDBRANCH   5   6
ENDBRANCH   4   5
ENDBRANCH   2   4
BRANCH   1  10
ATOM     10  C   UNL     1     139.130 139.524 135.352  1.00  0.00     0.057 C 
BRANCH  10  11
ATOM     11  C   UNL     1     138.629 138.713 134.184  1.00  0.00    -0.026 C 
ATOM     12  C   UNL     1     137.483 138.880 133.481  1.00  0.00    -0.024 C 
BRANCH  12  13
ATOM     13  C   UNL     1     136.476 140.032 133.538  1.00  0.00    -0.014 C 
ATOM     14  C   UNL     1     135.126 139.516 132.982  1.00  0.00     0.016 C 
ATOM     15  C   UNL     1     136.950 141.164 132.598  1.00  0.00     0.016 C 
BRANCH  13  16
ATOM     16  C   UNL     1     136.231 140.614 134.965  1.00  0.00     0.038 CG0
ATOM     17  G   UNL     1     135.078 140.036 135.767  1.00  0.00     0.000 G0
ENDBRANCH  13  16
ENDBRANCH  12  13
ENDBRANCH  10  11
ENDBRANCH   1  10
TORSDOF 0
ENDMDL
MODEL 4
REMARK VINA RESULT:    -3.449      5.092      6.843
REMARK INTER + INTRA:          -4.312
REMARK INTER:                  -4.587
REMARK INTRA:                   0.275
REMARK UNBOUND:                 0.548
REMARK SMILES CC1=CCCC(C)=CCC(C)(C)C=CC1
REMARK SMILES IDX 2 1 3 2 1 3 4 4 5 5 6 6 7 7 8 8 15 10 14 11 13 12 10 13
REMARK SMILES IDX 11 14 12 15 9 16
REMARK H PARENT
REMARK Flexibility Score: 60.00
ROOT
ATOM      1  C   UNL     1     137.752 139.492 136.003  1.00  0.00    -0.074 C 
ATOM      2  C   UNL     1     138.090 140.162 134.872  1.00  0.00    -0.027 C 
ATOM      3  C   UNL     1     138.858 138.833 136.790  1.00  0.00     0.039 C 
ENDROOT
BRANCH   2   4
ATOM      4  C   UNL     1     137.128 140.887 133.959  1.00  0.00     0.032 C 
BRANCH   4   5
ATOM      5  C   UNL     1     137.058 140.220 132.576  1.00  0.00     0.034 C 
BRANCH   5   6
ATOM      6  C   UNL     1     136.624 138.764 132.588  1.00  0.00    -0.077 C 
ATOM      7  C   UNL     1     137.615 137.726 132.118  1.00  0.00     0.039 C 
ATOM      8  C   UNL     1     135.369 138.330 132.881  1.00  0.00    -0.027 CG0
ATOM      9  G   UNL     1     134.237 139.100 133.538  1.00  0.00     0.000 G0
ENDBRANCH   5   6
ENDBRANCH   4   5
ENDBRANCH   2   4
BRANCH   1  10
ATOM     10  C   UNL     1     136.328 139.386 136.524  1.00  0.00     0.057 C 
BRANCH  10  11
ATOM     11  C   UNL     1     135.790 137.997 136.290  1.00  0.00    -0.026 C 
ATOM     12  C   UNL     1     134.638 137.640 135.674  1.00  0.00    -0.024 C 
BRANCH  12  13
ATOM     13  C   UNL     1     133.657 138.511 134.882  1.00  0.00    -0.014 C 
ATOM     14  C   UNL     1     133.234 139.696 135.784  1.00  0.00     0.016 C 
ATOM     15  C   UNL     1     132.382 137.690 134.585  1.00  0.00     0.016 C 
BRANCH  13  16
ATOM     16  C   UNL     1     134.227 139.084 133.548  1.00  0.00     0.038 CG0
ATOM     17  G   UNL     1     135.365 138.324 132.889  1.00  0.00     0.000 G0
ENDBRANCH  13  16
ENDBRANCH  12  13
ENDBRANCH  10  11
ENDBRANCH   1  10
TORSDOF 0
ENDMDL
MODEL 5
REMARK VINA RESULT:    -3.423      1.345      3.678
REMARK INTER + INTRA:          -4.275
REMARK INTER:                  -4.709
REMARK INTRA:                   0.434
REMARK UNBOUND:                 0.548
REMARK SMILES CC1=CCCC(C)=CCC(C)(C)C=CC1
REMARK SMILES IDX 2 1 3 2 1 3 4 4 5 5 6 6 7 7 8 8 15 10 14 11 13 12 10 13
REMARK SMILES IDX 11 14 12 15 9 16
REMARK H PARENT
REMARK Flexibility Score: 60.00
ROOT
ATOM      1  C   UNL     1     132.980 134.244 137.068  1.00  0.00    -0.074 C 
ATOM      2  C   UNL     1     133.305 134.619 138.332  1.00  0.00    -0.027 C 
ATOM      3  C   UNL     1     132.075 135.152 136.274  1.00  0.00     0.039 C 
ENDROOT
BRANCH   2   4
ATOM      4  C   UNL     1     134.199 133.848 139.275  1.00  0.00     0.032 C 
BRANCH   4   5
ATOM      5  C   UNL     1     135.611 134.455 139.331  1.00  0.00     0.034 C 
BRANCH   5   6
ATOM      6  C   UNL     1     136.711 133.569 138.772  1.00  0.00    -0.077 C 
ATOM      7  C   UNL     1     137.436 132.652 139.729  1.00  0.00     0.039 C 
ATOM      8  C   UNL     1     137.176 133.617 137.495  1.00  0.00    -0.027 CG0
ATOM      9  G   UNL     1     136.545 134.295 136.291  1.00  0.00     0.000 G0
ENDBRANCH   5   6
ENDBRANCH   4   5
ENDBRANCH   2   4
BRANCH   1  10
ATOM     10  C   UNL     1     133.491 132.972 136.412  1.00  0.00     0.057 C 
BRANCH  10  11
ATOM     11  C   UNL     1     133.782 133.220 134.953  1.00  0.00    -0.026 C 
ATOM     12  C   UNL     1     134.976 133.494 134.375  1.00  0.00    -0.024 C 
BRANCH  12  13
ATOM     13  C   UNL     1     136.379 133.444 134.987  1.00  0.00    -0.014 C 
ATOM     14  C   UNL     1     137.382 133.960 133.927  1.00  0.00     0.016 C 
ATOM     15  C   UNL     1     136.748 131.973 135.283  1.00  0.00     0.016 C 
BRANCH  13  16
ATOM     16  C   UNL     1     136.554 134.292 136.285  1.00  0.00     0.038 CG0
ATOM     17  G   UNL     1     137.159 133.602 137.495  1.00  0.00     0.000 G0
ENDBRANCH  13  16
ENDBRANCH  12  13
ENDBRANCH  10  11
ENDBRANCH   1  10
TORSDOF 0
ENDMDL
MODEL 6
REMARK VINA RESULT:    -3.378      2.358      4.720
REMARK INTER + INTRA:          -4.212
REMARK INTER:                  -4.630
REMARK INTRA:                   0.418
REMARK UNBOUND:                 0.548
REMARK SMILES CC1=CCCC(C)=CCC(C)(C)C=CC1
REMARK SMILES IDX 2 1 3 2 1 3 4 4 5 5 6 6 7 7 8 8 15 10 14 11 13 12 10 13
REMARK SMILES IDX 11 14 12 15 9 16
REMARK H PARENT
REMARK Flexibility Score: 60.00
ROOT
ATOM      1  C   UNL     1     132.374 137.054 134.284  1.00  0.00    -0.074 C 
ATOM      2  C   UNL     1     132.703 138.319 134.652  1.00  0.00    -0.027 C 
ATOM      3  C   UNL     1     132.219 136.765 132.812  1.00  0.00     0.039 C 
ENDROOT
BRANCH   2   4
ATOM      4  C   UNL     1     132.906 138.797 136.070  1.00  0.00     0.032 C 
BRANCH   4   5
ATOM      5  C   UNL     1     134.342 138.529 136.551  1.00  0.00     0.034 C 
BRANCH   5   6
ATOM      6  C   UNL     1     134.458 137.550 137.707  1.00  0.00    -0.077 C 
ATOM      7  C   UNL     1     134.069 138.032 139.084  1.00  0.00     0.039 C 
ATOM      8  C   UNL     1     134.995 136.304 137.620  1.00  0.00    -0.027 CG0
ATOM      9  G   UNL     1     135.304 135.499 136.369  1.00  0.00     0.000 G0
ENDBRANCH   5   6
ENDBRANCH   4   5
ENDBRANCH   2   4
BRANCH   1  10
ATOM     10  C   UNL     1     132.171 135.918 135.273  1.00  0.00     0.057 C 
BRANCH  10  11
ATOM     11  C   UNL     1     132.654 134.619 134.680  1.00  0.00    -0.026 C 
ATOM     12  C   UNL     1     133.740 133.892 135.035  1.00  0.00    -0.024 C 
BRANCH  12  13
ATOM     13  C   UNL     1     134.666 134.067 136.243  1.00  0.00    -0.014 C 
ATOM     14  C   UNL     1     135.801 133.020 136.131  1.00  0.00     0.016 C 
ATOM     15  C   UNL     1     133.878 133.746 137.533  1.00  0.00     0.016 C 
BRANCH  13  16
ATOM     16  C   UNL     1     135.311 135.482 136.368  1.00  0.00     0.038 CG0
ATOM     17  G   UNL     1     134.992 136.288 137.616  1.00  0.00     0.000 G0
ENDBRANCH  13  16
ENDBRANCH  12  13
ENDBRANCH  10  11
ENDBRANCH   1  10
TORSDOF 0
ENDMDL
MODEL 7
REMARK VINA RESULT:    -3.376      2.340      5.176
REMARK INTER + INTRA:          -4.209
REMARK INTER:                  -4.475
REMARK INTRA:                   0.267
REMARK UNBOUND:                 0.548
REMARK SMILES CC1=CCCC(C)=CCC(C)(C)C=CC1
REMARK SMILES IDX 2 1 3 2 1 3 4 4 5 5 6 6 7 7 8 8 15 10 14 11 13 12 10 13
REMARK SMILES IDX 11 14 12 15 9 16
REMARK H PARENT
REMARK Flexibility Score: 60.00
ROOT
ATOM      1  C   UNL     1     132.457 134.578 135.495  1.00  0.00    -0.074 C 
ATOM      2  C   UNL     1     132.257 135.497 134.517  1.00  0.00    -0.027 C 
ATOM      3  C   UNL     1     131.901 134.874 136.866  1.00  0.00     0.039 C 
ENDROOT
BRANCH   2   4
ATOM      4  C   UNL     1     132.731 135.377 133.087  1.00  0.00     0.032 C 
BRANCH   4   5
ATOM      5  C   UNL     1     133.783 136.448 132.754  1.00  0.00     0.034 C 
BRANCH   5   6
ATOM      6  C   UNL     1     135.027 136.417 133.626  1.00  0.00    -0.077 C 
ATOM      7  C   UNL     1     135.341 137.640 134.454  1.00  0.00     0.039 C 
ATOM      8  C   UNL     1     135.946 135.415 133.633  1.00  0.00    -0.027 CG0
ATOM      9  G   UNL     1     135.818 134.017 133.053  1.00  0.00     0.000 G0
ENDBRANCH   5   6
ENDBRANCH   4   5
ENDBRANCH   2   4
BRANCH   1  10
ATOM     10  C   UNL     1     133.194 133.266 135.278  1.00  0.00     0.057 C 
BRANCH  10  11
ATOM     11  C   UNL     1     134.519 133.289 135.996  1.00  0.00    -0.026 C 
ATOM     12  C   UNL     1     135.747 133.023 135.491  1.00  0.00    -0.024 C 
BRANCH  12  13
ATOM     13  C   UNL     1     136.166 132.815 134.032  1.00  0.00    -0.014 C 
ATOM     14  C   UNL     1     135.449 131.548 133.505  1.00  0.00     0.016 C 
ATOM     15  C   UNL     1     137.685 132.532 133.980  1.00  0.00     0.016 C 
BRANCH  13  16
ATOM     16  C   UNL     1     135.828 134.004 133.081  1.00  0.00     0.038 CG0
ATOM     17  G   UNL     1     135.953 135.409 133.646  1.00  0.00     0.000 G0
ENDBRANCH  13  16
ENDBRANCH  12  13
ENDBRANCH  10  11
ENDBRANCH   1  10
TORSDOF 0
ENDMDL
MODEL 8
REMARK VINA RESULT:    -3.320      4.657      6.023
REMARK INTER + INTRA:          -4.131
REMARK INTER:                  -4.470
REMARK INTRA:                   0.339
REMARK UNBOUND:                 0.548
REMARK SMILES CC1=CCCC(C)=CCC(C)(C)C=CC1
REMARK SMILES IDX 2 1 3 2 1 3 4 4 5 5 6 6 7 7 8 8 15 10 14 11 13 12 10 13
REMARK SMILES IDX 11 14 12 15 9 16
REMARK H PARENT
REMARK Flexibility Score: 60.00
ROOT
ATOM      1  C   UNL     1     138.359 139.386 134.301  1.00  0.00    -0.074 C 
ATOM      2  C   UNL     1     138.440 139.876 135.564  1.00  0.00    -0.027 C 
ATOM      3  C   UNL     1     137.349 140.005 133.367  1.00  0.00     0.039 C 
ENDROOT
BRANCH   2   4
ATOM      4  C   UNL     1     139.390 139.392 136.635  1.00  0.00     0.032 C 
BRANCH   4   5
ATOM      5  C   UNL     1     138.649 138.592 137.720  1.00  0.00     0.034 C 
BRANCH   5   6
ATOM      6  C   UNL     1     137.658 137.568 137.194  1.00  0.00    -0.077 C 
ATOM      7  C   UNL     1     136.185 137.853 137.371  1.00  0.00     0.039 C 
ATOM      8  C   UNL     1     137.992 136.355 136.678  1.00  0.00    -0.027 CG0
ATOM      9  G   UNL     1     139.359 135.871 136.226  1.00  0.00     0.000 G0
ENDBRANCH   5   6
ENDBRANCH   4   5
ENDBRANCH   2   4
BRANCH   1  10
ATOM     10  C   UNL     1     139.240 138.263 133.777  1.00  0.00     0.057 C 
BRANCH  10  11
ATOM     11  C   UNL     1     138.394 137.081 133.376  1.00  0.00    -0.026 C 
ATOM     12  C   UNL     1     138.537 135.788 133.749  1.00  0.00    -0.024 C 
BRANCH  12  13
ATOM     13  C   UNL     1     139.459 135.186 134.813  1.00  0.00    -0.014 C 
ATOM     14  C   UNL     1     140.918 135.315 134.311  1.00  0.00     0.016 C 
ATOM     15  C   UNL     1     139.157 133.676 134.947  1.00  0.00     0.016 C 
BRANCH  13  16
ATOM     16  C   UNL     1     139.360 135.860 136.217  1.00  0.00     0.038 CG0
ATOM     17  G   UNL     1     137.995 136.357 136.660  1.00  0.00     0.000 G0
ENDBRANCH  13  16
ENDBRANCH  12  13
ENDBRANCH  10  11
ENDBRANCH   1  10
TORSDOF 0
ENDMDL
MODEL 9
REMARK VINA RESULT:    -3.268      1.422      3.814
REMARK INTER + INTRA:          -4.056
REMARK INTER:                  -4.510
REMARK INTRA:                   0.453
REMARK UNBOUND:                 0.548
REMARK SMILES CC1=CCCC(C)=CCC(C)(C)C=CC1
REMARK SMILES IDX 2 1 3 2 1 3 4 4 5 5 6 6 7 7 8 8 15 10 14 11 13 12 10 13
REMARK SMILES IDX 11 14 12 15 9 16
REMARK H PARENT
REMARK Flexibility Score: 60.00
ROOT
ATOM      1  C   UNL     1     138.440 133.541 137.512  1.00  0.00    -0.074 C 
ATOM      2  C   UNL     1     139.394 133.589 136.548  1.00  0.00    -0.027 C 
ATOM      3  C   UNL     1     138.749 134.181 138.843  1.00  0.00     0.039 C 
ENDROOT
BRANCH   2   4
ATOM      4  C   UNL     1     139.267 133.012 135.157  1.00  0.00     0.032 C 
BRANCH   4   5
ATOM      5  C   UNL     1     138.518 133.973 134.218  1.00  0.00     0.034 C 
BRANCH   5   6
ATOM      6  C   UNL     1     137.212 133.433 133.660  1.00  0.00    -0.077 C 
ATOM      7  C   UNL     1     137.285 132.333 132.628  1.00  0.00     0.039 C 
ATOM      8  C   UNL     1     135.981 133.943 133.930  1.00  0.00    -0.027 CG0
ATOM      9  G   UNL     1     135.586 134.910 135.033  1.00  0.00     0.000 G0
ENDBRANCH   5   6
ENDBRANCH   4   5
ENDBRANCH   2   4
BRANCH   1  10
ATOM     10  C   UNL     1     137.078 132.893 137.316  1.00  0.00     0.057 C 
BRANCH  10  11
ATOM     11  C   UNL     1     136.018 133.678 138.047  1.00  0.00    -0.026 C 
ATOM     12  C   UNL     1     134.995 134.390 137.520  1.00  0.00    -0.024 C 
BRANCH  12  13
ATOM     13  C   UNL     1     134.507 134.450 136.069  1.00  0.00    -0.014 C 
ATOM     14  C   UNL     1     133.306 135.426 136.008  1.00  0.00     0.016 C 
ATOM     15  C   UNL     1     133.980 133.056 135.657  1.00  0.00     0.016 C 
BRANCH  13  16
ATOM     16  C   UNL     1     135.580 134.923 135.040  1.00  0.00     0.038 CG0
ATOM     17  G   UNL     1     135.972 133.950 133.941  1.00  0.00     0.000 G0
ENDBRANCH  13  16
ENDBRANCH  12  13
ENDBRANCH  10  11
ENDBRANCH   1  10
TORSDOF 0
ENDMDL
