MODEL 1
REMARK VINA RESULT:    -5.018      0.000      0.000
REMARK INTER + INTRA:          -5.646
REMARK INTER:                  -5.458
REMARK INTRA:                  -0.188
REMARK UNBOUND:                -0.188
REMARK SMILES O=C([O-])c1ccccc1O
REMARK SMILES IDX 4 1 9 2 5 3 8 4 6 5 7 6 2 7 1 8 3 9 10 10
REMARK H PARENT 10 11
REMARK Flexibility Score: inf
ROOT
ATOM      1  C   UNL     1      58.635   0.485  -1.583  1.00  0.00     0.039 A 
ATOM      2  C   UNL     1      58.243   1.662  -2.273  1.00  0.00     0.124 A 
ATOM      3  C   UNL     1      59.767  -0.219  -2.031  1.00  0.00     0.014 A 
ATOM      4  C   UNL     1      59.020   2.132  -3.339  1.00  0.00     0.047 A 
ATOM      5  C   UNL     1      60.520   0.252  -3.109  1.00  0.00     0.001 A 
ATOM      6  C   UNL     1      60.152   1.431  -3.756  1.00  0.00     0.004 A 
ENDROOT
BRANCH   1   7
ATOM      7  C   UNL     1      57.923  -0.019  -0.388  1.00  0.00     0.075 C 
ATOM      8  O   UNL     1      58.508  -0.117   0.722  1.00  0.00    -0.545 OA
ATOM      9  O   UNL     1      56.609  -0.459  -0.496  1.00  0.00    -0.545 OA
ENDBRANCH   1   7
BRANCH   2  10
ATOM     10  O   UNL     1      57.080   2.370  -1.956  1.00  0.00    -0.507 OA
ATOM     11  H   UNL     1      56.840   3.262  -2.366  1.00  0.00     0.293 HD
ENDBRANCH   2  10
TORSDOF 2
ENDMDL
MODEL 2
REMARK VINA RESULT:    -4.985      1.855      2.491
REMARK INTER + INTRA:          -5.610
REMARK INTER:                  -5.358
REMARK INTRA:                  -0.252
REMARK UNBOUND:                -0.188
REMARK SMILES O=C([O-])c1ccccc1O
REMARK SMILES IDX 4 1 9 2 5 3 8 4 6 5 7 6 2 7 1 8 3 9 10 10
REMARK H PARENT 10 11
REMARK Flexibility Score: inf
ROOT
ATOM      1  C   UNL     1      58.862   0.311  -2.670  1.00  0.00     0.039 A 
ATOM      2  C   UNL     1      57.933   0.954  -1.811  1.00  0.00     0.124 A 
ATOM      3  C   UNL     1      59.640   1.097  -3.540  1.00  0.00     0.014 A 
ATOM      4  C   UNL     1      57.852   2.352  -1.799  1.00  0.00     0.047 A 
ATOM      5  C   UNL     1      59.533   2.490  -3.530  1.00  0.00     0.001 A 
ATOM      6  C   UNL     1      58.648   3.117  -2.653  1.00  0.00     0.004 A 
ENDROOT
BRANCH   1   7
ATOM      7  C   UNL     1      59.074  -1.154  -2.671  1.00  0.00     0.075 C 
ATOM      8  O   UNL     1      60.228  -1.641  -2.796  1.00  0.00    -0.545 OA
ATOM      9  O   UNL     1      57.984  -2.014  -2.601  1.00  0.00    -0.545 OA
ENDBRANCH   1   7
BRANCH   2  10
ATOM     10  O   UNL     1      57.054   0.246  -0.986  1.00  0.00    -0.507 OA
ATOM     11  H   UNL     1      57.347  -0.486  -0.355  1.00  0.00     0.293 HD
ENDBRANCH   2  10
TORSDOF 2
ENDMDL
MODEL 3
REMARK VINA RESULT:    -4.899      1.509      2.290
REMARK INTER + INTRA:          -5.517
REMARK INTER:                  -5.268
REMARK INTRA:                  -0.249
REMARK UNBOUND:                -0.188
REMARK SMILES O=C([O-])c1ccccc1O
REMARK SMILES IDX 4 1 9 2 5 3 8 4 6 5 7 6 2 7 1 8 3 9 10 10
REMARK H PARENT 10 11
REMARK Flexibility Score: inf
ROOT
ATOM      1  C   UNL     1      59.159   0.152  -2.068  1.00  0.00     0.039 A 
ATOM      2  C   UNL     1      57.979   0.846  -1.691  1.00  0.00     0.124 A 
ATOM      3  C   UNL     1      60.004   0.725  -3.036  1.00  0.00     0.014 A 
ATOM      4  C   UNL     1      57.712   2.107  -2.238  1.00  0.00     0.047 A 
ATOM      5  C   UNL     1      59.712   1.975  -3.587  1.00  0.00     0.001 A 
ATOM      6  C   UNL     1      58.573   2.669  -3.181  1.00  0.00     0.004 A 
ENDROOT
BRANCH   1   7
ATOM      7  C   UNL     1      59.559  -1.138  -1.463  1.00  0.00     0.075 C 
ATOM      8  O   UNL     1      58.726  -2.069  -1.313  1.00  0.00    -0.545 OA
ATOM      9  O   UNL     1      60.854  -1.311  -0.988  1.00  0.00    -0.545 OA
ENDBRANCH   1   7
BRANCH   2  10
ATOM     10  O   UNL     1      57.037   0.308  -0.810  1.00  0.00    -0.507 OA
ATOM     11  H   UNL     1      57.224  -0.477  -0.202  1.00  0.00     0.293 HD
ENDBRANCH   2  10
TORSDOF 2
ENDMDL
MODEL 4
REMARK VINA RESULT:    -4.769      1.886      3.463
REMARK INTER + INTRA:          -5.375
REMARK INTER:                  -5.123
REMARK INTRA:                  -0.252
REMARK UNBOUND:                -0.188
REMARK SMILES O=C([O-])c1ccccc1O
REMARK SMILES IDX 4 1 9 2 5 3 8 4 6 5 7 6 2 7 1 8 3 9 10 10
REMARK H PARENT 10 11
REMARK Flexibility Score: inf
ROOT
ATOM      1  C   UNL     1      58.752   0.691  -2.488  1.00  0.00     0.039 A 
ATOM      2  C   UNL     1      57.963   1.045  -1.362  1.00  0.00     0.124 A 
ATOM      3  C   UNL     1      58.860  -0.666  -2.842  1.00  0.00     0.014 A 
ATOM      4  C   UNL     1      57.261   0.052  -0.668  1.00  0.00     0.047 A 
ATOM      5  C   UNL     1      58.169  -1.647  -2.126  1.00  0.00     0.001 A 
ATOM      6  C   UNL     1      57.363  -1.287  -1.047  1.00  0.00     0.004 A 
ENDROOT
BRANCH   1   7
ATOM      7  C   UNL     1      59.444   1.693  -3.329  1.00  0.00     0.075 C 
ATOM      8  O   UNL     1      60.589   1.463  -3.800  1.00  0.00    -0.545 OA
ATOM      9  O   UNL     1      58.861   2.934  -3.554  1.00  0.00    -0.545 OA
ENDBRANCH   1   7
BRANCH   2  10
ATOM     10  O   UNL     1      57.877   2.355  -0.883  1.00  0.00    -0.507 OA
ATOM     11  H   UNL     1      57.019   2.775  -0.553  1.00  0.00     0.293 HD
ENDBRANCH   2  10
TORSDOF 2
ENDMDL
MODEL 5
REMARK VINA RESULT:    -4.739      1.501      2.258
REMARK INTER + INTRA:          -5.342
REMARK INTER:                  -5.097
REMARK INTRA:                  -0.245
REMARK UNBOUND:                -0.188
REMARK SMILES O=C([O-])c1ccccc1O
REMARK SMILES IDX 4 1 9 2 5 3 8 4 6 5 7 6 2 7 1 8 3 9 10 10
REMARK H PARENT 10 11
REMARK Flexibility Score: inf
ROOT
ATOM      1  C   UNL     1      58.255   0.556  -1.742  1.00  0.00     0.039 A 
ATOM      2  C   UNL     1      59.251   0.200  -2.689  1.00  0.00     0.124 A 
ATOM      3  C   UNL     1      57.846   1.900  -1.659  1.00  0.00     0.014 A 
ATOM      4  C   UNL     1      59.760   1.173  -3.558  1.00  0.00     0.047 A 
ATOM      5  C   UNL     1      58.379   2.863  -2.520  1.00  0.00     0.001 A 
ATOM      6  C   UNL     1      59.327   2.497  -3.475  1.00  0.00     0.004 A 
ENDROOT
BRANCH   1   7
ATOM      7  C   UNL     1      57.599  -0.432  -0.857  1.00  0.00     0.075 C 
ATOM      8  O   UNL     1      57.504  -0.229   0.382  1.00  0.00    -0.545 OA
ATOM      9  O   UNL     1      57.139  -1.635  -1.379  1.00  0.00    -0.545 OA
ENDBRANCH   1   7
BRANCH   2  10
ATOM     10  O   UNL     1      59.783  -1.089  -2.775  1.00  0.00    -0.507 OA
ATOM     11  H   UNL     1      59.255  -1.892  -3.085  1.00  0.00     0.293 HD
ENDBRANCH   2  10
TORSDOF 2
ENDMDL
MODEL 6
REMARK VINA RESULT:    -4.591      1.477      3.211
REMARK INTER + INTRA:          -5.182
REMARK INTER:                  -4.950
REMARK INTRA:                  -0.232
REMARK UNBOUND:                -0.188
REMARK SMILES O=C([O-])c1ccccc1O
REMARK SMILES IDX 4 1 9 2 5 3 8 4 6 5 7 6 2 7 1 8 3 9 10 10
REMARK H PARENT 10 11
REMARK Flexibility Score: inf
ROOT
ATOM      1  C   UNL     1      58.880   0.665  -2.574  1.00  0.00     0.039 A 
ATOM      2  C   UNL     1      58.115  -0.175  -1.722  1.00  0.00     0.124 A 
ATOM      3  C   UNL     1      59.977   0.116  -3.261  1.00  0.00     0.014 A 
ATOM      4  C   UNL     1      58.426  -1.537  -1.631  1.00  0.00     0.047 A 
ATOM      5  C   UNL     1      60.287  -1.241  -3.144  1.00  0.00     0.001 A 
ATOM      6  C   UNL     1      59.506  -2.068  -2.338  1.00  0.00     0.004 A 
ENDROOT
BRANCH   1   7
ATOM      7  C   UNL     1      58.554   2.092  -2.797  1.00  0.00     0.075 C 
ATOM      8  O   UNL     1      57.408   2.543  -2.538  1.00  0.00    -0.545 OA
ATOM      9  O   UNL     1      59.498   2.939  -3.365  1.00  0.00    -0.545 OA
ENDBRANCH   1   7
BRANCH   2  10
ATOM     10  O   UNL     1      57.070   0.306  -0.929  1.00  0.00    -0.507 OA
ATOM     11  H   UNL     1      56.097   0.258  -1.198  1.00  0.00     0.293 HD
ENDBRANCH   2  10
TORSDOF 2
ENDMDL
MODEL 7
REMARK VINA RESULT:    -4.385      2.357      3.026
REMARK INTER + INTRA:          -4.957
REMARK INTER:                  -4.712
REMARK INTRA:                  -0.245
REMARK UNBOUND:                -0.188
REMARK SMILES O=C([O-])c1ccccc1O
REMARK SMILES IDX 4 1 9 2 5 3 8 4 6 5 7 6 2 7 1 8 3 9 10 10
REMARK H PARENT 10 11
REMARK Flexibility Score: inf
ROOT
ATOM      1  C   UNL     1      59.169   0.356  -2.536  1.00  0.00     0.039 A 
ATOM      2  C   UNL     1      59.938   1.268  -3.304  1.00  0.00     0.124 A 
ATOM      3  C   UNL     1      58.005   0.819  -1.896  1.00  0.00     0.014 A 
ATOM      4  C   UNL     1      59.494   2.587  -3.462  1.00  0.00     0.047 A 
ATOM      5  C   UNL     1      57.586   2.143  -2.047  1.00  0.00     0.001 A 
ATOM      6  C   UNL     1      58.325   3.023  -2.838  1.00  0.00     0.004 A 
ENDROOT
BRANCH   1   7
ATOM      7  C   UNL     1      59.520  -1.076  -2.402  1.00  0.00     0.075 C 
ATOM      8  O   UNL     1      59.864  -1.755  -3.405  1.00  0.00    -0.545 OA
ATOM      9  O   UNL     1      59.407  -1.707  -1.169  1.00  0.00    -0.545 OA
ENDBRANCH   1   7
BRANCH   2  10
ATOM     10  O   UNL     1      61.156   0.919  -3.893  1.00  0.00    -0.507 OA
ATOM     11  H   UNL     1      61.261   0.161  -4.553  1.00  0.00     0.293 HD
ENDBRANCH   2  10
TORSDOF 2
ENDMDL
MODEL 8
REMARK VINA RESULT:    -4.382     13.653     14.748
REMARK INTER + INTRA:          -4.954
REMARK INTER:                  -4.749
REMARK INTRA:                  -0.205
REMARK UNBOUND:                -0.188
REMARK SMILES O=C([O-])c1ccccc1O
REMARK SMILES IDX 4 1 9 2 5 3 8 4 6 5 7 6 2 7 1 8 3 9 10 10
REMARK H PARENT 10 11
REMARK Flexibility Score: inf
ROOT
ATOM      1  C   UNL     1      46.447  -7.255  -0.121  1.00  0.00     0.039 A 
ATOM      2  C   UNL     1      46.790  -8.067  -1.233  1.00  0.00     0.124 A 
ATOM      3  C   UNL     1      47.477  -6.632   0.608  1.00  0.00     0.014 A 
ATOM      4  C   UNL     1      48.131  -8.182  -1.620  1.00  0.00     0.047 A 
ATOM      5  C   UNL     1      48.812  -6.773   0.221  1.00  0.00     0.001 A 
ATOM      6  C   UNL     1      49.137  -7.539  -0.898  1.00  0.00     0.004 A 
ENDROOT
BRANCH   1   7
ATOM      7  C   UNL     1      45.047  -7.006   0.290  1.00  0.00     0.075 C 
ATOM      8  O   UNL     1      44.785  -6.423   1.375  1.00  0.00    -0.545 OA
ATOM      9  O   UNL     1      43.999  -7.478  -0.491  1.00  0.00    -0.545 OA
ENDBRANCH   1   7
BRANCH   2  10
ATOM     10  O   UNL     1      45.842  -8.798  -1.953  1.00  0.00    -0.507 OA
ATOM     11  H   UNL     1      44.874  -8.885  -1.676  1.00  0.00     0.293 HD
ENDBRANCH   2  10
TORSDOF 2
ENDMDL
MODEL 9
REMARK VINA RESULT:    -4.234      2.152      3.915
REMARK INTER + INTRA:          -4.793
REMARK INTER:                  -4.549
REMARK INTRA:                  -0.245
REMARK UNBOUND:                -0.188
REMARK SMILES O=C([O-])c1ccccc1O
REMARK SMILES IDX 4 1 9 2 5 3 8 4 6 5 7 6 2 7 1 8 3 9 10 10
REMARK H PARENT 10 11
REMARK Flexibility Score: inf
ROOT
ATOM      1  C   UNL     1      59.093   0.606  -1.953  1.00  0.00     0.039 A 
ATOM      2  C   UNL     1      59.968  -0.509  -1.875  1.00  0.00     0.124 A 
ATOM      3  C   UNL     1      58.249   0.884  -0.862  1.00  0.00     0.014 A 
ATOM      4  C   UNL     1      60.020  -1.269  -0.700  1.00  0.00     0.047 A 
ATOM      5  C   UNL     1      58.298   0.104   0.295  1.00  0.00     0.001 A 
ATOM      6  C   UNL     1      59.190  -0.965   0.380  1.00  0.00     0.004 A 
ENDROOT
BRANCH   1   7
ATOM      7  C   UNL     1      59.051   1.513  -3.121  1.00  0.00     0.075 C 
ATOM      8  O   UNL     1      60.071   1.696  -3.836  1.00  0.00    -0.545 OA
ATOM      9  O   UNL     1      57.895   2.231  -3.403  1.00  0.00    -0.545 OA
ENDBRANCH   1   7
BRANCH   2  10
ATOM     10  O   UNL     1      60.770  -0.914  -2.945  1.00  0.00    -0.507 OA
ATOM     11  H   UNL     1      60.560  -0.706  -3.912  1.00  0.00     0.293 HD
ENDBRANCH   2  10
TORSDOF 2
ENDMDL
