MODEL 1
REMARK VINA RESULT:    -7.001      0.000      0.000
REMARK INTER + INTRA:          -8.683
REMARK INTER:                  -8.638
REMARK INTRA:                  -0.045
REMARK UNBOUND:                -0.045
REMARK SMILES COc1cc(-c2oc3cc(O)cc(O)c3c(=O)c2O)ccc1O
REMARK SMILES IDX 6 1 18 2 16 3 17 4 15 5 13 6 12 7 10 8 9 9 8 10 7 11 5 12
REMARK SMILES IDX 3 13 22 14 4 15 21 16 20 17 2 18 1 19 23 20 19 22 14 24
REMARK SMILES IDX 11 26
REMARK H PARENT 23 21 19 23 14 25 11 27
REMARK Flexibility Score: inf
ROOT
ATOM      1  C   UNL     1     -22.570  85.395 -23.149  1.00  0.00     0.180 A 
ATOM      2  C   UNL     1     -21.900  86.596 -23.440  1.00  0.00     0.208 A 
ATOM      3  C   UNL     1     -22.279  87.329 -24.576  1.00  0.00     0.238 A 
ATOM      4  O   UNL     1     -21.713  88.430 -24.801  1.00  0.00    -0.285 OA
ATOM      5  C   UNL     1     -23.313  86.845 -25.414  1.00  0.00     0.111 A 
ATOM      6  C   UNL     1     -23.751  87.486 -26.613  1.00  0.00     0.134 A 
ATOM      7  C   UNL     1     -24.868  86.987 -27.293  1.00  0.00     0.093 A 
ATOM      8  C   UNL     1     -25.522  85.835 -26.857  1.00  0.00     0.123 A 
ATOM      9  C   UNL     1     -25.065  85.167 -25.720  1.00  0.00     0.094 A 
ATOM     10  C   UNL     1     -23.975  85.661 -24.999  1.00  0.00     0.146 A 
ATOM     11  O   UNL     1     -23.579  85.001 -23.918  1.00  0.00    -0.452 OA
ENDROOT
BRANCH   1  12
ATOM     12  C   UNL     1     -22.210  84.555 -21.984  1.00  0.00     0.025 A 
ATOM     13  C   UNL     1     -21.649  82.385 -21.001  1.00  0.00     0.161 A 
ATOM     14  C   UNL     1     -21.581  82.989 -19.732  1.00  0.00     0.157 A 
ATOM     15  C   UNL     1     -21.972  83.176 -22.123  1.00  0.00     0.062 A 
ATOM     16  C   UNL     1     -21.839  84.355 -19.592  1.00  0.00     0.051 A 
ATOM     17  C   UNL     1     -22.158  85.132 -20.707  1.00  0.00     0.016 A 
BRANCH  13  18
ATOM     18  O   UNL     1     -21.396  81.008 -21.110  1.00  0.00    -0.493 OA
ATOM     19  C   UNL     1     -21.341  80.292 -22.339  1.00  0.00     0.278 C 
ENDBRANCH  13  18
BRANCH  14  20
ATOM     20  O   UNL     1     -21.260  82.245 -18.597  1.00  0.00    -0.504 OA
ATOM     21  H   UNL     1     -20.527  81.546 -18.598  1.00  0.00     0.293 HD
ENDBRANCH  14  20
ENDBRANCH   1  12
BRANCH   2  22
ATOM     22  O   UNL     1     -20.898  87.066 -22.587  1.00  0.00    -0.502 OA
ATOM     23  H   UNL     1     -20.521  86.508 -21.830  1.00  0.00     0.293 HD
ENDBRANCH   2  22
BRANCH   6  24
ATOM     24  O   UNL     1     -23.111  88.588 -27.186  1.00  0.00    -0.507 OA
ATOM     25  H   UNL     1     -22.980  89.478 -26.731  1.00  0.00     0.293 HD
ENDBRANCH   6  24
BRANCH   8  26
ATOM     26  O   UNL     1     -26.621  85.358 -27.567  1.00  0.00    -0.508 OA
ATOM     27  H   UNL     1     -26.795  84.364 -27.671  1.00  0.00     0.293 HD
ENDBRANCH   8  26
TORSDOF 6
ENDMDL
MODEL 2
REMARK VINA RESULT:    -6.978      6.049      9.397
REMARK INTER + INTRA:          -8.654
REMARK INTER:                  -8.286
REMARK INTRA:                  -0.369
REMARK UNBOUND:                -0.045
REMARK SMILES COc1cc(-c2oc3cc(O)cc(O)c3c(=O)c2O)ccc1O
REMARK SMILES IDX 6 1 18 2 16 3 17 4 15 5 13 6 12 7 10 8 9 9 8 10 7 11 5 12
REMARK SMILES IDX 3 13 22 14 4 15 21 16 20 17 2 18 1 19 23 20 19 22 14 24
REMARK SMILES IDX 11 26
REMARK H PARENT 23 21 19 23 14 25 11 27
REMARK Flexibility Score: inf
ROOT
ATOM      1  C   UNL     1     -24.911  91.980 -28.256  1.00  0.00     0.180 A 
ATOM      2  C   UNL     1     -25.681  92.811 -27.424  1.00  0.00     0.208 A 
ATOM      3  C   UNL     1     -25.725  94.189 -27.692  1.00  0.00     0.238 A 
ATOM      4  O   UNL     1     -26.459  94.920 -26.977  1.00  0.00    -0.285 OA
ATOM      5  C   UNL     1     -24.988  94.719 -28.778  1.00  0.00     0.111 A 
ATOM      6  C   UNL     1     -24.929  96.105 -29.117  1.00  0.00     0.134 A 
ATOM      7  C   UNL     1     -24.273  96.502 -30.289  1.00  0.00     0.093 A 
ATOM      8  C   UNL     1     -23.620  95.573 -31.099  1.00  0.00     0.123 A 
ATOM      9  C   UNL     1     -23.621  94.223 -30.745  1.00  0.00     0.094 A 
ATOM     10  C   UNL     1     -24.297  93.792 -29.601  1.00  0.00     0.146 A 
ATOM     11  O   UNL     1     -24.284  92.498 -29.305  1.00  0.00    -0.452 OA
ENDROOT
BRANCH   1  12
ATOM     12  C   UNL     1     -24.795  90.522 -28.022  1.00  0.00     0.025 A 
ATOM     13  C   UNL     1     -23.808  88.615 -26.849  1.00  0.00     0.161 A 
ATOM     14  C   UNL     1     -24.567  87.742 -27.650  1.00  0.00     0.157 A 
ATOM     15  C   UNL     1     -23.923  90.006 -27.047  1.00  0.00     0.062 A 
ATOM     16  C   UNL     1     -25.417  88.256 -28.633  1.00  0.00     0.051 A 
ATOM     17  C   UNL     1     -25.526  89.635 -28.824  1.00  0.00     0.016 A 
BRANCH  13  18
ATOM     18  O   UNL     1     -22.954  88.069 -25.876  1.00  0.00    -0.493 OA
ATOM     19  C   UNL     1     -22.559  88.737 -24.683  1.00  0.00     0.278 C 
ENDBRANCH  13  18
BRANCH  14  20
ATOM     20  O   UNL     1     -24.488  86.360 -27.485  1.00  0.00    -0.504 OA
ATOM     21  H   UNL     1     -25.311  85.768 -27.479  1.00  0.00     0.293 HD
ENDBRANCH  14  20
ENDBRANCH   1  12
BRANCH   2  22
ATOM     22  O   UNL     1     -26.418  92.263 -26.371  1.00  0.00    -0.502 OA
ATOM     23  H   UNL     1     -27.069  92.810 -25.819  1.00  0.00     0.293 HD
ENDBRANCH   2  22
BRANCH   6  24
ATOM     24  O   UNL     1     -25.468  97.125 -28.327  1.00  0.00    -0.507 OA
ATOM     25  H   UNL     1     -25.856  96.995 -27.405  1.00  0.00     0.293 HD
ENDBRANCH   6  24
BRANCH   8  26
ATOM     26  O   UNL     1     -22.965  96.004 -32.249  1.00  0.00    -0.508 OA
ATOM     27  H   UNL     1     -21.982  96.253 -32.238  1.00  0.00     0.293 HD
ENDBRANCH   8  26
TORSDOF 6
ENDMDL
MODEL 3
REMARK VINA RESULT:    -6.945      1.252      2.803
REMARK INTER + INTRA:          -8.613
REMARK INTER:                  -8.779
REMARK INTRA:                   0.166
REMARK UNBOUND:                -0.045
REMARK SMILES COc1cc(-c2oc3cc(O)cc(O)c3c(=O)c2O)ccc1O
REMARK SMILES IDX 6 1 18 2 16 3 17 4 15 5 13 6 12 7 10 8 9 9 8 10 7 11 5 12
REMARK SMILES IDX 3 13 22 14 4 15 21 16 20 17 2 18 1 19 23 20 19 22 14 24
REMARK SMILES IDX 11 26
REMARK H PARENT 23 21 19 23 14 25 11 27
REMARK Flexibility Score: inf
ROOT
ATOM      1  C   UNL     1     -22.941  85.179 -23.353  1.00  0.00     0.180 A 
ATOM      2  C   UNL     1     -23.761  84.589 -24.331  1.00  0.00     0.208 A 
ATOM      3  C   UNL     1     -24.187  85.366 -25.420  1.00  0.00     0.238 A 
ATOM      4  O   UNL     1     -24.874  84.819 -26.321  1.00  0.00    -0.285 OA
ATOM      5  C   UNL     1     -23.802  86.726 -25.509  1.00  0.00     0.111 A 
ATOM      6  C   UNL     1     -24.210  87.617 -26.548  1.00  0.00     0.134 A 
ATOM      7  C   UNL     1     -23.664  88.905 -26.605  1.00  0.00     0.093 A 
ATOM      8  C   UNL     1     -22.778  89.357 -25.627  1.00  0.00     0.123 A 
ATOM      9  C   UNL     1     -22.419  88.514 -24.575  1.00  0.00     0.094 A 
ATOM     10  C   UNL     1     -22.919  87.211 -24.510  1.00  0.00     0.146 A 
ATOM     11  O   UNL     1     -22.545  86.438 -23.498  1.00  0.00    -0.452 OA
ENDROOT
BRANCH   1  12
ATOM     12  C   UNL     1     -22.473  84.431 -22.163  1.00  0.00     0.025 A 
ATOM     13  C   UNL     1     -21.734  82.360 -21.090  1.00  0.00     0.161 A 
ATOM     14  C   UNL     1     -21.640  83.040 -19.863  1.00  0.00     0.157 A 
ATOM     15  C   UNL     1     -22.159  83.062 -22.236  1.00  0.00     0.062 A 
ATOM     16  C   UNL     1     -21.974  84.395 -19.787  1.00  0.00     0.051 A 
ATOM     17  C   UNL     1     -22.394  85.085 -20.925  1.00  0.00     0.016 A 
BRANCH  13  18
ATOM     18  O   UNL     1     -21.404  80.995 -21.134  1.00  0.00    -0.493 OA
ATOM     19  C   UNL     1     -21.198  80.253 -22.332  1.00  0.00     0.278 C 
ENDBRANCH  13  18
BRANCH  14  20
ATOM     20  O   UNL     1     -21.220  82.386 -18.706  1.00  0.00    -0.504 OA
ATOM     21  H   UNL     1     -21.068  81.384 -18.676  1.00  0.00     0.293 HD
ENDBRANCH  14  20
ENDBRANCH   1  12
BRANCH   2  22
ATOM     22  O   UNL     1     -24.109  83.240 -24.235  1.00  0.00    -0.502 OA
ATOM     23  H   UNL     1     -23.544  82.501 -24.638  1.00  0.00     0.293 HD
ENDBRANCH   2  22
BRANCH   6  24
ATOM     24  O   UNL     1     -25.160  87.297 -27.521  1.00  0.00    -0.507 OA
ATOM     25  H   UNL     1     -26.008  86.778 -27.349  1.00  0.00     0.293 HD
ENDBRANCH   6  24
BRANCH   8  26
ATOM     26  O   UNL     1     -22.266  90.649 -25.707  1.00  0.00    -0.508 OA
ATOM     27  H   UNL     1     -22.015  91.066 -26.597  1.00  0.00     0.293 HD
ENDBRANCH   8  26
TORSDOF 6
ENDMDL
MODEL 4
REMARK VINA RESULT:    -6.677      5.851      9.328
REMARK INTER + INTRA:          -8.283
REMARK INTER:                  -8.056
REMARK INTRA:                  -0.227
REMARK UNBOUND:                -0.045
REMARK SMILES COc1cc(-c2oc3cc(O)cc(O)c3c(=O)c2O)ccc1O
REMARK SMILES IDX 6 1 18 2 16 3 17 4 15 5 13 6 12 7 10 8 9 9 8 10 7 11 5 12
REMARK SMILES IDX 3 13 22 14 4 15 21 16 20 17 2 18 1 19 23 20 19 22 14 24
REMARK SMILES IDX 11 26
REMARK H PARENT 23 21 19 23 14 25 11 27
REMARK Flexibility Score: inf
ROOT
ATOM      1  C   UNL     1     -24.105  91.424 -29.248  1.00  0.00     0.180 A 
ATOM      2  C   UNL     1     -23.510  91.625 -30.506  1.00  0.00     0.208 A 
ATOM      3  C   UNL     1     -23.450  92.926 -31.030  1.00  0.00     0.238 A 
ATOM      4  O   UNL     1     -22.867  93.108 -32.130  1.00  0.00    -0.285 OA
ATOM      5  C   UNL     1     -23.998  94.007 -30.297  1.00  0.00     0.111 A 
ATOM      6  C   UNL     1     -24.028  95.360 -30.751  1.00  0.00     0.134 A 
ATOM      7  C   UNL     1     -24.478  96.367 -29.888  1.00  0.00     0.093 A 
ATOM      8  C   UNL     1     -24.960  96.063 -28.615  1.00  0.00     0.123 A 
ATOM      9  C   UNL     1     -24.990  94.736 -28.184  1.00  0.00     0.094 A 
ATOM     10  C   UNL     1     -24.515  93.714 -29.009  1.00  0.00     0.146 A 
ATOM     11  O   UNL     1     -24.552  92.466 -28.557  1.00  0.00    -0.452 OA
ENDROOT
BRANCH   1  12
ATOM     12  C   UNL     1     -24.229  90.078 -28.642  1.00  0.00     0.025 A 
ATOM     13  C   UNL     1     -23.633  88.441 -26.924  1.00  0.00     0.161 A 
ATOM     14  C   UNL     1     -24.455  87.491 -27.558  1.00  0.00     0.157 A 
ATOM     15  C   UNL     1     -23.520  89.732 -27.478  1.00  0.00     0.062 A 
ATOM     16  C   UNL     1     -25.142  87.829 -28.727  1.00  0.00     0.051 A 
ATOM     17  C   UNL     1     -25.025  89.110 -29.270  1.00  0.00     0.016 A 
BRANCH  13  18
ATOM     18  O   UNL     1     -22.945  88.069 -25.757  1.00  0.00    -0.493 OA
ATOM     19  C   UNL     1     -22.560  88.970 -24.725  1.00  0.00     0.278 C 
ENDBRANCH  13  18
BRANCH  14  20
ATOM     20  O   UNL     1     -24.599  86.203 -27.043  1.00  0.00    -0.504 OA
ATOM     21  H   UNL     1     -25.329  85.574 -27.356  1.00  0.00     0.293 HD
ENDBRANCH  14  20
ENDBRANCH   1  12
BRANCH   2  22
ATOM     22  O   UNL     1     -22.956  90.547 -31.201  1.00  0.00    -0.502 OA
ATOM     23  H   UNL     1     -21.956  90.391 -31.256  1.00  0.00     0.293 HD
ENDBRANCH   2  22
BRANCH   6  24
ATOM     24  O   UNL     1     -23.656  95.760 -32.037  1.00  0.00    -0.507 OA
ATOM     25  H   UNL     1     -23.338  96.685 -32.283  1.00  0.00     0.293 HD
ENDBRANCH   6  24
BRANCH   8  26
ATOM     26  O   UNL     1     -25.414  97.088 -27.789  1.00  0.00    -0.508 OA
ATOM     27  H   UNL     1     -26.351  97.082 -27.403  1.00  0.00     0.293 HD
ENDBRANCH   8  26
TORSDOF 6
ENDMDL
MODEL 5
REMARK VINA RESULT:    -6.652      2.119      7.194
REMARK INTER + INTRA:          -8.253
REMARK INTER:                  -7.884
REMARK INTRA:                  -0.368
REMARK UNBOUND:                -0.045
REMARK SMILES COc1cc(-c2oc3cc(O)cc(O)c3c(=O)c2O)ccc1O
REMARK SMILES IDX 6 1 18 2 16 3 17 4 15 5 13 6 12 7 10 8 9 9 8 10 7 11 5 12
REMARK SMILES IDX 3 13 22 14 4 15 21 16 20 17 2 18 1 19 23 20 19 22 14 24
REMARK SMILES IDX 11 26
REMARK H PARENT 23 21 19 23 14 25 11 27
REMARK Flexibility Score: inf
ROOT
ATOM      1  C   UNL     1     -23.462  85.148 -23.837  1.00  0.00     0.180 A 
ATOM      2  C   UNL     1     -23.509  83.999 -24.645  1.00  0.00     0.208 A 
ATOM      3  C   UNL     1     -23.064  82.777 -24.117  1.00  0.00     0.238 A 
ATOM      4  O   UNL     1     -23.159  81.742 -24.825  1.00  0.00    -0.285 OA
ATOM      5  C   UNL     1     -22.563  82.722 -22.793  1.00  0.00     0.111 A 
ATOM      6  C   UNL     1     -22.048  81.545 -22.170  1.00  0.00     0.134 A 
ATOM      7  C   UNL     1     -21.700  81.578 -20.814  1.00  0.00     0.093 A 
ATOM      8  C   UNL     1     -21.785  82.759 -20.077  1.00  0.00     0.123 A 
ATOM      9  C   UNL     1     -22.231  83.929 -20.692  1.00  0.00     0.094 A 
ATOM     10  C   UNL     1     -22.620  83.919 -22.034  1.00  0.00     0.146 A 
ATOM     11  O   UNL     1     -23.048  85.052 -22.579  1.00  0.00    -0.452 OA
ENDROOT
BRANCH   1  12
ATOM     12  C   UNL     1     -23.889  86.477 -24.332  1.00  0.00     0.025 A 
ATOM     13  C   UNL     1     -25.638  88.113 -24.835  1.00  0.00     0.161 A 
ATOM     14  C   UNL     1     -24.658  88.992 -25.334  1.00  0.00     0.157 A 
ATOM     15  C   UNL     1     -25.244  86.853 -24.341  1.00  0.00     0.062 A 
ATOM     16  C   UNL     1     -23.315  88.609 -25.344  1.00  0.00     0.051 A 
ATOM     17  C   UNL     1     -22.932  87.358 -24.854  1.00  0.00     0.016 A 
BRANCH  13  18
ATOM     18  O   UNL     1     -26.982  88.521 -24.847  1.00  0.00    -0.493 OA
ATOM     19  C   UNL     1     -27.994  87.990 -23.999  1.00  0.00     0.278 C 
ENDBRANCH  13  18
BRANCH  14  20
ATOM     20  O   UNL     1     -25.003  90.250 -25.827  1.00  0.00    -0.504 OA
ATOM     21  H   UNL     1     -25.237  90.403 -26.801  1.00  0.00     0.293 HD
ENDBRANCH  14  20
ENDBRANCH   1  12
BRANCH   2  22
ATOM     22  O   UNL     1     -24.027  84.072 -25.940  1.00  0.00    -0.502 OA
ATOM     23  H   UNL     1     -23.996  84.920 -26.493  1.00  0.00     0.293 HD
ENDBRANCH   2  22
BRANCH   6  24
ATOM     24  O   UNL     1     -21.834  80.337 -22.840  1.00  0.00    -0.507 OA
ATOM     25  H   UNL     1     -21.525  79.483 -22.402  1.00  0.00     0.293 HD
ENDBRANCH   6  24
BRANCH   8  26
ATOM     26  O   UNL     1     -21.416  82.759 -18.734  1.00  0.00    -0.508 OA
ATOM     27  H   UNL     1     -20.801  82.049 -18.353  1.00  0.00     0.293 HD
ENDBRANCH   8  26
TORSDOF 6
ENDMDL
MODEL 6
REMARK VINA RESULT:    -6.554      6.117      9.611
REMARK INTER + INTRA:          -8.132
REMARK INTER:                  -7.736
REMARK INTRA:                  -0.396
REMARK UNBOUND:                -0.045
REMARK SMILES COc1cc(-c2oc3cc(O)cc(O)c3c(=O)c2O)ccc1O
REMARK SMILES IDX 6 1 18 2 16 3 17 4 15 5 13 6 12 7 10 8 9 9 8 10 7 11 5 12
REMARK SMILES IDX 3 13 22 14 4 15 21 16 20 17 2 18 1 19 23 20 19 22 14 24
REMARK SMILES IDX 11 26
REMARK H PARENT 23 21 19 23 14 25 11 27
REMARK Flexibility Score: inf
ROOT
ATOM      1  C   UNL     1     -24.922  91.963 -28.279  1.00  0.00     0.180 A 
ATOM      2  C   UNL     1     -25.675  92.763 -27.403  1.00  0.00     0.208 A 
ATOM      3  C   UNL     1     -25.717  94.151 -27.615  1.00  0.00     0.238 A 
ATOM      4  O   UNL     1     -26.436  94.856 -26.861  1.00  0.00    -0.285 OA
ATOM      5  C   UNL     1     -24.993  94.721 -28.691  1.00  0.00     0.111 A 
ATOM      6  C   UNL     1     -24.932  96.119 -28.975  1.00  0.00     0.134 A 
ATOM      7  C   UNL     1     -24.293  96.559 -30.140  1.00  0.00     0.093 A 
ATOM      8  C   UNL     1     -23.657  95.660 -30.997  1.00  0.00     0.123 A 
ATOM      9  C   UNL     1     -23.659  94.297 -30.697  1.00  0.00     0.094 A 
ATOM     10  C   UNL     1     -24.320  93.824 -29.560  1.00  0.00     0.146 A 
ATOM     11  O   UNL     1     -24.308  92.520 -29.317  1.00  0.00    -0.452 OA
ENDROOT
BRANCH   1  12
ATOM     12  C   UNL     1     -24.809  90.496 -28.105  1.00  0.00     0.025 A 
ATOM     13  C   UNL     1     -25.622  88.224 -28.506  1.00  0.00     0.161 A 
ATOM     14  C   UNL     1     -24.585  87.721 -27.699  1.00  0.00     0.157 A 
ATOM     15  C   UNL     1     -25.731  89.616 -28.698  1.00  0.00     0.062 A 
ATOM     16  C   UNL     1     -23.682  88.598 -27.092  1.00  0.00     0.051 A 
ATOM     17  C   UNL     1     -23.796  89.976 -27.287  1.00  0.00     0.016 A 
BRANCH  13  18
ATOM     18  O   UNL     1     -26.521  87.319 -29.094  1.00  0.00    -0.493 OA
ATOM     19  C   UNL     1     -27.812  87.013 -28.577  1.00  0.00     0.278 C 
ENDBRANCH  13  18
BRANCH  14  20
ATOM     20  O   UNL     1     -24.437  86.351 -27.486  1.00  0.00    -0.504 OA
ATOM     21  H   UNL     1     -23.574  85.861 -27.693  1.00  0.00     0.293 HD
ENDBRANCH  14  20
ENDBRANCH   1  12
BRANCH   2  22
ATOM     22  O   UNL     1     -26.399  92.177 -26.362  1.00  0.00    -0.502 OA
ATOM     23  H   UNL     1     -26.843  92.723 -25.632  1.00  0.00     0.293 HD
ENDBRANCH   2  22
BRANCH   6  24
ATOM     24  O   UNL     1     -25.455  97.109 -28.138  1.00  0.00    -0.507 OA
ATOM     25  H   UNL     1     -25.371  97.115 -27.133  1.00  0.00     0.293 HD
ENDBRANCH   6  24
BRANCH   8  26
ATOM     26  O   UNL     1     -23.017  96.134 -32.139  1.00  0.00    -0.508 OA
ATOM     27  H   UNL     1     -22.671  95.504 -32.853  1.00  0.00     0.293 HD
ENDBRANCH   8  26
TORSDOF 6
ENDMDL
MODEL 7
REMARK VINA RESULT:    -6.386      6.501      9.861
REMARK INTER + INTRA:          -7.924
REMARK INTER:                  -7.568
REMARK INTRA:                  -0.356
REMARK UNBOUND:                -0.045
REMARK SMILES COc1cc(-c2oc3cc(O)cc(O)c3c(=O)c2O)ccc1O
REMARK SMILES IDX 6 1 18 2 16 3 17 4 15 5 13 6 12 7 10 8 9 9 8 10 7 11 5 12
REMARK SMILES IDX 3 13 22 14 4 15 21 16 20 17 2 18 1 19 23 20 19 22 14 24
REMARK SMILES IDX 11 26
REMARK H PARENT 23 21 19 23 14 25 11 27
REMARK Flexibility Score: inf
ROOT
ATOM      1  C   UNL     1     -24.172  91.456 -29.691  1.00  0.00     0.180 A 
ATOM      2  C   UNL     1     -23.531  91.776 -30.901  1.00  0.00     0.208 A 
ATOM      3  C   UNL     1     -23.416  93.125 -31.274  1.00  0.00     0.238 A 
ATOM      4  O   UNL     1     -22.793  93.409 -32.329  1.00  0.00    -0.285 OA
ATOM      5  C   UNL     1     -23.958  94.135 -30.441  1.00  0.00     0.111 A 
ATOM      6  C   UNL     1     -23.934  95.530 -30.741  1.00  0.00     0.134 A 
ATOM      7  C   UNL     1     -24.384  96.449 -29.785  1.00  0.00     0.093 A 
ATOM      8  C   UNL     1     -24.916  96.022 -28.569  1.00  0.00     0.123 A 
ATOM      9  C   UNL     1     -24.998  94.657 -28.290  1.00  0.00     0.094 A 
ATOM     10  C   UNL     1     -24.525  93.717 -29.209  1.00  0.00     0.146 A 
ATOM     11  O   UNL     1     -24.612  92.429 -28.902  1.00  0.00    -0.452 OA
ENDROOT
BRANCH   1  12
ATOM     12  C   UNL     1     -24.354  90.056 -29.243  1.00  0.00     0.025 A 
ATOM     13  C   UNL     1     -25.750  88.069 -28.942  1.00  0.00     0.161 A 
ATOM     14  C   UNL     1     -24.668  87.414 -28.327  1.00  0.00     0.157 A 
ATOM     15  C   UNL     1     -25.587  89.395 -29.391  1.00  0.00     0.062 A 
ATOM     16  C   UNL     1     -23.450  88.079 -28.161  1.00  0.00     0.051 A 
ATOM     17  C   UNL     1     -23.295  89.393 -28.609  1.00  0.00     0.016 A 
BRANCH  13  18
ATOM     18  O   UNL     1     -26.966  87.380 -29.085  1.00  0.00    -0.493 OA
ATOM     19  C   UNL     1     -27.343  86.641 -30.242  1.00  0.00     0.278 C 
ENDBRANCH  13  18
BRANCH  14  20
ATOM     20  O   UNL     1     -24.784  86.101 -27.872  1.00  0.00    -0.504 OA
ATOM     21  H   UNL     1     -24.995  85.880 -26.905  1.00  0.00     0.293 HD
ENDBRANCH  14  20
ENDBRANCH   1  12
BRANCH   2  22
ATOM     22  O   UNL     1     -22.984  90.765 -31.695  1.00  0.00    -0.502 OA
ATOM     23  H   UNL     1     -23.370  90.513 -32.597  1.00  0.00     0.293 HD
ENDBRANCH   2  22
BRANCH   6  24
ATOM     24  O   UNL     1     -23.509  96.058 -31.964  1.00  0.00    -0.507 OA
ATOM     25  H   UNL     1     -22.955  95.561 -32.644  1.00  0.00     0.293 HD
ENDBRANCH   6  24
BRANCH   8  26
ATOM     26  O   UNL     1     -25.367  96.963 -27.648  1.00  0.00    -0.508 OA
ATOM     27  H   UNL     1     -26.357  97.136 -27.508  1.00  0.00     0.293 HD
ENDBRANCH   8  26
TORSDOF 6
ENDMDL
MODEL 8
REMARK VINA RESULT:    -6.323      5.477     10.702
REMARK INTER + INTRA:          -7.847
REMARK INTER:                  -7.509
REMARK INTRA:                  -0.338
REMARK UNBOUND:                -0.045
REMARK SMILES COc1cc(-c2oc3cc(O)cc(O)c3c(=O)c2O)ccc1O
REMARK SMILES IDX 6 1 18 2 16 3 17 4 15 5 13 6 12 7 10 8 9 9 8 10 7 11 5 12
REMARK SMILES IDX 3 13 22 14 4 15 21 16 20 17 2 18 1 19 23 20 19 22 14 24
REMARK SMILES IDX 11 26
REMARK H PARENT 23 21 19 23 14 25 11 27
REMARK Flexibility Score: inf
ROOT
ATOM      1  C   UNL     1     -24.635  91.580 -28.462  1.00  0.00     0.180 A 
ATOM      2  C   UNL     1     -25.434  90.614 -29.099  1.00  0.00     0.208 A 
ATOM      3  C   UNL     1     -25.318  89.270 -28.708  1.00  0.00     0.238 A 
ATOM      4  O   UNL     1     -26.074  88.418 -29.242  1.00  0.00    -0.285 OA
ATOM      5  C   UNL     1     -24.395  88.908 -27.697  1.00  0.00     0.111 A 
ATOM      6  C   UNL     1     -24.166  87.571 -27.250  1.00  0.00     0.134 A 
ATOM      7  C   UNL     1     -23.324  87.344 -26.155  1.00  0.00     0.093 A 
ATOM      8  C   UNL     1     -22.652  88.396 -25.533  1.00  0.00     0.123 A 
ATOM      9  C   UNL     1     -22.822  89.700 -25.999  1.00  0.00     0.094 A 
ATOM     10  C   UNL     1     -23.684  89.962 -27.067  1.00  0.00     0.146 A 
ATOM     11  O   UNL     1     -23.826  91.218 -27.474  1.00  0.00    -0.452 OA
ENDROOT
BRANCH   1  12
ATOM     12  C   UNL     1     -24.683  93.012 -28.838  1.00  0.00     0.025 A 
ATOM     13  C   UNL     1     -24.122  94.846 -30.357  1.00  0.00     0.161 A 
ATOM     14  C   UNL     1     -24.751  95.750 -29.482  1.00  0.00     0.157 A 
ATOM     15  C   UNL     1     -24.086  93.477 -30.023  1.00  0.00     0.062 A 
ATOM     16  C   UNL     1     -25.324  95.290 -28.293  1.00  0.00     0.051 A 
ATOM     17  C   UNL     1     -25.285  93.932 -27.969  1.00  0.00     0.016 A 
BRANCH  13  18
ATOM     18  O   UNL     1     -23.545  95.339 -31.539  1.00  0.00    -0.493 OA
ATOM     19  C   UNL     1     -23.251  94.547 -32.685  1.00  0.00     0.278 C 
ENDBRANCH  13  18
BRANCH  14  20
ATOM     20  O   UNL     1     -24.814  97.112 -29.775  1.00  0.00    -0.504 OA
ATOM     21  H   UNL     1     -24.440  97.498 -30.634  1.00  0.00     0.293 HD
ENDBRANCH  14  20
ENDBRANCH   1  12
BRANCH   2  22
ATOM     22  O   UNL     1     -26.354  90.997 -30.077  1.00  0.00    -0.502 OA
ATOM     23  H   UNL     1     -26.092  91.139 -31.046  1.00  0.00     0.293 HD
ENDBRANCH   2  22
BRANCH   6  24
ATOM     24  O   UNL     1     -24.715  86.440 -27.861  1.00  0.00    -0.507 OA
ATOM     25  H   UNL     1     -24.916  86.359 -28.846  1.00  0.00     0.293 HD
ENDBRANCH   6  24
BRANCH   8  26
ATOM     26  O   UNL     1     -21.810  88.132 -24.456  1.00  0.00    -0.508 OA
ATOM     27  H   UNL     1     -21.855  87.254 -23.950  1.00  0.00     0.293 HD
ENDBRANCH   8  26
TORSDOF 6
ENDMDL
MODEL 9
REMARK VINA RESULT:    -6.318      1.396      2.301
REMARK INTER + INTRA:          -7.841
REMARK INTER:                  -7.649
REMARK INTRA:                  -0.191
REMARK UNBOUND:                -0.045
REMARK SMILES COc1cc(-c2oc3cc(O)cc(O)c3c(=O)c2O)ccc1O
REMARK SMILES IDX 6 1 18 2 16 3 17 4 15 5 13 6 12 7 10 8 9 9 8 10 7 11 5 12
REMARK SMILES IDX 3 13 22 14 4 15 21 16 20 17 2 18 1 19 23 20 19 22 14 24
REMARK SMILES IDX 11 26
REMARK H PARENT 23 21 19 23 14 25 11 27
REMARK Flexibility Score: inf
ROOT
ATOM      1  C   UNL     1     -22.886  85.486 -24.225  1.00  0.00     0.180 A 
ATOM      2  C   UNL     1     -22.103  86.618 -23.938  1.00  0.00     0.208 A 
ATOM      3  C   UNL     1     -22.366  87.817 -24.620  1.00  0.00     0.238 A 
ATOM      4  O   UNL     1     -21.699  88.841 -24.320  1.00  0.00    -0.285 OA
ATOM      5  C   UNL     1     -23.396  87.864 -25.591  1.00  0.00     0.111 A 
ATOM      6  C   UNL     1     -23.721  89.015 -26.371  1.00  0.00     0.134 A 
ATOM      7  C   UNL     1     -24.843  88.986 -27.208  1.00  0.00     0.093 A 
ATOM      8  C   UNL     1     -25.612  87.830 -27.344  1.00  0.00     0.123 A 
ATOM      9  C   UNL     1     -25.267  86.681 -26.631  1.00  0.00     0.094 A 
ATOM     10  C   UNL     1     -24.174  86.690 -25.760  1.00  0.00     0.146 A 
ATOM     11  O   UNL     1     -23.886  85.580 -25.093  1.00  0.00    -0.452 OA
ENDROOT
BRANCH   1  12
ATOM     12  C   UNL     1     -22.652  84.180 -23.565  1.00  0.00     0.025 A 
ATOM     13  C   UNL     1     -22.520  82.790 -21.556  1.00  0.00     0.161 A 
ATOM     14  C   UNL     1     -22.146  81.692 -22.353  1.00  0.00     0.157 A 
ATOM     15  C   UNL     1     -22.765  84.034 -22.171  1.00  0.00     0.062 A 
ATOM     16  C   UNL     1     -22.013  81.843 -23.736  1.00  0.00     0.051 A 
ATOM     17  C   UNL     1     -22.257  83.079 -24.338  1.00  0.00     0.016 A 
BRANCH  13  18
ATOM     18  O   UNL     1     -22.635  82.611 -20.168  1.00  0.00    -0.493 OA
ATOM     19  C   UNL     1     -21.630  82.962 -19.223  1.00  0.00     0.278 C 
ENDBRANCH  13  18
BRANCH  14  20
ATOM     20  O   UNL     1     -21.899  80.442 -21.787  1.00  0.00    -0.504 OA
ATOM     21  H   UNL     1     -22.627  79.898 -21.338  1.00  0.00     0.293 HD
ENDBRANCH  14  20
ENDBRANCH   1  12
BRANCH   2  22
ATOM     22  O   UNL     1     -21.107  86.555 -22.961  1.00  0.00    -0.502 OA
ATOM     23  H   UNL     1     -20.473  87.324 -22.779  1.00  0.00     0.293 HD
ENDBRANCH   2  22
BRANCH   6  24
ATOM     24  O   UNL     1     -22.965  90.190 -26.381  1.00  0.00    -0.507 OA
ATOM     25  H   UNL     1     -22.204  90.379 -27.015  1.00  0.00     0.293 HD
ENDBRANCH   6  24
BRANCH   8  26
ATOM     26  O   UNL     1     -26.712  87.832 -28.198  1.00  0.00    -0.508 OA
ATOM     27  H   UNL     1     -26.926  87.037 -28.789  1.00  0.00     0.293 HD
ENDBRANCH   8  26
TORSDOF 6
ENDMDL
