MODEL 1
REMARK VINA RESULT:     5.243      0.000      0.000
REMARK INTER + INTRA:          10.565
REMARK INTER:                  10.146
REMARK INTRA:                   0.418
REMARK UNBOUND:                 0.418
REMARK SMILES CCCCCCCCCCCCCCCCCC(=O)[O-]
REMARK SMILES IDX 10 1 11 2 12 3 13 4 14 5 15 6 16 7 17 8 18 9 19 10 20 11
REMARK SMILES IDX 9 12 8 13 7 14 6 15 5 16 4 17 3 18 2 19 1 20
REMARK H PARENT
REMARK Flexibility Score: inf
ROOT
ATOM      1  C   UNL     1      10.324  14.841  -1.768  1.00  0.00     0.000 C 
ENDROOT
BRANCH   1   2
ATOM      2  C   UNL     1      10.544  13.792  -0.661  1.00  0.00     0.000 C 
BRANCH   2   3
ATOM      3  C   UNL     1      11.912  13.084  -0.731  1.00  0.00     0.000 C 
BRANCH   3   4
ATOM      4  C   UNL     1      12.711  13.235   0.576  1.00  0.00     0.000 C 
BRANCH   4   5
ATOM      5  C   UNL     1      11.829  13.105   1.827  1.00  0.00     0.000 C 
BRANCH   5   6
ATOM      6  C   UNL     1      10.974  14.355   2.082  1.00  0.00     0.000 C 
BRANCH   6   7
ATOM      7  C   UNL     1      11.745  15.629   1.720  1.00  0.00     0.006 C 
BRANCH   7   8
ATOM      8  C   UNL     1      10.960  16.881   2.125  1.00  0.00     0.053 C 
BRANCH   8   9
ATOM      9  C   UNL     1       9.581  16.844   1.547  1.00  0.00     0.041 C 
ATOM     10  O   UNL     1       9.255  17.648   0.634  1.00  0.00    -0.550 OA
ATOM     11  O   UNL     1       8.639  15.955   2.050  1.00  0.00    -0.550 OA
ENDBRANCH   8   9
ENDBRANCH   7   8
ENDBRANCH   6   7
ENDBRANCH   5   6
ENDBRANCH   4   5
ENDBRANCH   3   4
ENDBRANCH   2   3
ENDBRANCH   1   2
BRANCH   1  12
ATOM     12  C   UNL     1       9.833  14.255  -3.110  1.00  0.00     0.000 C 
BRANCH  12  13
ATOM     13  C   UNL     1      10.889  14.233  -4.236  1.00  0.00    -0.000 C 
BRANCH  13  14
ATOM     14  C   UNL     1      10.868  15.448  -5.183  1.00  0.00    -0.000 C 
BRANCH  14  15
ATOM     15  C   UNL     1      12.070  16.387  -4.991  1.00  0.00    -0.000 C 
BRANCH  15  16
ATOM     16  C   UNL     1      12.106  17.532  -6.019  1.00  0.00    -0.000 C 
BRANCH  16  17
ATOM     17  C   UNL     1      13.404  18.360  -6.025  1.00  0.00    -0.000 C 
BRANCH  17  18
ATOM     18  C   UNL     1      14.447  17.835  -7.027  1.00  0.00    -0.000 C 
BRANCH  18  19
ATOM     19  C   UNL     1      14.020  16.512  -7.682  1.00  0.00    -0.003 C 
ATOM     20  C   UNL     1      15.193  15.558  -7.910  1.00  0.00     0.004 C 
ENDBRANCH  18  19
ENDBRANCH  17  18
ENDBRANCH  16  17
ENDBRANCH  15  16
ENDBRANCH  14  15
ENDBRANCH  13  14
ENDBRANCH  12  13
ENDBRANCH   1  12
TORSDOF 16
ENDMDL
MODEL 2
REMARK VINA RESULT:     5.731      3.724      8.381
REMARK INTER + INTRA:          11.510
REMARK INTER:                  11.845
REMARK INTRA:                  -0.335
REMARK UNBOUND:                 0.418
REMARK SMILES CCCCCCCCCCCCCCCCCC(=O)[O-]
REMARK SMILES IDX 10 1 11 2 12 3 13 4 14 5 15 6 16 7 17 8 18 9 19 10 20 11
REMARK SMILES IDX 9 12 8 13 7 14 6 15 5 16 4 17 3 18 2 19 1 20
REMARK H PARENT
REMARK Flexibility Score: inf
ROOT
ATOM      1  C   UNL     1      10.901  14.917  -2.131  1.00  0.00     0.000 C 
ENDROOT
BRANCH   1   2
ATOM      2  C   UNL     1      10.995  14.203  -3.493  1.00  0.00     0.000 C 
BRANCH   2   3
ATOM      3  C   UNL     1      10.422  15.017  -4.670  1.00  0.00     0.000 C 
BRANCH   3   4
ATOM      4  C   UNL     1      11.522  15.504  -5.629  1.00  0.00     0.000 C 
BRANCH   4   5
ATOM      5  C   UNL     1      11.638  17.035  -5.669  1.00  0.00     0.000 C 
BRANCH   5   6
ATOM      6  C   UNL     1      13.084  17.524  -5.501  1.00  0.00     0.000 C 
BRANCH   6   7
ATOM      7  C   UNL     1      13.833  17.493  -6.839  1.00  0.00     0.006 C 
BRANCH   7   8
ATOM      8  C   UNL     1      13.807  16.088  -7.450  1.00  0.00     0.053 C 
BRANCH   8   9
ATOM      9  C   UNL     1      15.104  15.791  -8.135  1.00  0.00     0.041 C 
ATOM     10  O   UNL     1      15.350  16.283  -9.268  1.00  0.00    -0.550 OA
ATOM     11  O   UNL     1      16.021  14.932  -7.544  1.00  0.00    -0.550 OA
ENDBRANCH   8   9
ENDBRANCH   7   8
ENDBRANCH   6   7
ENDBRANCH   5   6
ENDBRANCH   4   5
ENDBRANCH   3   4
ENDBRANCH   2   3
ENDBRANCH   1   2
BRANCH   1  12
ATOM     12  C   UNL     1      10.094  14.147  -1.064  1.00  0.00     0.000 C 
BRANCH  12  13
ATOM     13  C   UNL     1      10.836  12.959  -0.415  1.00  0.00    -0.000 C 
BRANCH  13  14
ATOM     14  C   UNL     1      12.296  13.238  -0.008  1.00  0.00    -0.000 C 
BRANCH  14  15
ATOM     15  C   UNL     1      12.480  13.407   1.510  1.00  0.00    -0.000 C 
BRANCH  15  16
ATOM     16  C   UNL     1      11.561  14.487   2.108  1.00  0.00    -0.000 C 
BRANCH  16  17
ATOM     17  C   UNL     1      11.781  15.907   1.555  1.00  0.00    -0.000 C 
BRANCH  17  18
ATOM     18  C   UNL     1      10.788  16.934   2.125  1.00  0.00    -0.000 C 
BRANCH  18  19
ATOM     19  C   UNL     1       9.369  16.757   1.560  1.00  0.00    -0.003 C 
ATOM     20  C   UNL     1       8.680  15.493   2.074  1.00  0.00     0.004 C 
ENDBRANCH  18  19
ENDBRANCH  17  18
ENDBRANCH  16  17
ENDBRANCH  15  16
ENDBRANCH  14  15
ENDBRANCH  13  14
ENDBRANCH  12  13
ENDBRANCH   1  12
TORSDOF 16
ENDMDL
MODEL 3
REMARK VINA RESULT:     6.220      4.079      8.865
REMARK INTER + INTRA:          12.457
REMARK INTER:                  12.800
REMARK INTRA:                  -0.343
REMARK UNBOUND:                 0.418
REMARK SMILES CCCCCCCCCCCCCCCCCC(=O)[O-]
REMARK SMILES IDX 10 1 11 2 12 3 13 4 14 5 15 6 16 7 17 8 18 9 19 10 20 11
REMARK SMILES IDX 9 12 8 13 7 14 6 15 5 16 4 17 3 18 2 19 1 20
REMARK H PARENT
REMARK Flexibility Score: inf
ROOT
ATOM      1  C   UNL     1      10.096  14.139  -1.847  1.00  0.00     0.000 C 
ENDROOT
BRANCH   1   2
ATOM      2  C   UNL     1      11.351  14.552  -2.641  1.00  0.00     0.000 C 
BRANCH   2   3
ATOM      3  C   UNL     1      11.063  14.968  -4.097  1.00  0.00     0.000 C 
BRANCH   3   4
ATOM      4  C   UNL     1      12.181  15.850  -4.680  1.00  0.00     0.000 C 
BRANCH   4   5
ATOM      5  C   UNL     1      11.666  16.831  -5.744  1.00  0.00     0.000 C 
BRANCH   5   6
ATOM      6  C   UNL     1      12.661  17.964  -6.035  1.00  0.00     0.000 C 
BRANCH   6   7
ATOM      7  C   UNL     1      13.947  17.418  -6.666  1.00  0.00     0.006 C 
BRANCH   7   8
ATOM      8  C   UNL     1      13.641  16.627  -7.941  1.00  0.00     0.053 C 
BRANCH   8   9
ATOM      9  C   UNL     1      14.847  15.862  -8.386  1.00  0.00     0.041 C 
ATOM     10  O   UNL     1      15.508  15.183  -7.557  1.00  0.00    -0.550 OA
ATOM     11  O   UNL     1      15.270  15.937  -9.707  1.00  0.00    -0.550 OA
ENDBRANCH   8   9
ENDBRANCH   7   8
ENDBRANCH   6   7
ENDBRANCH   5   6
ENDBRANCH   4   5
ENDBRANCH   3   4
ENDBRANCH   2   3
ENDBRANCH   1   2
BRANCH   1  12
ATOM     12  C   UNL     1      10.354  13.071  -0.761  1.00  0.00     0.000 C 
BRANCH  12  13
ATOM     13  C   UNL     1      11.452  13.434   0.262  1.00  0.00    -0.000 C 
BRANCH  13  14
ATOM     14  C   UNL     1      11.787  14.934   0.364  1.00  0.00    -0.000 C 
BRANCH  14  15
ATOM     15  C   UNL     1      10.999  15.657   1.470  1.00  0.00    -0.000 C 
BRANCH  15  16
ATOM     16  C   UNL     1       9.487  15.713   1.189  1.00  0.00    -0.000 C 
BRANCH  16  17
ATOM     17  C   UNL     1       8.620  14.851   2.125  1.00  0.00    -0.000 C 
BRANCH  17  18
ATOM     18  C   UNL     1       7.121  15.188   2.034  1.00  0.00    -0.000 C 
BRANCH  18  19
ATOM     19  C   UNL     1       6.239  13.932   1.952  1.00  0.00    -0.003 C 
ATOM     20  C   UNL     1       5.068  14.093   0.983  1.00  0.00     0.004 C 
ENDBRANCH  18  19
ENDBRANCH  17  18
ENDBRANCH  16  17
ENDBRANCH  15  16
ENDBRANCH  14  15
ENDBRANCH  13  14
ENDBRANCH  12  13
ENDBRANCH   1  12
TORSDOF 16
ENDMDL
MODEL 4
REMARK VINA RESULT:     6.432      1.535      2.271
REMARK INTER + INTRA:          12.867
REMARK INTER:                  13.705
REMARK INTRA:                  -0.838
REMARK UNBOUND:                 0.418
REMARK SMILES CCCCCCCCCCCCCCCCCC(=O)[O-]
REMARK SMILES IDX 10 1 11 2 12 3 13 4 14 5 15 6 16 7 17 8 18 9 19 10 20 11
REMARK SMILES IDX 9 12 8 13 7 14 6 15 5 16 4 17 3 18 2 19 1 20
REMARK H PARENT
REMARK Flexibility Score: inf
ROOT
ATOM      1  C   UNL     1      10.579  14.212  -2.366  1.00  0.00     0.000 C 
ENDROOT
BRANCH   1   2
ATOM      2  C   UNL     1      11.177  13.662  -1.056  1.00  0.00     0.000 C 
BRANCH   2   3
ATOM      3  C   UNL     1      10.349  13.996   0.200  1.00  0.00     0.000 C 
BRANCH   3   4
ATOM      4  C   UNL     1       8.921  14.449  -0.150  1.00  0.00     0.000 C 
BRANCH   4   5
ATOM      5  C   UNL     1       8.003  14.518   1.081  1.00  0.00     0.000 C 
BRANCH   5   6
ATOM      6  C   UNL     1       8.459  15.571   2.101  1.00  0.00     0.000 C 
BRANCH   6   7
ATOM      7  C   UNL     1       9.078  16.784   1.398  1.00  0.00     0.006 C 
BRANCH   7   8
ATOM      8  C   UNL     1      10.342  17.255   2.124  1.00  0.00     0.053 C 
BRANCH   8   9
ATOM      9  C   UNL     1      11.565  16.848   1.366  1.00  0.00     0.041 C 
ATOM     10  O   UNL     1      12.471  16.182   1.934  1.00  0.00    -0.550 OA
ATOM     11  O   UNL     1      11.728  17.243   0.044  1.00  0.00    -0.550 OA
ENDBRANCH   8   9
ENDBRANCH   7   8
ENDBRANCH   6   7
ENDBRANCH   5   6
ENDBRANCH   4   5
ENDBRANCH   3   4
ENDBRANCH   2   3
ENDBRANCH   1   2
BRANCH   1  12
ATOM     12  C   UNL     1      10.931  13.384  -3.622  1.00  0.00     0.000 C 
BRANCH  12  13
ATOM     13  C   UNL     1      11.142  14.210  -4.909  1.00  0.00    -0.000 C 
BRANCH  13  14
ATOM     14  C   UNL     1      11.133  15.739  -4.718  1.00  0.00    -0.000 C 
BRANCH  14  15
ATOM     15  C   UNL     1      11.490  16.511  -6.000  1.00  0.00    -0.000 C 
BRANCH  15  16
ATOM     16  C   UNL     1      12.530  17.621  -5.760  1.00  0.00    -0.000 C 
BRANCH  16  17
ATOM     17  C   UNL     1      13.894  17.391  -6.438  1.00  0.00    -0.000 C 
BRANCH  17  18
ATOM     18  C   UNL     1      13.839  16.336  -7.555  1.00  0.00    -0.000 C 
BRANCH  18  19
ATOM     19  C   UNL     1      15.237  15.901  -8.024  1.00  0.00    -0.003 C 
ATOM     20  C   UNL     1      15.400  15.965  -9.543  1.00  0.00     0.004 C 
ENDBRANCH  18  19
ENDBRANCH  17  18
ENDBRANCH  16  17
ENDBRANCH  15  16
ENDBRANCH  14  15
ENDBRANCH  13  14
ENDBRANCH  12  13
ENDBRANCH   1  12
TORSDOF 16
ENDMDL
MODEL 5
REMARK VINA RESULT:     6.543      1.009      2.125
REMARK INTER + INTRA:          13.081
REMARK INTER:                  12.038
REMARK INTRA:                   1.043
REMARK UNBOUND:                 0.418
REMARK SMILES CCCCCCCCCCCCCCCCCC(=O)[O-]
REMARK SMILES IDX 10 1 11 2 12 3 13 4 14 5 15 6 16 7 17 8 18 9 19 10 20 11
REMARK SMILES IDX 9 12 8 13 7 14 6 15 5 16 4 17 3 18 2 19 1 20
REMARK H PARENT
REMARK Flexibility Score: inf
ROOT
ATOM      1  C   UNL     1      10.507  14.445  -0.528  1.00  0.00     0.000 C 
ENDROOT
BRANCH   1   2
ATOM      2  C   UNL     1      10.939  13.071   0.019  1.00  0.00     0.000 C 
BRANCH   2   3
ATOM      3  C   UNL     1      11.952  13.147   1.178  1.00  0.00     0.000 C 
BRANCH   3   4
ATOM      4  C   UNL     1      11.895  14.499   1.910  1.00  0.00     0.000 C 
BRANCH   4   5
ATOM      5  C   UNL     1      11.791  15.691   0.945  1.00  0.00     0.000 C 
BRANCH   5   6
ATOM      6  C   UNL     1      11.911  17.044   1.661  1.00  0.00     0.000 C 
BRANCH   6   7
ATOM      7  C   UNL     1      10.537  17.543   2.125  1.00  0.00     0.006 C 
BRANCH   7   8
ATOM      8  C   UNL     1       9.409  16.795   1.407  1.00  0.00     0.053 C 
BRANCH   8   9
ATOM      9  C   UNL     1       8.204  17.671   1.272  1.00  0.00     0.041 C 
ATOM     10  O   UNL     1       7.279  17.612   2.125  1.00  0.00    -0.550 OA
ATOM     11  O   UNL     1       8.077  18.517   0.177  1.00  0.00    -0.550 OA
ENDBRANCH   8   9
ENDBRANCH   7   8
ENDBRANCH   6   7
ENDBRANCH   5   6
ENDBRANCH   4   5
ENDBRANCH   3   4
ENDBRANCH   2   3
ENDBRANCH   1   2
BRANCH   1  12
ATOM     12  C   UNL     1       9.247  14.407  -1.420  1.00  0.00     0.000 C 
BRANCH  12  13
ATOM     13  C   UNL     1       9.447  13.754  -2.804  1.00  0.00    -0.000 C 
BRANCH  13  14
ATOM     14  C   UNL     1      10.816  14.010  -3.462  1.00  0.00    -0.000 C 
BRANCH  14  15
ATOM     15  C   UNL     1      10.722  14.830  -4.759  1.00  0.00    -0.000 C 
BRANCH  15  16
ATOM     16  C   UNL     1      11.934  15.754  -4.974  1.00  0.00    -0.000 C 
BRANCH  16  17
ATOM     17  C   UNL     1      11.770  16.792  -6.100  1.00  0.00    -0.000 C 
BRANCH  17  18
ATOM     18  C   UNL     1      12.650  18.038  -5.901  1.00  0.00    -0.000 C 
BRANCH  18  19
ATOM     19  C   UNL     1      14.062  17.861  -6.482  1.00  0.00    -0.003 C 
ATOM     20  C   UNL     1      14.178  16.640  -7.395  1.00  0.00     0.004 C 
ENDBRANCH  18  19
ENDBRANCH  17  18
ENDBRANCH  16  17
ENDBRANCH  15  16
ENDBRANCH  14  15
ENDBRANCH  13  14
ENDBRANCH  12  13
ENDBRANCH   1  12
TORSDOF 16
ENDMDL
MODEL 6
REMARK VINA RESULT:     6.808      3.799      8.436
REMARK INTER + INTRA:          13.595
REMARK INTER:                  13.984
REMARK INTRA:                  -0.389
REMARK UNBOUND:                 0.418
REMARK SMILES CCCCCCCCCCCCCCCCCC(=O)[O-]
REMARK SMILES IDX 10 1 11 2 12 3 13 4 14 5 15 6 16 7 17 8 18 9 19 10 20 11
REMARK SMILES IDX 9 12 8 13 7 14 6 15 5 16 4 17 3 18 2 19 1 20
REMARK H PARENT
REMARK Flexibility Score: inf
ROOT
ATOM      1  C   UNL     1      10.200  14.651  -1.736  1.00  0.00     0.000 C 
ENDROOT
BRANCH   1   2
ATOM      2  C   UNL     1      11.041  14.385  -2.999  1.00  0.00     0.000 C 
BRANCH   2   3
ATOM      3  C   UNL     1      10.419  14.940  -4.296  1.00  0.00     0.000 C 
BRANCH   3   4
ATOM      4  C   UNL     1      11.486  15.458  -5.276  1.00  0.00     0.000 C 
BRANCH   4   5
ATOM      5  C   UNL     1      11.361  16.966  -5.544  1.00  0.00     0.000 C 
BRANCH   5   6
ATOM      6  C   UNL     1      12.688  17.603  -5.980  1.00  0.00     0.000 C 
BRANCH   6   7
ATOM      7  C   UNL     1      13.226  16.934  -7.251  1.00  0.00     0.006 C 
BRANCH   7   8
ATOM      8  C   UNL     1      14.587  16.280  -6.995  1.00  0.00     0.053 C 
BRANCH   8   9
ATOM      9  C   UNL     1      15.019  15.484  -8.185  1.00  0.00     0.041 C 
ATOM     10  O   UNL     1      15.172  14.238  -8.093  1.00  0.00    -0.550 OA
ATOM     11  O   UNL     1      15.299  16.124  -9.386  1.00  0.00    -0.550 OA
ENDBRANCH   8   9
ENDBRANCH   7   8
ENDBRANCH   6   7
ENDBRANCH   5   6
ENDBRANCH   4   5
ENDBRANCH   3   4
ENDBRANCH   2   3
ENDBRANCH   1   2
BRANCH   1  12
ATOM     12  C   UNL     1      10.272  13.530  -0.677  1.00  0.00     0.000 C 
BRANCH  12  13
ATOM     13  C   UNL     1      11.437  13.655   0.328  1.00  0.00    -0.000 C 
BRANCH  13  14
ATOM     14  C   UNL     1      11.030  14.034   1.765  1.00  0.00    -0.000 C 
BRANCH  14  15
ATOM     15  C   UNL     1       9.600  13.596   2.125  1.00  0.00    -0.000 C 
BRANCH  15  16
ATOM     16  C   UNL     1       8.575  14.737   2.001  1.00  0.00    -0.000 C 
BRANCH  16  17
ATOM     17  C   UNL     1       9.065  15.969   1.216  1.00  0.00    -0.000 C 
BRANCH  17  18
ATOM     18  C   UNL     1       9.616  17.081   2.124  1.00  0.00    -0.000 C 
BRANCH  18  19
ATOM     19  C   UNL     1      11.149  17.176   2.075  1.00  0.00    -0.003 C 
ATOM     20  C   UNL     1      11.685  17.361   0.655  1.00  0.00     0.004 C 
ENDBRANCH  18  19
ENDBRANCH  17  18
ENDBRANCH  16  17
ENDBRANCH  15  16
ENDBRANCH  14  15
ENDBRANCH  13  14
ENDBRANCH  12  13
ENDBRANCH   1  12
TORSDOF 16
ENDMDL
MODEL 7
REMARK VINA RESULT:     7.109      2.013      3.448
REMARK INTER + INTRA:          14.176
REMARK INTER:                  14.755
REMARK INTRA:                  -0.580
REMARK UNBOUND:                 0.418
REMARK SMILES CCCCCCCCCCCCCCCCCC(=O)[O-]
REMARK SMILES IDX 10 1 11 2 12 3 13 4 14 5 15 6 16 7 17 8 18 9 19 10 20 11
REMARK SMILES IDX 9 12 8 13 7 14 6 15 5 16 4 17 3 18 2 19 1 20
REMARK H PARENT
REMARK Flexibility Score: inf
ROOT
ATOM      1  C   UNL     1      11.095  15.565  -4.978  1.00  0.00     0.000 C 
ENDROOT
BRANCH   1   2
ATOM      2  C   UNL     1      11.006  14.386  -3.990  1.00  0.00     0.000 C 
BRANCH   2   3
ATOM      3  C   UNL     1      10.999  14.808  -2.508  1.00  0.00     0.000 C 
BRANCH   3   4
ATOM      4  C   UNL     1      10.604  13.649  -1.575  1.00  0.00     0.000 C 
BRANCH   4   5
ATOM      5  C   UNL     1      11.600  13.450  -0.423  1.00  0.00     0.000 C 
BRANCH   5   6
ATOM      6  C   UNL     1      11.102  14.048   0.901  1.00  0.00     0.000 C 
BRANCH   6   7
ATOM      7  C   UNL     1       9.685  14.612   0.749  1.00  0.00     0.006 C 
BRANCH   7   8
ATOM      8  C   UNL     1       9.196  15.232   2.062  1.00  0.00     0.053 C 
BRANCH   8   9
ATOM      9  C   UNL     1       9.264  16.725   1.994  1.00  0.00     0.041 C 
ATOM     10  O   UNL     1       8.211  17.412   2.070  1.00  0.00    -0.550 OA
ATOM     11  O   UNL     1      10.485  17.357   1.799  1.00  0.00    -0.550 OA
ENDBRANCH   8   9
ENDBRANCH   7   8
ENDBRANCH   6   7
ENDBRANCH   5   6
ENDBRANCH   4   5
ENDBRANCH   3   4
ENDBRANCH   2   3
ENDBRANCH   1   2
BRANCH   1  12
ATOM     12  C   UNL     1      12.274  16.527  -4.716  1.00  0.00     0.000 C 
BRANCH  12  13
ATOM     13  C   UNL     1      12.508  17.586  -5.814  1.00  0.00    -0.000 C 
BRANCH  13  14
ATOM     14  C   UNL     1      13.773  17.380  -6.669  1.00  0.00    -0.000 C 
BRANCH  14  15
ATOM     15  C   UNL     1      13.754  16.070  -7.473  1.00  0.00    -0.000 C 
BRANCH  15  16
ATOM     16  C   UNL     1      14.909  15.972  -8.485  1.00  0.00    -0.000 C 
BRANCH  16  17
ATOM     17  C   UNL     1      14.504  15.481  -9.888  1.00  0.00    -0.000 C 
BRANCH  17  18
ATOM     18  C   UNL     1      15.533  15.847 -10.972  1.00  0.00    -0.000 C 
BRANCH  18  19
ATOM     19  C   UNL     1      15.592  14.807 -12.103  1.00  0.00    -0.003 C 
ATOM     20  C   UNL     1      16.327  15.320 -13.342  1.00  0.00     0.004 C 
ENDBRANCH  18  19
ENDBRANCH  17  18
ENDBRANCH  16  17
ENDBRANCH  15  16
ENDBRANCH  14  15
ENDBRANCH  13  14
ENDBRANCH  12  13
ENDBRANCH   1  12
TORSDOF 16
ENDMDL
MODEL 8
REMARK VINA RESULT:     7.839      5.577     10.601
REMARK INTER + INTRA:          15.590
REMARK INTER:                  16.234
REMARK INTRA:                  -0.644
REMARK UNBOUND:                 0.418
REMARK SMILES CCCCCCCCCCCCCCCCCC(=O)[O-]
REMARK SMILES IDX 10 1 11 2 12 3 13 4 14 5 15 6 16 7 17 8 18 9 19 10 20 11
REMARK SMILES IDX 9 12 8 13 7 14 6 15 5 16 4 17 3 18 2 19 1 20
REMARK H PARENT
REMARK Flexibility Score: inf
ROOT
ATOM      1  C   UNL     1      11.872  16.267  -5.757  1.00  0.00     0.000 C 
ENDROOT
BRANCH   1   2
ATOM      2  C   UNL     1      12.696  17.513  -6.133  1.00  0.00     0.000 C 
BRANCH   2   3
ATOM      3  C   UNL     1      14.088  17.193  -6.712  1.00  0.00     0.000 C 
BRANCH   3   4
ATOM      4  C   UNL     1      14.062  15.968  -7.643  1.00  0.00     0.000 C 
BRANCH   4   5
ATOM      5  C   UNL     1      15.100  16.060  -8.772  1.00  0.00     0.000 C 
BRANCH   5   6
ATOM      6  C   UNL     1      14.590  15.471 -10.095  1.00  0.00     0.000 C 
BRANCH   6   7
ATOM      7  C   UNL     1      15.396  16.009 -11.283  1.00  0.00     0.006 C 
BRANCH   7   8
ATOM      8  C   UNL     1      15.726  14.891 -12.276  1.00  0.00     0.053 C 
BRANCH   8   9
ATOM      9  C   UNL     1      16.982  15.208 -13.024  1.00  0.00     0.041 C 
ATOM     10  O   UNL     1      17.344  16.404 -13.178  1.00  0.00    -0.550 OA
ATOM     11  O   UNL     1      17.729  14.185 -13.595  1.00  0.00    -0.550 OA
ENDBRANCH   8   9
ENDBRANCH   7   8
ENDBRANCH   6   7
ENDBRANCH   5   6
ENDBRANCH   4   5
ENDBRANCH   3   4
ENDBRANCH   2   3
ENDBRANCH   1   2
BRANCH   1  12
ATOM     12  C   UNL     1      11.849  15.952  -4.245  1.00  0.00     0.000 C 
BRANCH  12  13
ATOM     13  C   UNL     1      10.997  14.727  -3.847  1.00  0.00    -0.000 C 
BRANCH  13  14
ATOM     14  C   UNL     1      10.479  14.729  -2.396  1.00  0.00    -0.000 C 
BRANCH  14  15
ATOM     15  C   UNL     1      11.135  13.650  -1.517  1.00  0.00    -0.000 C 
BRANCH  15  16
ATOM     16  C   UNL     1      11.050  13.969  -0.014  1.00  0.00    -0.000 C 
BRANCH  16  17
ATOM     17  C   UNL     1       9.670  14.450   0.473  1.00  0.00    -0.000 C 
BRANCH  17  18
ATOM     18  C   UNL     1       9.738  15.228   1.798  1.00  0.00    -0.000 C 
BRANCH  18  19
ATOM     19  C   UNL     1       9.806  16.749   1.584  1.00  0.00    -0.003 C 
ATOM     20  C   UNL     1      11.239  17.265   1.451  1.00  0.00     0.004 C 
ENDBRANCH  18  19
ENDBRANCH  17  18
ENDBRANCH  16  17
ENDBRANCH  15  16
ENDBRANCH  14  15
ENDBRANCH  13  14
ENDBRANCH  12  13
ENDBRANCH   1  12
TORSDOF 16
ENDMDL
MODEL 9
REMARK VINA RESULT:     7.983      5.973     10.298
REMARK INTER + INTRA:          15.869
REMARK INTER:                  17.030
REMARK INTRA:                  -1.161
REMARK UNBOUND:                 0.418
REMARK SMILES CCCCCCCCCCCCCCCCCC(=O)[O-]
REMARK SMILES IDX 10 1 11 2 12 3 13 4 14 5 15 6 16 7 17 8 18 9 19 10 20 11
REMARK SMILES IDX 9 12 8 13 7 14 6 15 5 16 4 17 3 18 2 19 1 20
REMARK H PARENT
REMARK Flexibility Score: inf
ROOT
ATOM      1  C   UNL     1      16.858  14.604 -13.479  1.00  0.00     0.000 C 
ENDROOT
BRANCH   1   2
ATOM      2  C   UNL     1      15.570  15.211 -12.888  1.00  0.00     0.000 C 
BRANCH   2   3
ATOM      3  C   UNL     1      15.049  14.480 -11.636  1.00  0.00     0.000 C 
BRANCH   3   4
ATOM      4  C   UNL     1      14.502  15.456 -10.580  1.00  0.00     0.000 C 
BRANCH   4   5
ATOM      5  C   UNL     1      15.535  15.792  -9.493  1.00  0.00     0.000 C 
BRANCH   5   6
ATOM      6  C   UNL     1      14.991  15.581  -8.073  1.00  0.00     0.000 C 
BRANCH   6   7
ATOM      7  C   UNL     1      13.791  16.496  -7.803  1.00  0.00     0.006 C 
BRANCH   7   8
ATOM      8  C   UNL     1      14.008  17.328  -6.536  1.00  0.00     0.053 C 
BRANCH   8   9
ATOM      9  C   UNL     1      12.696  17.682  -5.910  1.00  0.00     0.041 C 
ATOM     10  O   UNL     1      12.288  18.874  -5.923  1.00  0.00    -0.550 OA
ATOM     11  O   UNL     1      11.944  16.705  -5.269  1.00  0.00    -0.550 OA
ENDBRANCH   8   9
ENDBRANCH   7   8
ENDBRANCH   6   7
ENDBRANCH   5   6
ENDBRANCH   4   5
ENDBRANCH   3   4
ENDBRANCH   2   3
ENDBRANCH   1   2
BRANCH   1  12
ATOM     12  C   UNL     1      18.122  15.465 -13.266  1.00  0.00     0.000 C 
BRANCH  12  13
ATOM     13  C   UNL     1      17.854  16.962 -12.998  1.00  0.00    -0.000 C 
BRANCH  13  14
ATOM     14  C   UNL     1      17.980  17.400 -11.527  1.00  0.00    -0.000 C 
BRANCH  14  15
ATOM     15  C   UNL     1      18.077  18.926 -11.355  1.00  0.00    -0.000 C 
BRANCH  15  16
ATOM     16  C   UNL     1      17.401  19.701 -12.500  1.00  0.00    -0.000 C 
BRANCH  16  17
ATOM     17  C   UNL     1      18.272  20.795 -13.147  1.00  0.00    -0.000 C 
BRANCH  17  18
ATOM     18  C   UNL     1      19.193  21.504 -12.139  1.00  0.00    -0.000 C 
BRANCH  18  19
ATOM     19  C   UNL     1      20.682  21.239 -12.415  1.00  0.00    -0.003 C 
ATOM     20  C   UNL     1      20.949  19.816 -12.907  1.00  0.00     0.004 C 
ENDBRANCH  18  19
ENDBRANCH  17  18
ENDBRANCH  16  17
ENDBRANCH  15  16
ENDBRANCH  14  15
ENDBRANCH  13  14
ENDBRANCH  12  13
ENDBRANCH   1  12
TORSDOF 16
ENDMDL
