MODEL 1
REMARK VINA RESULT:    -1.503      0.000      0.000
REMARK INTER + INTRA:          -2.520
REMARK INTER:                  -2.295
REMARK INTRA:                  -0.225
REMARK UNBOUND:                -0.225
REMARK SMILES CC1=CCC[C@H](C)C(=O)C[C@H](C(C)C)C(=O)C1
REMARK SMILES IDX 8 1 9 2 6 3 7 4 5 5 4 6 3 7 2 8 1 9 10 11 11 12 15 13 16 14
REMARK SMILES IDX 17 15 12 17 13 18 14 19
REMARK H PARENT
REMARK Flexibility Score: 70.00
ROOT
ATOM      1  C   UNL     1     122.299  87.420  56.368  1.00  0.00     0.136 C 
ATOM      2  O   UNL     1     122.301  88.641  56.450  1.00  0.00    -0.299 OA
ENDROOT
BRANCH   1   3
ATOM      3  C   UNL     1     122.429  86.751  55.017  1.00  0.00     0.053 C 
ATOM      4  C   UNL     1     122.257  87.798  53.912  1.00  0.00     0.016 C 
BRANCH   3   5
ATOM      5  C   UNL     1     123.772  86.006  54.846  1.00  0.00     0.015 C 
BRANCH   5   6
ATOM      6  C   UNL     1     123.608  84.507  54.531  1.00  0.00     0.028 C 
BRANCH   6   7
ATOM      7  C   UNL     1     124.318  83.646  55.553  1.00  0.00    -0.028 C 
ATOM      8  C   UNL     1     123.738  82.963  56.568  1.00  0.00    -0.070 CG0
ATOM      9  C   UNL     1     124.629  82.141  57.466  1.00  0.00     0.039 C 
ATOM     10  G   UNL     1     122.259  83.029  56.885  1.00  0.00     0.000 G0
ENDBRANCH   6   7
ENDBRANCH   5   6
ENDBRANCH   3   5
ENDBRANCH   1   3
BRANCH   1  11
ATOM     11  C   UNL     1     122.127  86.591  57.619  1.00  0.00     0.087 C 
BRANCH  11  12
ATOM     12  C   UNL     1     121.202  85.369  57.399  1.00  0.00     0.066 C 
BRANCH  12  13
ATOM     13  C   UNL     1     121.913  84.105  57.849  1.00  0.00     0.140 C 
ATOM     14  O   UNL     1     122.218  83.971  59.026  1.00  0.00    -0.299 OA
BRANCH  13  15
ATOM     15  C   UNL     1     122.235  82.999  56.881  1.00  0.00     0.106 CG0
ATOM     16  G   UNL     1     123.720  82.978  56.585  1.00  0.00     0.000 G0
ENDBRANCH  13  15
ENDBRANCH  12  13
BRANCH  12  17
ATOM     17  C   UNL     1     119.838  85.516  58.144  1.00  0.00    -0.006 C 
ATOM     18  C   UNL     1     119.602  86.949  58.652  1.00  0.00     0.008 C 
ATOM     19  C   UNL     1     118.662  85.112  57.233  1.00  0.00     0.008 C 
ENDBRANCH  12  17
ENDBRANCH  11  12
ENDBRANCH   1  11
TORSDOF 1
ENDMDL
MODEL 2
REMARK VINA RESULT:    -1.479     13.053     14.506
REMARK INTER + INTRA:          -2.483
REMARK INTER:                  -2.153
REMARK INTRA:                  -0.330
REMARK UNBOUND:                -0.225
REMARK SMILES CC1=CCC[C@H](C)C(=O)C[C@H](C(C)C)C(=O)C1
REMARK SMILES IDX 8 1 9 2 6 3 7 4 5 5 4 6 3 7 2 8 1 9 10 11 11 12 15 13 16 14
REMARK SMILES IDX 17 15 12 17 13 18 14 19
REMARK H PARENT
REMARK Flexibility Score: 70.00
ROOT
ATOM      1  C   UNL     1     107.397  86.591  53.739  1.00  0.00     0.136 C 
ATOM      2  O   UNL     1     106.809  87.225  52.873  1.00  0.00    -0.299 OA
ENDROOT
BRANCH   1   3
ATOM      3  C   UNL     1     108.878  86.310  53.599  1.00  0.00     0.053 C 
ATOM      4  C   UNL     1     109.133  85.569  52.283  1.00  0.00     0.016 C 
BRANCH   3   5
ATOM      5  C   UNL     1     109.737  87.592  53.669  1.00  0.00     0.015 C 
BRANCH   5   6
ATOM      6  C   UNL     1     109.340  88.538  54.819  1.00  0.00     0.028 C 
BRANCH   6   7
ATOM      7  C   UNL     1     110.010  88.143  56.117  1.00  0.00    -0.028 C 
ATOM      8  C   UNL     1     109.395  87.664  57.223  1.00  0.00    -0.070 CG0
ATOM      9  C   UNL     1     110.254  87.308  58.410  1.00  0.00     0.039 C 
ATOM     10  G   UNL     1     107.893  87.524  57.354  1.00  0.00     0.000 G0
ENDBRANCH   6   7
ENDBRANCH   5   6
ENDBRANCH   3   5
ENDBRANCH   1   3
BRANCH   1  11
ATOM     11  C   UNL     1     106.627  86.059  54.924  1.00  0.00     0.087 C 
BRANCH  11  12
ATOM     12  C   UNL     1     107.534  85.325  55.942  1.00  0.00     0.066 C 
BRANCH  12  13
ATOM     13  C   UNL     1     107.514  86.065  57.267  1.00  0.00     0.140 C 
ATOM     14  O   UNL     1     107.195  85.468  58.287  1.00  0.00    -0.299 OA
BRANCH  13  15
ATOM     15  C   UNL     1     107.898  87.517  57.361  1.00  0.00     0.106 CG0
ATOM     16  G   UNL     1     109.398  87.672  57.219  1.00  0.00     0.000 G0
ENDBRANCH  13  15
ENDBRANCH  12  13
BRANCH  12  17
ATOM     17  C   UNL     1     107.112  83.836  56.148  1.00  0.00    -0.006 C 
ATOM     18  C   UNL     1     106.411  83.252  54.908  1.00  0.00     0.008 C 
ATOM     19  C   UNL     1     108.330  82.956  56.491  1.00  0.00     0.008 C 
ENDBRANCH  12  17
ENDBRANCH  11  12
ENDBRANCH   1  11
TORSDOF 1
ENDMDL
MODEL 3
REMARK VINA RESULT:    -1.373     12.541     14.673
REMARK INTER + INTRA:          -2.321
REMARK INTER:                  -1.958
REMARK INTRA:                  -0.363
REMARK UNBOUND:                -0.225
REMARK SMILES CC1=CCC[C@H](C)C(=O)C[C@H](C(C)C)C(=O)C1
REMARK SMILES IDX 8 1 9 2 6 3 7 4 5 5 4 6 3 7 2 8 1 9 10 11 11 12 15 13 16 14
REMARK SMILES IDX 17 15 12 17 13 18 14 19
REMARK H PARENT
REMARK Flexibility Score: 70.00
ROOT
ATOM      1  C   UNL     1     110.501  86.271  55.729  1.00  0.00     0.136 C 
ATOM      2  O   UNL     1     111.695  86.250  55.462  1.00  0.00    -0.299 OA
ENDROOT
BRANCH   1   3
ATOM      3  C   UNL     1     109.837  87.570  56.131  1.00  0.00     0.053 C 
ATOM      4  C   UNL     1     110.822  88.413  56.947  1.00  0.00     0.016 C 
BRANCH   3   5
ATOM      5  C   UNL     1     109.319  88.375  54.918  1.00  0.00     0.015 C 
BRANCH   5   6
ATOM      6  C   UNL     1     107.784  88.508  54.878  1.00  0.00     0.028 C 
BRANCH   6   7
ATOM      7  C   UNL     1     107.186  87.684  53.760  1.00  0.00    -0.028 C 
ATOM      8  C   UNL     1     106.455  86.553  53.899  1.00  0.00    -0.070 CG0
ATOM      9  C   UNL     1     105.930  85.893  52.649  1.00  0.00     0.039 C 
ATOM     10  G   UNL     1     106.191  85.884  55.232  1.00  0.00     0.000 G0
ENDBRANCH   6   7
ENDBRANCH   5   6
ENDBRANCH   3   5
ENDBRANCH   1   3
BRANCH   1  11
ATOM     11  C   UNL     1     109.708  84.986  55.691  1.00  0.00     0.087 C 
BRANCH  11  12
ATOM     12  C   UNL     1     108.377  85.087  56.476  1.00  0.00     0.066 C 
BRANCH  12  13
ATOM     13  C   UNL     1     107.213  84.819  55.540  1.00  0.00     0.140 C 
ATOM     14  O   UNL     1     107.097  83.716  55.021  1.00  0.00    -0.299 OA
BRANCH  13  15
ATOM     15  C   UNL     1     106.180  85.874  55.249  1.00  0.00     0.106 CG0
ATOM     16  G   UNL     1     106.460  86.524  53.910  1.00  0.00     0.000 G0
ENDBRANCH  13  15
ENDBRANCH  12  13
BRANCH  12  17
ATOM     17  C   UNL     1     108.330  84.108  57.692  1.00  0.00    -0.006 C 
ATOM     18  C   UNL     1     109.488  84.345  58.677  1.00  0.00     0.008 C 
ATOM     19  C   UNL     1     106.996  84.234  58.454  1.00  0.00     0.008 C 
ENDBRANCH  12  17
ENDBRANCH  11  12
ENDBRANCH   1  11
TORSDOF 1
ENDMDL
MODEL 4
REMARK VINA RESULT:    -1.338     12.018     14.760
REMARK INTER + INTRA:          -2.267
REMARK INTER:                  -1.928
REMARK INTRA:                  -0.339
REMARK UNBOUND:                -0.225
REMARK SMILES CC1=CCC[C@H](C)C(=O)C[C@H](C(C)C)C(=O)C1
REMARK SMILES IDX 8 1 9 2 6 3 7 4 5 5 4 6 3 7 2 8 1 9 10 11 11 12 15 13 16 14
REMARK SMILES IDX 17 15 12 17 13 18 14 19
REMARK H PARENT
REMARK Flexibility Score: 70.00
ROOT
ATOM      1  C   UNL     1     109.808  83.791  56.497  1.00  0.00     0.136 C 
ATOM      2  O   UNL     1     110.119  82.681  56.909  1.00  0.00    -0.299 OA
ENDROOT
BRANCH   1   3
ATOM      3  C   UNL     1     110.277  84.253  55.135  1.00  0.00     0.053 C 
ATOM      4  C   UNL     1     111.804  84.377  55.138  1.00  0.00     0.016 C 
BRANCH   3   5
ATOM      5  C   UNL     1     109.818  83.316  53.996  1.00  0.00     0.015 C 
BRANCH   5   6
ATOM      6  C   UNL     1     108.444  83.691  53.406  1.00  0.00     0.028 C 
BRANCH   6   7
ATOM      7  C   UNL     1     107.354  82.774  53.915  1.00  0.00    -0.028 C 
ATOM      8  C   UNL     1     106.268  83.141  54.635  1.00  0.00    -0.070 CG0
ATOM      9  C   UNL     1     105.284  82.068  55.026  1.00  0.00     0.039 C 
ATOM     10  G   UNL     1     106.022  84.555  55.118  1.00  0.00     0.000 G0
ENDBRANCH   6   7
ENDBRANCH   5   6
ENDBRANCH   3   5
ENDBRANCH   1   3
BRANCH   1  11
ATOM     11  C   UNL     1     108.987  84.706  57.374  1.00  0.00     0.087 C 
BRANCH  11  12
ATOM     12  C   UNL     1     107.967  85.545  56.566  1.00  0.00     0.066 C 
BRANCH  12  13
ATOM     13  C   UNL     1     106.658  84.783  56.452  1.00  0.00     0.140 C 
ATOM     14  O   UNL     1     106.120  84.354  57.465  1.00  0.00    -0.299 OA
BRANCH  13  15
ATOM     15  C   UNL     1     105.993  84.560  55.121  1.00  0.00     0.106 CG0
ATOM     16  G   UNL     1     106.253  83.149  54.636  1.00  0.00     0.000 G0
ENDBRANCH  13  15
ENDBRANCH  12  13
BRANCH  12  17
ATOM     17  C   UNL     1     107.720  86.951  57.199  1.00  0.00    -0.006 C 
ATOM     18  C   UNL     1     108.844  87.359  58.169  1.00  0.00     0.008 C 
ATOM     19  C   UNL     1     107.586  88.034  56.111  1.00  0.00     0.008 C 
ENDBRANCH  12  17
ENDBRANCH  11  12
ENDBRANCH   1  11
TORSDOF 1
ENDMDL
MODEL 5
REMARK VINA RESULT:    -1.332      2.249      3.572
REMARK INTER + INTRA:          -2.258
REMARK INTER:                  -2.030
REMARK INTRA:                  -0.228
REMARK UNBOUND:                -0.225
REMARK SMILES CC1=CCC[C@H](C)C(=O)C[C@H](C(C)C)C(=O)C1
REMARK SMILES IDX 8 1 9 2 6 3 7 4 5 5 4 6 3 7 2 8 1 9 10 11 11 12 15 13 16 14
REMARK SMILES IDX 17 15 12 17 13 18 14 19
REMARK H PARENT
REMARK Flexibility Score: 70.00
ROOT
ATOM      1  C   UNL     1     119.811  85.467  54.516  1.00  0.00     0.136 C 
ATOM      2  O   UNL     1     119.381  85.366  53.375  1.00  0.00    -0.299 OA
ENDROOT
BRANCH   1   3
ATOM      3  C   UNL     1     119.961  84.235  55.382  1.00  0.00     0.053 C 
ATOM      4  C   UNL     1     118.577  83.763  55.839  1.00  0.00     0.016 C 
BRANCH   3   5
ATOM      5  C   UNL     1     120.709  83.089  54.664  1.00  0.00     0.015 C 
BRANCH   5   6
ATOM      6  C   UNL     1     122.170  82.924  55.126  1.00  0.00     0.028 C 
BRANCH   6   7
ATOM      7  C   UNL     1     123.093  83.872  54.393  1.00  0.00    -0.028 C 
ATOM      8  C   UNL     1     123.618  85.020  54.882  1.00  0.00    -0.070 CG0
ATOM      9  C   UNL     1     124.539  85.813  53.990  1.00  0.00     0.039 C 
ATOM     10  G   UNL     1     123.283  85.578  56.250  1.00  0.00     0.000 G0
ENDBRANCH   6   7
ENDBRANCH   5   6
ENDBRANCH   3   5
ENDBRANCH   1   3
BRANCH   1  11
ATOM     11  C   UNL     1     120.151  86.833  55.064  1.00  0.00     0.087 C 
BRANCH  11  12
ATOM     12  C   UNL     1     120.922  86.759  56.405  1.00  0.00     0.066 C 
BRANCH  12  13
ATOM     13  C   UNL     1     122.416  86.818  56.137  1.00  0.00     0.140 C 
ATOM     14  O   UNL     1     122.931  87.884  55.827  1.00  0.00    -0.299 OA
BRANCH  13  15
ATOM     15  C   UNL     1     123.284  85.597  56.263  1.00  0.00     0.106 CG0
ATOM     16  G   UNL     1     123.597  85.032  54.893  1.00  0.00     0.000 G0
ENDBRANCH  13  15
ENDBRANCH  12  13
BRANCH  12  17
ATOM     17  C   UNL     1     120.505  87.895  57.392  1.00  0.00    -0.006 C 
ATOM     18  C   UNL     1     119.364  88.763  56.834  1.00  0.00     0.008 C 
ATOM     19  C   UNL     1     120.069  87.315  58.752  1.00  0.00     0.008 C 
ENDBRANCH  12  17
ENDBRANCH  11  12
ENDBRANCH   1  11
TORSDOF 1
ENDMDL
MODEL 6
REMARK VINA RESULT:    -1.313      2.389      4.577
REMARK INTER + INTRA:          -2.229
REMARK INTER:                  -1.878
REMARK INTRA:                  -0.351
REMARK UNBOUND:                -0.225
REMARK SMILES CC1=CCC[C@H](C)C(=O)C[C@H](C(C)C)C(=O)C1
REMARK SMILES IDX 8 1 9 2 6 3 7 4 5 5 4 6 3 7 2 8 1 9 10 11 11 12 15 13 16 14
REMARK SMILES IDX 17 15 12 17 13 18 14 19
REMARK H PARENT
REMARK Flexibility Score: 70.00
ROOT
ATOM      1  C   UNL     1     119.151  86.222  55.456  1.00  0.00     0.136 C 
ATOM      2  O   UNL     1     118.530  85.242  55.845  1.00  0.00    -0.299 OA
ENDROOT
BRANCH   1   3
ATOM      3  C   UNL     1     118.913  87.573  56.094  1.00  0.00     0.053 C 
ATOM      4  C   UNL     1     117.511  88.069  55.727  1.00  0.00     0.016 C 
BRANCH   3   5
ATOM      5  C   UNL     1     119.088  87.546  57.629  1.00  0.00     0.015 C 
BRANCH   5   6
ATOM      6  C   UNL     1     120.561  87.568  58.082  1.00  0.00     0.028 C 
BRANCH   6   7
ATOM      7  C   UNL     1     121.092  86.169  58.305  1.00  0.00    -0.028 C 
ATOM      8  C   UNL     1     122.167  85.613  57.699  1.00  0.00    -0.070 CG0
ATOM      9  C   UNL     1     122.545  84.205  58.083  1.00  0.00     0.039 C 
ATOM     10  G   UNL     1     122.971  86.305  56.618  1.00  0.00     0.000 G0
ENDBRANCH   6   7
ENDBRANCH   5   6
ENDBRANCH   3   5
ENDBRANCH   1   3
BRANCH   1  11
ATOM     11  C   UNL     1     120.126  86.078  54.311  1.00  0.00     0.087 C 
BRANCH  11  12
ATOM     12  C   UNL     1     121.437  86.868  54.544  1.00  0.00     0.066 C 
BRANCH  12  13
ATOM     13  C   UNL     1     122.450  85.976  55.240  1.00  0.00     0.140 C 
ATOM     14  O   UNL     1     122.864  84.974  54.670  1.00  0.00    -0.299 OA
BRANCH  13  15
ATOM     15  C   UNL     1     122.977  86.306  56.610  1.00  0.00     0.106 CG0
ATOM     16  G   UNL     1     122.150  85.610  57.671  1.00  0.00     0.000 G0
ENDBRANCH  13  15
ENDBRANCH  12  13
BRANCH  12  17
ATOM     17  C   UNL     1     122.035  87.432  53.217  1.00  0.00    -0.006 C 
ATOM     18  C   UNL     1     120.983  87.527  52.097  1.00  0.00     0.008 C 
ATOM     19  C   UNL     1     122.654  88.826  53.436  1.00  0.00     0.008 C 
ENDBRANCH  12  17
ENDBRANCH  11  12
ENDBRANCH   1  11
TORSDOF 1
ENDMDL
MODEL 7
REMARK VINA RESULT:    -1.281      1.887      3.832
REMARK INTER + INTRA:          -2.181
REMARK INTER:                  -1.964
REMARK INTRA:                  -0.217
REMARK UNBOUND:                -0.225
REMARK SMILES CC1=CCC[C@H](C)C(=O)C[C@H](C(C)C)C(=O)C1
REMARK SMILES IDX 8 1 9 2 6 3 7 4 5 5 4 6 3 7 2 8 1 9 10 11 11 12 15 13 16 14
REMARK SMILES IDX 17 15 12 17 13 18 14 19
REMARK H PARENT
REMARK Flexibility Score: 70.00
ROOT
ATOM      1  C   UNL     1     119.809  84.747  56.663  1.00  0.00     0.136 C 
ATOM      2  O   UNL     1     118.785  84.167  56.329  1.00  0.00    -0.299 OA
ENDROOT
BRANCH   1   3
ATOM      3  C   UNL     1     120.234  84.760  58.116  1.00  0.00     0.053 C 
ATOM      4  C   UNL     1     118.994  84.880  59.007  1.00  0.00     0.016 C 
BRANCH   3   5
ATOM      5  C   UNL     1     121.057  83.512  58.507  1.00  0.00     0.015 C 
BRANCH   5   6
ATOM      6  C   UNL     1     122.536  83.821  58.811  1.00  0.00     0.028 C 
BRANCH   6   7
ATOM      7  C   UNL     1     123.457  83.162  57.806  1.00  0.00    -0.028 C 
ATOM      8  C   UNL     1     124.226  83.794  56.889  1.00  0.00    -0.070 CG0
ATOM      9  C   UNL     1     125.094  82.947  55.992  1.00  0.00     0.039 C 
ATOM     10  G   UNL     1     124.216  85.293  56.676  1.00  0.00     0.000 G0
ENDBRANCH   6   7
ENDBRANCH   5   6
ENDBRANCH   3   5
ENDBRANCH   1   3
BRANCH   1  11
ATOM     11  C   UNL     1     120.621  85.481  55.622  1.00  0.00     0.087 C 
BRANCH  11  12
ATOM     12  C   UNL     1     121.806  86.264  56.238  1.00  0.00     0.066 C 
BRANCH  12  13
ATOM     13  C   UNL     1     123.116  85.686  55.733  1.00  0.00     0.140 C 
ATOM     14  O   UNL     1     123.287  85.541  54.529  1.00  0.00    -0.299 OA
BRANCH  13  15
ATOM     15  C   UNL     1     124.222  85.303  56.678  1.00  0.00     0.106 CG0
ATOM     16  G   UNL     1     124.225  83.804  56.901  1.00  0.00     0.000 G0
ENDBRANCH  13  15
ENDBRANCH  12  13
BRANCH  12  17
ATOM     17  C   UNL     1     121.734  87.792  55.925  1.00  0.00    -0.006 C 
ATOM     18  C   UNL     1     121.119  88.076  54.543  1.00  0.00     0.008 C 
ATOM     19  C   UNL     1     120.916  88.540  56.996  1.00  0.00     0.008 C 
ENDBRANCH  12  17
ENDBRANCH  11  12
ENDBRANCH   1  11
TORSDOF 1
ENDMDL
MODEL 8
REMARK VINA RESULT:    -1.255      1.879      3.004
REMARK INTER + INTRA:          -2.140
REMARK INTER:                  -1.927
REMARK INTRA:                  -0.213
REMARK UNBOUND:                -0.225
REMARK SMILES CC1=CCC[C@H](C)C(=O)C[C@H](C(C)C)C(=O)C1
REMARK SMILES IDX 8 1 9 2 6 3 7 4 5 5 4 6 3 7 2 8 1 9 10 11 11 12 15 13 16 14
REMARK SMILES IDX 17 15 12 17 13 18 14 19
REMARK H PARENT
REMARK Flexibility Score: 70.00
ROOT
ATOM      1  C   UNL     1     122.681  85.017  53.465  1.00  0.00     0.136 C 
ATOM      2  O   UNL     1     121.496  84.866  53.199  1.00  0.00    -0.299 OA
ENDROOT
BRANCH   1   3
ATOM      3  C   UNL     1     123.731  84.202  52.741  1.00  0.00     0.053 C 
ATOM      4  C   UNL     1     125.118  84.775  53.044  1.00  0.00     0.016 C 
BRANCH   3   5
ATOM      5  C   UNL     1     123.678  82.702  53.106  1.00  0.00     0.015 C 
BRANCH   5   6
ATOM      6  C   UNL     1     124.383  82.367  54.435  1.00  0.00     0.028 C 
BRANCH   6   7
ATOM      7  C   UNL     1     123.385  82.106  55.542  1.00  0.00    -0.028 C 
ATOM      8  C   UNL     1     123.091  82.937  56.569  1.00  0.00    -0.070 CG0
ATOM      9  C   UNL     1     122.042  82.495  57.558  1.00  0.00     0.039 C 
ATOM     10  G   UNL     1     123.800  84.254  56.811  1.00  0.00     0.000 G0
ENDBRANCH   6   7
ENDBRANCH   5   6
ENDBRANCH   3   5
ENDBRANCH   1   3
BRANCH   1  11
ATOM     11  C   UNL     1     123.082  85.992  54.547  1.00  0.00     0.087 C 
BRANCH  11  12
ATOM     12  C   UNL     1     122.112  85.971  55.754  1.00  0.00     0.066 C 
BRANCH  12  13
ATOM     13  C   UNL     1     122.815  85.375  56.960  1.00  0.00     0.140 C 
ATOM     14  O   UNL     1     122.561  85.803  58.079  1.00  0.00    -0.299 OA
BRANCH  13  15
ATOM     15  C   UNL     1     123.806  84.252  56.816  1.00  0.00     0.106 CG0
ATOM     16  G   UNL     1     123.082  82.944  56.569  1.00  0.00     0.000 G0
ENDBRANCH  13  15
ENDBRANCH  12  13
BRANCH  12  17
ATOM     17  C   UNL     1     121.561  87.391  56.097  1.00  0.00    -0.006 C 
ATOM     18  C   UNL     1     122.079  88.468  55.126  1.00  0.00     0.008 C 
ATOM     19  C   UNL     1     120.020  87.407  56.080  1.00  0.00     0.008 C 
ENDBRANCH  12  17
ENDBRANCH  11  12
ENDBRANCH   1  11
TORSDOF 1
ENDMDL
MODEL 9
REMARK VINA RESULT:    -1.121     11.131     13.663
REMARK INTER + INTRA:          -1.937
REMARK INTER:                  -1.758
REMARK INTRA:                  -0.179
REMARK UNBOUND:                -0.225
REMARK SMILES CC1=CCC[C@H](C)C(=O)C[C@H](C(C)C)C(=O)C1
REMARK SMILES IDX 8 1 9 2 6 3 7 4 5 5 4 6 3 7 2 8 1 9 10 11 11 12 15 13 16 14
REMARK SMILES IDX 17 15 12 17 13 18 14 19
REMARK H PARENT
REMARK Flexibility Score: 70.00
ROOT
ATOM      1  C   UNL     1     110.580  85.581  54.476  1.00  0.00     0.136 C 
ATOM      2  O   UNL     1     111.351  85.246  53.586  1.00  0.00    -0.299 OA
ENDROOT
BRANCH   1   3
ATOM      3  C   UNL     1     109.664  86.769  54.277  1.00  0.00     0.053 C 
ATOM      4  C   UNL     1     110.229  87.668  53.173  1.00  0.00     0.016 C 
BRANCH   3   5
ATOM      5  C   UNL     1     108.214  86.355  53.941  1.00  0.00     0.015 C 
BRANCH   5   6
ATOM      6  C   UNL     1     107.236  86.527  55.120  1.00  0.00     0.028 C 
BRANCH   6   7
ATOM      7  C   UNL     1     106.726  85.192  55.616  1.00  0.00    -0.028 C 
ATOM      8  C   UNL     1     106.892  84.682  56.858  1.00  0.00    -0.070 CG0
ATOM      9  C   UNL     1     106.281  83.336  57.156  1.00  0.00     0.039 C 
ATOM     10  G   UNL     1     107.705  85.359  57.941  1.00  0.00     0.000 G0
ENDBRANCH   6   7
ENDBRANCH   5   6
ENDBRANCH   3   5
ENDBRANCH   1   3
BRANCH   1  11
ATOM     11  C   UNL     1     110.580  84.825  55.783  1.00  0.00     0.087 C 
BRANCH  11  12
ATOM     12  C   UNL     1     110.148  85.709  56.979  1.00  0.00     0.066 C 
BRANCH  12  13
ATOM     13  C   UNL     1     109.159  84.946  57.843  1.00  0.00     0.140 C 
ATOM     14  O   UNL     1     109.542  83.980  58.490  1.00  0.00    -0.299 OA
BRANCH  13  15
ATOM     15  C   UNL     1     107.717  85.364  57.940  1.00  0.00     0.106 CG0
ATOM     16  G   UNL     1     106.900  84.683  56.862  1.00  0.00     0.000 G0
ENDBRANCH  13  15
ENDBRANCH  12  13
BRANCH  12  17
ATOM     17  C   UNL     1     111.363  86.180  57.838  1.00  0.00    -0.006 C 
ATOM     18  C   UNL     1     112.440  86.880  56.990  1.00  0.00     0.008 C 
ATOM     19  C   UNL     1     110.913  87.138  58.958  1.00  0.00     0.008 C 
ENDBRANCH  12  17
ENDBRANCH  11  12
ENDBRANCH   1  11
TORSDOF 1
ENDMDL
