MODEL 1
REMARK VINA RESULT:    -4.663      0.000      0.000
REMARK INTER + INTRA:          -7.477
REMARK INTER:                  -7.117
REMARK INTRA:                  -0.360
REMARK UNBOUND:                -0.360
REMARK SMILES O=C([O-])CCCCCCCCC(=O)[O-]
REMARK SMILES IDX 7 1 6 2 5 3 4 4 2 5 1 6 3 7 8 8 9 9 10 10 11 11 12 12 13 13
REMARK SMILES IDX 14 14
REMARK H PARENT
REMARK Flexibility Score: inf
ROOT
ATOM      1  C   UNL     1     -26.439  46.727  88.495  1.00  0.00     0.000 C 
ENDROOT
BRANCH   1   2
ATOM      2  C   UNL     1     -26.119  46.070  89.850  1.00  0.00     0.000 C 
BRANCH   2   3
ATOM      3  C   UNL     1     -27.348  45.429  90.513  1.00  0.00     0.006 C 
BRANCH   3   4
ATOM      4  C   UNL     1     -27.074  43.967  90.878  1.00  0.00     0.053 C 
BRANCH   4   5
ATOM      5  C   UNL     1     -28.202  43.094  90.428  1.00  0.00     0.041 C 
ATOM      6  O   UNL     1     -29.064  42.697  91.255  1.00  0.00    -0.550 OA
ATOM      7  O   UNL     1     -28.274  42.676  89.105  1.00  0.00    -0.550 OA
ENDBRANCH   4   5
ENDBRANCH   3   4
ENDBRANCH   2   3
ENDBRANCH   1   2
BRANCH   1   8
ATOM      8  C   UNL     1     -25.888  45.989  87.261  1.00  0.00     0.000 C 
BRANCH   8   9
ATOM      9  C   UNL     1     -24.465  45.445  87.476  1.00  0.00     0.000 C 
BRANCH   9  10
ATOM     10  C   UNL     1     -23.410  46.193  86.638  1.00  0.00     0.006 C 
BRANCH  10  11
ATOM     11  C   UNL     1     -21.995  45.598  86.722  1.00  0.00     0.053 C 
BRANCH  11  12
ATOM     12  C   UNL     1     -21.435  45.288  85.368  1.00  0.00     0.041 C 
ATOM     13  O   UNL     1     -21.626  46.080  84.407  1.00  0.00    -0.550 OA
ATOM     14  O   UNL     1     -20.674  44.142  85.176  1.00  0.00    -0.550 OA
ENDBRANCH  11  12
ENDBRANCH  10  11
ENDBRANCH   9  10
ENDBRANCH   8   9
ENDBRANCH   1   8
TORSDOF 9
ENDMDL
MODEL 2
REMARK VINA RESULT:    -4.625      0.957      1.103
REMARK INTER + INTRA:          -7.418
REMARK INTER:                  -7.039
REMARK INTRA:                  -0.379
REMARK UNBOUND:                -0.360
REMARK SMILES O=C([O-])CCCCCCCCC(=O)[O-]
REMARK SMILES IDX 7 1 6 2 5 3 4 4 2 5 1 6 3 7 8 8 9 9 10 10 11 11 12 12 13 13
REMARK SMILES IDX 14 14
REMARK H PARENT
REMARK Flexibility Score: inf
ROOT
ATOM      1  C   UNL     1     -26.083  45.587  88.329  1.00  0.00     0.000 C 
ENDROOT
BRANCH   1   2
ATOM      2  C   UNL     1     -25.597  45.539  89.789  1.00  0.00     0.000 C 
BRANCH   2   3
ATOM      3  C   UNL     1     -26.269  44.428  90.610  1.00  0.00     0.006 C 
BRANCH   3   4
ATOM      4  C   UNL     1     -27.794  44.561  90.568  1.00  0.00     0.053 C 
BRANCH   4   5
ATOM      5  C   UNL     1     -28.428  43.233  90.300  1.00  0.00     0.041 C 
ATOM      6  O   UNL     1     -29.069  42.643  91.209  1.00  0.00    -0.550 OA
ATOM      7  O   UNL     1     -28.270  42.623  89.062  1.00  0.00    -0.550 OA
ENDBRANCH   4   5
ENDBRANCH   3   4
ENDBRANCH   2   3
ENDBRANCH   1   2
BRANCH   1   8
ATOM      8  C   UNL     1     -24.970  45.689  87.269  1.00  0.00     0.000 C 
BRANCH   8   9
ATOM      9  C   UNL     1     -23.688  44.942  87.674  1.00  0.00     0.000 C 
BRANCH   9  10
ATOM     10  C   UNL     1     -22.494  45.271  86.758  1.00  0.00     0.006 C 
BRANCH  10  11
ATOM     11  C   UNL     1     -21.346  44.250  86.821  1.00  0.00     0.053 C 
BRANCH  11  12
ATOM     12  C   UNL     1     -20.621  44.140  85.515  1.00  0.00     0.041 C 
ATOM     13  O   UNL     1     -20.943  44.878  84.546  1.00  0.00    -0.550 OA
ATOM     14  O   UNL     1     -19.566  43.247  85.378  1.00  0.00    -0.550 OA
ENDBRANCH  11  12
ENDBRANCH  10  11
ENDBRANCH   9  10
ENDBRANCH   8   9
ENDBRANCH   1   8
TORSDOF 9
ENDMDL
MODEL 3
REMARK VINA RESULT:    -4.605      5.853      6.881
REMARK INTER + INTRA:          -7.388
REMARK INTER:                  -6.749
REMARK INTRA:                  -0.639
REMARK UNBOUND:                -0.360
REMARK SMILES O=C([O-])CCCCCCCCC(=O)[O-]
REMARK SMILES IDX 7 1 6 2 5 3 4 4 2 5 1 6 3 7 8 8 9 9 10 10 11 11 12 12 13 13
REMARK SMILES IDX 14 14
REMARK H PARENT
REMARK Flexibility Score: inf
ROOT
ATOM      1  C   UNL     1     -19.331  43.618  85.217  1.00  0.00     0.000 C 
ENDROOT
BRANCH   1   2
ATOM      2  C   UNL     1     -20.677  43.823  85.936  1.00  0.00     0.000 C 
BRANCH   2   3
ATOM      3  C   UNL     1     -20.741  43.125  87.303  1.00  0.00     0.006 C 
BRANCH   3   4
ATOM      4  C   UNL     1     -21.658  41.899  87.250  1.00  0.00     0.053 C 
BRANCH   4   5
ATOM      5  C   UNL     1     -20.851  40.640  87.269  1.00  0.00     0.041 C 
ATOM      6  O   UNL     1     -21.410  39.527  87.080  1.00  0.00    -0.550 OA
ATOM      7  O   UNL     1     -19.491  40.688  87.544  1.00  0.00    -0.550 OA
ENDBRANCH   4   5
ENDBRANCH   3   4
ENDBRANCH   2   3
ENDBRANCH   1   2
BRANCH   1   8
ATOM      8  C   UNL     1     -18.293  44.734  85.436  1.00  0.00     0.000 C 
BRANCH   8   9
ATOM      9  C   UNL     1     -17.824  45.381  84.122  1.00  0.00     0.000 C 
BRANCH   9  10
ATOM     10  C   UNL     1     -18.301  46.838  83.972  1.00  0.00     0.006 C 
BRANCH  10  11
ATOM     11  C   UNL     1     -19.295  47.065  82.823  1.00  0.00     0.053 C 
BRANCH  11  12
ATOM     12  C   UNL     1     -20.700  46.733  83.221  1.00  0.00     0.041 C 
ATOM     13  O   UNL     1     -21.481  46.187  82.397  1.00  0.00    -0.550 OA
ATOM     14  O   UNL     1     -21.138  46.997  84.513  1.00  0.00    -0.550 OA
ENDBRANCH  11  12
ENDBRANCH  10  11
ENDBRANCH   9  10
ENDBRANCH   8   9
ENDBRANCH   1   8
TORSDOF 9
ENDMDL
MODEL 4
REMARK VINA RESULT:    -4.584      5.342      8.279
REMARK INTER + INTRA:          -7.356
REMARK INTER:                  -6.486
REMARK INTRA:                  -0.870
REMARK UNBOUND:                -0.360
REMARK SMILES O=C([O-])CCCCCCCCC(=O)[O-]
REMARK SMILES IDX 7 1 6 2 5 3 4 4 2 5 1 6 3 7 8 8 9 9 10 10 11 11 12 12 13 13
REMARK SMILES IDX 14 14
REMARK H PARENT
REMARK Flexibility Score: inf
ROOT
ATOM      1  C   UNL     1     -22.207  43.677  87.407  1.00  0.00     0.000 C 
ENDROOT
BRANCH   1   2
ATOM      2  C   UNL     1     -21.018  44.435  86.789  1.00  0.00     0.000 C 
BRANCH   2   3
ATOM      3  C   UNL     1     -20.536  43.822  85.466  1.00  0.00     0.006 C 
BRANCH   3   4
ATOM      4  C   UNL     1     -19.013  43.919  85.339  1.00  0.00     0.053 C 
BRANCH   4   5
ATOM      5  C   UNL     1     -18.635  45.031  84.411  1.00  0.00     0.041 C 
ATOM      6  O   UNL     1     -19.485  45.507  83.614  1.00  0.00    -0.550 OA
ATOM      7  O   UNL     1     -17.330  45.508  84.392  1.00  0.00    -0.550 OA
ENDBRANCH   4   5
ENDBRANCH   3   4
ENDBRANCH   2   3
ENDBRANCH   1   2
BRANCH   1   8
ATOM      8  C   UNL     1     -21.971  42.176  87.656  1.00  0.00     0.000 C 
BRANCH   8   9
ATOM      9  C   UNL     1     -20.849  41.908  88.673  1.00  0.00     0.000 C 
BRANCH   9  10
ATOM     10  C   UNL     1     -19.883  40.797  88.215  1.00  0.00     0.006 C 
BRANCH  10  11
ATOM     11  C   UNL     1     -20.090  40.336  86.764  1.00  0.00     0.053 C 
BRANCH  11  12
ATOM     12  C   UNL     1     -20.445  38.883  86.681  1.00  0.00     0.041 C 
ATOM     13  O   UNL     1     -20.988  38.306  87.661  1.00  0.00    -0.550 OA
ATOM     14  O   UNL     1     -20.205  38.174  85.512  1.00  0.00    -0.550 OA
ENDBRANCH  11  12
ENDBRANCH  10  11
ENDBRANCH   9  10
ENDBRANCH   8   9
ENDBRANCH   1   8
TORSDOF 9
ENDMDL
MODEL 5
REMARK VINA RESULT:    -4.575      5.379      6.782
REMARK INTER + INTRA:          -7.342
REMARK INTER:                  -6.468
REMARK INTRA:                  -0.874
REMARK UNBOUND:                -0.360
REMARK SMILES O=C([O-])CCCCCCCCC(=O)[O-]
REMARK SMILES IDX 7 1 6 2 5 3 4 4 2 5 1 6 3 7 8 8 9 9 10 10 11 11 12 12 13 13
REMARK SMILES IDX 14 14
REMARK H PARENT
REMARK Flexibility Score: inf
ROOT
ATOM      1  C   UNL     1     -22.047  42.252  87.637  1.00  0.00     0.000 C 
ENDROOT
BRANCH   1   2
ATOM      2  C   UNL     1     -20.890  41.760  88.524  1.00  0.00     0.000 C 
BRANCH   2   3
ATOM      3  C   UNL     1     -19.907  40.844  87.779  1.00  0.00     0.006 C 
BRANCH   3   4
ATOM      4  C   UNL     1     -20.573  40.207  86.556  1.00  0.00     0.053 C 
BRANCH   4   5
ATOM      5  C   UNL     1     -20.512  38.714  86.644  1.00  0.00     0.041 C 
ATOM      6  O   UNL     1     -21.005  38.118  87.638  1.00  0.00    -0.550 OA
ATOM      7  O   UNL     1     -19.867  37.984  85.654  1.00  0.00    -0.550 OA
ENDBRANCH   4   5
ENDBRANCH   3   4
ENDBRANCH   2   3
ENDBRANCH   1   2
BRANCH   1   8
ATOM      8  C   UNL     1     -22.177  43.782  87.515  1.00  0.00     0.000 C 
BRANCH   8   9
ATOM      9  C   UNL     1     -20.859  44.464  87.113  1.00  0.00     0.000 C 
BRANCH   9  10
ATOM     10  C   UNL     1     -20.472  44.193  85.646  1.00  0.00     0.006 C 
BRANCH  10  11
ATOM     11  C   UNL     1     -19.004  43.786  85.442  1.00  0.00     0.053 C 
BRANCH  11  12
ATOM     12  C   UNL     1     -18.231  44.827  84.694  1.00  0.00     0.041 C 
ATOM     13  O   UNL     1     -17.095  45.188  85.102  1.00  0.00    -0.550 OA
ATOM     14  O   UNL     1     -18.750  45.377  83.529  1.00  0.00    -0.550 OA
ENDBRANCH  11  12
ENDBRANCH  10  11
ENDBRANCH   9  10
ENDBRANCH   8   9
ENDBRANCH   1   8
TORSDOF 9
ENDMDL
MODEL 6
REMARK VINA RESULT:    -4.553      1.398      6.404
REMARK INTER + INTRA:          -7.308
REMARK INTER:                  -6.637
REMARK INTRA:                  -0.672
REMARK UNBOUND:                -0.360
REMARK SMILES O=C([O-])CCCCCCCCC(=O)[O-]
REMARK SMILES IDX 7 1 6 2 5 3 4 4 2 5 1 6 3 7 8 8 9 9 10 10 11 11 12 12 13 13
REMARK SMILES IDX 14 14
REMARK H PARENT
REMARK Flexibility Score: inf
ROOT
ATOM      1  C   UNL     1     -26.057  45.664  87.908  1.00  0.00     0.000 C 
ENDROOT
BRANCH   1   2
ATOM      2  C   UNL     1     -25.111  46.312  86.881  1.00  0.00     0.000 C 
BRANCH   2   3
ATOM      3  C   UNL     1     -23.627  46.042  87.176  1.00  0.00     0.006 C 
BRANCH   3   4
ATOM      4  C   UNL     1     -23.462  44.816  88.078  1.00  0.00     0.053 C 
BRANCH   4   5
ATOM      5  C   UNL     1     -22.485  43.853  87.481  1.00  0.00     0.041 C 
ATOM      6  O   UNL     1     -21.506  44.279  86.812  1.00  0.00    -0.550 OA
ATOM      7  O   UNL     1     -22.682  42.486  87.618  1.00  0.00    -0.550 OA
ENDBRANCH   4   5
ENDBRANCH   3   4
ENDBRANCH   2   3
ENDBRANCH   1   2
BRANCH   1   8
ATOM      8  C   UNL     1     -26.631  46.622  88.968  1.00  0.00     0.000 C 
BRANCH   8   9
ATOM      9  C   UNL     1     -26.965  45.916  90.294  1.00  0.00     0.000 C 
BRANCH   9  10
ATOM     10  C   UNL     1     -26.236  44.568  90.449  1.00  0.00     0.006 C 
BRANCH  10  11
ATOM     11  C   UNL     1     -26.973  43.546  91.330  1.00  0.00     0.053 C 
BRANCH  11  12
ATOM     12  C   UNL     1     -28.137  42.928  90.619  1.00  0.00     0.041 C 
ATOM     13  O   UNL     1     -29.205  42.686  91.241  1.00  0.00    -0.550 OA
ATOM     14  O   UNL     1     -28.054  42.647  89.261  1.00  0.00    -0.550 OA
ENDBRANCH  11  12
ENDBRANCH  10  11
ENDBRANCH   9  10
ENDBRANCH   8   9
ENDBRANCH   1   8
TORSDOF 9
ENDMDL
MODEL 7
REMARK VINA RESULT:    -4.545      5.977      8.847
REMARK INTER + INTRA:          -7.296
REMARK INTER:                  -6.819
REMARK INTRA:                  -0.477
REMARK UNBOUND:                -0.360
REMARK SMILES O=C([O-])CCCCCCCCC(=O)[O-]
REMARK SMILES IDX 7 1 6 2 5 3 4 4 2 5 1 6 3 7 8 8 9 9 10 10 11 11 12 12 13 13
REMARK SMILES IDX 14 14
REMARK H PARENT
REMARK Flexibility Score: inf
ROOT
ATOM      1  C   UNL     1     -19.497  43.497  85.402  1.00  0.00     0.000 C 
ENDROOT
BRANCH   1   2
ATOM      2  C   UNL     1     -18.331  44.502  85.385  1.00  0.00     0.000 C 
BRANCH   2   3
ATOM      3  C   UNL     1     -18.081  45.109  83.996  1.00  0.00     0.006 C 
BRANCH   3   4
ATOM      4  C   UNL     1     -18.419  46.603  83.981  1.00  0.00     0.053 C 
BRANCH   4   5
ATOM      5  C   UNL     1     -19.814  46.819  83.487  1.00  0.00     0.041 C 
ATOM      6  O   UNL     1     -20.047  46.866  82.251  1.00  0.00    -0.550 OA
ATOM      7  O   UNL     1     -20.849  47.020  84.391  1.00  0.00    -0.550 OA
ENDBRANCH   4   5
ENDBRANCH   3   4
ENDBRANCH   2   3
ENDBRANCH   1   2
BRANCH   1   8
ATOM      8  C   UNL     1     -20.599  43.787  86.438  1.00  0.00     0.000 C 
BRANCH   8   9
ATOM      9  C   UNL     1     -20.872  42.594  87.371  1.00  0.00     0.000 C 
BRANCH   9  10
ATOM     10  C   UNL     1     -20.237  41.285  86.864  1.00  0.00     0.006 C 
BRANCH  10  11
ATOM     11  C   UNL     1     -21.180  40.072  86.885  1.00  0.00     0.053 C 
BRANCH  11  12
ATOM     12  C   UNL     1     -20.856  39.129  88.002  1.00  0.00     0.041 C 
ATOM     13  O   UNL     1     -20.885  39.527  89.198  1.00  0.00    -0.550 OA
ATOM     14  O   UNL     1     -20.554  37.801  87.727  1.00  0.00    -0.550 OA
ENDBRANCH  11  12
ENDBRANCH  10  11
ENDBRANCH   9  10
ENDBRANCH   8   9
ENDBRANCH   1   8
TORSDOF 9
ENDMDL
MODEL 8
REMARK VINA RESULT:    -4.497      6.296      8.036
REMARK INTER + INTRA:          -7.223
REMARK INTER:                  -6.680
REMARK INTRA:                  -0.543
REMARK UNBOUND:                -0.360
REMARK SMILES O=C([O-])CCCCCCCCC(=O)[O-]
REMARK SMILES IDX 7 1 6 2 5 3 4 4 2 5 1 6 3 7 8 8 9 9 10 10 11 11 12 12 13 13
REMARK SMILES IDX 14 14
REMARK H PARENT
REMARK Flexibility Score: inf
ROOT
ATOM      1  C   UNL     1     -20.635  38.331  87.358  1.00  0.00     0.000 C 
ENDROOT
BRANCH   1   2
ATOM      2  C   UNL     1     -19.937  37.713  88.583  1.00  0.00     0.000 C 
BRANCH   2   3
ATOM      3  C   UNL     1     -20.072  38.573  89.849  1.00  0.00     0.006 C 
BRANCH   3   4
ATOM      4  C   UNL     1     -18.720  38.732  90.551  1.00  0.00     0.053 C 
BRANCH   4   5
ATOM      5  C   UNL     1     -18.396  40.180  90.744  1.00  0.00     0.041 C 
ATOM      6  O   UNL     1     -19.158  41.066  90.275  1.00  0.00    -0.550 OA
ATOM      7  O   UNL     1     -17.228  40.551  91.396  1.00  0.00    -0.550 OA
ENDBRANCH   4   5
ENDBRANCH   3   4
ENDBRANCH   2   3
ENDBRANCH   1   2
BRANCH   1   8
ATOM      8  C   UNL     1     -20.971  39.829  87.480  1.00  0.00     0.000 C 
BRANCH   8   9
ATOM      9  C   UNL     1     -19.904  40.735  86.841  1.00  0.00     0.000 C 
BRANCH   9  10
ATOM     10  C   UNL     1     -20.340  42.212  86.777  1.00  0.00     0.006 C 
BRANCH  10  11
ATOM     11  C   UNL     1     -19.681  43.019  85.647  1.00  0.00     0.053 C 
BRANCH  11  12
ATOM     12  C   UNL     1     -20.248  44.401  85.540  1.00  0.00     0.041 C 
ATOM     13  O   UNL     1     -19.628  45.294  84.903  1.00  0.00    -0.550 OA
ATOM     14  O   UNL     1     -21.476  44.696  86.118  1.00  0.00    -0.550 OA
ENDBRANCH  11  12
ENDBRANCH  10  11
ENDBRANCH   9  10
ENDBRANCH   8   9
ENDBRANCH   1   8
TORSDOF 9
ENDMDL
MODEL 9
REMARK VINA RESULT:    -4.483      0.624      7.083
REMARK INTER + INTRA:          -7.202
REMARK INTER:                  -6.786
REMARK INTRA:                  -0.416
REMARK UNBOUND:                -0.360
REMARK SMILES O=C([O-])CCCCCCCCC(=O)[O-]
REMARK SMILES IDX 7 1 6 2 5 3 4 4 2 5 1 6 3 7 8 8 9 9 10 10 11 11 12 12 13 13
REMARK SMILES IDX 14 14
REMARK H PARENT
REMARK Flexibility Score: inf
ROOT
ATOM      1  C   UNL     1     -25.876  46.209  87.170  1.00  0.00     0.000 C 
ENDROOT
BRANCH   1   2
ATOM      2  C   UNL     1     -24.501  46.722  86.704  1.00  0.00     0.000 C 
BRANCH   2   3
ATOM      3  C   UNL     1     -23.358  45.740  87.010  1.00  0.00     0.006 C 
BRANCH   3   4
ATOM      4  C   UNL     1     -22.007  46.324  86.587  1.00  0.00     0.053 C 
BRANCH   4   5
ATOM      5  C   UNL     1     -21.545  45.701  85.307  1.00  0.00     0.041 C 
ATOM      6  O   UNL     1     -21.734  46.293  84.211  1.00  0.00    -0.550 OA
ATOM      7  O   UNL     1     -20.952  44.446  85.318  1.00  0.00    -0.550 OA
ENDBRANCH   4   5
ENDBRANCH   3   4
ENDBRANCH   2   3
ENDBRANCH   1   2
BRANCH   1   8
ATOM      8  C   UNL     1     -26.576  47.078  88.230  1.00  0.00     0.000 C 
BRANCH   8   9
ATOM      9  C   UNL     1     -26.635  46.404  89.612  1.00  0.00     0.000 C 
BRANCH   9  10
ATOM     10  C   UNL     1     -26.617  44.866  89.524  1.00  0.00     0.006 C 
BRANCH  10  11
ATOM     11  C   UNL     1     -27.228  44.153  90.741  1.00  0.00     0.053 C 
BRANCH  11  12
ATOM     12  C   UNL     1     -28.251  43.135  90.341  1.00  0.00     0.041 C 
ATOM     13  O   UNL     1     -28.258  42.670  89.170  1.00  0.00    -0.550 OA
ATOM     14  O   UNL     1     -29.177  42.677  91.269  1.00  0.00    -0.550 OA
ENDBRANCH  11  12
ENDBRANCH  10  11
ENDBRANCH   9  10
ENDBRANCH   8   9
ENDBRANCH   1   8
TORSDOF 9
ENDMDL
