MODEL 1
REMARK VINA RESULT:    -4.424      0.000      0.000
REMARK INTER + INTRA:          -8.673
REMARK INTER:                  -7.527
REMARK INTRA:                  -1.146
REMARK UNBOUND:                -1.146
REMARK SMILES CCCCCCCCCCCCCC(=O)[O-]
REMARK SMILES IDX 8 1 9 2 10 3 11 4 12 5 13 6 14 7 15 8 16 9 7 10 6 11 5 12
REMARK SMILES IDX 4 13 3 14 2 15 1 16
REMARK H PARENT
REMARK Flexibility Score: inf
ROOT
ATOM      1  C   UNL     1      33.108  26.489  71.557  1.00  0.00     0.000 C 
ENDROOT
BRANCH   1   2
ATOM      2  C   UNL     1      31.889  26.188  70.672  1.00  0.00     0.000 C 
BRANCH   2   3
ATOM      3  C   UNL     1      31.252  24.823  70.986  1.00  0.00     0.000 C 
BRANCH   3   4
ATOM      4  C   UNL     1      31.260  23.875  69.777  1.00  0.00     0.000 C 
BRANCH   4   5
ATOM      5  C   UNL     1      31.278  24.628  68.436  1.00  0.00     0.006 C 
BRANCH   5   6
ATOM      6  C   UNL     1      32.464  24.215  67.555  1.00  0.00     0.053 C 
BRANCH   6   7
ATOM      7  C   UNL     1      32.187  24.455  66.103  1.00  0.00     0.041 C 
ATOM      8  O   UNL     1      33.138  24.645  65.300  1.00  0.00    -0.550 OA
ATOM      9  O   UNL     1      30.877  24.505  65.642  1.00  0.00    -0.550 OA
ENDBRANCH   6   7
ENDBRANCH   5   6
ENDBRANCH   4   5
ENDBRANCH   3   4
ENDBRANCH   2   3
ENDBRANCH   1   2
BRANCH   1  10
ATOM     10  C   UNL     1      34.434  26.406  70.786  1.00  0.00     0.000 C 
BRANCH  10  11
ATOM     11  C   UNL     1      34.950  24.963  70.734  1.00  0.00    -0.000 C 
BRANCH  11  12
ATOM     12  C   UNL     1      35.634  24.672  69.389  1.00  0.00    -0.000 C 
BRANCH  12  13
ATOM     13  C   UNL     1      37.000  23.986  69.553  1.00  0.00    -0.000 C 
BRANCH  13  14
ATOM     14  C   UNL     1      37.463  23.932  71.020  1.00  0.00    -0.000 C 
BRANCH  14  15
ATOM     15  C   UNL     1      38.956  24.258  71.178  1.00  0.00    -0.003 C 
ATOM     16  C   UNL     1      39.349  24.547  72.627  1.00  0.00     0.004 C 
ENDBRANCH  14  15
ENDBRANCH  13  14
ENDBRANCH  12  13
ENDBRANCH  11  12
ENDBRANCH  10  11
ENDBRANCH   1  10
TORSDOF 12
ENDMDL
MODEL 2
REMARK VINA RESULT:    -4.097      3.067      7.041
REMARK INTER + INTRA:          -8.116
REMARK INTER:                  -7.280
REMARK INTRA:                  -0.836
REMARK UNBOUND:                -1.146
REMARK SMILES CCCCCCCCCCCCCC(=O)[O-]
REMARK SMILES IDX 8 1 9 2 10 3 11 4 12 5 13 6 14 7 15 8 16 9 7 10 6 11 5 12
REMARK SMILES IDX 4 13 3 14 2 15 1 16
REMARK H PARENT
REMARK Flexibility Score: inf
ROOT
ATOM      1  C   UNL     1      34.006  24.082  66.982  1.00  0.00     0.000 C 
ENDROOT
BRANCH   1   2
ATOM      2  C   UNL     1      34.960  24.249  68.175  1.00  0.00     0.000 C 
BRANCH   2   3
ATOM      3  C   UNL     1      34.215  24.342  69.519  1.00  0.00     0.000 C 
BRANCH   3   4
ATOM      4  C   UNL     1      35.001  25.136  70.574  1.00  0.00     0.000 C 
BRANCH   4   5
ATOM      5  C   UNL     1      34.109  26.104  71.370  1.00  0.00     0.006 C 
BRANCH   5   6
ATOM      6  C   UNL     1      32.843  26.494  70.597  1.00  0.00     0.053 C 
BRANCH   6   7
ATOM      7  C   UNL     1      31.613  25.896  71.207  1.00  0.00     0.041 C 
ATOM      8  O   UNL     1      30.886  25.119  70.535  1.00  0.00    -0.550 OA
ATOM      9  O   UNL     1      31.250  26.224  72.508  1.00  0.00    -0.550 OA
ENDBRANCH   6   7
ENDBRANCH   5   6
ENDBRANCH   4   5
ENDBRANCH   3   4
ENDBRANCH   2   3
ENDBRANCH   1   2
BRANCH   1  10
ATOM     10  C   UNL     1      32.537  24.319  67.362  1.00  0.00     0.000 C 
BRANCH  10  11
ATOM     11  C   UNL     1      31.699  24.670  66.126  1.00  0.00    -0.000 C 
BRANCH  11  12
ATOM     12  C   UNL     1      32.584  24.788  64.876  1.00  0.00    -0.000 C 
BRANCH  12  13
ATOM     13  C   UNL     1      31.798  25.232  63.631  1.00  0.00    -0.000 C 
BRANCH  13  14
ATOM     14  C   UNL     1      32.340  26.537  63.023  1.00  0.00    -0.000 C 
BRANCH  14  15
ATOM     15  C   UNL     1      31.252  27.610  62.868  1.00  0.00    -0.003 C 
ATOM     16  C   UNL     1      29.841  27.022  62.824  1.00  0.00     0.004 C 
ENDBRANCH  14  15
ENDBRANCH  13  14
ENDBRANCH  12  13
ENDBRANCH  11  12
ENDBRANCH  10  11
ENDBRANCH   1  10
TORSDOF 12
ENDMDL
MODEL 3
REMARK VINA RESULT:    -4.055      5.358     10.226
REMARK INTER + INTRA:          -8.044
REMARK INTER:                  -7.038
REMARK INTRA:                  -1.006
REMARK UNBOUND:                -1.146
REMARK SMILES CCCCCCCCCCCCCC(=O)[O-]
REMARK SMILES IDX 8 1 9 2 10 3 11 4 12 5 13 6 14 7 15 8 16 9 7 10 6 11 5 12
REMARK SMILES IDX 4 13 3 14 2 15 1 16
REMARK H PARENT
REMARK Flexibility Score: inf
ROOT
ATOM      1  C   UNL     1      29.436  27.620  63.085  1.00  0.00     0.000 C 
ENDROOT
BRANCH   1   2
ATOM      2  C   UNL     1      30.678  27.250  62.260  1.00  0.00     0.000 C 
BRANCH   2   3
ATOM      3  C   UNL     1      31.929  27.047  63.133  1.00  0.00     0.000 C 
BRANCH   3   4
ATOM      4  C   UNL     1      32.641  25.716  62.844  1.00  0.00     0.000 C 
BRANCH   4   5
ATOM      5  C   UNL     1      32.798  24.845  64.102  1.00  0.00     0.006 C 
BRANCH   5   6
ATOM      6  C   UNL     1      31.592  24.965  65.044  1.00  0.00     0.053 C 
BRANCH   6   7
ATOM      7  C   UNL     1      31.964  24.657  66.463  1.00  0.00     0.041 C 
ATOM      8  O   UNL     1      31.073  24.582  67.349  1.00  0.00    -0.550 OA
ATOM      9  O   UNL     1      33.298  24.488  66.812  1.00  0.00    -0.550 OA
ENDBRANCH   6   7
ENDBRANCH   5   6
ENDBRANCH   4   5
ENDBRANCH   3   4
ENDBRANCH   2   3
ENDBRANCH   1   2
BRANCH   1  10
ATOM     10  C   UNL     1      28.399  26.489  63.134  1.00  0.00     0.000 C 
BRANCH  10  11
ATOM     11  C   UNL     1      28.898  25.253  62.376  1.00  0.00    -0.000 C 
BRANCH  11  12
ATOM     12  C   UNL     1      27.726  24.344  61.973  1.00  0.00    -0.000 C 
BRANCH  12  13
ATOM     13  C   UNL     1      26.381  25.088  61.942  1.00  0.00    -0.000 C 
BRANCH  13  14
ATOM     14  C   UNL     1      25.212  24.216  62.432  1.00  0.00    -0.000 C 
BRANCH  14  15
ATOM     15  C   UNL     1      23.918  25.021  62.625  1.00  0.00    -0.003 C 
ATOM     16  C   UNL     1      23.270  24.784  63.990  1.00  0.00     0.004 C 
ENDBRANCH  14  15
ENDBRANCH  13  14
ENDBRANCH  12  13
ENDBRANCH  11  12
ENDBRANCH  10  11
ENDBRANCH   1  10
TORSDOF 12
ENDMDL
MODEL 4
REMARK VINA RESULT:    -4.054      2.415      4.830
REMARK INTER + INTRA:          -8.043
REMARK INTER:                  -7.112
REMARK INTRA:                  -0.931
REMARK UNBOUND:                -1.146
REMARK SMILES CCCCCCCCCCCCCC(=O)[O-]
REMARK SMILES IDX 8 1 9 2 10 3 11 4 12 5 13 6 14 7 15 8 16 9 7 10 6 11 5 12
REMARK SMILES IDX 4 13 3 14 2 15 1 16
REMARK H PARENT
REMARK Flexibility Score: inf
ROOT
ATOM      1  C   UNL     1      33.315  24.176  67.226  1.00  0.00     0.000 C 
ENDROOT
BRANCH   1   2
ATOM      2  C   UNL     1      31.846  24.621  67.152  1.00  0.00     0.000 C 
BRANCH   2   3
ATOM      3  C   UNL     1      31.262  24.500  65.734  1.00  0.00     0.000 C 
BRANCH   3   4
ATOM      4  C   UNL     1      32.236  24.988  64.650  1.00  0.00     0.000 C 
BRANCH   4   5
ATOM      5  C   UNL     1      31.587  25.052  63.257  1.00  0.00     0.006 C 
BRANCH   5   6
ATOM      6  C   UNL     1      30.140  25.557  63.314  1.00  0.00     0.053 C 
BRANCH   6   7
ATOM      7  C   UNL     1      30.048  27.017  62.987  1.00  0.00     0.041 C 
ATOM      8  O   UNL     1      31.091  27.676  62.737  1.00  0.00    -0.550 OA
ATOM      9  O   UNL     1      28.814  27.656  62.994  1.00  0.00    -0.550 OA
ENDBRANCH   6   7
ENDBRANCH   5   6
ENDBRANCH   4   5
ENDBRANCH   3   4
ENDBRANCH   2   3
ENDBRANCH   1   2
BRANCH   1  10
ATOM     10  C   UNL     1      33.781  23.914  68.665  1.00  0.00     0.000 C 
BRANCH  10  11
ATOM     11  C   UNL     1      35.276  24.216  68.823  1.00  0.00    -0.000 C 
BRANCH  11  12
ATOM     12  C   UNL     1      35.557  24.926  70.155  1.00  0.00    -0.000 C 
BRANCH  12  13
ATOM     13  C   UNL     1      34.721  26.205  70.335  1.00  0.00    -0.000 C 
BRANCH  13  14
ATOM     14  C   UNL     1      33.681  26.079  71.462  1.00  0.00    -0.000 C 
BRANCH  14  15
ATOM     15  C   UNL     1      32.274  26.499  71.012  1.00  0.00    -0.003 C 
ATOM     16  C   UNL     1      31.297  25.324  70.947  1.00  0.00     0.004 C 
ENDBRANCH  14  15
ENDBRANCH  13  14
ENDBRANCH  12  13
ENDBRANCH  11  12
ENDBRANCH  10  11
ENDBRANCH   1  10
TORSDOF 12
ENDMDL
MODEL 5
REMARK VINA RESULT:    -4.034      3.034      7.293
REMARK INTER + INTRA:          -8.010
REMARK INTER:                  -7.270
REMARK INTRA:                  -0.740
REMARK UNBOUND:                -1.146
REMARK SMILES CCCCCCCCCCCCCC(=O)[O-]
REMARK SMILES IDX 8 1 9 2 10 3 11 4 12 5 13 6 14 7 15 8 16 9 7 10 6 11 5 12
REMARK SMILES IDX 4 13 3 14 2 15 1 16
REMARK H PARENT
REMARK Flexibility Score: inf
ROOT
ATOM      1  C   UNL     1      32.445  24.533  68.071  1.00  0.00     0.000 C 
ENDROOT
BRANCH   1   2
ATOM      2  C   UNL     1      31.494  24.668  69.270  1.00  0.00     0.000 C 
BRANCH   2   3
ATOM      3  C   UNL     1      32.241  24.753  70.612  1.00  0.00     0.000 C 
BRANCH   3   4
ATOM      4  C   UNL     1      32.835  26.147  70.870  1.00  0.00     0.000 C 
BRANCH   4   5
ATOM      5  C   UNL     1      34.371  26.128  70.954  1.00  0.00     0.006 C 
BRANCH   5   6
ATOM      6  C   UNL     1      34.937  24.703  70.910  1.00  0.00     0.053 C 
BRANCH   6   7
ATOM      7  C   UNL     1      36.078  24.588  69.946  1.00  0.00     0.041 C 
ATOM      8  O   UNL     1      37.205  24.191  70.342  1.00  0.00    -0.550 OA
ATOM      9  O   UNL     1      35.906  24.954  68.616  1.00  0.00    -0.550 OA
ENDBRANCH   6   7
ENDBRANCH   5   6
ENDBRANCH   4   5
ENDBRANCH   3   4
ENDBRANCH   2   3
ENDBRANCH   1   2
BRANCH   1  10
ATOM     10  C   UNL     1      31.713  24.603  66.724  1.00  0.00     0.000 C 
BRANCH  10  11
ATOM     11  C   UNL     1      32.708  24.678  65.560  1.00  0.00    -0.000 C 
BRANCH  11  12
ATOM     12  C   UNL     1      32.033  25.229  64.294  1.00  0.00    -0.000 C 
BRANCH  12  13
ATOM     13  C   UNL     1      30.513  24.997  64.282  1.00  0.00    -0.000 C 
BRANCH  13  14
ATOM     14  C   UNL     1      29.874  25.339  62.925  1.00  0.00    -0.000 C 
BRANCH  14  15
ATOM     15  C   UNL     1      28.666  26.278  63.064  1.00  0.00    -0.003 C 
ATOM     16  C   UNL     1      29.058  27.755  63.055  1.00  0.00     0.004 C 
ENDBRANCH  14  15
ENDBRANCH  13  14
ENDBRANCH  12  13
ENDBRANCH  11  12
ENDBRANCH  10  11
ENDBRANCH   1  10
TORSDOF 12
ENDMDL
MODEL 6
REMARK VINA RESULT:    -3.904      2.055      3.969
REMARK INTER + INTRA:          -7.788
REMARK INTER:                  -6.867
REMARK INTRA:                  -0.920
REMARK UNBOUND:                -1.146
REMARK SMILES CCCCCCCCCCCCCC(=O)[O-]
REMARK SMILES IDX 8 1 9 2 10 3 11 4 12 5 13 6 14 7 15 8 16 9 7 10 6 11 5 12
REMARK SMILES IDX 4 13 3 14 2 15 1 16
REMARK H PARENT
REMARK Flexibility Score: inf
ROOT
ATOM      1  C   UNL     1      31.900  24.862  68.509  1.00  0.00     0.000 C 
ENDROOT
BRANCH   1   2
ATOM      2  C   UNL     1      32.998  24.085  67.766  1.00  0.00     0.000 C 
BRANCH   2   3
ATOM      3  C   UNL     1      32.939  24.288  66.242  1.00  0.00     0.000 C 
BRANCH   3   4
ATOM      4  C   UNL     1      31.544  24.715  65.758  1.00  0.00     0.000 C 
BRANCH   4   5
ATOM      5  C   UNL     1      31.429  24.726  64.224  1.00  0.00     0.006 C 
BRANCH   5   6
ATOM      6  C   UNL     1      32.366  25.757  63.580  1.00  0.00     0.053 C 
BRANCH   6   7
ATOM      7  C   UNL     1      31.611  26.932  63.038  1.00  0.00     0.041 C 
ATOM      8  O   UNL     1      30.354  26.900  62.972  1.00  0.00    -0.550 OA
ATOM      9  O   UNL     1      32.297  28.048  62.575  1.00  0.00    -0.550 OA
ENDBRANCH   6   7
ENDBRANCH   5   6
ENDBRANCH   4   5
ENDBRANCH   3   4
ENDBRANCH   2   3
ENDBRANCH   1   2
BRANCH   1  10
ATOM     10  C   UNL     1      31.535  24.226  69.857  1.00  0.00     0.000 C 
BRANCH  10  11
ATOM     11  C   UNL     1      31.795  25.198  71.014  1.00  0.00    -0.000 C 
BRANCH  11  12
ATOM     12  C   UNL     1      32.805  26.281  70.605  1.00  0.00    -0.000 C 
BRANCH  12  13
ATOM     13  C   UNL     1      34.197  26.059  71.222  1.00  0.00    -0.000 C 
BRANCH  13  14
ATOM     14  C   UNL     1      34.713  24.624  71.015  1.00  0.00    -0.000 C 
BRANCH  14  15
ATOM     15  C   UNL     1      36.201  24.584  70.635  1.00  0.00    -0.003 C 
ATOM     16  C   UNL     1      36.424  24.454  69.128  1.00  0.00     0.004 C 
ENDBRANCH  14  15
ENDBRANCH  13  14
ENDBRANCH  12  13
ENDBRANCH  11  12
ENDBRANCH  10  11
ENDBRANCH   1  10
TORSDOF 12
ENDMDL
MODEL 7
REMARK VINA RESULT:    -3.902      3.620      6.644
REMARK INTER + INTRA:          -7.784
REMARK INTER:                  -6.714
REMARK INTRA:                  -1.070
REMARK UNBOUND:                -1.146
REMARK SMILES CCCCCCCCCCCCCC(=O)[O-]
REMARK SMILES IDX 8 1 9 2 10 3 11 4 12 5 13 6 14 7 15 8 16 9 7 10 6 11 5 12
REMARK SMILES IDX 4 13 3 14 2 15 1 16
REMARK H PARENT
REMARK Flexibility Score: inf
ROOT
ATOM      1  C   UNL     1      33.590  26.721  70.648  1.00  0.00     0.000 C 
ENDROOT
BRANCH   1   2
ATOM      2  C   UNL     1      34.913  26.029  71.007  1.00  0.00     0.000 C 
BRANCH   2   3
ATOM      3  C   UNL     1      35.698  25.573  69.764  1.00  0.00     0.000 C 
BRANCH   3   4
ATOM      4  C   UNL     1      36.085  24.087  69.823  1.00  0.00     0.000 C 
BRANCH   4   5
ATOM      5  C   UNL     1      37.562  23.875  70.200  1.00  0.00     0.006 C 
BRANCH   5   6
ATOM      6  C   UNL     1      37.793  23.971  71.713  1.00  0.00     0.053 C 
BRANCH   6   7
ATOM      7  C   UNL     1      39.199  24.379  72.035  1.00  0.00     0.041 C 
ATOM      8  O   UNL     1      40.127  24.154  71.214  1.00  0.00    -0.550 OA
ATOM      9  O   UNL     1      39.489  24.974  73.257  1.00  0.00    -0.550 OA
ENDBRANCH   6   7
ENDBRANCH   5   6
ENDBRANCH   4   5
ENDBRANCH   3   4
ENDBRANCH   2   3
ENDBRANCH   1   2
BRANCH   1  10
ATOM     10  C   UNL     1      32.398  26.165  71.440  1.00  0.00     0.000 C 
BRANCH  10  11
ATOM     11  C   UNL     1      31.321  25.613  70.499  1.00  0.00    -0.000 C 
BRANCH  11  12
ATOM     12  C   UNL     1      31.707  24.221  69.977  1.00  0.00    -0.000 C 
BRANCH  12  13
ATOM     13  C   UNL     1      31.630  24.118  68.445  1.00  0.00    -0.000 C 
BRANCH  13  14
ATOM     14  C   UNL     1      33.019  24.114  67.782  1.00  0.00    -0.000 C 
BRANCH  14  15
ATOM     15  C   UNL     1      32.942  24.265  66.255  1.00  0.00    -0.003 C 
ATOM     16  C   UNL     1      31.662  24.960  65.792  1.00  0.00     0.004 C 
ENDBRANCH  14  15
ENDBRANCH  13  14
ENDBRANCH  12  13
ENDBRANCH  11  12
ENDBRANCH  10  11
ENDBRANCH   1  10
TORSDOF 12
ENDMDL
MODEL 8
REMARK VINA RESULT:    -3.850      3.615      7.945
REMARK INTER + INTRA:          -7.696
REMARK INTER:                  -6.623
REMARK INTRA:                  -1.074
REMARK UNBOUND:                -1.146
REMARK SMILES CCCCCCCCCCCCCC(=O)[O-]
REMARK SMILES IDX 8 1 9 2 10 3 11 4 12 5 13 6 14 7 15 8 16 9 7 10 6 11 5 12
REMARK SMILES IDX 4 13 3 14 2 15 1 16
REMARK H PARENT
REMARK Flexibility Score: inf
ROOT
ATOM      1  C   UNL     1      32.271  25.025  65.055  1.00  0.00     0.000 C 
ENDROOT
BRANCH   1   2
ATOM      2  C   UNL     1      30.945  24.280  65.273  1.00  0.00     0.000 C 
BRANCH   2   3
ATOM      3  C   UNL     1      30.650  24.019  66.761  1.00  0.00     0.000 C 
BRANCH   3   4
ATOM      4  C   UNL     1      31.727  24.607  67.687  1.00  0.00     0.000 C 
BRANCH   4   5
ATOM      5  C   UNL     1      31.315  24.569  69.169  1.00  0.00     0.006 C 
BRANCH   5   6
ATOM      6  C   UNL     1      32.500  24.253  70.091  1.00  0.00     0.053 C 
BRANCH   6   7
ATOM      7  C   UNL     1      33.207  25.497  70.533  1.00  0.00     0.041 C 
ATOM      8  O   UNL     1      32.567  26.424  71.096  1.00  0.00    -0.550 OA
ATOM      9  O   UNL     1      34.567  25.649  70.290  1.00  0.00    -0.550 OA
ENDBRANCH   6   7
ENDBRANCH   5   6
ENDBRANCH   4   5
ENDBRANCH   3   4
ENDBRANCH   2   3
ENDBRANCH   1   2
BRANCH   1  10
ATOM     10  C   UNL     1      33.003  24.570  63.785  1.00  0.00     0.000 C 
BRANCH  10  11
ATOM     11  C   UNL     1      32.795  25.570  62.642  1.00  0.00    -0.000 C 
BRANCH  11  12
ATOM     12  C   UNL     1      32.127  26.857  63.151  1.00  0.00    -0.000 C 
BRANCH  12  13
ATOM     13  C   UNL     1      30.891  27.252  62.325  1.00  0.00    -0.000 C 
BRANCH  13  14
ATOM     14  C   UNL     1      29.693  27.648  63.207  1.00  0.00    -0.000 C 
BRANCH  14  15
ATOM     15  C   UNL     1      28.571  26.599  63.180  1.00  0.00    -0.003 C 
ATOM     16  C   UNL     1      28.984  25.307  62.474  1.00  0.00     0.004 C 
ENDBRANCH  14  15
ENDBRANCH  13  14
ENDBRANCH  12  13
ENDBRANCH  11  12
ENDBRANCH  10  11
ENDBRANCH   1  10
TORSDOF 12
ENDMDL
MODEL 9
REMARK VINA RESULT:    -3.816      3.259      7.262
REMARK INTER + INTRA:          -7.639
REMARK INTER:                  -6.741
REMARK INTRA:                  -0.898
REMARK UNBOUND:                -1.146
REMARK SMILES CCCCCCCCCCCCCC(=O)[O-]
REMARK SMILES IDX 8 1 9 2 10 3 11 4 12 5 13 6 14 7 15 8 16 9 7 10 6 11 5 12
REMARK SMILES IDX 4 13 3 14 2 15 1 16
REMARK H PARENT
REMARK Flexibility Score: inf
ROOT
ATOM      1  C   UNL     1      31.574  24.665  66.024  1.00  0.00     0.000 C 
ENDROOT
BRANCH   1   2
ATOM      2  C   UNL     1      30.886  24.032  67.243  1.00  0.00     0.000 C 
BRANCH   2   3
ATOM      3  C   UNL     1      31.789  24.014  68.489  1.00  0.00     0.000 C 
BRANCH   3   4
ATOM      4  C   UNL     1      31.182  24.791  69.668  1.00  0.00     0.000 C 
BRANCH   4   5
ATOM      5  C   UNL     1      32.246  25.532  70.497  1.00  0.00     0.006 C 
BRANCH   5   6
ATOM      6  C   UNL     1      33.562  24.748  70.585  1.00  0.00     0.053 C 
BRANCH   6   7
ATOM      7  C   UNL     1      34.745  25.660  70.693  1.00  0.00     0.041 C 
ATOM      8  O   UNL     1      35.909  25.184  70.743  1.00  0.00    -0.550 OA
ATOM      9  O   UNL     1      34.560  27.035  70.775  1.00  0.00    -0.550 OA
ENDBRANCH   6   7
ENDBRANCH   5   6
ENDBRANCH   4   5
ENDBRANCH   3   4
ENDBRANCH   2   3
ENDBRANCH   1   2
BRANCH   1  10
ATOM     10  C   UNL     1      33.049  24.259  65.901  1.00  0.00     0.000 C 
BRANCH  10  11
ATOM     11  C   UNL     1      33.481  24.192  64.431  1.00  0.00    -0.000 C 
BRANCH  11  12
ATOM     12  C   UNL     1      32.320  24.569  63.499  1.00  0.00    -0.000 C 
BRANCH  12  13
ATOM     13  C   UNL     1      32.565  25.889  62.748  1.00  0.00    -0.000 C 
BRANCH  13  14
ATOM     14  C   UNL     1      31.515  26.963  63.083  1.00  0.00    -0.000 C 
BRANCH  14  15
ATOM     15  C   UNL     1      30.083  26.406  63.084  1.00  0.00    -0.003 C 
ATOM     16  C   UNL     1      29.020  27.502  63.021  1.00  0.00     0.004 C 
ENDBRANCH  14  15
ENDBRANCH  13  14
ENDBRANCH  12  13
ENDBRANCH  11  12
ENDBRANCH  10  11
ENDBRANCH   1  10
TORSDOF 12
ENDMDL
