MODEL 1
REMARK VINA RESULT:    -3.720      0.000      0.000
REMARK INTER + INTRA:          -4.101
REMARK INTER:                  -3.938
REMARK INTRA:                  -0.163
REMARK UNBOUND:                -0.163
REMARK SMILES Cc1ccc(C(C)C)cc1
REMARK SMILES IDX 1 1 2 2 3 3 4 4 5 5 9 6 10 7 6 8 7 9 8 10
REMARK H PARENT
REMARK Flexibility Score: inf
ROOT
ATOM      1  C   UNL     1       7.418 105.964 183.467  1.00  0.00     0.044 C 
ATOM      2  C   UNL     1       6.296 106.937 183.257  1.00  0.00    -0.051 A 
ATOM      3  C   UNL     1       5.155 106.557 182.537  1.00  0.00     0.004 A 
ATOM      4  C   UNL     1       4.093 107.450 182.371  1.00  0.00     0.004 A 
ATOM      5  C   UNL     1       4.148 108.736 182.935  1.00  0.00    -0.045 A 
ATOM      6  C   UNL     1       5.287 109.107 183.675  1.00  0.00     0.004 A 
ATOM      7  C   UNL     1       6.348 108.211 183.839  1.00  0.00     0.004 A 
ENDROOT
BRANCH   5   8
ATOM      8  C   UNL     1       2.987 109.696 182.750  1.00  0.00     0.013 C 
ATOM      9  C   UNL     1       1.694 109.119 183.340  1.00  0.00     0.012 C 
ATOM     10  C   UNL     1       3.304 111.069 183.353  1.00  0.00     0.012 C 
ENDBRANCH   5   8
TORSDOF 1
ENDMDL
MODEL 2
REMARK VINA RESULT:    -3.713      0.109      1.535
REMARK INTER + INTRA:          -4.092
REMARK INTER:                  -3.930
REMARK INTRA:                  -0.162
REMARK UNBOUND:                -0.163
REMARK SMILES Cc1ccc(C(C)C)cc1
REMARK SMILES IDX 1 1 2 2 3 3 4 4 5 5 9 6 10 7 6 8 7 9 8 10
REMARK H PARENT
REMARK Flexibility Score: inf
ROOT
ATOM      1  C   UNL     1       7.343 105.913 183.397  1.00  0.00     0.044 C 
ATOM      2  C   UNL     1       6.216 106.893 183.255  1.00  0.00    -0.051 A 
ATOM      3  C   UNL     1       6.309 108.165 183.837  1.00  0.00     0.004 A 
ATOM      4  C   UNL     1       5.276 109.093 183.675  1.00  0.00     0.004 A 
ATOM      5  C   UNL     1       4.138 108.769 182.916  1.00  0.00    -0.045 A 
ATOM      6  C   UNL     1       4.059 107.497 182.317  1.00  0.00     0.004 A 
ATOM      7  C   UNL     1       5.093 106.571 182.481  1.00  0.00     0.004 A 
ENDROOT
BRANCH   5   8
ATOM      8  C   UNL     1       3.025 109.786 182.747  1.00  0.00     0.013 C 
ATOM      9  C   UNL     1       1.728 109.300 183.406  1.00  0.00     0.012 C 
ATOM     10  C   UNL     1       3.441 111.157 183.291  1.00  0.00     0.012 C 
ENDBRANCH   5   8
TORSDOF 1
ENDMDL
MODEL 3
REMARK VINA RESULT:    -3.691      2.674      3.904
REMARK INTER + INTRA:          -4.069
REMARK INTER:                  -3.911
REMARK INTRA:                  -0.158
REMARK UNBOUND:                -0.163
REMARK SMILES Cc1ccc(C(C)C)cc1
REMARK SMILES IDX 1 1 2 2 3 3 4 4 5 5 9 6 10 7 6 8 7 9 8 10
REMARK H PARENT
REMARK Flexibility Score: inf
ROOT
ATOM      1  C   UNL     1       2.569 104.751 178.623  1.00  0.00     0.044 C 
ATOM      2  C   UNL     1       2.646 105.926 179.551  1.00  0.00    -0.051 A 
ATOM      3  C   UNL     1       1.771 107.010 179.394  1.00  0.00     0.004 A 
ATOM      4  C   UNL     1       1.818 108.090 180.280  1.00  0.00     0.004 A 
ATOM      5  C   UNL     1       2.732 108.098 181.348  1.00  0.00    -0.045 A 
ATOM      6  C   UNL     1       3.595 106.998 181.513  1.00  0.00     0.004 A 
ATOM      7  C   UNL     1       3.547 105.919 180.625  1.00  0.00     0.004 A 
ENDROOT
BRANCH   5   8
ATOM      8  C   UNL     1       2.771 109.275 182.304  1.00  0.00     0.013 C 
ATOM      9  C   UNL     1       1.662 109.167 183.359  1.00  0.00     0.012 C 
ATOM     10  C   UNL     1       4.149 109.406 182.964  1.00  0.00     0.012 C 
ENDBRANCH   5   8
TORSDOF 1
ENDMDL
MODEL 4
REMARK VINA RESULT:    -3.673      2.693      4.010
REMARK INTER + INTRA:          -4.050
REMARK INTER:                  -3.891
REMARK INTRA:                  -0.159
REMARK UNBOUND:                -0.163
REMARK SMILES Cc1ccc(C(C)C)cc1
REMARK SMILES IDX 1 1 2 2 3 3 4 4 5 5 9 6 10 7 6 8 7 9 8 10
REMARK H PARENT
REMARK Flexibility Score: inf
ROOT
ATOM      1  C   UNL     1       2.689 104.741 178.535  1.00  0.00     0.044 C 
ATOM      2  C   UNL     1       2.688 105.877 179.514  1.00  0.00    -0.051 A 
ATOM      3  C   UNL     1       3.563 105.868 180.609  1.00  0.00     0.004 A 
ATOM      4  C   UNL     1       3.588 106.942 181.502  1.00  0.00     0.004 A 
ATOM      5  C   UNL     1       2.749 108.053 181.307  1.00  0.00    -0.045 A 
ATOM      6  C   UNL     1       1.886 108.067 180.194  1.00  0.00     0.004 A 
ATOM      7  C   UNL     1       1.862 106.990 179.302  1.00  0.00     0.004 A 
ENDROOT
BRANCH   5   8
ATOM      8  C   UNL     1       2.788 109.214 182.282  1.00  0.00     0.013 C 
ATOM      9  C   UNL     1       1.660 109.106 183.316  1.00  0.00     0.012 C 
ATOM     10  C   UNL     1       4.156 109.316 182.966  1.00  0.00     0.012 C 
ENDBRANCH   5   8
TORSDOF 1
ENDMDL
MODEL 5
REMARK VINA RESULT:    -3.666      3.620      5.586
REMARK INTER + INTRA:          -4.043
REMARK INTER:                  -3.877
REMARK INTRA:                  -0.166
REMARK UNBOUND:                -0.163
REMARK SMILES Cc1ccc(C(C)C)cc1
REMARK SMILES IDX 1 1 2 2 3 3 4 4 5 5 9 6 10 7 6 8 7 9 8 10
REMARK H PARENT
REMARK Flexibility Score: inf
ROOT
ATOM      1  C   UNL     1       2.881 109.230 182.366  1.00  0.00     0.044 C 
ATOM      2  C   UNL     1       2.804 108.091 181.394  1.00  0.00    -0.051 A 
ATOM      3  C   UNL     1       3.645 106.979 181.540  1.00  0.00     0.004 A 
ATOM      4  C   UNL     1       3.550 105.900 180.656  1.00  0.00     0.004 A 
ATOM      5  C   UNL     1       2.603 105.910 179.618  1.00  0.00    -0.045 A 
ATOM      6  C   UNL     1       1.747 107.020 179.487  1.00  0.00     0.004 A 
ATOM      7  C   UNL     1       1.844 108.098 180.372  1.00  0.00     0.004 A 
ENDROOT
BRANCH   5   8
ATOM      8  C   UNL     1       2.508 104.732 178.666  1.00  0.00     0.013 C 
ATOM      9  C   UNL     1       1.579 105.047 177.488  1.00  0.00     0.012 C 
ATOM     10  C   UNL     1       3.896 104.305 178.175  1.00  0.00     0.012 C 
ENDBRANCH   5   8
TORSDOF 1
ENDMDL
MODEL 6
REMARK VINA RESULT:    -3.627      1.692      4.314
REMARK INTER + INTRA:          -4.002
REMARK INTER:                  -3.836
REMARK INTRA:                  -0.167
REMARK UNBOUND:                -0.163
REMARK SMILES Cc1ccc(C(C)C)cc1
REMARK SMILES IDX 1 1 2 2 3 3 4 4 5 5 9 6 10 7 6 8 7 9 8 10
REMARK H PARENT
REMARK Flexibility Score: inf
ROOT
ATOM      1  C   UNL     1       1.234 108.114 179.829  1.00  0.00     0.044 C 
ATOM      2  C   UNL     1       2.359 107.934 180.805  1.00  0.00    -0.051 A 
ATOM      3  C   UNL     1       2.467 108.774 181.922  1.00  0.00     0.004 A 
ATOM      4  C   UNL     1       3.494 108.586 182.851  1.00  0.00     0.004 A 
ATOM      5  C   UNL     1       4.423 107.543 182.687  1.00  0.00    -0.045 A 
ATOM      6  C   UNL     1       4.298 106.690 181.574  1.00  0.00     0.004 A 
ATOM      7  C   UNL     1       3.271 106.881 180.646  1.00  0.00     0.004 A 
ENDROOT
BRANCH   5   8
ATOM      8  C   UNL     1       5.531 107.348 183.704  1.00  0.00     0.013 C 
ATOM      9  C   UNL     1       6.582 106.354 183.192  1.00  0.00     0.012 C 
ATOM     10  C   UNL     1       6.177 108.686 184.083  1.00  0.00     0.012 C 
ENDBRANCH   5   8
TORSDOF 1
ENDMDL
MODEL 7
REMARK VINA RESULT:    -3.411      3.426      4.783
REMARK INTER + INTRA:          -3.773
REMARK INTER:                  -3.607
REMARK INTRA:                  -0.167
REMARK UNBOUND:                -0.163
REMARK SMILES Cc1ccc(C(C)C)cc1
REMARK SMILES IDX 1 1 2 2 3 3 4 4 5 5 9 6 10 7 6 8 7 9 8 10
REMARK H PARENT
REMARK Flexibility Score: inf
ROOT
ATOM      1  C   UNL     1       4.321 108.149 183.257  1.00  0.00     0.044 C 
ATOM      2  C   UNL     1       3.567 107.732 182.029  1.00  0.00    -0.051 A 
ATOM      3  C   UNL     1       2.559 108.554 181.506  1.00  0.00     0.004 A 
ATOM      4  C   UNL     1       1.880 108.184 180.342  1.00  0.00     0.004 A 
ATOM      5  C   UNL     1       2.206 106.991 179.673  1.00  0.00    -0.045 A 
ATOM      6  C   UNL     1       3.233 106.179 180.192  1.00  0.00     0.004 A 
ATOM      7  C   UNL     1       3.911 106.551 181.357  1.00  0.00     0.004 A 
ENDROOT
BRANCH   5   8
ATOM      8  C   UNL     1       1.463 106.602 178.409  1.00  0.00     0.013 C 
ATOM      9  C   UNL     1       1.696 105.126 178.063  1.00  0.00     0.012 C 
ATOM     10  C   UNL     1      -0.034 106.910 178.531  1.00  0.00     0.012 C 
ENDBRANCH   5   8
TORSDOF 1
ENDMDL
MODEL 8
REMARK VINA RESULT:    -3.404      1.691      3.534
REMARK INTER + INTRA:          -3.766
REMARK INTER:                  -3.598
REMARK INTRA:                  -0.167
REMARK UNBOUND:                -0.163
REMARK SMILES Cc1ccc(C(C)C)cc1
REMARK SMILES IDX 1 1 2 2 3 3 4 4 5 5 9 6 10 7 6 8 7 9 8 10
REMARK H PARENT
REMARK Flexibility Score: inf
ROOT
ATOM      1  C   UNL     1       3.703 107.308 182.252  1.00  0.00     0.044 C 
ATOM      2  C   UNL     1       3.929 108.697 182.772  1.00  0.00    -0.051 A 
ATOM      3  C   UNL     1       5.213 109.107 183.157  1.00  0.00     0.004 A 
ATOM      4  C   UNL     1       5.432 110.412 183.608  1.00  0.00     0.004 A 
ATOM      5  C   UNL     1       4.372 111.334 183.667  1.00  0.00    -0.045 A 
ATOM      6  C   UNL     1       3.089 110.923 183.259  1.00  0.00     0.004 A 
ATOM      7  C   UNL     1       2.872 109.617 182.810  1.00  0.00     0.004 A 
ENDROOT
BRANCH   5   8
ATOM      8  C   UNL     1       4.623 112.748 184.155  1.00  0.00     0.013 C 
ATOM      9  C   UNL     1       3.363 113.344 184.795  1.00  0.00     0.012 C 
ATOM     10  C   UNL     1       5.810 112.796 185.124  1.00  0.00     0.012 C 
ENDBRANCH   5   8
TORSDOF 1
ENDMDL
MODEL 9
REMARK VINA RESULT:    -3.403      2.992      3.796
REMARK INTER + INTRA:          -3.765
REMARK INTER:                  -3.609
REMARK INTRA:                  -0.156
REMARK UNBOUND:                -0.163
REMARK SMILES Cc1ccc(C(C)C)cc1
REMARK SMILES IDX 1 1 2 2 3 3 4 4 5 5 9 6 10 7 6 8 7 9 8 10
REMARK H PARENT
REMARK Flexibility Score: inf
ROOT
ATOM      1  C   UNL     1       5.479 106.688 183.083  1.00  0.00     0.044 C 
ATOM      2  C   UNL     1       4.407 107.073 182.107  1.00  0.00    -0.051 A 
ATOM      3  C   UNL     1       4.228 106.339 180.927  1.00  0.00     0.004 A 
ATOM      4  C   UNL     1       3.206 106.674 180.034  1.00  0.00     0.004 A 
ATOM      5  C   UNL     1       2.337 107.743 180.313  1.00  0.00    -0.045 A 
ATOM      6  C   UNL     1       2.508 108.465 181.509  1.00  0.00     0.004 A 
ATOM      7  C   UNL     1       3.531 108.128 182.400  1.00  0.00     0.004 A 
ENDROOT
BRANCH   5   8
ATOM      8  C   UNL     1       1.230 108.095 179.336  1.00  0.00     0.013 C 
ATOM      9  C   UNL     1       1.806 108.605 178.010  1.00  0.00     0.012 C 
ATOM     10  C   UNL     1       0.293 106.904 179.109  1.00  0.00     0.012 C 
ENDBRANCH   5   8
TORSDOF 1
ENDMDL
