MODEL 1
REMARK VINA RESULT:    -7.434      0.000      0.000
REMARK INTER + INTRA:          -8.678
REMARK INTER:                  -8.521
REMARK INTRA:                  -0.157
REMARK UNBOUND:                -0.157
REMARK SMILES C=C(C)[C@@H]1CC[C@]2(C(=O)[O-])CC[C@@]3(C)[C@H](CC[C@@H]4[C@]5(C)CC[C@@H](O)C(C)(C)[C@H]5CC[C@]43C)[C@@H]12
REMARK SMILES IDX 7 1 6 2 33 3 11 4 5 5 15 6 4 7 12 8 16 9 13 10 17 11 31 12
REMARK SMILES IDX 14 13 18 14 30 15 32 16 19 17 29 18 21 19 20 20 28 21 22 22
REMARK SMILES IDX 25 23 23 24 26 25 27 26 8 27 9 28 10 29 2 30 3 31 1 32 24 33
REMARK H PARENT 24 34
REMARK Flexibility Score: inf
ROOT
ATOM      1  C   UNL     1      48.020 -39.363  -3.172  1.00  0.00     0.014 C 
ATOM      2  C   UNL     1      47.515 -40.624  -3.894  1.00  0.00     0.014 C 
ATOM      3  C   UNL     1      46.839 -38.417  -3.381  1.00  0.00     0.012 C 
ATOM      4  C   UNL     1      48.228 -39.536  -1.632  1.00  0.00     0.014 C 
ATOM      5  C   UNL     1      46.803 -40.097  -5.151  1.00  0.00     0.009 C 
ATOM      6  C   UNL     1      47.019 -36.951  -2.821  1.00  0.00     0.000 C 
ATOM      7  C   UNL     1      46.388 -38.636  -4.842  1.00  0.00     0.018 C 
ATOM      8  C   UNL     1      47.800 -38.288  -0.782  1.00  0.00     0.008 C 
ATOM      9  C   UNL     1      45.558 -36.421  -2.606  1.00  0.00     0.005 C 
ATOM     10  C   UNL     1      47.971 -36.892  -1.513  1.00  0.00    -0.024 C 
ATOM     11  C   UNL     1      45.369 -35.241  -1.677  1.00  0.00     0.005 C 
ATOM     12  C   UNL     1      47.648 -35.598  -0.577  1.00  0.00    -0.024 C 
ATOM     13  C   UNL     1      49.490 -36.754  -1.910  1.00  0.00     0.012 C 
ATOM     14  C   UNL     1      46.094 -35.477  -0.339  1.00  0.00     0.002 C 
ATOM     15  C   UNL     1      48.442 -35.679   0.800  1.00  0.00     0.008 C 
ATOM     16  C   UNL     1      48.127 -34.291  -1.311  1.00  0.00     0.012 C 
ATOM     17  C   UNL     1      45.561 -34.530   0.849  1.00  0.00    -0.026 C 
ATOM     18  C   UNL     1      47.595 -35.479   2.060  1.00  0.00     0.005 C 
ATOM     19  C   UNL     1      44.990 -33.145   0.365  1.00  0.00     0.010 C 
ATOM     20  C   UNL     1      44.384 -35.320   1.510  1.00  0.00     0.012 C 
ATOM     21  C   UNL     1      46.715 -34.234   1.865  1.00  0.00     0.003 C 
ATOM     22  C   UNL     1      45.208 -31.956   1.335  1.00  0.00     0.033 C 
ATOM     23  C   UNL     1      46.313 -33.434   3.170  1.00  0.00    -0.006 C 
ATOM     24  C   UNL     1      45.231 -32.328   2.832  1.00  0.00     0.120 C 
ATOM     25  C   UNL     1      47.575 -32.693   3.703  1.00  0.00     0.014 C 
ATOM     26  C   UNL     1      45.846 -34.366   4.321  1.00  0.00     0.014 C 
ENDROOT
BRANCH   1  27
ATOM     27  C   UNL     1      49.306 -38.957  -3.892  1.00  0.00     0.048 C 
ATOM     28  O   UNL     1      50.386 -39.555  -3.627  1.00  0.00    -0.550 OA
ATOM     29  O   UNL     1      49.311 -37.985  -4.886  1.00  0.00    -0.550 OA
ENDBRANCH   1  27
BRANCH   7  30
ATOM     30  C   UNL     1      44.899 -38.402  -5.086  1.00  0.00    -0.077 C 
ATOM     31  C   UNL     1      43.876 -39.108  -4.231  1.00  0.00     0.039 C 
ATOM     32  C   UNL     1      44.466 -37.549  -6.031  1.00  0.00     0.008 C 
ENDBRANCH   7  30
BRANCH  24  33
ATOM     33  O   UNL     1      43.933 -32.686   3.238  1.00  0.00    -0.393 OA
ATOM     34  H   UNL     1      43.417 -31.845   3.363  1.00  0.00     0.210 HD
ENDBRANCH  24  33
TORSDOF 3
ENDMDL
MODEL 2
REMARK VINA RESULT:    -6.740      1.907      8.132
REMARK INTER + INTRA:          -7.882
REMARK INTER:                  -7.724
REMARK INTRA:                  -0.158
REMARK UNBOUND:                -0.157
REMARK SMILES C=C(C)[C@@H]1CC[C@]2(C(=O)[O-])CC[C@@]3(C)[C@H](CC[C@@H]4[C@]5(C)CC[C@@H](O)C(C)(C)[C@H]5CC[C@]43C)[C@@H]12
REMARK SMILES IDX 7 1 6 2 33 3 11 4 5 5 15 6 4 7 12 8 16 9 13 10 17 11 31 12
REMARK SMILES IDX 14 13 18 14 30 15 32 16 19 17 29 18 21 19 20 20 28 21 22 22
REMARK SMILES IDX 25 23 23 24 26 25 27 26 8 27 9 28 10 29 2 30 3 31 1 32 24 33
REMARK H PARENT 24 34
REMARK Flexibility Score: inf
ROOT
ATOM      1  C   UNL     1      45.658 -33.615   3.260  1.00  0.00     0.014 C 
ATOM      2  C   UNL     1      44.877 -33.405   4.568  1.00  0.00     0.014 C 
ATOM      3  C   UNL     1      46.108 -35.066   3.420  1.00  0.00     0.012 C 
ATOM      4  C   UNL     1      44.789 -33.523   1.964  1.00  0.00     0.014 C 
ATOM      5  C   UNL     1      45.706 -34.135   5.640  1.00  0.00     0.009 C 
ATOM      6  C   UNL     1      47.024 -35.637   2.267  1.00  0.00     0.000 C 
ATOM      7  C   UNL     1      46.547 -35.201   4.895  1.00  0.00     0.018 C 
ATOM      8  C   UNL     1      45.176 -34.565   0.856  1.00  0.00     0.008 C 
ATOM      9  C   UNL     1      46.832 -37.193   2.337  1.00  0.00     0.005 C 
ATOM     10  C   UNL     1      46.709 -34.969   0.827  1.00  0.00    -0.024 C 
ATOM     11  C   UNL     1      47.206 -38.001   1.112  1.00  0.00     0.005 C 
ATOM     12  C   UNL     1      47.123 -35.949  -0.407  1.00  0.00    -0.024 C 
ATOM     13  C   UNL     1      47.539 -33.647   0.609  1.00  0.00     0.012 C 
ATOM     14  C   UNL     1      46.568 -37.402  -0.155  1.00  0.00     0.002 C 
ATOM     15  C   UNL     1      46.610 -35.364  -1.796  1.00  0.00     0.008 C 
ATOM     16  C   UNL     1      48.692 -36.040  -0.497  1.00  0.00     0.012 C 
ATOM     17  C   UNL     1      46.508 -38.437  -1.387  1.00  0.00    -0.026 C 
ATOM     18  C   UNL     1      45.821 -36.344  -2.671  1.00  0.00     0.005 C 
ATOM     19  C   UNL     1      47.651 -39.519  -1.378  1.00  0.00     0.010 C 
ATOM     20  C   UNL     1      45.147 -39.189  -1.228  1.00  0.00     0.012 C 
ATOM     21  C   UNL     1      46.600 -37.667  -2.747  1.00  0.00     0.003 C 
ATOM     22  C   UNL     1      48.149 -39.977  -2.773  1.00  0.00     0.033 C 
ATOM     23  C   UNL     1      46.408 -38.532  -4.058  1.00  0.00    -0.006 C 
ATOM     24  C   UNL     1      47.084 -39.953  -3.888  1.00  0.00     0.120 C 
ATOM     25  C   UNL     1      47.137 -37.815  -5.233  1.00  0.00     0.014 C 
ATOM     26  C   UNL     1      44.919 -38.646  -4.484  1.00  0.00     0.014 C 
ENDROOT
BRANCH   1  27
ATOM     27  C   UNL     1      46.787 -32.584   3.278  1.00  0.00     0.048 C 
ATOM     28  O   UNL     1      46.551 -31.392   2.936  1.00  0.00    -0.550 OA
ATOM     29  O   UNL     1      48.063 -32.906   3.727  1.00  0.00    -0.550 OA
ENDBRANCH   1  27
BRANCH   7  30
ATOM     30  C   UNL     1      46.354 -36.596   5.486  1.00  0.00    -0.077 C 
ATOM     31  C   UNL     1      45.005 -37.268   5.406  1.00  0.00     0.039 C 
ATOM     32  C   UNL     1      47.372 -37.266   6.056  1.00  0.00     0.008 C 
ENDBRANCH   7  30
BRANCH  24  33
ATOM     33  O   UNL     1      46.153 -40.982  -3.659  1.00  0.00    -0.393 OA
ATOM     34  H   UNL     1      45.491 -40.958  -4.400  1.00  0.00     0.210 HD
ENDBRANCH  24  33
TORSDOF 3
ENDMDL
MODEL 3
REMARK VINA RESULT:    -6.692      2.016      3.649
REMARK INTER + INTRA:          -7.827
REMARK INTER:                  -7.666
REMARK INTRA:                  -0.160
REMARK UNBOUND:                -0.157
REMARK SMILES C=C(C)[C@@H]1CC[C@]2(C(=O)[O-])CC[C@@]3(C)[C@H](CC[C@@H]4[C@]5(C)CC[C@@H](O)C(C)(C)[C@H]5CC[C@]43C)[C@@H]12
REMARK SMILES IDX 7 1 6 2 33 3 11 4 5 5 15 6 4 7 12 8 16 9 13 10 17 11 31 12
REMARK SMILES IDX 14 13 18 14 30 15 32 16 19 17 29 18 21 19 20 20 28 21 22 22
REMARK SMILES IDX 25 23 23 24 26 25 27 26 8 27 9 28 10 29 2 30 3 31 1 32 24 33
REMARK H PARENT 24 34
REMARK Flexibility Score: inf
ROOT
ATOM      1  C   UNL     1      45.428 -38.336  -3.684  1.00  0.00     0.014 C 
ATOM      2  C   UNL     1      45.763 -38.375  -5.185  1.00  0.00     0.014 C 
ATOM      3  C   UNL     1      46.724 -37.765  -3.113  1.00  0.00     0.012 C 
ATOM      4  C   UNL     1      44.267 -37.360  -3.304  1.00  0.00     0.014 C 
ATOM      5  C   UNL     1      47.229 -38.836  -5.247  1.00  0.00     0.009 C 
ATOM      6  C   UNL     1      46.790 -37.638  -1.539  1.00  0.00     0.000 C 
ATOM      7  C   UNL     1      47.862 -38.476  -3.878  1.00  0.00     0.018 C 
ATOM      8  C   UNL     1      44.495 -36.583  -1.960  1.00  0.00     0.008 C 
ATOM      9  C   UNL     1      47.866 -36.527  -1.272  1.00  0.00     0.005 C 
ATOM     10  C   UNL     1      45.341 -37.366  -0.871  1.00  0.00    -0.024 C 
ATOM     11  C   UNL     1      47.855 -35.852   0.083  1.00  0.00     0.005 C 
ATOM     12  C   UNL     1      45.461 -36.604   0.563  1.00  0.00    -0.024 C 
ATOM     13  C   UNL     1      44.582 -38.713  -0.569  1.00  0.00     0.012 C 
ATOM     14  C   UNL     1      46.436 -35.371   0.443  1.00  0.00     0.002 C 
ATOM     15  C   UNL     1      44.027 -36.159   1.094  1.00  0.00     0.008 C 
ATOM     16  C   UNL     1      46.061 -37.592   1.631  1.00  0.00     0.012 C 
ATOM     17  C   UNL     1      46.418 -34.249   1.597  1.00  0.00    -0.026 C 
ATOM     18  C   UNL     1      43.909 -34.692   1.518  1.00  0.00     0.005 C 
ATOM     19  C   UNL     1      47.623 -34.341   2.607  1.00  0.00     0.010 C 
ATOM     20  C   UNL     1      46.537 -32.883   0.846  1.00  0.00     0.012 C 
ATOM     21  C   UNL     1      45.097 -34.349   2.430  1.00  0.00     0.003 C 
ATOM     22  C   UNL     1      47.307 -33.918   4.064  1.00  0.00     0.033 C 
ATOM     23  C   UNL     1      44.862 -33.219   3.512  1.00  0.00    -0.006 C 
ATOM     24  C   UNL     1      46.228 -32.825   4.209  1.00  0.00     0.120 C 
ATOM     25  C   UNL     1      43.927 -33.785   4.622  1.00  0.00     0.014 C 
ATOM     26  C   UNL     1      44.132 -31.978   2.929  1.00  0.00     0.014 C 
ENDROOT
BRANCH   1  27
ATOM     27  C   UNL     1      45.129 -39.781  -3.285  1.00  0.00     0.048 C 
ATOM     28  O   UNL     1      43.970 -40.251  -3.460  1.00  0.00    -0.550 OA
ATOM     29  O   UNL     1      46.120 -40.623  -2.792  1.00  0.00    -0.550 OA
ENDBRANCH   1  27
BRANCH   7  30
ATOM     30  C   UNL     1      49.133 -37.645  -4.038  1.00  0.00    -0.077 C 
ATOM     31  C   UNL     1      50.411 -38.089  -3.372  1.00  0.00     0.039 C 
ATOM     32  C   UNL     1      49.155 -36.531  -4.792  1.00  0.00     0.008 C 
ENDBRANCH   7  30
BRANCH  24  33
ATOM     33  O   UNL     1      46.747 -31.601   3.752  1.00  0.00    -0.393 OA
ATOM     34  H   UNL     1      47.081 -31.745   2.827  1.00  0.00     0.210 HD
ENDBRANCH  24  33
TORSDOF 3
ENDMDL
MODEL 4
REMARK VINA RESULT:    -6.596      1.837      7.884
REMARK INTER + INTRA:          -7.716
REMARK INTER:                  -7.665
REMARK INTRA:                  -0.051
REMARK UNBOUND:                -0.157
REMARK SMILES C=C(C)[C@@H]1CC[C@]2(C(=O)[O-])CC[C@@]3(C)[C@H](CC[C@@H]4[C@]5(C)CC[C@@H](O)C(C)(C)[C@H]5CC[C@]43C)[C@@H]12
REMARK SMILES IDX 7 1 6 2 33 3 11 4 5 5 15 6 4 7 12 8 16 9 13 10 17 11 31 12
REMARK SMILES IDX 14 13 18 14 30 15 32 16 19 17 29 18 21 19 20 20 28 21 22 22
REMARK SMILES IDX 25 23 23 24 26 25 27 26 8 27 9 28 10 29 2 30 3 31 1 32 24 33
REMARK H PARENT 24 34
REMARK Flexibility Score: inf
ROOT
ATOM      1  C   UNL     1      46.869 -34.682   2.330  1.00  0.00     0.014 C 
ATOM      2  C   UNL     1      47.236 -33.393   3.084  1.00  0.00     0.014 C 
ATOM      3  C   UNL     1      47.080 -34.241   0.883  1.00  0.00     0.012 C 
ATOM      4  C   UNL     1      47.822 -35.890   2.606  1.00  0.00     0.014 C 
ATOM      5  C   UNL     1      46.638 -32.259   2.236  1.00  0.00     0.009 C 
ATOM      6  C   UNL     1      46.724 -35.310  -0.225  1.00  0.00     0.000 C 
ATOM      7  C   UNL     1      46.493 -32.815   0.797  1.00  0.00     0.018 C 
ATOM      8  C   UNL     1      48.131 -36.767   1.342  1.00  0.00     0.008 C 
ATOM      9  C   UNL     1      47.563 -34.880  -1.480  1.00  0.00     0.005 C 
ATOM     10  C   UNL     1      46.961 -36.832   0.273  1.00  0.00    -0.024 C 
ATOM     11  C   UNL     1      47.801 -35.921  -2.553  1.00  0.00     0.005 C 
ATOM     12  C   UNL     1      47.241 -37.847  -0.970  1.00  0.00    -0.024 C 
ATOM     13  C   UNL     1      45.689 -37.405   1.005  1.00  0.00     0.012 C 
ATOM     14  C   UNL     1      48.324 -37.232  -1.938  1.00  0.00     0.002 C 
ATOM     15  C   UNL     1      47.681 -39.283  -0.445  1.00  0.00     0.008 C 
ATOM     16  C   UNL     1      45.914 -38.043  -1.793  1.00  0.00     0.012 C 
ATOM     17  C   UNL     1      49.045 -38.194  -3.009  1.00  0.00    -0.026 C 
ATOM     18  C   UNL     1      48.959 -39.850  -1.072  1.00  0.00     0.005 C 
ATOM     19  C   UNL     1      48.509 -38.039  -4.481  1.00  0.00     0.010 C 
ATOM     20  C   UNL     1      50.547 -37.760  -3.006  1.00  0.00     0.012 C 
ATOM     21  C   UNL     1      48.865 -39.694  -2.598  1.00  0.00     0.003 C 
ATOM     22  C   UNL     1      48.515 -39.334  -5.334  1.00  0.00     0.033 C 
ATOM     23  C   UNL     1      49.642 -40.760  -3.472  1.00  0.00    -0.006 C 
ATOM     24  C   UNL     1      49.640 -40.334  -4.997  1.00  0.00     0.120 C 
ATOM     25  C   UNL     1      48.891 -42.120  -3.374  1.00  0.00     0.014 C 
ATOM     26  C   UNL     1      51.080 -41.025  -2.949  1.00  0.00     0.014 C 
ENDROOT
BRANCH   1  27
ATOM     27  C   UNL     1      45.418 -34.987   2.706  1.00  0.00     0.048 C 
ATOM     28  O   UNL     1      45.164 -35.554   3.805  1.00  0.00    -0.550 OA
ATOM     29  O   UNL     1      44.356 -34.596   1.898  1.00  0.00    -0.550 OA
ENDBRANCH   1  27
BRANCH   7  30
ATOM     30  C   UNL     1      47.171 -31.914  -0.234  1.00  0.00    -0.077 C 
ATOM     31  C   UNL     1      46.493 -31.635  -1.552  1.00  0.00     0.039 C 
ATOM     32  C   UNL     1      48.356 -31.327   0.015  1.00  0.00     0.008 C 
ENDBRANCH   7  30
BRANCH  24  33
ATOM     33  O   UNL     1      50.871 -39.806  -5.424  1.00  0.00    -0.393 OA
ATOM     34  H   UNL     1      51.340 -40.516  -5.937  1.00  0.00     0.210 HD
ENDBRANCH  24  33
TORSDOF 3
ENDMDL
MODEL 5
REMARK VINA RESULT:    -6.577      1.739      2.528
REMARK INTER + INTRA:          -7.695
REMARK INTER:                  -7.519
REMARK INTRA:                  -0.175
REMARK UNBOUND:                -0.157
REMARK SMILES C=C(C)[C@@H]1CC[C@]2(C(=O)[O-])CC[C@@]3(C)[C@H](CC[C@@H]4[C@]5(C)CC[C@@H](O)C(C)(C)[C@H]5CC[C@]43C)[C@@H]12
REMARK SMILES IDX 7 1 6 2 33 3 11 4 5 5 15 6 4 7 12 8 16 9 13 10 17 11 31 12
REMARK SMILES IDX 14 13 18 14 30 15 32 16 19 17 29 18 21 19 20 20 28 21 22 22
REMARK SMILES IDX 25 23 23 24 26 25 27 26 8 27 9 28 10 29 2 30 3 31 1 32 24 33
REMARK H PARENT 24 34
REMARK Flexibility Score: inf
ROOT
ATOM      1  C   UNL     1      46.059 -38.878  -3.039  1.00  0.00     0.014 C 
ATOM      2  C   UNL     1      45.454 -39.109  -4.434  1.00  0.00     0.014 C 
ATOM      3  C   UNL     1      46.340 -37.378  -3.090  1.00  0.00     0.012 C 
ATOM      4  C   UNL     1      45.073 -39.141  -1.853  1.00  0.00     0.014 C 
ATOM      5  C   UNL     1      46.296 -38.231  -5.376  1.00  0.00     0.009 C 
ATOM      6  C   UNL     1      47.050 -36.763  -1.819  1.00  0.00     0.000 C 
ATOM      7  C   UNL     1      46.914 -37.113  -4.498  1.00  0.00     0.018 C 
ATOM      8  C   UNL     1      45.208 -38.121  -0.668  1.00  0.00     0.008 C 
ATOM      9  C   UNL     1      46.675 -35.240  -1.848  1.00  0.00     0.005 C 
ATOM     10  C   UNL     1      46.668 -37.539  -0.451  1.00  0.00    -0.024 C 
ATOM     11  C   UNL     1      46.813 -34.459  -0.558  1.00  0.00     0.005 C 
ATOM     12  C   UNL     1      46.823 -36.584   0.860  1.00  0.00    -0.024 C 
ATOM     13  C   UNL     1      47.626 -38.763  -0.194  1.00  0.00     0.012 C 
ATOM     14  C   UNL     1      46.121 -35.196   0.604  1.00  0.00     0.002 C 
ATOM     15  C   UNL     1      46.239 -37.298   2.157  1.00  0.00     0.008 C 
ATOM     16  C   UNL     1      48.349 -36.312   1.130  1.00  0.00     0.012 C 
ATOM     17  C   UNL     1      45.803 -34.242   1.862  1.00  0.00    -0.026 C 
ATOM     18  C   UNL     1      45.247 -36.467   2.976  1.00  0.00     0.005 C 
ATOM     19  C   UNL     1      46.798 -33.033   2.025  1.00  0.00     0.010 C 
ATOM     20  C   UNL     1      44.383 -33.649   1.580  1.00  0.00     0.012 C 
ATOM     21  C   UNL     1      45.843 -35.067   3.192  1.00  0.00     0.003 C 
ATOM     22  C   UNL     1      47.083 -32.594   3.484  1.00  0.00     0.033 C 
ATOM     23  C   UNL     1      45.406 -34.302   4.506  1.00  0.00    -0.006 C 
ATOM     24  C   UNL     1      45.915 -32.803   4.470  1.00  0.00     0.120 C 
ATOM     25  C   UNL     1      46.088 -34.988   5.726  1.00  0.00     0.014 C 
ATOM     26  C   UNL     1      43.878 -34.387   4.766  1.00  0.00     0.014 C 
ENDROOT
BRANCH   1  27
ATOM     27  C   UNL     1      47.302 -39.765  -2.970  1.00  0.00     0.048 C 
ATOM     28  O   UNL     1      47.177 -40.999  -2.732  1.00  0.00    -0.550 OA
ATOM     29  O   UNL     1      48.573 -39.263  -3.229  1.00  0.00    -0.550 OA
ENDBRANCH   1  27
BRANCH   7  30
ATOM     30  C   UNL     1      46.614 -35.721  -5.052  1.00  0.00    -0.077 C 
ATOM     31  C   UNL     1      47.748 -34.792  -5.409  1.00  0.00     0.039 C 
ATOM     32  C   UNL     1      45.353 -35.305  -5.265  1.00  0.00     0.008 C 
ENDBRANCH   7  30
BRANCH  24  33
ATOM     33  O   UNL     1      44.894 -31.881   4.178  1.00  0.00    -0.393 OA
ATOM     34  H   UNL     1      44.049 -32.394   4.074  1.00  0.00     0.210 HD
ENDBRANCH  24  33
TORSDOF 3
ENDMDL
MODEL 6
REMARK VINA RESULT:    -6.509      3.673      9.161
REMARK INTER + INTRA:          -7.617
REMARK INTER:                  -7.484
REMARK INTRA:                  -0.134
REMARK UNBOUND:                -0.157
REMARK SMILES C=C(C)[C@@H]1CC[C@]2(C(=O)[O-])CC[C@@]3(C)[C@H](CC[C@@H]4[C@]5(C)CC[C@@H](O)C(C)(C)[C@H]5CC[C@]43C)[C@@H]12
REMARK SMILES IDX 7 1 6 2 33 3 11 4 5 5 15 6 4 7 12 8 16 9 13 10 17 11 31 12
REMARK SMILES IDX 14 13 18 14 30 15 32 16 19 17 29 18 21 19 20 20 28 21 22 22
REMARK SMILES IDX 25 23 23 24 26 25 27 26 8 27 9 28 10 29 2 30 3 31 1 32 24 33
REMARK H PARENT 24 34
REMARK Flexibility Score: inf
ROOT
ATOM      1  C   UNL     1      45.828 -37.547   7.572  1.00  0.00     0.014 C 
ATOM      2  C   UNL     1      46.348 -38.364   8.767  1.00  0.00     0.014 C 
ATOM      3  C   UNL     1      47.142 -37.128   6.915  1.00  0.00     0.012 C 
ATOM      4  C   UNL     1      45.012 -38.375   6.526  1.00  0.00     0.014 C 
ATOM      5  C   UNL     1      47.572 -37.582   9.273  1.00  0.00     0.009 C 
ATOM      6  C   UNL     1      47.014 -36.186   5.652  1.00  0.00     0.000 C 
ATOM      7  C   UNL     1      48.079 -36.737   8.078  1.00  0.00     0.018 C 
ATOM      8  C   UNL     1      45.285 -37.971   5.034  1.00  0.00     0.008 C 
ATOM      9  C   UNL     1      48.345 -36.408   4.851  1.00  0.00     0.005 C 
ATOM     10  C   UNL     1      45.655 -36.445   4.812  1.00  0.00    -0.024 C 
ATOM     11  C   UNL     1      48.359 -36.011   3.390  1.00  0.00     0.005 C 
ATOM     12  C   UNL     1      45.808 -36.010   3.250  1.00  0.00    -0.024 C 
ATOM     13  C   UNL     1      44.458 -35.587   5.372  1.00  0.00     0.012 C 
ATOM     14  C   UNL     1      47.142 -36.599   2.651  1.00  0.00     0.002 C 
ATOM     15  C   UNL     1      44.540 -36.471   2.404  1.00  0.00     0.008 C 
ATOM     16  C   UNL     1      45.884 -34.441   3.149  1.00  0.00     0.012 C 
ATOM     17  C   UNL     1      47.327 -36.638   1.052  1.00  0.00    -0.026 C 
ATOM     18  C   UNL     1      44.852 -37.249   1.121  1.00  0.00     0.005 C 
ATOM     19  C   UNL     1      48.271 -35.515   0.483  1.00  0.00     0.010 C 
ATOM     20  C   UNL     1      47.999 -38.017   0.749  1.00  0.00     0.012 C 
ATOM     21  C   UNL     1      45.939 -36.492   0.342  1.00  0.00     0.003 C 
ATOM     22  C   UNL     1      47.902 -34.983  -0.925  1.00  0.00     0.033 C 
ATOM     23  C   UNL     1      45.935 -36.658  -1.231  1.00  0.00    -0.006 C 
ATOM     24  C   UNL     1      47.236 -36.013  -1.861  1.00  0.00     0.120 C 
ATOM     25  C   UNL     1      44.714 -35.880  -1.805  1.00  0.00     0.014 C 
ATOM     26  C   UNL     1      45.749 -38.135  -1.674  1.00  0.00     0.014 C 
ENDROOT
BRANCH   1  27
ATOM     27  C   UNL     1      45.013 -36.401   8.172  1.00  0.00     0.048 C 
ATOM     28  O   UNL     1      43.881 -36.637   8.678  1.00  0.00    -0.550 OA
ATOM     29  O   UNL     1      45.514 -35.105   8.239  1.00  0.00    -0.550 OA
ENDBRANCH   1  27
BRANCH   7  30
ATOM     30  C   UNL     1      49.563 -36.973   7.801  1.00  0.00    -0.077 C 
ATOM     31  C   UNL     1      50.541 -35.829   7.911  1.00  0.00     0.039 C 
ATOM     32  C   UNL     1      50.035 -38.193   7.489  1.00  0.00     0.008 C 
ENDBRANCH   7  30
BRANCH  24  33
ATOM     33  O   UNL     1      48.192 -36.968  -2.250  1.00  0.00    -0.393 OA
ATOM     34  H   UNL     1      48.728 -36.572  -2.988  1.00  0.00     0.210 HD
ENDBRANCH  24  33
TORSDOF 3
ENDMDL
MODEL 7
REMARK VINA RESULT:    -6.496      2.162      3.734
REMARK INTER + INTRA:          -7.602
REMARK INTER:                  -7.480
REMARK INTRA:                  -0.122
REMARK UNBOUND:                -0.157
REMARK SMILES C=C(C)[C@@H]1CC[C@]2(C(=O)[O-])CC[C@@]3(C)[C@H](CC[C@@H]4[C@]5(C)CC[C@@H](O)C(C)(C)[C@H]5CC[C@]43C)[C@@H]12
REMARK SMILES IDX 7 1 6 2 33 3 11 4 5 5 15 6 4 7 12 8 16 9 13 10 17 11 31 12
REMARK SMILES IDX 14 13 18 14 30 15 32 16 19 17 29 18 21 19 20 20 28 21 22 22
REMARK SMILES IDX 25 23 23 24 26 25 27 26 8 27 9 28 10 29 2 30 3 31 1 32 24 33
REMARK H PARENT 24 34
REMARK Flexibility Score: inf
ROOT
ATOM      1  C   UNL     1      48.868 -36.580  -4.544  1.00  0.00     0.014 C 
ATOM      2  C   UNL     1      50.067 -37.077  -5.369  1.00  0.00     0.014 C 
ATOM      3  C   UNL     1      48.770 -37.678  -3.486  1.00  0.00     0.012 C 
ATOM      4  C   UNL     1      49.106 -35.223  -3.805  1.00  0.00     0.014 C 
ATOM      5  C   UNL     1      49.880 -38.601  -5.454  1.00  0.00     0.009 C 
ATOM      6  C   UNL     1      47.571 -37.549  -2.464  1.00  0.00     0.000 C 
ATOM      7  C   UNL     1      48.997 -39.004  -4.245  1.00  0.00     0.018 C 
ATOM      8  C   UNL     1      48.479 -35.156  -2.367  1.00  0.00     0.008 C 
ATOM      9  C   UNL     1      48.031 -38.364  -1.204  1.00  0.00     0.005 C 
ATOM     10  C   UNL     1      47.157 -36.011  -2.175  1.00  0.00    -0.024 C 
ATOM     11  C   UNL     1      47.330 -38.080   0.108  1.00  0.00     0.005 C 
ATOM     12  C   UNL     1      46.446 -35.830  -0.721  1.00  0.00    -0.024 C 
ATOM     13  C   UNL     1      46.105 -35.488  -3.225  1.00  0.00     0.012 C 
ATOM     14  C   UNL     1      47.289 -36.567   0.390  1.00  0.00     0.002 C 
ATOM     15  C   UNL     1      46.245 -34.291  -0.371  1.00  0.00     0.008 C 
ATOM     16  C   UNL     1      45.015 -36.486  -0.755  1.00  0.00     0.012 C 
ATOM     17  C   UNL     1      47.012 -36.215   1.937  1.00  0.00    -0.026 C 
ATOM     18  C   UNL     1      46.760 -33.855   1.004  1.00  0.00     0.005 C 
ATOM     19  C   UNL     1      46.168 -37.299   2.705  1.00  0.00     0.010 C 
ATOM     20  C   UNL     1      48.425 -36.158   2.605  1.00  0.00     0.012 C 
ATOM     21  C   UNL     1      46.249 -34.853   2.055  1.00  0.00     0.003 C 
ATOM     22  C   UNL     1      45.229 -36.755   3.811  1.00  0.00     0.033 C 
ATOM     23  C   UNL     1      46.031 -34.296   3.520  1.00  0.00    -0.006 C 
ATOM     24  C   UNL     1      45.728 -35.482   4.525  1.00  0.00     0.120 C 
ATOM     25  C   UNL     1      44.779 -33.370   3.514  1.00  0.00     0.014 C 
ATOM     26  C   UNL     1      47.214 -33.415   4.005  1.00  0.00     0.014 C 
ENDROOT
BRANCH   1  27
ATOM     27  C   UNL     1      47.690 -36.515  -5.517  1.00  0.00     0.048 C 
ATOM     28  O   UNL     1      47.640 -35.591  -6.376  1.00  0.00    -0.550 OA
ATOM     29  O   UNL     1      46.696 -37.487  -5.527  1.00  0.00    -0.550 OA
ENDBRANCH   1  27
BRANCH   7  30
ATOM     30  C   UNL     1      49.643 -40.107  -3.410  1.00  0.00    -0.077 C 
ATOM     31  C   UNL     1      48.841 -41.324  -3.021  1.00  0.00     0.039 C 
ATOM     32  C   UNL     1      50.933 -40.041  -3.032  1.00  0.00     0.008 C 
ENDBRANCH   7  30
BRANCH  24  33
ATOM     33  O   UNL     1      46.829 -35.810   5.337  1.00  0.00    -0.393 OA
ATOM     34  H   UNL     1      47.480 -36.306   4.773  1.00  0.00     0.210 HD
ENDBRANCH  24  33
TORSDOF 3
ENDMDL
MODEL 8
REMARK VINA RESULT:    -6.221      2.382      4.230
REMARK INTER + INTRA:          -7.287
REMARK INTER:                  -7.269
REMARK INTRA:                  -0.018
REMARK UNBOUND:                -0.157
REMARK SMILES C=C(C)[C@@H]1CC[C@]2(C(=O)[O-])CC[C@@]3(C)[C@H](CC[C@@H]4[C@]5(C)CC[C@@H](O)C(C)(C)[C@H]5CC[C@]43C)[C@@H]12
REMARK SMILES IDX 7 1 6 2 33 3 11 4 5 5 15 6 4 7 12 8 16 9 13 10 17 11 31 12
REMARK SMILES IDX 14 13 18 14 30 15 32 16 19 17 29 18 21 19 20 20 28 21 22 22
REMARK SMILES IDX 25 23 23 24 26 25 27 26 8 27 9 28 10 29 2 30 3 31 1 32 24 33
REMARK H PARENT 24 34
REMARK Flexibility Score: inf
ROOT
ATOM      1  C   UNL     1      45.076 -36.644  -5.166  1.00  0.00     0.014 C 
ATOM      2  C   UNL     1      45.090 -35.833  -6.473  1.00  0.00     0.014 C 
ATOM      3  C   UNL     1      46.416 -36.235  -4.558  1.00  0.00     0.012 C 
ATOM      4  C   UNL     1      43.950 -36.236  -4.161  1.00  0.00     0.014 C 
ATOM      5  C   UNL     1      46.541 -35.924  -6.975  1.00  0.00     0.009 C 
ATOM      6  C   UNL     1      46.802 -36.940  -3.197  1.00  0.00     0.000 C 
ATOM      7  C   UNL     1      47.417 -36.227  -5.733  1.00  0.00     0.018 C 
ATOM      8  C   UNL     1      44.396 -36.248  -2.656  1.00  0.00     0.008 C 
ATOM      9  C   UNL     1      47.822 -35.962  -2.515  1.00  0.00     0.005 C 
ATOM     10  C   UNL     1      45.509 -37.320  -2.299  1.00  0.00    -0.024 C 
ATOM     11  C   UNL     1      48.045 -36.108  -1.025  1.00  0.00     0.005 C 
ATOM     12  C   UNL     1      45.870 -37.413  -0.713  1.00  0.00    -0.024 C 
ATOM     13  C   UNL     1      44.936 -38.737  -2.683  1.00  0.00     0.012 C 
ATOM     14  C   UNL     1      46.701 -36.148  -0.272  1.00  0.00     0.002 C 
ATOM     15  C   UNL     1      44.550 -37.574   0.162  1.00  0.00     0.008 C 
ATOM     16  C   UNL     1      46.755 -38.688  -0.453  1.00  0.00     0.012 C 
ATOM     17  C   UNL     1      46.841 -35.818   1.298  1.00  0.00    -0.026 C 
ATOM     18  C   UNL     1      44.412 -36.593   1.331  1.00  0.00     0.005 C 
ATOM     19  C   UNL     1      48.234 -36.208   1.918  1.00  0.00     0.010 C 
ATOM     20  C   UNL     1      46.695 -34.265   1.407  1.00  0.00     0.012 C 
ATOM     21  C   UNL     1      45.736 -36.572   2.111  1.00  0.00     0.003 C 
ATOM     22  C   UNL     1      48.201 -36.673   3.396  1.00  0.00     0.033 C 
ATOM     23  C   UNL     1      45.649 -36.237   3.655  1.00  0.00    -0.006 C 
ATOM     24  C   UNL     1      47.097 -36.029   4.260  1.00  0.00     0.120 C 
ATOM     25  C   UNL     1      45.015 -37.455   4.389  1.00  0.00     0.014 C 
ATOM     26  C   UNL     1      44.720 -35.028   3.950  1.00  0.00     0.014 C 
ENDROOT
BRANCH   1  27
ATOM     27  C   UNL     1      44.978 -38.111  -5.585  1.00  0.00     0.048 C 
ATOM     28  O   UNL     1      43.891 -38.559  -6.045  1.00  0.00    -0.550 OA
ATOM     29  O   UNL     1      46.079 -38.959  -5.537  1.00  0.00    -0.550 OA
ENDBRANCH   1  27
BRANCH   7  30
ATOM     30  C   UNL     1      48.560 -35.224  -5.583  1.00  0.00    -0.077 C 
ATOM     31  C   UNL     1      48.275 -33.826  -5.094  1.00  0.00     0.039 C 
ATOM     32  C   UNL     1      49.834 -35.564  -5.848  1.00  0.00     0.008 C 
ENDBRANCH   7  30
BRANCH  24  33
ATOM     33  O   UNL     1      47.413 -34.677   4.481  1.00  0.00    -0.393 OA
ATOM     34  H   UNL     1      47.691 -34.288   3.609  1.00  0.00     0.210 HD
ENDBRANCH  24  33
TORSDOF 3
ENDMDL
MODEL 9
REMARK VINA RESULT:    -6.174      2.032      7.788
REMARK INTER + INTRA:          -7.233
REMARK INTER:                  -7.064
REMARK INTRA:                  -0.170
REMARK UNBOUND:                -0.157
REMARK SMILES C=C(C)[C@@H]1CC[C@]2(C(=O)[O-])CC[C@@]3(C)[C@H](CC[C@@H]4[C@]5(C)CC[C@@H](O)C(C)(C)[C@H]5CC[C@]43C)[C@@H]12
REMARK SMILES IDX 7 1 6 2 33 3 11 4 5 5 15 6 4 7 12 8 16 9 13 10 17 11 31 12
REMARK SMILES IDX 14 13 18 14 30 15 32 16 19 17 29 18 21 19 20 20 28 21 22 22
REMARK SMILES IDX 25 23 23 24 26 25 27 26 8 27 9 28 10 29 2 30 3 31 1 32 24 33
REMARK H PARENT 24 34
REMARK Flexibility Score: inf
ROOT
ATOM      1  C   UNL     1      46.319 -36.136   4.062  1.00  0.00     0.014 C 
ATOM      2  C   UNL     1      46.770 -35.212   5.206  1.00  0.00     0.014 C 
ATOM      3  C   UNL     1      45.833 -35.113   3.038  1.00  0.00     0.012 C 
ATOM      4  C   UNL     1      47.472 -36.963   3.404  1.00  0.00     0.014 C 
ATOM      5  C   UNL     1      45.706 -34.102   5.255  1.00  0.00     0.009 C 
ATOM      6  C   UNL     1      45.210 -35.705   1.712  1.00  0.00     0.000 C 
ATOM      7  C   UNL     1      45.056 -34.053   3.849  1.00  0.00     0.018 C 
ATOM      8  C   UNL     1      47.348 -37.108   1.846  1.00  0.00     0.008 C 
ATOM      9  C   UNL     1      45.368 -34.560   0.650  1.00  0.00     0.005 C 
ATOM     10  C   UNL     1      45.862 -37.126   1.293  1.00  0.00    -0.024 C 
ATOM     11  C   UNL     1      45.288 -34.944  -0.812  1.00  0.00     0.005 C 
ATOM     12  C   UNL     1      45.744 -37.407  -0.308  1.00  0.00    -0.024 C 
ATOM     13  C   UNL     1      45.119 -38.330   1.986  1.00  0.00     0.012 C 
ATOM     14  C   UNL     1      46.212 -36.138  -1.117  1.00  0.00     0.002 C 
ATOM     15  C   UNL     1      46.576 -38.699  -0.722  1.00  0.00     0.008 C 
ATOM     16  C   UNL     1      44.240 -37.689  -0.678  1.00  0.00     0.012 C 
ATOM     17  C   UNL     1      46.553 -36.296  -2.682  1.00  0.00    -0.026 C 
ATOM     18  C   UNL     1      47.541 -38.511  -1.897  1.00  0.00     0.005 C 
ATOM     19  C   UNL     1      45.431 -35.756  -3.646  1.00  0.00     0.010 C 
ATOM     20  C   UNL     1      47.832 -35.427  -2.915  1.00  0.00     0.012 C 
ATOM     21  C   UNL     1      46.792 -37.802  -3.036  1.00  0.00     0.003 C 
ATOM     22  C   UNL     1      45.274 -36.522  -4.984  1.00  0.00     0.033 C 
ATOM     23  C   UNL     1      47.281 -38.108  -4.510  1.00  0.00    -0.006 C 
ATOM     24  C   UNL     1      46.573 -37.138  -5.542  1.00  0.00     0.120 C 
ATOM     25  C   UNL     1      46.857 -39.560  -4.878  1.00  0.00     0.014 C 
ATOM     26  C   UNL     1      48.828 -38.066  -4.645  1.00  0.00     0.014 C 
ENDROOT
BRANCH   1  27
ATOM     27  C   UNL     1      45.226 -37.028   4.653  1.00  0.00     0.048 C 
ATOM     28  O   UNL     1      45.545 -38.008   5.381  1.00  0.00    -0.550 OA
ATOM     29  O   UNL     1      43.877 -36.751   4.464  1.00  0.00    -0.550 OA
ENDBRANCH   1  27
BRANCH   7  30
ATOM     30  C   UNL     1      45.093 -32.648   3.252  1.00  0.00    -0.077 C 
ATOM     31  C   UNL     1      46.417 -31.983   2.973  1.00  0.00     0.039 C 
ATOM     32  C   UNL     1      43.964 -31.989   2.933  1.00  0.00     0.008 C 
ENDBRANCH   7  30
BRANCH  24  33
ATOM     33  O   UNL     1      47.415 -36.108  -5.997  1.00  0.00    -0.393 OA
ATOM     34  H   UNL     1      47.179 -35.925  -6.945  1.00  0.00     0.210 HD
ENDBRANCH  24  33
TORSDOF 3
ENDMDL
