MODEL 1
REMARK VINA RESULT:    -4.351      0.000      0.000
REMARK INTER + INTRA:          -6.752
REMARK INTER:                  -6.387
REMARK INTRA:                  -0.366
REMARK UNBOUND:                -0.366
REMARK SMILES O=C([O-])CCCCCCCC(=O)[O-]
REMARK SMILES IDX 7 1 6 2 5 3 4 4 2 5 1 6 3 7 8 8 9 9 10 10 11 11 12 12 13 13
REMARK H PARENT
REMARK Flexibility Score: inf
ROOT
ATOM      1  C   UNL     1      28.213  27.447 -16.374  1.00  0.00     0.000 C 
ENDROOT
BRANCH   1   2
ATOM      2  C   UNL     1      28.341  26.093 -17.099  1.00  0.00     0.000 C 
BRANCH   2   3
ATOM      3  C   UNL     1      27.043  25.269 -17.172  1.00  0.00     0.006 C 
BRANCH   3   4
ATOM      4  C   UNL     1      26.480  25.170 -18.595  1.00  0.00     0.053 C 
BRANCH   4   5
ATOM      5  C   UNL     1      27.038  23.971 -19.295  1.00  0.00     0.041 C 
ATOM      6  O   UNL     1      26.861  23.818 -20.532  1.00  0.00    -0.550 OA
ATOM      7  O   UNL     1      27.798  23.046 -18.589  1.00  0.00    -0.550 OA
ENDBRANCH   4   5
ENDBRANCH   3   4
ENDBRANCH   2   3
ENDBRANCH   1   2
BRANCH   1   8
ATOM      8  C   UNL     1      28.811  28.652 -17.128  1.00  0.00     0.000 C 
BRANCH   8   9
ATOM      9  C   UNL     1      27.836  29.825 -17.360  1.00  0.00     0.006 C 
BRANCH   9  10
ATOM     10  C   UNL     1      26.825  29.594 -18.493  1.00  0.00     0.053 C 
BRANCH  10  11
ATOM     11  C   UNL     1      26.691  30.794 -19.378  1.00  0.00     0.041 C 
ATOM     12  O   UNL     1      25.912  31.732 -19.063  1.00  0.00    -0.550 OA
ATOM     13  O   UNL     1      27.454  30.893 -20.535  1.00  0.00    -0.550 OA
ENDBRANCH  10  11
ENDBRANCH   9  10
ENDBRANCH   8   9
ENDBRANCH   1   8
TORSDOF 8
ENDMDL
MODEL 2
REMARK VINA RESULT:    -4.023      0.893      5.906
REMARK INTER + INTRA:          -6.270
REMARK INTER:                  -5.935
REMARK INTRA:                  -0.335
REMARK UNBOUND:                -0.366
REMARK SMILES O=C([O-])CCCCCCCC(=O)[O-]
REMARK SMILES IDX 7 1 6 2 5 3 4 4 2 5 1 6 3 7 8 8 9 9 10 10 11 11 12 12 13 13
REMARK H PARENT
REMARK Flexibility Score: inf
ROOT
ATOM      1  C   UNL     1      27.854  27.319 -16.442  1.00  0.00     0.000 C 
ENDROOT
BRANCH   1   2
ATOM      2  C   UNL     1      29.032  28.258 -16.769  1.00  0.00     0.000 C 
BRANCH   2   3
ATOM      3  C   UNL     1      28.662  29.499 -17.600  1.00  0.00     0.006 C 
BRANCH   3   4
ATOM      4  C   UNL     1      27.163  29.579 -17.915  1.00  0.00     0.053 C 
BRANCH   4   5
ATOM      5  C   UNL     1      26.902  30.628 -18.949  1.00  0.00     0.041 C 
ATOM      6  O   UNL     1      27.596  30.670 -19.999  1.00  0.00    -0.550 OA
ATOM      7  O   UNL     1      25.859  31.530 -18.777  1.00  0.00    -0.550 OA
ENDBRANCH   4   5
ENDBRANCH   3   4
ENDBRANCH   2   3
ENDBRANCH   1   2
BRANCH   1   8
ATOM      8  C   UNL     1      28.099  25.828 -16.752  1.00  0.00     0.000 C 
BRANCH   8   9
ATOM      9  C   UNL     1      27.183  25.229 -17.838  1.00  0.00     0.006 C 
BRANCH   9  10
ATOM     10  C   UNL     1      27.606  23.835 -18.324  1.00  0.00     0.053 C 
BRANCH  10  11
ATOM     11  C   UNL     1      27.995  23.840 -19.771  1.00  0.00     0.041 C 
ATOM     12  O   UNL     1      29.187  23.608 -20.108  1.00  0.00    -0.550 OA
ATOM     13  O   UNL     1      27.035  24.068 -20.748  1.00  0.00    -0.550 OA
ENDBRANCH  10  11
ENDBRANCH   9  10
ENDBRANCH   8   9
ENDBRANCH   1   8
TORSDOF 8
ENDMDL
MODEL 3
REMARK VINA RESULT:    -3.826      2.753      3.413
REMARK INTER + INTRA:          -5.981
REMARK INTER:                  -5.653
REMARK INTRA:                  -0.329
REMARK UNBOUND:                -0.366
REMARK SMILES O=C([O-])CCCCCCCC(=O)[O-]
REMARK SMILES IDX 7 1 6 2 5 3 4 4 2 5 1 6 3 7 8 8 9 9 10 10 11 11 12 12 13 13
REMARK H PARENT
REMARK Flexibility Score: inf
ROOT
ATOM      1  C   UNL     1      29.788  27.759 -16.451  1.00  0.00     0.000 C 
ENDROOT
BRANCH   1   2
ATOM      2  C   UNL     1      29.951  26.819 -15.241  1.00  0.00     0.000 C 
BRANCH   2   3
ATOM      3  C   UNL     1      28.700  26.676 -14.355  1.00  0.00     0.006 C 
BRANCH   3   4
ATOM      4  C   UNL     1      28.405  25.220 -13.973  1.00  0.00     0.053 C 
BRANCH   4   5
ATOM      5  C   UNL     1      26.986  24.873 -14.293  1.00  0.00     0.041 C 
ATOM      6  O   UNL     1      26.269  24.282 -13.443  1.00  0.00    -0.550 OA
ATOM      7  O   UNL     1      26.437  25.248 -15.513  1.00  0.00    -0.550 OA
ENDBRANCH   4   5
ENDBRANCH   3   4
ENDBRANCH   2   3
ENDBRANCH   1   2
BRANCH   1   8
ATOM      8  C   UNL     1      28.332  28.115 -16.812  1.00  0.00     0.000 C 
BRANCH   8   9
ATOM      9  C   UNL     1      28.154  29.455 -17.555  1.00  0.00     0.006 C 
BRANCH   9  10
ATOM     10  C   UNL     1      26.732  29.703 -18.080  1.00  0.00     0.053 C 
BRANCH  10  11
ATOM     11  C   UNL     1      26.696  30.792 -19.108  1.00  0.00     0.041 C 
ATOM     12  O   UNL     1      27.453  30.741 -20.113  1.00  0.00    -0.550 OA
ATOM     13  O   UNL     1      25.801  31.845 -18.973  1.00  0.00    -0.550 OA
ENDBRANCH  10  11
ENDBRANCH   9  10
ENDBRANCH   8   9
ENDBRANCH   1   8
TORSDOF 8
ENDMDL
MODEL 4
REMARK VINA RESULT:    -3.814      3.188      5.546
REMARK INTER + INTRA:          -5.963
REMARK INTER:                  -5.542
REMARK INTRA:                  -0.421
REMARK UNBOUND:                -0.366
REMARK SMILES O=C([O-])CCCCCCCC(=O)[O-]
REMARK SMILES IDX 7 1 6 2 5 3 4 4 2 5 1 6 3 7 8 8 9 9 10 10 11 11 12 12 13 13
REMARK H PARENT
REMARK Flexibility Score: inf
ROOT
ATOM      1  C   UNL     1      27.779  26.415 -15.471  1.00  0.00     0.000 C 
ENDROOT
BRANCH   1   2
ATOM      2  C   UNL     1      28.347  27.519 -16.384  1.00  0.00     0.000 C 
BRANCH   2   3
ATOM      3  C   UNL     1      29.881  27.540 -16.503  1.00  0.00     0.006 C 
BRANCH   3   4
ATOM      4  C   UNL     1      30.584  27.117 -15.206  1.00  0.00     0.053 C 
BRANCH   4   5
ATOM      5  C   UNL     1      31.910  26.495 -15.511  1.00  0.00     0.041 C 
ATOM      6  O   UNL     1      32.148  26.039 -16.660  1.00  0.00    -0.550 OA
ATOM      7  O   UNL     1      32.903  26.464 -14.539  1.00  0.00    -0.550 OA
ENDBRANCH   4   5
ENDBRANCH   3   4
ENDBRANCH   2   3
ENDBRANCH   1   2
BRANCH   1   8
ATOM      8  C   UNL     1      27.082  25.252 -16.205  1.00  0.00     0.000 C 
BRANCH   8   9
ATOM      9  C   UNL     1      26.823  25.491 -17.707  1.00  0.00     0.006 C 
BRANCH   9  10
ATOM     10  C   UNL     1      27.351  24.380 -18.626  1.00  0.00     0.053 C 
BRANCH  10  11
ATOM     11  C   UNL     1      26.674  24.387 -19.961  1.00  0.00     0.041 C 
ATOM     12  O   UNL     1      25.767  25.226 -20.209  1.00  0.00    -0.550 OA
ATOM     13  O   UNL     1      27.067  23.489 -20.945  1.00  0.00    -0.550 OA
ENDBRANCH  10  11
ENDBRANCH   9  10
ENDBRANCH   8   9
ENDBRANCH   1   8
TORSDOF 8
ENDMDL
MODEL 5
REMARK VINA RESULT:    -3.749      3.524      5.982
REMARK INTER + INTRA:          -5.869
REMARK INTER:                  -5.451
REMARK INTRA:                  -0.418
REMARK UNBOUND:                -0.366
REMARK SMILES O=C([O-])CCCCCCCC(=O)[O-]
REMARK SMILES IDX 7 1 6 2 5 3 4 4 2 5 1 6 3 7 8 8 9 9 10 10 11 11 12 12 13 13
REMARK H PARENT
REMARK Flexibility Score: inf
ROOT
ATOM      1  C   UNL     1      29.605  25.334 -17.192  1.00  0.00     0.000 C 
ENDROOT
BRANCH   1   2
ATOM      2  C   UNL     1      30.750  26.327 -16.914  1.00  0.00     0.000 C 
BRANCH   2   3
ATOM      3  C   UNL     1      30.534  27.247 -15.700  1.00  0.00     0.006 C 
BRANCH   3   4
ATOM      4  C   UNL     1      31.018  26.621 -14.385  1.00  0.00     0.053 C 
BRANCH   4   5
ATOM      5  C   UNL     1      29.951  26.711 -13.341  1.00  0.00     0.041 C 
ATOM      6  O   UNL     1      30.260  26.838 -12.127  1.00  0.00    -0.550 OA
ATOM      7  O   UNL     1      28.612  26.704 -13.713  1.00  0.00    -0.550 OA
ENDBRANCH   4   5
ENDBRANCH   3   4
ENDBRANCH   2   3
ENDBRANCH   1   2
BRANCH   1   8
ATOM      8  C   UNL     1      28.186  25.930 -17.099  1.00  0.00     0.000 C 
BRANCH   8   9
ATOM      9  C   UNL     1      27.057  25.008 -17.604  1.00  0.00     0.006 C 
BRANCH   9  10
ATOM     10  C   UNL     1      27.487  24.022 -18.700  1.00  0.00     0.053 C 
BRANCH  10  11
ATOM     11  C   UNL     1      26.762  24.264 -19.988  1.00  0.00     0.041 C 
ATOM     12  O   UNL     1      27.039  23.583 -21.010  1.00  0.00    -0.550 OA
ATOM     13  O   UNL     1      25.756  25.219 -20.050  1.00  0.00    -0.550 OA
ENDBRANCH  10  11
ENDBRANCH   9  10
ENDBRANCH   8   9
ENDBRANCH   1   8
TORSDOF 8
ENDMDL
MODEL 6
REMARK VINA RESULT:    -3.724      3.046      6.027
REMARK INTER + INTRA:          -5.831
REMARK INTER:                  -5.081
REMARK INTRA:                  -0.750
REMARK UNBOUND:                -0.366
REMARK SMILES O=C([O-])CCCCCCCC(=O)[O-]
REMARK SMILES IDX 7 1 6 2 5 3 4 4 2 5 1 6 3 7 8 8 9 9 10 10 11 11 12 12 13 13
REMARK H PARENT
REMARK Flexibility Score: inf
ROOT
ATOM      1  C   UNL     1      26.100  24.990 -18.808  1.00  0.00     0.000 C 
ENDROOT
BRANCH   1   2
ATOM      2  C   UNL     1      26.723  25.245 -17.421  1.00  0.00     0.000 C 
BRANCH   2   3
ATOM      3  C   UNL     1      27.379  26.626 -17.247  1.00  0.00     0.006 C 
BRANCH   3   4
ATOM      4  C   UNL     1      28.330  26.685 -16.044  1.00  0.00     0.053 C 
BRANCH   4   5
ATOM      5  C   UNL     1      29.513  27.545 -16.357  1.00  0.00     0.041 C 
ATOM      6  O   UNL     1      30.659  27.221 -15.949  1.00  0.00    -0.550 OA
ATOM      7  O   UNL     1      29.359  28.681 -17.143  1.00  0.00    -0.550 OA
ENDBRANCH   4   5
ENDBRANCH   3   4
ENDBRANCH   2   3
ENDBRANCH   1   2
BRANCH   1   8
ATOM      8  C   UNL     1      26.976  24.176 -19.780  1.00  0.00     0.000 C 
BRANCH   8   9
ATOM      9  C   UNL     1      28.012  23.251 -19.107  1.00  0.00     0.006 C 
BRANCH   9  10
ATOM     10  C   UNL     1      29.474  23.615 -19.405  1.00  0.00     0.053 C 
BRANCH  10  11
ATOM     11  C   UNL     1      30.207  24.045 -18.172  1.00  0.00     0.041 C 
ATOM     12  O   UNL     1      31.177  24.844 -18.257  1.00  0.00    -0.550 OA
ATOM     13  O   UNL     1      29.797  23.591 -16.926  1.00  0.00    -0.550 OA
ENDBRANCH  10  11
ENDBRANCH   9  10
ENDBRANCH   8   9
ENDBRANCH   1   8
TORSDOF 8
ENDMDL
MODEL 7
REMARK VINA RESULT:    -3.708      1.879      2.550
REMARK INTER + INTRA:          -5.808
REMARK INTER:                  -5.201
REMARK INTRA:                  -0.607
REMARK UNBOUND:                -0.366
REMARK SMILES O=C([O-])CCCCCCCC(=O)[O-]
REMARK SMILES IDX 7 1 6 2 5 3 4 4 2 5 1 6 3 7 8 8 9 9 10 10 11 11 12 12 13 13
REMARK H PARENT
REMARK Flexibility Score: inf
ROOT
ATOM      1  C   UNL     1      29.446  25.036 -15.582  1.00  0.00     0.000 C 
ENDROOT
BRANCH   1   2
ATOM      2  C   UNL     1      29.507  24.690 -17.082  1.00  0.00     0.000 C 
BRANCH   2   3
ATOM      3  C   UNL     1      28.440  23.690 -17.563  1.00  0.00     0.006 C 
BRANCH   3   4
ATOM      4  C   UNL     1      27.759  24.128 -18.865  1.00  0.00     0.053 C 
BRANCH   4   5
ATOM      5  C   UNL     1      26.476  24.839 -18.569  1.00  0.00     0.041 C 
ATOM      6  O   UNL     1      25.754  25.263 -19.509  1.00  0.00    -0.550 OA
ATOM      7  O   UNL     1      26.053  24.991 -17.255  1.00  0.00    -0.550 OA
ENDBRANCH   4   5
ENDBRANCH   3   4
ENDBRANCH   2   3
ENDBRANCH   1   2
BRANCH   1   8
ATOM      8  C   UNL     1      28.981  26.470 -15.259  1.00  0.00     0.000 C 
BRANCH   8   9
ATOM      9  C   UNL     1      29.043  27.458 -16.442  1.00  0.00     0.006 C 
BRANCH   9  10
ATOM     10  C   UNL     1      27.676  27.991 -16.894  1.00  0.00     0.053 C 
BRANCH  10  11
ATOM     11  C   UNL     1      27.793  29.306 -17.601  1.00  0.00     0.041 C 
ATOM     12  O   UNL     1      28.919  29.727 -17.977  1.00  0.00    -0.550 OA
ATOM     13  O   UNL     1      26.654  30.052 -17.876  1.00  0.00    -0.550 OA
ENDBRANCH  10  11
ENDBRANCH   9  10
ENDBRANCH   8   9
ENDBRANCH   1   8
TORSDOF 8
ENDMDL
MODEL 8
REMARK VINA RESULT:    -3.704      2.490      5.305
REMARK INTER + INTRA:          -5.802
REMARK INTER:                  -5.166
REMARK INTRA:                  -0.636
REMARK UNBOUND:                -0.366
REMARK SMILES O=C([O-])CCCCCCCC(=O)[O-]
REMARK SMILES IDX 7 1 6 2 5 3 4 4 2 5 1 6 3 7 8 8 9 9 10 10 11 11 12 12 13 13
REMARK H PARENT
REMARK Flexibility Score: inf
ROOT
ATOM      1  C   UNL     1      31.057  25.437 -17.443  1.00  0.00     0.000 C 
ENDROOT
BRANCH   1   2
ATOM      2  C   UNL     1      31.230  25.924 -15.992  1.00  0.00     0.000 C 
BRANCH   2   3
ATOM      3  C   UNL     1      30.339  27.115 -15.595  1.00  0.00     0.006 C 
BRANCH   3   4
ATOM      4  C   UNL     1      29.638  27.760 -16.798  1.00  0.00     0.053 C 
BRANCH   4   5
ATOM      5  C   UNL     1      28.156  27.594 -16.689  1.00  0.00     0.041 C 
ATOM      6  O   UNL     1      27.670  26.682 -15.968  1.00  0.00    -0.550 OA
ATOM      7  O   UNL     1      27.307  28.478 -17.343  1.00  0.00    -0.550 OA
ENDBRANCH   4   5
ENDBRANCH   3   4
ENDBRANCH   2   3
ENDBRANCH   1   2
BRANCH   1   8
ATOM      8  C   UNL     1      30.257  24.129 -17.603  1.00  0.00     0.000 C 
BRANCH   8   9
ATOM      9  C   UNL     1      29.169  24.159 -18.697  1.00  0.00     0.006 C 
BRANCH   9  10
ATOM     10  C   UNL     1      27.738  23.970 -18.172  1.00  0.00     0.053 C 
BRANCH  10  11
ATOM     11  C   UNL     1      26.712  24.379 -19.184  1.00  0.00     0.041 C 
ATOM     12  O   UNL     1      25.697  25.034 -18.829  1.00  0.00    -0.550 OA
ATOM     13  O   UNL     1      26.894  24.064 -20.524  1.00  0.00    -0.550 OA
ENDBRANCH  10  11
ENDBRANCH   9  10
ENDBRANCH   8   9
ENDBRANCH   1   8
TORSDOF 8
ENDMDL
MODEL 9
REMARK VINA RESULT:    -3.679      3.344      4.117
REMARK INTER + INTRA:          -5.766
REMARK INTER:                  -5.000
REMARK INTRA:                  -0.766
REMARK UNBOUND:                -0.366
REMARK SMILES O=C([O-])CCCCCCCC(=O)[O-]
REMARK SMILES IDX 7 1 6 2 5 3 4 4 2 5 1 6 3 7 8 8 9 9 10 10 11 11 12 12 13 13
REMARK H PARENT
REMARK Flexibility Score: inf
ROOT
ATOM      1  C   UNL     1      30.765  25.248 -16.486  1.00  0.00     0.000 C 
ENDROOT
BRANCH   1   2
ATOM      2  C   UNL     1      30.104  24.016 -17.138  1.00  0.00     0.000 C 
BRANCH   2   3
ATOM      3  C   UNL     1      29.194  24.326 -18.339  1.00  0.00     0.006 C 
BRANCH   3   4
ATOM      4  C   UNL     1      27.839  23.611 -18.259  1.00  0.00     0.053 C 
BRANCH   4   5
ATOM      5  C   UNL     1      26.855  24.251 -19.187  1.00  0.00     0.041 C 
ATOM      6  O   UNL     1      26.917  24.034 -20.426  1.00  0.00    -0.550 OA
ATOM      7  O   UNL     1      25.837  25.048 -18.678  1.00  0.00    -0.550 OA
ENDBRANCH   4   5
ENDBRANCH   3   4
ENDBRANCH   2   3
ENDBRANCH   1   2
BRANCH   1   8
ATOM      8  C   UNL     1      30.383  26.603 -17.113  1.00  0.00     0.000 C 
BRANCH   8   9
ATOM      9  C   UNL     1      29.457  27.484 -16.248  1.00  0.00     0.006 C 
BRANCH   9  10
ATOM     10  C   UNL     1      27.967  27.125 -16.347  1.00  0.00     0.053 C 
BRANCH  10  11
ATOM     11  C   UNL     1      27.516  26.284 -15.193  1.00  0.00     0.041 C 
ATOM     12  O   UNL     1      27.979  26.489 -14.039  1.00  0.00    -0.550 OA
ATOM     13  O   UNL     1      26.559  25.296 -15.385  1.00  0.00    -0.550 OA
ENDBRANCH  10  11
ENDBRANCH   9  10
ENDBRANCH   8   9
ENDBRANCH   1   8
TORSDOF 8
ENDMDL
