MODEL 1
REMARK VINA RESULT:    -5.655      0.000      0.000
REMARK INTER + INTRA:          -6.024
REMARK INTER:                  -5.985
REMARK INTRA:                  -0.039
REMARK UNBOUND:                -0.039
REMARK SMILES COc1ccc2ccc(=O)oc2c1
REMARK SMILES IDX 3 1 13 2 12 3 6 4 5 5 4 6 7 7 8 8 9 9 10 10 11 11 2 12 1 13
REMARK H PARENT
REMARK Flexibility Score: inf
ROOT
ATOM      1  C   UNL     1      21.965   1.661 -22.445  1.00  0.00     0.122 A 
ATOM      2  C   UNL     1      21.513   1.740 -21.112  1.00  0.00     0.094 A 
ATOM      3  C   UNL     1      20.992   0.607 -20.476  1.00  0.00     0.142 A 
ATOM      4  C   UNL     1      20.920  -0.619 -21.171  1.00  0.00     0.018 A 
ATOM      5  C   UNL     1      21.369  -0.698 -22.495  1.00  0.00     0.016 A 
ATOM      6  C   UNL     1      21.888   0.438 -23.125  1.00  0.00     0.047 A 
ATOM      7  C   UNL     1      20.395  -1.733 -20.508  1.00  0.00     0.019 A 
ATOM      8  C   UNL     1      19.961  -1.601 -19.189  1.00  0.00     0.094 A 
ATOM      9  C   UNL     1      20.063  -0.356 -18.563  1.00  0.00     0.336 A 
ATOM     10  O   UNL     1      19.678  -0.217 -17.372  1.00  0.00    -0.246 OA
ATOM     11  O   UNL     1      20.567   0.688 -19.217  1.00  0.00    -0.423 OA
ENDROOT
BRANCH   1  12
ATOM     12  O   UNL     1      22.494   2.767 -23.125  1.00  0.00    -0.497 OA
ATOM     13  C   UNL     1      22.777   4.025 -22.518  1.00  0.00     0.278 C 
ENDBRANCH   1  12
TORSDOF 1
ENDMDL
MODEL 2
REMARK VINA RESULT:    -5.545      1.333      4.635
REMARK INTER + INTRA:          -5.909
REMARK INTER:                  -5.874
REMARK INTRA:                  -0.034
REMARK UNBOUND:                -0.039
REMARK SMILES COc1ccc2ccc(=O)oc2c1
REMARK SMILES IDX 3 1 13 2 12 3 6 4 5 5 4 6 7 7 8 8 9 9 10 10 11 11 2 12 1 13
REMARK H PARENT
REMARK Flexibility Score: inf
ROOT
ATOM      1  C   UNL     1      20.577  -0.673 -19.600  1.00  0.00     0.122 A 
ATOM      2  C   UNL     1      20.987   0.676 -19.596  1.00  0.00     0.094 A 
ATOM      3  C   UNL     1      21.451   1.275 -20.772  1.00  0.00     0.142 A 
ATOM      4  C   UNL     1      21.510   0.526 -21.966  1.00  0.00     0.018 A 
ATOM      5  C   UNL     1      21.104  -0.814 -21.971  1.00  0.00     0.016 A 
ATOM      6  C   UNL     1      20.641  -1.407 -20.792  1.00  0.00     0.047 A 
ATOM      7  C   UNL     1      21.979   1.154 -23.125  1.00  0.00     0.019 A 
ATOM      8  C   UNL     1      22.372   2.490 -23.067  1.00  0.00     0.094 A 
ATOM      9  C   UNL     1      22.286   3.171 -21.849  1.00  0.00     0.336 A 
ATOM     10  O   UNL     1      22.635   4.378 -21.776  1.00  0.00    -0.246 OA
ATOM     11  O   UNL     1      21.836   2.550 -20.761  1.00  0.00    -0.423 OA
ENDROOT
BRANCH   1  12
ATOM     12  O   UNL     1      20.105  -1.318 -18.448  1.00  0.00    -0.497 OA
ATOM     13  C   UNL     1      18.971  -0.895 -17.696  1.00  0.00     0.278 C 
ENDBRANCH   1  12
TORSDOF 1
ENDMDL
MODEL 3
REMARK VINA RESULT:    -5.434      1.075      4.766
REMARK INTER + INTRA:          -5.791
REMARK INTER:                  -5.754
REMARK INTRA:                  -0.037
REMARK UNBOUND:                -0.039
REMARK SMILES COc1ccc2ccc(=O)oc2c1
REMARK SMILES IDX 3 1 13 2 12 3 6 4 5 5 4 6 7 7 8 8 9 9 10 10 11 11 2 12 1 13
REMARK H PARENT
REMARK Flexibility Score: inf
ROOT
ATOM      1  C   UNL     1      19.954  -0.480 -18.545  1.00  0.00     0.122 A 
ATOM      2  C   UNL     1      20.476   0.635 -19.233  1.00  0.00     0.094 A 
ATOM      3  C   UNL     1      20.947   0.496 -20.544  1.00  0.00     0.142 A 
ATOM      4  C   UNL     1      20.899  -0.763 -21.178  1.00  0.00     0.018 A 
ATOM      5  C   UNL     1      20.381  -1.870 -20.495  1.00  0.00     0.016 A 
ATOM      6  C   UNL     1      19.913  -1.725 -19.186  1.00  0.00     0.047 A 
ATOM      7  C   UNL     1      21.377  -0.869 -22.489  1.00  0.00     0.019 A 
ATOM      8  C   UNL     1      21.883   0.264 -23.125  1.00  0.00     0.094 A 
ATOM      9  C   UNL     1      21.898   1.480 -22.435  1.00  0.00     0.336 A 
ATOM     10  O   UNL     1      22.351   2.514 -22.992  1.00  0.00    -0.246 OA
ATOM     11  O   UNL     1      21.437   1.553 -21.188  1.00  0.00    -0.423 OA
ENDROOT
BRANCH   1  12
ATOM     12  O   UNL     1      19.471  -0.392 -17.231  1.00  0.00    -0.497 OA
ATOM     13  C   UNL     1      18.367  -1.140 -16.729  1.00  0.00     0.278 C 
ENDBRANCH   1  12
TORSDOF 1
ENDMDL
MODEL 4
REMARK VINA RESULT:    -4.815     14.973     17.673
REMARK INTER + INTRA:          -5.135
REMARK INTER:                  -5.102
REMARK INTRA:                  -0.033
REMARK UNBOUND:                -0.039
REMARK SMILES COc1ccc2ccc(=O)oc2c1
REMARK SMILES IDX 3 1 13 2 12 3 6 4 5 5 4 6 7 7 8 8 9 9 10 10 11 11 2 12 1 13
REMARK H PARENT
REMARK Flexibility Score: inf
ROOT
ATOM      1  C   UNL     1      11.592  -5.876 -10.133  1.00  0.00     0.122 A 
ATOM      2  C   UNL     1      11.192  -6.149  -8.809  1.00  0.00     0.094 A 
ATOM      3  C   UNL     1       9.859  -5.966  -8.423  1.00  0.00     0.142 A 
ATOM      4  C   UNL     1       8.912  -5.505  -9.363  1.00  0.00     0.018 A 
ATOM      5  C   UNL     1       9.309  -5.234 -10.678  1.00  0.00     0.016 A 
ATOM      6  C   UNL     1      10.642  -5.419 -11.057  1.00  0.00     0.047 A 
ATOM      7  C   UNL     1       7.589  -5.332  -8.947  1.00  0.00     0.019 A 
ATOM      8  C   UNL     1       7.245  -5.617  -7.625  1.00  0.00     0.094 A 
ATOM      9  C   UNL     1       8.235  -6.070  -6.749  1.00  0.00     0.336 A 
ATOM     10  O   UNL     1       7.945  -6.332  -5.552  1.00  0.00    -0.246 OA
ATOM     11  O   UNL     1       9.488  -6.226  -7.171  1.00  0.00    -0.423 OA
ENDROOT
BRANCH   1  12
ATOM     12  O   UNL     1      12.914  -6.044 -10.568  1.00  0.00    -0.497 OA
ATOM     13  C   UNL     1      13.858  -4.985 -10.701  1.00  0.00     0.278 C 
ENDBRANCH   1  12
TORSDOF 1
ENDMDL
MODEL 5
REMARK VINA RESULT:    -4.776     17.057     19.326
REMARK INTER + INTRA:          -5.094
REMARK INTER:                  -5.057
REMARK INTRA:                  -0.037
REMARK UNBOUND:                -0.039
REMARK SMILES COc1ccc2ccc(=O)oc2c1
REMARK SMILES IDX 3 1 13 2 12 3 6 4 5 5 4 6 7 7 8 8 9 9 10 10 11 11 2 12 1 13
REMARK H PARENT
REMARK Flexibility Score: inf
ROOT
ATOM      1  C   UNL     1       7.925  -6.625  -7.050  1.00  0.00     0.122 A 
ATOM      2  C   UNL     1       7.841  -5.547  -7.955  1.00  0.00     0.094 A 
ATOM      3  C   UNL     1       7.947  -5.772  -9.332  1.00  0.00     0.142 A 
ATOM      4  C   UNL     1       8.139  -7.084  -9.817  1.00  0.00     0.018 A 
ATOM      5  C   UNL     1       8.222  -8.155  -8.919  1.00  0.00     0.016 A 
ATOM      6  C   UNL     1       8.115  -7.922  -7.544  1.00  0.00     0.047 A 
ATOM      7  C   UNL     1       8.240  -7.277 -11.198  1.00  0.00     0.019 A 
ATOM      8  C   UNL     1       8.151  -6.176 -12.050  1.00  0.00     0.094 A 
ATOM      9  C   UNL     1       7.961  -4.906 -11.500  1.00  0.00     0.336 A 
ATOM     10  O   UNL     1       7.878  -3.900 -12.252  1.00  0.00    -0.246 OA
ATOM     11  O   UNL     1       7.867  -4.750 -10.181  1.00  0.00    -0.423 OA
ENDROOT
BRANCH   1  12
ATOM     12  O   UNL     1       7.825  -6.450  -5.663  1.00  0.00    -0.497 OA
ATOM     13  C   UNL     1       8.295  -5.303  -4.960  1.00  0.00     0.278 C 
ENDBRANCH   1  12
TORSDOF 1
ENDMDL
MODEL 6
REMARK VINA RESULT:    -4.758     17.752     20.186
REMARK INTER + INTRA:          -5.075
REMARK INTER:                  -5.038
REMARK INTRA:                  -0.037
REMARK UNBOUND:                -0.039
REMARK SMILES COc1ccc2ccc(=O)oc2c1
REMARK SMILES IDX 3 1 13 2 12 3 6 4 5 5 4 6 7 7 8 8 9 9 10 10 11 11 2 12 1 13
REMARK H PARENT
REMARK Flexibility Score: inf
ROOT
ATOM      1  C   UNL     1       7.203   2.958  -8.070  1.00  0.00     0.122 A 
ATOM      2  C   UNL     1       7.163   3.930  -9.090  1.00  0.00     0.094 A 
ATOM      3  C   UNL     1       6.059   4.781  -9.211  1.00  0.00     0.142 A 
ATOM      4  C   UNL     1       4.981   4.667  -8.308  1.00  0.00     0.018 A 
ATOM      5  C   UNL     1       5.020   3.702  -7.293  1.00  0.00     0.016 A 
ATOM      6  C   UNL     1       6.126   2.854  -7.179  1.00  0.00     0.047 A 
ATOM      7  C   UNL     1       3.893   5.532  -8.454  1.00  0.00     0.019 A 
ATOM      8  C   UNL     1       3.903   6.476  -9.481  1.00  0.00     0.094 A 
ATOM      9  C   UNL     1       5.005   6.532 -10.339  1.00  0.00     0.336 A 
ATOM     10  O   UNL     1       5.034   7.377 -11.272  1.00  0.00    -0.246 OA
ATOM     11  O   UNL     1       6.028   5.697 -10.177  1.00  0.00    -0.423 OA
ENDROOT
BRANCH   1  12
ATOM     12  O   UNL     1       8.285   2.082  -7.908  1.00  0.00    -0.497 OA
ATOM     13  C   UNL     1       9.651   2.452  -8.075  1.00  0.00     0.278 C 
ENDBRANCH   1  12
TORSDOF 1
ENDMDL
MODEL 7
REMARK VINA RESULT:    -4.748     19.065     20.181
REMARK INTER + INTRA:          -5.064
REMARK INTER:                  -5.030
REMARK INTRA:                  -0.034
REMARK UNBOUND:                -0.039
REMARK SMILES COc1ccc2ccc(=O)oc2c1
REMARK SMILES IDX 3 1 13 2 12 3 6 4 5 5 4 6 7 7 8 8 9 9 10 10 11 11 2 12 1 13
REMARK H PARENT
REMARK Flexibility Score: inf
ROOT
ATOM      1  C   UNL     1       5.008   6.625 -10.364  1.00  0.00     0.122 A 
ATOM      2  C   UNL     1       6.089   5.736 -10.195  1.00  0.00     0.094 A 
ATOM      3  C   UNL     1       6.062   4.780  -9.173  1.00  0.00     0.142 A 
ATOM      4  C   UNL     1       4.949   4.706  -8.309  1.00  0.00     0.018 A 
ATOM      5  C   UNL     1       3.875   5.588  -8.476  1.00  0.00     0.016 A 
ATOM      6  C   UNL     1       3.908   6.541  -9.499  1.00  0.00     0.047 A 
ATOM      7  C   UNL     1       4.953   3.740  -7.298  1.00  0.00     0.019 A 
ATOM      8  C   UNL     1       6.047   2.884  -7.173  1.00  0.00     0.094 A 
ATOM      9  C   UNL     1       7.115   3.015  -8.066  1.00  0.00     0.336 A 
ATOM     10  O   UNL     1       8.113   2.253  -7.970  1.00  0.00    -0.246 OA
ATOM     11  O   UNL     1       7.087   3.944  -9.019  1.00  0.00    -0.423 OA
ENDROOT
BRANCH   1  12
ATOM     12  O   UNL     1       4.987   7.599 -11.372  1.00  0.00    -0.497 OA
ATOM     13  C   UNL     1       3.901   7.803 -12.272  1.00  0.00     0.278 C 
ENDBRANCH   1  12
TORSDOF 1
ENDMDL
MODEL 8
REMARK VINA RESULT:    -4.717     16.737     19.088
REMARK INTER + INTRA:          -5.032
REMARK INTER:                  -4.993
REMARK INTRA:                  -0.038
REMARK UNBOUND:                -0.039
REMARK SMILES COc1ccc2ccc(=O)oc2c1
REMARK SMILES IDX 3 1 13 2 12 3 6 4 5 5 4 6 7 7 8 8 9 9 10 10 11 11 2 12 1 13
REMARK H PARENT
REMARK Flexibility Score: inf
ROOT
ATOM      1  C   UNL     1       8.019  -5.921 -11.011  1.00  0.00     0.122 A 
ATOM      2  C   UNL     1       8.015  -5.266  -9.763  1.00  0.00     0.094 A 
ATOM      3  C   UNL     1       7.989  -6.009  -8.577  1.00  0.00     0.142 A 
ATOM      4  C   UNL     1       7.967  -7.418  -8.631  1.00  0.00     0.018 A 
ATOM      5  C   UNL     1       7.972  -8.070  -9.870  1.00  0.00     0.016 A 
ATOM      6  C   UNL     1       7.997  -7.322 -11.051  1.00  0.00     0.047 A 
ATOM      7  C   UNL     1       7.942  -8.132  -7.428  1.00  0.00     0.019 A 
ATOM      8  C   UNL     1       7.939  -7.436  -6.220  1.00  0.00     0.094 A 
ATOM      9  C   UNL     1       7.962  -6.038  -6.243  1.00  0.00     0.336 A 
ATOM     10  O   UNL     1       7.960  -5.391  -5.163  1.00  0.00    -0.246 OA
ATOM     11  O   UNL     1       7.986  -5.383  -7.401  1.00  0.00    -0.423 OA
ENDROOT
BRANCH   1  12
ATOM     12  O   UNL     1       8.044  -5.223 -12.226  1.00  0.00    -0.497 OA
ATOM     13  C   UNL     1       7.698  -3.848 -12.371  1.00  0.00     0.278 C 
ENDBRANCH   1  12
TORSDOF 1
ENDMDL
MODEL 9
REMARK VINA RESULT:    -4.617     15.646     18.674
REMARK INTER + INTRA:          -4.926
REMARK INTER:                  -4.892
REMARK INTRA:                  -0.034
REMARK UNBOUND:                -0.039
REMARK SMILES COc1ccc2ccc(=O)oc2c1
REMARK SMILES IDX 3 1 13 2 12 3 6 4 5 5 4 6 7 7 8 8 9 9 10 10 11 11 2 12 1 13
REMARK H PARENT
REMARK Flexibility Score: inf
ROOT
ATOM      1  C   UNL     1      11.365   3.046  -3.631  1.00  0.00     0.122 A 
ATOM      2  C   UNL     1      11.732   2.530  -4.890  1.00  0.00     0.094 A 
ATOM      3  C   UNL     1      12.789   3.102  -5.606  1.00  0.00     0.142 A 
ATOM      4  C   UNL     1      13.491   4.201  -5.065  1.00  0.00     0.018 A 
ATOM      5  C   UNL     1      13.127   4.714  -3.814  1.00  0.00     0.016 A 
ATOM      6  C   UNL     1      12.069   4.137  -3.104  1.00  0.00     0.047 A 
ATOM      7  C   UNL     1      14.543   4.751  -5.805  1.00  0.00     0.019 A 
ATOM      8  C   UNL     1      14.865   4.203  -7.046  1.00  0.00     0.094 A 
ATOM      9  C   UNL     1      14.126   3.114  -7.519  1.00  0.00     0.336 A 
ATOM     10  O   UNL     1      14.402   2.605  -8.638  1.00  0.00    -0.246 OA
ATOM     11  O   UNL     1      13.130   2.610  -6.795  1.00  0.00    -0.423 OA
ENDROOT
BRANCH   1  12
ATOM     12  O   UNL     1      10.314   2.507  -2.875  1.00  0.00    -0.497 OA
ATOM     13  C   UNL     1       8.950   2.499  -3.287  1.00  0.00     0.278 C 
ENDBRANCH   1  12
TORSDOF 1
ENDMDL
