MODEL 1
REMARK VINA RESULT:    -3.417      0.000      0.000
REMARK INTER + INTRA:          -3.854
REMARK INTER:                  -3.816
REMARK INTRA:                  -0.038
REMARK UNBOUND:                -0.038
REMARK SMILES CCCC(=O)[O-]
REMARK SMILES IDX 3 1 4 2 5 3 6 4 2 5 1 6
REMARK H PARENT
REMARK Flexibility Score: inf
ROOT
ATOM      1  C   UNL     1     126.145 145.000 139.885  1.00  0.00     0.052 C 
ENDROOT
BRANCH   1   2
ATOM      2  C   UNL     1     125.928 145.338 138.444  1.00  0.00     0.041 C 
ATOM      3  O   UNL     1     125.827 146.541 138.083  1.00  0.00    -0.550 OA
ATOM      4  O   UNL     1     125.887 144.328 137.491  1.00  0.00    -0.550 OA
ENDBRANCH   1   2
BRANCH   1   5
ATOM      5  C   UNL     1     126.258 143.484 140.068  1.00  0.00     0.003 C 
ATOM      6  C   UNL     1     127.677 143.081 140.457  1.00  0.00     0.004 C 
ENDBRANCH   1   5
TORSDOF 2
ENDMDL
MODEL 2
REMARK VINA RESULT:    -3.388      0.111      1.323
REMARK INTER + INTRA:          -3.822
REMARK INTER:                  -3.784
REMARK INTRA:                  -0.038
REMARK UNBOUND:                -0.038
REMARK SMILES CCCC(=O)[O-]
REMARK SMILES IDX 3 1 4 2 5 3 6 4 2 5 1 6
REMARK H PARENT
REMARK Flexibility Score: inf
ROOT
ATOM      1  C   UNL     1     126.121 144.943 139.870  1.00  0.00     0.052 C 
ENDROOT
BRANCH   1   2
ATOM      2  C   UNL     1     125.938 145.217 138.410  1.00  0.00     0.041 C 
ATOM      3  O   UNL     1     125.950 144.269 137.581  1.00  0.00    -0.550 OA
ATOM      4  O   UNL     1     125.705 146.513 137.970  1.00  0.00    -0.550 OA
ENDBRANCH   1   2
BRANCH   1   5
ATOM      5  C   UNL     1     126.237 143.437 140.122  1.00  0.00     0.003 C 
ATOM      6  C   UNL     1     127.659 143.054 140.521  1.00  0.00     0.004 C 
ENDBRANCH   1   5
TORSDOF 2
ENDMDL
MODEL 3
REMARK VINA RESULT:    -3.326      2.266      3.362
REMARK INTER + INTRA:          -3.753
REMARK INTER:                  -3.711
REMARK INTRA:                  -0.042
REMARK UNBOUND:                -0.038
REMARK SMILES CCCC(=O)[O-]
REMARK SMILES IDX 3 1 4 2 5 3 6 4 2 5 1 6
REMARK H PARENT
REMARK Flexibility Score: inf
ROOT
ATOM      1  C   UNL     1     126.095 143.491 139.787  1.00  0.00     0.052 C 
ENDROOT
BRANCH   1   2
ATOM      2  C   UNL     1     127.517 143.026 139.801  1.00  0.00     0.041 C 
ATOM      3  O   UNL     1     128.060 142.616 138.741  1.00  0.00    -0.550 OA
ATOM      4  O   UNL     1     128.259 143.091 140.973  1.00  0.00    -0.550 OA
ENDBRANCH   1   2
BRANCH   1   5
ATOM      5  C   UNL     1     126.026 145.009 139.971  1.00  0.00     0.003 C 
ATOM      6  C   UNL     1     125.947 145.723 138.626  1.00  0.00     0.004 C 
ENDBRANCH   1   5
TORSDOF 2
ENDMDL
MODEL 4
REMARK VINA RESULT:    -3.192     17.041     17.624
REMARK INTER + INTRA:          -3.604
REMARK INTER:                  -3.563
REMARK INTRA:                  -0.040
REMARK UNBOUND:                -0.038
REMARK SMILES CCCC(=O)[O-]
REMARK SMILES IDX 3 1 4 2 5 3 6 4 2 5 1 6
REMARK H PARENT
REMARK Flexibility Score: inf
ROOT
ATOM      1  C   UNL     1     140.097 133.974 139.775  1.00  0.00     0.052 C 
ENDROOT
BRANCH   1   2
ATOM      2  C   UNL     1     140.871 135.241 139.968  1.00  0.00     0.041 C 
ATOM      3  O   UNL     1     140.360 136.349 139.658  1.00  0.00    -0.550 OA
ATOM      4  O   UNL     1     142.137 135.202 140.538  1.00  0.00    -0.550 OA
ENDBRANCH   1   2
BRANCH   1   5
ATOM      5  C   UNL     1     140.475 133.314 138.446  1.00  0.00     0.003 C 
ATOM      6  C   UNL     1     139.503 133.709 137.339  1.00  0.00     0.004 C 
ENDBRANCH   1   5
TORSDOF 2
ENDMDL
MODEL 5
REMARK VINA RESULT:    -3.152      3.340      4.078
REMARK INTER + INTRA:          -3.558
REMARK INTER:                  -3.516
REMARK INTRA:                  -0.043
REMARK UNBOUND:                -0.038
REMARK SMILES CCCC(=O)[O-]
REMARK SMILES IDX 3 1 4 2 5 3 6 4 2 5 1 6
REMARK H PARENT
REMARK Flexibility Score: inf
ROOT
ATOM      1  C   UNL     1     127.629 142.944 139.673  1.00  0.00     0.052 C 
ENDROOT
BRANCH   1   2
ATOM      2  C   UNL     1     128.051 142.523 141.046  1.00  0.00     0.041 C 
ATOM      3  O   UNL     1     127.259 141.879 141.783  1.00  0.00    -0.550 OA
ATOM      4  O   UNL     1     129.337 142.799 141.493  1.00  0.00    -0.550 OA
ENDBRANCH   1   2
BRANCH   1   5
ATOM      5  C   UNL     1     126.170 143.407 139.680  1.00  0.00     0.003 C 
ATOM      6  C   UNL     1     126.072 144.912 139.913  1.00  0.00     0.004 C 
ENDBRANCH   1   5
TORSDOF 2
ENDMDL
MODEL 6
REMARK VINA RESULT:    -3.149     16.974     17.379
REMARK INTER + INTRA:          -3.555
REMARK INTER:                  -3.547
REMARK INTRA:                  -0.008
REMARK UNBOUND:                -0.038
REMARK SMILES CCCC(=O)[O-]
REMARK SMILES IDX 3 1 4 2 5 3 6 4 2 5 1 6
REMARK H PARENT
REMARK Flexibility Score: inf
ROOT
ATOM      1  C   UNL     1     140.429 133.396 138.927  1.00  0.00     0.052 C 
ENDROOT
BRANCH   1   2
ATOM      2  C   UNL     1     139.244 133.492 138.019  1.00  0.00     0.041 C 
ATOM      3  O   UNL     1     139.392 133.835 136.816  1.00  0.00    -0.550 OA
ATOM      4  O   UNL     1     137.980 133.155 138.487  1.00  0.00    -0.550 OA
ENDBRANCH   1   2
BRANCH   1   5
ATOM      5  C   UNL     1     140.271 134.347 140.116  1.00  0.00     0.003 C 
ATOM      6  C   UNL     1     141.556 135.129 140.369  1.00  0.00     0.004 C 
ENDBRANCH   1   5
TORSDOF 2
ENDMDL
MODEL 7
REMARK VINA RESULT:    -3.104      1.041      1.419
REMARK INTER + INTRA:          -3.505
REMARK INTER:                  -3.495
REMARK INTRA:                  -0.010
REMARK UNBOUND:                -0.038
REMARK SMILES CCCC(=O)[O-]
REMARK SMILES IDX 3 1 4 2 5 3 6 4 2 5 1 6
REMARK H PARENT
REMARK Flexibility Score: inf
ROOT
ATOM      1  C   UNL     1     126.521 143.432 140.239  1.00  0.00     0.052 C 
ENDROOT
BRANCH   1   2
ATOM      2  C   UNL     1     126.240 144.259 139.024  1.00  0.00     0.041 C 
ATOM      3  O   UNL     1     126.115 145.508 139.122  1.00  0.00    -0.550 OA
ATOM      4  O   UNL     1     126.165 143.656 137.775  1.00  0.00    -0.550 OA
ENDBRANCH   1   2
BRANCH   1   5
ATOM      5  C   UNL     1     127.764 142.566 140.021  1.00  0.00     0.003 C 
ATOM      6  C   UNL     1     128.742 142.705 141.183  1.00  0.00     0.004 C 
ENDBRANCH   1   5
TORSDOF 2
ENDMDL
MODEL 8
REMARK VINA RESULT:    -3.051      2.593      3.474
REMARK INTER + INTRA:          -3.446
REMARK INTER:                  -3.436
REMARK INTRA:                  -0.010
REMARK UNBOUND:                -0.038
REMARK SMILES CCCC(=O)[O-]
REMARK SMILES IDX 3 1 4 2 5 3 6 4 2 5 1 6
REMARK H PARENT
REMARK Flexibility Score: inf
ROOT
ATOM      1  C   UNL     1     126.546 142.795 138.012  1.00  0.00     0.052 C 
ENDROOT
BRANCH   1   2
ATOM      2  C   UNL     1     126.377 143.561 139.286  1.00  0.00     0.041 C 
ATOM      3  O   UNL     1     126.539 142.989 140.396  1.00  0.00    -0.550 OA
ATOM      4  O   UNL     1     126.089 144.919 139.247  1.00  0.00    -0.550 OA
ENDBRANCH   1   2
BRANCH   1   5
ATOM      5  C   UNL     1     125.910 143.553 136.843  1.00  0.00     0.003 C 
ATOM      6  C   UNL     1     125.464 142.594 135.744  1.00  0.00     0.004 C 
ENDBRANCH   1   5
TORSDOF 2
ENDMDL
MODEL 9
REMARK VINA RESULT:    -3.036      1.788      2.876
REMARK INTER + INTRA:          -3.428
REMARK INTER:                  -3.414
REMARK INTRA:                  -0.014
REMARK UNBOUND:                -0.038
REMARK SMILES CCCC(=O)[O-]
REMARK SMILES IDX 3 1 4 2 5 3 6 4 2 5 1 6
REMARK H PARENT
REMARK Flexibility Score: inf
ROOT
ATOM      1  C   UNL     1     127.149 142.927 138.918  1.00  0.00     0.052 C 
ENDROOT
BRANCH   1   2
ATOM      2  C   UNL     1     126.448 142.572 137.644  1.00  0.00     0.041 C 
ATOM      3  O   UNL     1     126.297 141.364 137.320  1.00  0.00    -0.550 OA
ATOM      4  O   UNL     1     125.919 143.573 136.840  1.00  0.00    -0.550 OA
ENDBRANCH   1   2
BRANCH   1   5
ATOM      5  C   UNL     1     126.153 143.479 139.941  1.00  0.00     0.003 C 
ATOM      6  C   UNL     1     126.171 145.004 139.958  1.00  0.00     0.004 C 
ENDBRANCH   1   5
TORSDOF 2
ENDMDL
