MODEL 1
REMARK VINA RESULT:    -5.796      0.000      0.000
REMARK INTER + INTRA:          -7.104
REMARK INTER:                  -6.813
REMARK INTRA:                  -0.291
REMARK UNBOUND:                -0.291
REMARK SMILES COc1cc2ccc(=O)oc2c(OC)c1OC
REMARK SMILES IDX 3 1 15 2 12 3 11 4 5 5 4 6 6 7 7 8 8 9 9 10 10 11 2 12 1 13
REMARK SMILES IDX 16 14 17 15 13 16 14 17
REMARK H PARENT
REMARK Flexibility Score: inf
ROOT
ATOM      1  C   UNL     1       5.695  28.540  -0.675  1.00  0.00     0.165 A 
ATOM      2  C   UNL     1       6.031  29.299   0.458  1.00  0.00     0.207 A 
ATOM      3  C   UNL     1       7.386  29.385   0.885  1.00  0.00     0.208 A 
ATOM      4  C   UNL     1       8.384  28.696   0.149  1.00  0.00     0.184 A 
ATOM      5  C   UNL     1       8.026  27.939  -0.988  1.00  0.00     0.025 A 
ATOM      6  C   UNL     1       6.692  27.864  -1.393  1.00  0.00     0.062 A 
ATOM      7  C   UNL     1       9.029  27.268  -1.697  1.00  0.00     0.020 A 
ATOM      8  C   UNL     1      10.350  27.360  -1.271  1.00  0.00     0.094 A 
ATOM      9  C   UNL     1      10.638  28.124  -0.140  1.00  0.00     0.336 A 
ATOM     10  O   UNL     1      11.826  28.224   0.266  1.00  0.00    -0.246 OA
ATOM     11  O   UNL     1       9.665  28.751   0.513  1.00  0.00    -0.419 OA
ENDROOT
BRANCH   1  12
ATOM     12  O   UNL     1       4.344  28.484  -1.058  1.00  0.00    -0.493 OA
ATOM     13  C   UNL     1       3.460  27.409  -0.760  1.00  0.00     0.278 C 
ENDBRANCH   1  12
BRANCH   2  14
ATOM     14  O   UNL     1       4.961  29.942   1.113  1.00  0.00    -0.490 OA
ATOM     15  C   UNL     1       4.291  29.506   2.290  1.00  0.00     0.278 C 
ENDBRANCH   2  14
BRANCH   3  16
ATOM     16  O   UNL     1       7.685  30.155   2.025  1.00  0.00    -0.490 OA
ATOM     17  C   UNL     1       8.019  31.539   2.063  1.00  0.00     0.278 C 
ENDBRANCH   3  16
TORSDOF 3
ENDMDL
MODEL 2
REMARK VINA RESULT:    -5.755      6.622      9.432
REMARK INTER + INTRA:          -7.055
REMARK INTER:                  -6.752
REMARK INTRA:                  -0.303
REMARK UNBOUND:                -0.291
REMARK SMILES COc1cc2ccc(=O)oc2c(OC)c1OC
REMARK SMILES IDX 3 1 15 2 12 3 11 4 5 5 4 6 6 7 7 8 8 9 9 10 10 11 2 12 1 13
REMARK SMILES IDX 16 14 17 15 13 16 14 17
REMARK H PARENT
REMARK Flexibility Score: inf
ROOT
ATOM      1  C   UNL     1       2.295  33.602   4.765  1.00  0.00     0.165 A 
ATOM      2  C   UNL     1       3.133  33.443   3.649  1.00  0.00     0.207 A 
ATOM      3  C   UNL     1       3.812  34.566   3.099  1.00  0.00     0.208 A 
ATOM      4  C   UNL     1       3.631  35.840   3.696  1.00  0.00     0.184 A 
ATOM      5  C   UNL     1       2.784  35.979   4.818  1.00  0.00     0.025 A 
ATOM      6  C   UNL     1       2.124  34.868   5.344  1.00  0.00     0.062 A 
ATOM      7  C   UNL     1       2.621  37.247   5.389  1.00  0.00     0.020 A 
ATOM      8  C   UNL     1       3.291  38.337   4.843  1.00  0.00     0.094 A 
ATOM      9  C   UNL     1       4.112  38.133   3.734  1.00  0.00     0.336 A 
ATOM     10  O   UNL     1       4.730  39.103   3.222  1.00  0.00    -0.246 OA
ATOM     11  O   UNL     1       4.249  36.918   3.213  1.00  0.00    -0.419 OA
ENDROOT
BRANCH   1  12
ATOM     12  O   UNL     1       1.644  32.464   5.272  1.00  0.00    -0.493 OA
ATOM     13  C   UNL     1       0.272  32.152   5.058  1.00  0.00     0.278 C 
ENDBRANCH   1  12
BRANCH   2  14
ATOM     14  O   UNL     1       3.241  32.134   3.137  1.00  0.00    -0.490 OA
ATOM     15  C   UNL     1       2.500  31.571   2.060  1.00  0.00     0.278 C 
ENDBRANCH   2  14
BRANCH   3  16
ATOM     16  O   UNL     1       4.644  34.368   1.980  1.00  0.00    -0.490 OA
ATOM     17  C   UNL     1       4.274  34.467   0.608  1.00  0.00     0.278 C 
ENDBRANCH   3  16
TORSDOF 3
ENDMDL
MODEL 3
REMARK VINA RESULT:    -5.727      1.529      3.475
REMARK INTER + INTRA:          -7.022
REMARK INTER:                  -6.773
REMARK INTRA:                  -0.250
REMARK UNBOUND:                -0.291
REMARK SMILES COc1cc2ccc(=O)oc2c(OC)c1OC
REMARK SMILES IDX 3 1 15 2 12 3 11 4 5 5 4 6 6 7 7 8 8 9 9 10 10 11 2 12 1 13
REMARK SMILES IDX 16 14 17 15 13 16 14 17
REMARK H PARENT
REMARK Flexibility Score: inf
ROOT
ATOM      1  C   UNL     1       7.051  30.118   1.663  1.00  0.00     0.165 A 
ATOM      2  C   UNL     1       5.994  29.667   0.856  1.00  0.00     0.207 A 
ATOM      3  C   UNL     1       6.256  28.829  -0.263  1.00  0.00     0.208 A 
ATOM      4  C   UNL     1       7.596  28.457  -0.546  1.00  0.00     0.184 A 
ATOM      5  C   UNL     1       8.645  28.920   0.279  1.00  0.00     0.025 A 
ATOM      6  C   UNL     1       8.371  29.744   1.372  1.00  0.00     0.062 A 
ATOM      7  C   UNL     1       9.958  28.541  -0.021  1.00  0.00     0.020 A 
ATOM      8  C   UNL     1      10.203  27.720  -1.118  1.00  0.00     0.094 A 
ATOM      9  C   UNL     1       9.122  27.296  -1.892  1.00  0.00     0.336 A 
ATOM     10  O   UNL     1       9.317  26.552  -2.889  1.00  0.00    -0.246 OA
ATOM     11  O   UNL     1       7.885  27.673  -1.583  1.00  0.00    -0.419 OA
ENDROOT
BRANCH   1  12
ATOM     12  O   UNL     1       6.743  30.945   2.757  1.00  0.00    -0.493 OA
ATOM     13  C   UNL     1       6.938  32.355   2.789  1.00  0.00     0.278 C 
ENDBRANCH   1  12
BRANCH   2  14
ATOM     14  O   UNL     1       4.704  30.096   1.228  1.00  0.00    -0.490 OA
ATOM     15  C   UNL     1       3.788  29.418   2.080  1.00  0.00     0.278 C 
ENDBRANCH   2  14
BRANCH   3  16
ATOM     16  O   UNL     1       5.171  28.396  -1.050  1.00  0.00    -0.490 OA
ATOM     17  C   UNL     1       4.338  27.265  -0.816  1.00  0.00     0.278 C 
ENDBRANCH   3  16
TORSDOF 3
ENDMDL
MODEL 4
REMARK VINA RESULT:    -5.573      6.075      9.309
REMARK INTER + INTRA:          -6.841
REMARK INTER:                  -6.569
REMARK INTRA:                  -0.272
REMARK UNBOUND:                -0.291
REMARK SMILES COc1cc2ccc(=O)oc2c(OC)c1OC
REMARK SMILES IDX 3 1 15 2 12 3 11 4 5 5 4 6 6 7 7 8 8 9 9 10 10 11 2 12 1 13
REMARK SMILES IDX 16 14 17 15 13 16 14 17
REMARK H PARENT
REMARK Flexibility Score: inf
ROOT
ATOM      1  C   UNL     1       4.641  34.158   2.183  1.00  0.00     0.165 A 
ATOM      2  C   UNL     1       3.822  33.476   3.097  1.00  0.00     0.207 A 
ATOM      3  C   UNL     1       3.178  34.186   4.149  1.00  0.00     0.208 A 
ATOM      4  C   UNL     1       3.376  35.587   4.255  1.00  0.00     0.184 A 
ATOM      5  C   UNL     1       4.204  36.255   3.326  1.00  0.00     0.025 A 
ATOM      6  C   UNL     1       4.829  35.543   2.301  1.00  0.00     0.062 A 
ATOM      7  C   UNL     1       4.384  37.637   3.452  1.00  0.00     0.020 A 
ATOM      8  C   UNL     1       3.749  38.321   4.484  1.00  0.00     0.094 A 
ATOM      9  C   UNL     1       2.945  37.603   5.369  1.00  0.00     0.336 A 
ATOM     10  O   UNL     1       2.359  38.199   6.311  1.00  0.00    -0.246 OA
ATOM     11  O   UNL     1       2.791  36.290   5.224  1.00  0.00    -0.419 OA
ENDROOT
BRANCH   1  12
ATOM     12  O   UNL     1       5.257  33.414   1.162  1.00  0.00    -0.493 OA
ATOM     13  C   UNL     1       6.598  32.940   1.200  1.00  0.00     0.278 C 
ENDBRANCH   1  12
BRANCH   2  14
ATOM     14  O   UNL     1       3.694  32.086   2.898  1.00  0.00    -0.490 OA
ATOM     15  C   UNL     1       2.660  31.414   2.189  1.00  0.00     0.278 C 
ENDBRANCH   2  14
BRANCH   3  16
ATOM     16  O   UNL     1       2.364  33.469   5.046  1.00  0.00    -0.490 OA
ATOM     17  C   UNL     1       0.954  33.287   4.969  1.00  0.00     0.278 C 
ENDBRANCH   3  16
TORSDOF 3
ENDMDL
MODEL 5
REMARK VINA RESULT:    -5.535      6.078      8.216
REMARK INTER + INTRA:          -6.796
REMARK INTER:                  -6.532
REMARK INTRA:                  -0.265
REMARK UNBOUND:                -0.291
REMARK SMILES COc1cc2ccc(=O)oc2c(OC)c1OC
REMARK SMILES IDX 3 1 15 2 12 3 11 4 5 5 4 6 6 7 7 8 8 9 9 10 10 11 2 12 1 13
REMARK SMILES IDX 16 14 17 15 13 16 14 17
REMARK H PARENT
REMARK Flexibility Score: inf
ROOT
ATOM      1  C   UNL     1       1.190  31.127   6.000  1.00  0.00     0.165 A 
ATOM      2  C   UNL     1       0.611  31.345   4.740  1.00  0.00     0.207 A 
ATOM      3  C   UNL     1       0.923  30.485   3.651  1.00  0.00     0.208 A 
ATOM      4  C   UNL     1       1.824  29.409   3.860  1.00  0.00     0.184 A 
ATOM      5  C   UNL     1       2.396  29.207   5.136  1.00  0.00     0.025 A 
ATOM      6  C   UNL     1       2.080  30.060   6.193  1.00  0.00     0.062 A 
ATOM      7  C   UNL     1       3.283  28.139   5.317  1.00  0.00     0.020 A 
ATOM      8  C   UNL     1       3.581  27.304   4.244  1.00  0.00     0.094 A 
ATOM      9  C   UNL     1       2.983  27.558   3.011  1.00  0.00     0.336 A 
ATOM     10  O   UNL     1       3.235  26.817   2.024  1.00  0.00    -0.246 OA
ATOM     11  O   UNL     1       2.144  28.579   2.868  1.00  0.00    -0.419 OA
ENDROOT
BRANCH   1  12
ATOM     12  O   UNL     1       0.851  32.003   7.045  1.00  0.00    -0.493 OA
ATOM     13  C   UNL     1       0.468  31.595   8.354  1.00  0.00     0.278 C 
ENDBRANCH   1  12
BRANCH   2  14
ATOM     14  O   UNL     1      -0.270  32.441   4.644  1.00  0.00    -0.490 OA
ATOM     15  C   UNL     1       0.058  33.774   4.267  1.00  0.00     0.278 C 
ENDBRANCH   2  14
BRANCH   3  16
ATOM     16  O   UNL     1       0.323  30.734   2.401  1.00  0.00    -0.490 OA
ATOM     17  C   UNL     1       0.833  31.551   1.352  1.00  0.00     0.278 C 
ENDBRANCH   3  16
TORSDOF 3
ENDMDL
MODEL 6
REMARK VINA RESULT:    -5.505      6.390      7.786
REMARK INTER + INTRA:          -6.761
REMARK INTER:                  -6.491
REMARK INTRA:                  -0.271
REMARK UNBOUND:                -0.291
REMARK SMILES COc1cc2ccc(=O)oc2c(OC)c1OC
REMARK SMILES IDX 3 1 15 2 12 3 11 4 5 5 4 6 6 7 7 8 8 9 9 10 10 11 2 12 1 13
REMARK SMILES IDX 16 14 17 15 13 16 14 17
REMARK H PARENT
REMARK Flexibility Score: inf
ROOT
ATOM      1  C   UNL     1      -0.268  30.998   2.853  1.00  0.00     0.165 A 
ATOM      2  C   UNL     1       0.243  31.423   4.090  1.00  0.00     0.207 A 
ATOM      3  C   UNL     1       1.257  30.669   4.744  1.00  0.00     0.208 A 
ATOM      4  C   UNL     1       1.741  29.487   4.125  1.00  0.00     0.184 A 
ATOM      5  C   UNL     1       1.215  29.076   2.881  1.00  0.00     0.025 A 
ATOM      6  C   UNL     1       0.220  29.827   2.254  1.00  0.00     0.062 A 
ATOM      7  C   UNL     1       1.708  27.906   2.291  1.00  0.00     0.020 A 
ATOM      8  C   UNL     1       2.701  27.177   2.939  1.00  0.00     0.094 A 
ATOM      9  C   UNL     1       3.178  27.637   4.166  1.00  0.00     0.336 A 
ATOM     10  O   UNL     1       4.076  26.995   4.772  1.00  0.00    -0.246 OA
ATOM     11  O   UNL     1       2.691  28.751   4.702  1.00  0.00    -0.419 OA
ENDROOT
BRANCH   1  12
ATOM     12  O   UNL     1      -1.269  31.776   2.247  1.00  0.00    -0.493 OA
ATOM     13  C   UNL     1      -1.036  32.759   1.245  1.00  0.00     0.278 C 
ENDBRANCH   1  12
BRANCH   2  14
ATOM     14  O   UNL     1      -0.309  32.611   4.613  1.00  0.00    -0.490 OA
ATOM     15  C   UNL     1       0.291  33.901   4.626  1.00  0.00     0.278 C 
ENDBRANCH   2  14
BRANCH   3  16
ATOM     16  O   UNL     1       1.745  31.127   5.983  1.00  0.00    -0.490 OA
ATOM     17  C   UNL     1       1.186  30.879   7.269  1.00  0.00     0.278 C 
ENDBRANCH   3  16
TORSDOF 3
ENDMDL
MODEL 7
REMARK VINA RESULT:    -5.392      5.104      8.881
REMARK INTER + INTRA:          -6.629
REMARK INTER:                  -6.332
REMARK INTRA:                  -0.296
REMARK UNBOUND:                -0.291
REMARK SMILES COc1cc2ccc(=O)oc2c(OC)c1OC
REMARK SMILES IDX 3 1 15 2 12 3 11 4 5 5 4 6 6 7 7 8 8 9 9 10 10 11 2 12 1 13
REMARK SMILES IDX 16 14 17 15 13 16 14 17
REMARK H PARENT
REMARK Flexibility Score: inf
ROOT
ATOM      1  C   UNL     1       6.093  35.287   2.002  1.00  0.00     0.165 A 
ATOM      2  C   UNL     1       5.768  33.922   2.022  1.00  0.00     0.207 A 
ATOM      3  C   UNL     1       4.658  33.462   2.785  1.00  0.00     0.208 A 
ATOM      4  C   UNL     1       3.891  34.403   3.519  1.00  0.00     0.184 A 
ATOM      5  C   UNL     1       4.235  35.773   3.486  1.00  0.00     0.025 A 
ATOM      6  C   UNL     1       5.327  36.207   2.733  1.00  0.00     0.062 A 
ATOM      7  C   UNL     1       3.463  36.682   4.219  1.00  0.00     0.020 A 
ATOM      8  C   UNL     1       2.380  36.221   4.961  1.00  0.00     0.094 A 
ATOM      9  C   UNL     1       2.094  34.856   4.953  1.00  0.00     0.336 A 
ATOM     10  O   UNL     1       1.119  34.414   5.616  1.00  0.00    -0.246 OA
ATOM     11  O   UNL     1       2.844  34.016   4.247  1.00  0.00    -0.419 OA
ENDROOT
BRANCH   1  12
ATOM     12  O   UNL     1       7.198  35.693   1.234  1.00  0.00    -0.493 OA
ATOM     13  C   UNL     1       8.472  36.042   1.766  1.00  0.00     0.278 C 
ENDBRANCH   1  12
BRANCH   2  14
ATOM     14  O   UNL     1       6.596  33.075   1.257  1.00  0.00    -0.490 OA
ATOM     15  C   UNL     1       7.631  32.226   1.737  1.00  0.00     0.278 C 
ENDBRANCH   2  14
BRANCH   3  16
ATOM     16  O   UNL     1       4.362  32.085   2.782  1.00  0.00    -0.490 OA
ATOM     17  C   UNL     1       3.502  31.395   1.881  1.00  0.00     0.278 C 
ENDBRANCH   3  16
TORSDOF 3
ENDMDL
MODEL 8
REMARK VINA RESULT:    -5.379      6.729      9.343
REMARK INTER + INTRA:          -6.613
REMARK INTER:                  -6.375
REMARK INTRA:                  -0.238
REMARK UNBOUND:                -0.291
REMARK SMILES COc1cc2ccc(=O)oc2c(OC)c1OC
REMARK SMILES IDX 3 1 15 2 12 3 11 4 5 5 4 6 6 7 7 8 8 9 9 10 10 11 2 12 1 13
REMARK SMILES IDX 16 14 17 15 13 16 14 17
REMARK H PARENT
REMARK Flexibility Score: inf
ROOT
ATOM      1  C   UNL     1       4.012  37.649   3.901  1.00  0.00     0.165 A 
ATOM      2  C   UNL     1       3.157  36.842   4.670  1.00  0.00     0.207 A 
ATOM      3  C   UNL     1       3.124  35.435   4.463  1.00  0.00     0.208 A 
ATOM      4  C   UNL     1       3.966  34.865   3.474  1.00  0.00     0.184 A 
ATOM      5  C   UNL     1       4.820  35.693   2.712  1.00  0.00     0.025 A 
ATOM      6  C   UNL     1       4.839  37.072   2.927  1.00  0.00     0.062 A 
ATOM      7  C   UNL     1       5.641  35.107   1.742  1.00  0.00     0.020 A 
ATOM      8  C   UNL     1       5.600  33.729   1.549  1.00  0.00     0.094 A 
ATOM      9  C   UNL     1       4.735  32.968   2.334  1.00  0.00     0.336 A 
ATOM     10  O   UNL     1       4.680  31.719   2.179  1.00  0.00    -0.246 OA
ATOM     11  O   UNL     1       3.967  33.552   3.248  1.00  0.00    -0.419 OA
ENDROOT
BRANCH   1  12
ATOM     12  O   UNL     1       4.010  39.034   4.142  1.00  0.00    -0.493 OA
ATOM     13  C   UNL     1       3.482  40.010   3.251  1.00  0.00     0.278 C 
ENDBRANCH   1  12
BRANCH   2  14
ATOM     14  O   UNL     1       2.365  37.513   5.624  1.00  0.00    -0.490 OA
ATOM     15  C   UNL     1       2.702  37.784   6.979  1.00  0.00     0.278 C 
ENDBRANCH   2  14
BRANCH   3  16
ATOM     16  O   UNL     1       2.253  34.659   5.252  1.00  0.00    -0.490 OA
ATOM     17  C   UNL     1       0.930  34.250   4.921  1.00  0.00     0.278 C 
ENDBRANCH   3  16
TORSDOF 3
ENDMDL
MODEL 9
REMARK VINA RESULT:    -5.369      2.120      3.971
REMARK INTER + INTRA:          -6.601
REMARK INTER:                  -6.331
REMARK INTRA:                  -0.270
REMARK UNBOUND:                -0.291
REMARK SMILES COc1cc2ccc(=O)oc2c(OC)c1OC
REMARK SMILES IDX 3 1 15 2 12 3 11 4 5 5 4 6 6 7 7 8 8 9 9 10 10 11 2 12 1 13
REMARK SMILES IDX 16 14 17 15 13 16 14 17
REMARK H PARENT
REMARK Flexibility Score: inf
ROOT
ATOM      1  C   UNL     1       4.509  30.121   1.600  1.00  0.00     0.165 A 
ATOM      2  C   UNL     1       3.768  29.350   0.691  1.00  0.00     0.207 A 
ATOM      3  C   UNL     1       4.433  28.571  -0.296  1.00  0.00     0.208 A 
ATOM      4  C   UNL     1       5.851  28.587  -0.344  1.00  0.00     0.184 A 
ATOM      5  C   UNL     1       6.579  29.370   0.579  1.00  0.00     0.025 A 
ATOM      6  C   UNL     1       5.911  30.128   1.541  1.00  0.00     0.062 A 
ATOM      7  C   UNL     1       7.977  29.370   0.511  1.00  0.00     0.020 A 
ATOM      8  C   UNL     1       8.617  28.604  -0.459  1.00  0.00     0.094 A 
ATOM      9  C   UNL     1       7.841  27.853  -1.341  1.00  0.00     0.336 A 
ATOM     10  O   UNL     1       8.396  27.152  -2.228  1.00  0.00    -0.246 OA
ATOM     11  O   UNL     1       6.514  27.872  -1.253  1.00  0.00    -0.419 OA
ENDROOT
BRANCH   1  12
ATOM     12  O   UNL     1       3.807  30.874   2.557  1.00  0.00    -0.493 OA
ATOM     13  C   UNL     1       3.643  32.287   2.515  1.00  0.00     0.278 C 
ENDBRANCH   1  12
BRANCH   2  14
ATOM     14  O   UNL     1       2.366  29.407   0.829  1.00  0.00    -0.490 OA
ATOM     15  C   UNL     1       1.527  28.446   1.461  1.00  0.00     0.278 C 
ENDBRANCH   2  14
BRANCH   3  16
ATOM     16  O   UNL     1       3.656  27.810  -1.191  1.00  0.00    -0.490 OA
ATOM     17  C   UNL     1       3.076  28.252  -2.414  1.00  0.00     0.278 C 
ENDBRANCH   3  16
TORSDOF 3
ENDMDL
