MODEL 1
REMARK VINA RESULT:    28.200      0.000      0.000
REMARK INTER + INTRA:          70.343
REMARK INTER:                  71.062
REMARK INTRA:                  -0.719
REMARK UNBOUND:                -0.719
REMARK SMILES CCCCCCCCCCCCCCCCCCCCCCCCCCCC(=O)[O-]
REMARK SMILES IDX 15 1 16 2 17 3 18 4 19 5 20 6 21 7 22 8 23 9 24 10 25 11
REMARK SMILES IDX 26 12 27 13 28 14 29 15 30 16 14 17 13 18 12 19 11 20 10 21
REMARK SMILES IDX 9 22 8 23 7 24 6 25 5 26 4 27 3 28 2 29 1 30
REMARK H PARENT
REMARK Flexibility Score: inf
ROOT
ATOM      1  C   UNL     1      -8.591  13.761 -20.691  1.00  0.00     0.000 C 
ENDROOT
BRANCH   1   2
ATOM      2  C   UNL     1      -9.511  13.335 -19.537  1.00  0.00     0.000 C 
BRANCH   2   3
ATOM      3  C   UNL     1      -8.923  13.678 -18.158  1.00  0.00     0.000 C 
BRANCH   3   4
ATOM      4  C   UNL     1      -9.509  14.977 -17.574  1.00  0.00     0.000 C 
BRANCH   4   5
ATOM      5  C   UNL     1      -9.339  16.219 -18.472  1.00  0.00     0.000 C 
BRANCH   5   6
ATOM      6  C   UNL     1     -10.457  17.277 -18.348  1.00  0.00     0.000 C 
BRANCH   6   7
ATOM      7  C   UNL     1     -10.255  18.309 -17.222  1.00  0.00     0.000 C 
BRANCH   7   8
ATOM      8  C   UNL     1      -9.016  19.192 -17.434  1.00  0.00     0.000 C 
BRANCH   8   9
ATOM      9  C   UNL     1      -8.132  19.208 -16.177  1.00  0.00     0.000 C 
BRANCH   9  10
ATOM     10  C   UNL     1      -6.687  19.655 -16.461  1.00  0.00     0.000 C 
BRANCH  10  11
ATOM     11  C   UNL     1      -6.247  20.940 -15.736  1.00  0.00     0.000 C 
BRANCH  11  12
ATOM     12  C   UNL     1      -6.487  20.888 -14.220  1.00  0.00     0.006 C 
BRANCH  12  13
ATOM     13  C   UNL     1      -5.966  19.572 -13.631  1.00  0.00     0.053 C 
BRANCH  13  14
ATOM     14  C   UNL     1      -7.055  18.855 -12.897  1.00  0.00     0.041 C 
ATOM     15  O   UNL     1      -6.776  18.096 -11.932  1.00  0.00    -0.550 OA
ATOM     16  O   UNL     1      -8.383  19.051 -13.256  1.00  0.00    -0.550 OA
ENDBRANCH  13  14
ENDBRANCH  12  13
ENDBRANCH  11  12
ENDBRANCH  10  11
ENDBRANCH   9  10
ENDBRANCH   8   9
ENDBRANCH   7   8
ENDBRANCH   6   7
ENDBRANCH   5   6
ENDBRANCH   4   5
ENDBRANCH   3   4
ENDBRANCH   2   3
ENDBRANCH   1   2
BRANCH   1  17
ATOM     17  C   UNL     1      -8.504  12.696 -21.801  1.00  0.00     0.000 C 
BRANCH  17  18
ATOM     18  C   UNL     1      -7.047  12.370 -22.188  1.00  0.00     0.000 C 
BRANCH  18  19
ATOM     19  C   UNL     1      -6.811  12.276 -23.710  1.00  0.00     0.000 C 
BRANCH  19  20
ATOM     20  C   UNL     1      -5.622  11.395 -24.130  1.00  0.00     0.000 C 
BRANCH  20  21
ATOM     21  C   UNL     1      -6.063  10.056 -24.743  1.00  0.00     0.000 C 
BRANCH  21  22
ATOM     22  C   UNL     1      -4.893   9.362 -25.450  1.00  0.00    -0.000 C 
BRANCH  22  23
ATOM     23  C   UNL     1      -3.988   8.646 -24.436  1.00  0.00    -0.000 C 
BRANCH  23  24
ATOM     24  C   UNL     1      -2.534   9.166 -24.469  1.00  0.00    -0.000 C 
BRANCH  24  25
ATOM     25  C   UNL     1      -1.528   8.221 -23.790  1.00  0.00    -0.000 C 
BRANCH  25  26
ATOM     26  C   UNL     1      -0.920   8.762 -22.482  1.00  0.00    -0.000 C 
BRANCH  26  27
ATOM     27  C   UNL     1      -0.960   7.787 -21.288  1.00  0.00    -0.000 C 
BRANCH  27  28
ATOM     28  C   UNL     1      -2.366   7.315 -20.873  1.00  0.00    -0.000 C 
BRANCH  28  29
ATOM     29  C   UNL     1      -2.683   7.603 -19.397  1.00  0.00    -0.003 C 
ATOM     30  C   UNL     1      -4.179   7.817 -19.189  1.00  0.00     0.004 C 
ENDBRANCH  28  29
ENDBRANCH  27  28
ENDBRANCH  26  27
ENDBRANCH  25  26
ENDBRANCH  24  25
ENDBRANCH  23  24
ENDBRANCH  22  23
ENDBRANCH  21  22
ENDBRANCH  20  21
ENDBRANCH  19  20
ENDBRANCH  18  19
ENDBRANCH  17  18
ENDBRANCH   1  17
TORSDOF 26
ENDMDL
MODEL 2
REMARK VINA RESULT:    28.224      0.959      2.109
REMARK INTER + INTRA:          70.403
REMARK INTER:                  71.338
REMARK INTRA:                  -0.935
REMARK UNBOUND:                -0.719
REMARK SMILES CCCCCCCCCCCCCCCCCCCCCCCCCCCC(=O)[O-]
REMARK SMILES IDX 15 1 16 2 17 3 18 4 19 5 20 6 21 7 22 8 23 9 24 10 25 11
REMARK SMILES IDX 26 12 27 13 28 14 29 15 30 16 14 17 13 18 12 19 11 20 10 21
REMARK SMILES IDX 9 22 8 23 7 24 6 25 5 26 4 27 3 28 2 29 1 30
REMARK H PARENT
REMARK Flexibility Score: inf
ROOT
ATOM      1  C   UNL     1      -7.360  12.982 -22.126  1.00  0.00     0.000 C 
ENDROOT
BRANCH   1   2
ATOM      2  C   UNL     1      -8.583  12.761 -21.223  1.00  0.00     0.000 C 
BRANCH   2   3
ATOM      3  C   UNL     1      -8.845  13.951 -20.286  1.00  0.00     0.000 C 
BRANCH   3   4
ATOM      4  C   UNL     1      -8.378  13.681 -18.844  1.00  0.00     0.000 C 
BRANCH   4   5
ATOM      5  C   UNL     1      -9.518  13.519 -17.818  1.00  0.00     0.000 C 
BRANCH   5   6
ATOM      6  C   UNL     1      -9.846  14.784 -16.996  1.00  0.00     0.000 C 
BRANCH   6   7
ATOM      7  C   UNL     1      -9.113  16.062 -17.446  1.00  0.00     0.000 C 
BRANCH   7   8
ATOM      8  C   UNL     1      -9.996  16.992 -18.290  1.00  0.00     0.000 C 
BRANCH   8   9
ATOM      9  C   UNL     1     -10.627  18.089 -17.418  1.00  0.00     0.000 C 
BRANCH   9  10
ATOM     10  C   UNL     1      -9.681  19.276 -17.164  1.00  0.00     0.000 C 
BRANCH  10  11
ATOM     11  C   UNL     1      -8.198  18.903 -16.989  1.00  0.00     0.000 C 
BRANCH  11  12
ATOM     12  C   UNL     1      -7.458  19.824 -16.007  1.00  0.00     0.006 C 
BRANCH  12  13
ATOM     13  C   UNL     1      -6.378  19.049 -15.243  1.00  0.00     0.053 C 
BRANCH  13  14
ATOM     14  C   UNL     1      -6.108  19.690 -13.918  1.00  0.00     0.041 C 
ATOM     15  O   UNL     1      -5.843  20.919 -13.850  1.00  0.00    -0.550 OA
ATOM     16  O   UNL     1      -6.179  18.937 -12.753  1.00  0.00    -0.550 OA
ENDBRANCH  13  14
ENDBRANCH  12  13
ENDBRANCH  11  12
ENDBRANCH  10  11
ENDBRANCH   9  10
ENDBRANCH   8   9
ENDBRANCH   7   8
ENDBRANCH   6   7
ENDBRANCH   5   6
ENDBRANCH   4   5
ENDBRANCH   3   4
ENDBRANCH   2   3
ENDBRANCH   1   2
BRANCH   1  17
ATOM     17  C   UNL     1      -7.557  12.402 -23.540  1.00  0.00     0.000 C 
BRANCH  17  18
ATOM     18  C   UNL     1      -6.217  12.108 -24.245  1.00  0.00     0.000 C 
BRANCH  18  19
ATOM     19  C   UNL     1      -5.515  10.828 -23.744  1.00  0.00     0.000 C 
BRANCH  19  20
ATOM     20  C   UNL     1      -5.910   9.538 -24.483  1.00  0.00     0.000 C 
BRANCH  20  21
ATOM     21  C   UNL     1      -4.825   9.058 -25.460  1.00  0.00     0.000 C 
BRANCH  21  22
ATOM     22  C   UNL     1      -3.433   9.508 -25.002  1.00  0.00    -0.000 C 
BRANCH  22  23
ATOM     23  C   UNL     1      -2.727   8.392 -24.217  1.00  0.00    -0.000 C 
BRANCH  23  24
ATOM     24  C   UNL     1      -1.204   8.621 -24.101  1.00  0.00    -0.000 C 
BRANCH  24  25
ATOM     25  C   UNL     1      -0.820   9.667 -23.040  1.00  0.00    -0.000 C 
BRANCH  25  26
ATOM     26  C   UNL     1      -0.856   9.154 -21.589  1.00  0.00    -0.000 C 
BRANCH  26  27
ATOM     27  C   UNL     1      -1.117   7.641 -21.436  1.00  0.00    -0.000 C 
BRANCH  27  28
ATOM     28  C   UNL     1      -2.455   7.271 -20.770  1.00  0.00    -0.000 C 
BRANCH  28  29
ATOM     29  C   UNL     1      -2.660   7.959 -19.412  1.00  0.00    -0.003 C 
ATOM     30  C   UNL     1      -4.088   7.767 -18.909  1.00  0.00     0.004 C 
ENDBRANCH  28  29
ENDBRANCH  27  28
ENDBRANCH  26  27
ENDBRANCH  25  26
ENDBRANCH  24  25
ENDBRANCH  23  24
ENDBRANCH  22  23
ENDBRANCH  21  22
ENDBRANCH  20  21
ENDBRANCH  19  20
ENDBRANCH  18  19
ENDBRANCH  17  18
ENDBRANCH   1  17
TORSDOF 26
ENDMDL
MODEL 3
REMARK VINA RESULT:    28.380      4.442     11.212
REMARK INTER + INTRA:          70.797
REMARK INTER:                  72.684
REMARK INTRA:                  -1.887
REMARK UNBOUND:                -0.719
REMARK SMILES CCCCCCCCCCCCCCCCCCCCCCCCCCCC(=O)[O-]
REMARK SMILES IDX 15 1 16 2 17 3 18 4 19 5 20 6 21 7 22 8 23 9 24 10 25 11
REMARK SMILES IDX 26 12 27 13 28 14 29 15 30 16 14 17 13 18 12 19 11 20 10 21
REMARK SMILES IDX 9 22 8 23 7 24 6 25 5 26 4 27 3 28 2 29 1 30
REMARK H PARENT
REMARK Flexibility Score: inf
ROOT
ATOM      1  C   UNL     1      -8.221  13.667 -18.794  1.00  0.00     0.000 C 
ENDROOT
BRANCH   1   2
ATOM      2  C   UNL     1      -9.043  14.129 -20.007  1.00  0.00     0.000 C 
BRANCH   2   3
ATOM      3  C   UNL     1      -8.279  13.968 -21.332  1.00  0.00     0.000 C 
BRANCH   3   4
ATOM      4  C   UNL     1      -7.693  12.555 -21.505  1.00  0.00     0.000 C 
BRANCH   4   5
ATOM      5  C   UNL     1      -7.575  12.083 -22.969  1.00  0.00     0.000 C 
BRANCH   5   6
ATOM      6  C   UNL     1      -6.333  12.597 -23.727  1.00  0.00     0.000 C 
BRANCH   6   7
ATOM      7  C   UNL     1      -6.350  12.350 -25.248  1.00  0.00     0.000 C 
BRANCH   7   8
ATOM      8  C   UNL     1      -6.467  13.646 -26.063  1.00  0.00     0.000 C 
BRANCH   8   9
ATOM      9  C   UNL     1      -5.078  14.179 -26.448  1.00  0.00     0.000 C 
BRANCH   9  10
ATOM     10  C   UNL     1      -4.636  15.381 -25.594  1.00  0.00     0.000 C 
BRANCH  10  11
ATOM     11  C   UNL     1      -4.645  16.737 -26.322  1.00  0.00     0.000 C 
BRANCH  11  12
ATOM     12  C   UNL     1      -5.964  17.504 -26.148  1.00  0.00     0.006 C 
BRANCH  12  13
ATOM     13  C   UNL     1      -5.757  18.758 -25.290  1.00  0.00     0.053 C 
BRANCH  13  14
ATOM     14  C   UNL     1      -5.831  18.418 -23.835  1.00  0.00     0.041 C 
ATOM     15  O   UNL     1      -4.883  17.805 -23.278  1.00  0.00    -0.550 OA
ATOM     16  O   UNL     1      -6.934  18.805 -23.085  1.00  0.00    -0.550 OA
ENDBRANCH  13  14
ENDBRANCH  12  13
ENDBRANCH  11  12
ENDBRANCH  10  11
ENDBRANCH   9  10
ENDBRANCH   8   9
ENDBRANCH   7   8
ENDBRANCH   6   7
ENDBRANCH   5   6
ENDBRANCH   4   5
ENDBRANCH   3   4
ENDBRANCH   2   3
ENDBRANCH   1   2
BRANCH   1  17
ATOM     17  C   UNL     1      -8.482  14.526 -17.541  1.00  0.00     0.000 C 
BRANCH  17  18
ATOM     18  C   UNL     1      -9.974  14.878 -17.374  1.00  0.00     0.000 C 
BRANCH  18  19
ATOM     19  C   UNL     1     -10.228  16.349 -16.980  1.00  0.00     0.000 C 
BRANCH  19  20
ATOM     20  C   UNL     1      -9.798  17.387 -18.030  1.00  0.00     0.000 C 
BRANCH  20  21
ATOM     21  C   UNL     1      -9.475  18.757 -17.413  1.00  0.00     0.000 C 
BRANCH  21  22
ATOM     22  C   UNL     1      -8.363  18.641 -16.363  1.00  0.00    -0.000 C 
BRANCH  22  23
ATOM     23  C   UNL     1      -7.129  19.456 -16.782  1.00  0.00    -0.000 C 
BRANCH  23  24
ATOM     24  C   UNL     1      -6.612  20.370 -15.649  1.00  0.00    -0.000 C 
BRANCH  24  25
ATOM     25  C   UNL     1      -5.911  19.603 -14.514  1.00  0.00    -0.000 C 
BRANCH  25  26
ATOM     26  C   UNL     1      -6.591  19.729 -13.138  1.00  0.00    -0.000 C 
BRANCH  26  27
ATOM     27  C   UNL     1      -7.467  18.527 -12.728  1.00  0.00    -0.000 C 
BRANCH  27  28
ATOM     28  C   UNL     1      -8.987  18.771 -12.789  1.00  0.00    -0.000 C 
BRANCH  28  29
ATOM     29  C   UNL     1      -9.355  20.079 -13.507  1.00  0.00    -0.003 C 
ATOM     30  C   UNL     1     -10.735  20.570 -13.080  1.00  0.00     0.004 C 
ENDBRANCH  28  29
ENDBRANCH  27  28
ENDBRANCH  26  27
ENDBRANCH  25  26
ENDBRANCH  24  25
ENDBRANCH  23  24
ENDBRANCH  22  23
ENDBRANCH  21  22
ENDBRANCH  20  21
ENDBRANCH  19  20
ENDBRANCH  18  19
ENDBRANCH  17  18
ENDBRANCH   1  17
TORSDOF 26
ENDMDL
MODEL 4
REMARK VINA RESULT:    28.558      4.403     12.457
REMARK INTER + INTRA:          71.246
REMARK INTER:                  72.037
REMARK INTRA:                  -0.791
REMARK UNBOUND:                -0.719
REMARK SMILES CCCCCCCCCCCCCCCCCCCCCCCCCCCC(=O)[O-]
REMARK SMILES IDX 15 1 16 2 17 3 18 4 19 5 20 6 21 7 22 8 23 9 24 10 25 11
REMARK SMILES IDX 26 12 27 13 28 14 29 15 30 16 14 17 13 18 12 19 11 20 10 21
REMARK SMILES IDX 9 22 8 23 7 24 6 25 5 26 4 27 3 28 2 29 1 30
REMARK H PARENT
REMARK Flexibility Score: inf
ROOT
ATOM      1  C   UNL     1      -8.686  13.671 -18.384  1.00  0.00     0.000 C 
ENDROOT
BRANCH   1   2
ATOM      2  C   UNL     1      -8.707  14.393 -19.740  1.00  0.00     0.000 C 
BRANCH   2   3
ATOM      3  C   UNL     1      -9.133  13.469 -20.893  1.00  0.00     0.000 C 
BRANCH   3   4
ATOM      4  C   UNL     1      -7.964  12.627 -21.435  1.00  0.00     0.000 C 
BRANCH   4   5
ATOM      5  C   UNL     1      -7.532  12.975 -22.874  1.00  0.00     0.000 C 
BRANCH   5   6
ATOM      6  C   UNL     1      -6.418  12.082 -23.460  1.00  0.00     0.000 C 
BRANCH   6   7
ATOM      7  C   UNL     1      -6.474  11.889 -24.988  1.00  0.00     0.000 C 
BRANCH   7   8
ATOM      8  C   UNL     1      -6.399  13.214 -25.761  1.00  0.00     0.000 C 
BRANCH   8   9
ATOM      9  C   UNL     1      -5.159  14.021 -25.345  1.00  0.00     0.000 C 
BRANCH   9  10
ATOM     10  C   UNL     1      -4.694  15.012 -26.427  1.00  0.00     0.000 C 
BRANCH  10  11
ATOM     11  C   UNL     1      -5.691  16.139 -26.752  1.00  0.00     0.000 C 
BRANCH  11  12
ATOM     12  C   UNL     1      -5.237  17.512 -26.234  1.00  0.00     0.006 C 
BRANCH  12  13
ATOM     13  C   UNL     1      -4.495  17.372 -24.899  1.00  0.00     0.053 C 
BRANCH  13  14
ATOM     14  C   UNL     1      -5.233  18.085 -23.810  1.00  0.00     0.041 C 
ATOM     15  O   UNL     1      -4.961  17.852 -22.603  1.00  0.00    -0.550 OA
ATOM     16  O   UNL     1      -6.200  19.030 -24.127  1.00  0.00    -0.550 OA
ENDBRANCH  13  14
ENDBRANCH  12  13
ENDBRANCH  11  12
ENDBRANCH  10  11
ENDBRANCH   9  10
ENDBRANCH   8   9
ENDBRANCH   7   8
ENDBRANCH   6   7
ENDBRANCH   5   6
ENDBRANCH   4   5
ENDBRANCH   3   4
ENDBRANCH   2   3
ENDBRANCH   1   2
BRANCH   1  17
ATOM     17  C   UNL     1      -9.884  14.052 -17.493  1.00  0.00     0.000 C 
BRANCH  17  18
ATOM     18  C   UNL     1      -9.708  15.438 -16.838  1.00  0.00     0.000 C 
BRANCH  18  19
ATOM     19  C   UNL     1      -9.374  16.563 -17.840  1.00  0.00     0.000 C 
BRANCH  19  20
ATOM     20  C   UNL     1     -10.412  17.695 -17.917  1.00  0.00     0.000 C 
BRANCH  20  21
ATOM     21  C   UNL     1     -10.003  18.933 -17.105  1.00  0.00     0.000 C 
BRANCH  21  22
ATOM     22  C   UNL     1      -8.488  18.959 -16.864  1.00  0.00    -0.000 C 
BRANCH  22  23
ATOM     23  C   UNL     1      -8.171  18.836 -15.366  1.00  0.00    -0.000 C 
BRANCH  23  24
ATOM     24  C   UNL     1      -8.499  20.127 -14.583  1.00  0.00    -0.000 C 
BRANCH  24  25
ATOM     25  C   UNL     1      -9.742  20.000 -13.684  1.00  0.00    -0.000 C 
BRANCH  25  26
ATOM     26  C   UNL     1     -10.325  21.341 -13.202  1.00  0.00    -0.000 C 
BRANCH  26  27
ATOM     27  C   UNL     1      -9.436  22.123 -12.213  1.00  0.00    -0.000 C 
BRANCH  27  28
ATOM     28  C   UNL     1     -10.175  23.157 -11.342  1.00  0.00    -0.000 C 
BRANCH  28  29
ATOM     29  C   UNL     1      -9.510  24.542 -11.362  1.00  0.00    -0.003 C 
ATOM     30  C   UNL     1     -10.111  25.455 -10.297  1.00  0.00     0.004 C 
ENDBRANCH  28  29
ENDBRANCH  27  28
ENDBRANCH  26  27
ENDBRANCH  25  26
ENDBRANCH  24  25
ENDBRANCH  23  24
ENDBRANCH  22  23
ENDBRANCH  21  22
ENDBRANCH  20  21
ENDBRANCH  19  20
ENDBRANCH  18  19
ENDBRANCH  17  18
ENDBRANCH   1  17
TORSDOF 26
ENDMDL
MODEL 5
REMARK VINA RESULT:    28.864      5.447     13.912
REMARK INTER + INTRA:          72.018
REMARK INTER:                  73.108
REMARK INTRA:                  -1.090
REMARK UNBOUND:                -0.719
REMARK SMILES CCCCCCCCCCCCCCCCCCCCCCCCCCCC(=O)[O-]
REMARK SMILES IDX 15 1 16 2 17 3 18 4 19 5 20 6 21 7 22 8 23 9 24 10 25 11
REMARK SMILES IDX 26 12 27 13 28 14 29 15 30 16 14 17 13 18 12 19 11 20 10 21
REMARK SMILES IDX 9 22 8 23 7 24 6 25 5 26 4 27 3 28 2 29 1 30
REMARK H PARENT
REMARK Flexibility Score: inf
ROOT
ATOM      1  C   UNL     1      -8.138  14.074 -19.009  1.00  0.00     0.000 C 
ENDROOT
BRANCH   1   2
ATOM      2  C   UNL     1      -8.630  14.379 -20.432  1.00  0.00     0.000 C 
BRANCH   2   3
ATOM      3  C   UNL     1      -9.069  13.113 -21.187  1.00  0.00     0.000 C 
BRANCH   3   4
ATOM      4  C   UNL     1      -7.883  12.196 -21.539  1.00  0.00     0.000 C 
BRANCH   4   5
ATOM      5  C   UNL     1      -7.056  12.654 -22.758  1.00  0.00     0.000 C 
BRANCH   5   6
ATOM      6  C   UNL     1      -7.239  11.802 -24.033  1.00  0.00     0.000 C 
BRANCH   6   7
ATOM      7  C   UNL     1      -5.949  11.548 -24.836  1.00  0.00     0.000 C 
BRANCH   7   8
ATOM      8  C   UNL     1      -5.524  10.072 -24.833  1.00  0.00     0.000 C 
BRANCH   8   9
ATOM      9  C   UNL     1      -4.166   9.895 -24.134  1.00  0.00     0.000 C 
BRANCH   9  10
ATOM     10  C   UNL     1      -3.398   8.651 -24.617  1.00  0.00     0.000 C 
BRANCH  10  11
ATOM     11  C   UNL     1      -2.010   8.454 -23.981  1.00  0.00     0.000 C 
BRANCH  11  12
ATOM     12  C   UNL     1      -0.999   9.533 -24.396  1.00  0.00     0.006 C 
BRANCH  12  13
ATOM     13  C   UNL     1      -0.787   9.526 -25.914  1.00  0.00     0.053 C 
BRANCH  13  14
ATOM     14  C   UNL     1       0.481   8.812 -26.266  1.00  0.00     0.041 C 
ATOM     15  O   UNL     1       1.372   9.396 -26.936  1.00  0.00    -0.550 OA
ATOM     16  O   UNL     1       0.692   7.511 -25.826  1.00  0.00    -0.550 OA
ENDBRANCH  13  14
ENDBRANCH  12  13
ENDBRANCH  11  12
ENDBRANCH  10  11
ENDBRANCH   9  10
ENDBRANCH   8   9
ENDBRANCH   7   8
ENDBRANCH   6   7
ENDBRANCH   5   6
ENDBRANCH   4   5
ENDBRANCH   3   4
ENDBRANCH   2   3
ENDBRANCH   1   2
BRANCH   1  17
ATOM     17  C   UNL     1      -9.274  13.612 -18.077  1.00  0.00     0.000 C 
BRANCH  17  18
ATOM     18  C   UNL     1      -9.979  14.794 -17.381  1.00  0.00     0.000 C 
BRANCH  18  19
ATOM     19  C   UNL     1      -9.212  16.129 -17.489  1.00  0.00     0.000 C 
BRANCH  19  20
ATOM     20  C   UNL     1     -10.024  17.302 -18.062  1.00  0.00     0.000 C 
BRANCH  20  21
ATOM     21  C   UNL     1     -10.156  18.472 -17.074  1.00  0.00     0.000 C 
BRANCH  21  22
ATOM     22  C   UNL     1      -8.813  19.187 -16.884  1.00  0.00    -0.000 C 
BRANCH  22  23
ATOM     23  C   UNL     1      -8.254  18.936 -15.476  1.00  0.00    -0.000 C 
BRANCH  23  24
ATOM     24  C   UNL     1      -8.614  20.065 -14.485  1.00  0.00    -0.000 C 
BRANCH  24  25
ATOM     25  C   UNL     1     -10.128  20.209 -14.244  1.00  0.00    -0.000 C 
BRANCH  25  26
ATOM     26  C   UNL     1     -10.508  20.749 -12.852  1.00  0.00    -0.000 C 
BRANCH  26  27
ATOM     27  C   UNL     1     -10.569  22.286 -12.741  1.00  0.00    -0.000 C 
BRANCH  27  28
ATOM     28  C   UNL     1      -9.320  22.950 -12.134  1.00  0.00    -0.000 C 
BRANCH  28  29
ATOM     29  C   UNL     1      -9.648  23.873 -10.949  1.00  0.00    -0.003 C 
ATOM     30  C   UNL     1      -9.740  25.329 -11.397  1.00  0.00     0.004 C 
ENDBRANCH  28  29
ENDBRANCH  27  28
ENDBRANCH  26  27
ENDBRANCH  25  26
ENDBRANCH  24  25
ENDBRANCH  23  24
ENDBRANCH  22  23
ENDBRANCH  21  22
ENDBRANCH  20  21
ENDBRANCH  19  20
ENDBRANCH  18  19
ENDBRANCH  17  18
ENDBRANCH   1  17
TORSDOF 26
ENDMDL
MODEL 6
REMARK VINA RESULT:    29.009      4.352     10.943
REMARK INTER + INTRA:          72.382
REMARK INTER:                  73.159
REMARK INTRA:                  -0.776
REMARK UNBOUND:                -0.719
REMARK SMILES CCCCCCCCCCCCCCCCCCCCCCCCCCCC(=O)[O-]
REMARK SMILES IDX 15 1 16 2 17 3 18 4 19 5 20 6 21 7 22 8 23 9 24 10 25 11
REMARK SMILES IDX 26 12 27 13 28 14 29 15 30 16 14 17 13 18 12 19 11 20 10 21
REMARK SMILES IDX 9 22 8 23 7 24 6 25 5 26 4 27 3 28 2 29 1 30
REMARK H PARENT
REMARK Flexibility Score: inf
ROOT
ATOM      1  C   UNL     1      -8.628  14.288 -20.602  1.00  0.00     0.000 C 
ENDROOT
BRANCH   1   2
ATOM      2  C   UNL     1      -9.404  13.087 -21.165  1.00  0.00     0.000 C 
BRANCH   2   3
ATOM      3  C   UNL     1      -8.487  12.066 -21.858  1.00  0.00     0.000 C 
BRANCH   3   4
ATOM      4  C   UNL     1      -7.139  12.677 -22.282  1.00  0.00     0.000 C 
BRANCH   4   5
ATOM      5  C   UNL     1      -6.466  11.979 -23.482  1.00  0.00     0.000 C 
BRANCH   5   6
ATOM      6  C   UNL     1      -6.707  12.649 -24.852  1.00  0.00     0.000 C 
BRANCH   6   7
ATOM      7  C   UNL     1      -5.459  13.282 -25.496  1.00  0.00     0.000 C 
BRANCH   7   8
ATOM      8  C   UNL     1      -5.803  14.310 -26.583  1.00  0.00     0.000 C 
BRANCH   8   9
ATOM      9  C   UNL     1      -4.769  15.446 -26.611  1.00  0.00     0.000 C 
BRANCH   9  10
ATOM     10  C   UNL     1      -5.385  16.814 -26.955  1.00  0.00     0.000 C 
BRANCH  10  11
ATOM     11  C   UNL     1      -5.351  17.850 -25.817  1.00  0.00     0.000 C 
BRANCH  11  12
ATOM     12  C   UNL     1      -4.608  17.349 -24.569  1.00  0.00     0.006 C 
BRANCH  12  13
ATOM     13  C   UNL     1      -5.322  17.804 -23.291  1.00  0.00     0.053 C 
BRANCH  13  14
ATOM     14  C   UNL     1      -6.342  18.853 -23.602  1.00  0.00     0.041 C 
ATOM     15  O   UNL     1      -7.432  18.883 -22.974  1.00  0.00    -0.550 OA
ATOM     16  O   UNL     1      -6.076  19.819 -24.566  1.00  0.00    -0.550 OA
ENDBRANCH  13  14
ENDBRANCH  12  13
ENDBRANCH  11  12
ENDBRANCH  10  11
ENDBRANCH   9  10
ENDBRANCH   8   9
ENDBRANCH   7   8
ENDBRANCH   6   7
ENDBRANCH   5   6
ENDBRANCH   4   5
ENDBRANCH   3   4
ENDBRANCH   2   3
ENDBRANCH   1   2
BRANCH   1  17
ATOM     17  C   UNL     1      -8.160  14.062 -19.152  1.00  0.00     0.000 C 
BRANCH  17  18
ATOM     18  C   UNL     1      -9.282  13.497 -18.256  1.00  0.00     0.000 C 
BRANCH  18  19
ATOM     19  C   UNL     1      -9.576  14.356 -17.008  1.00  0.00     0.000 C 
BRANCH  19  20
ATOM     20  C   UNL     1      -9.205  15.842 -17.139  1.00  0.00     0.000 C 
BRANCH  20  21
ATOM     21  C   UNL     1     -10.293  16.666 -17.845  1.00  0.00     0.000 C 
BRANCH  21  22
ATOM     22  C   UNL     1      -9.838  18.116 -18.054  1.00  0.00    -0.000 C 
BRANCH  22  23
ATOM     23  C   UNL     1      -9.256  18.699 -16.758  1.00  0.00    -0.000 C 
BRANCH  23  24
ATOM     24  C   UNL     1      -7.862  19.331 -16.967  1.00  0.00    -0.000 C 
BRANCH  24  25
ATOM     25  C   UNL     1      -6.909  19.123 -15.776  1.00  0.00    -0.000 C 
BRANCH  25  26
ATOM     26  C   UNL     1      -7.124  20.099 -14.604  1.00  0.00    -0.000 C 
BRANCH  26  27
ATOM     27  C   UNL     1      -8.063  19.589 -13.491  1.00  0.00    -0.000 C 
BRANCH  27  28
ATOM     28  C   UNL     1      -9.546  19.966 -13.660  1.00  0.00    -0.000 C 
BRANCH  28  29
ATOM     29  C   UNL     1     -10.386  19.667 -12.408  1.00  0.00    -0.003 C 
ATOM     30  C   UNL     1      -9.971  18.344 -11.771  1.00  0.00     0.004 C 
ENDBRANCH  28  29
ENDBRANCH  27  28
ENDBRANCH  26  27
ENDBRANCH  25  26
ENDBRANCH  24  25
ENDBRANCH  23  24
ENDBRANCH  22  23
ENDBRANCH  21  22
ENDBRANCH  20  21
ENDBRANCH  19  20
ENDBRANCH  18  19
ENDBRANCH  17  18
ENDBRANCH   1  17
TORSDOF 26
ENDMDL
MODEL 7
REMARK VINA RESULT:    29.169      3.713     12.000
REMARK INTER + INTRA:          72.785
REMARK INTER:                  74.401
REMARK INTRA:                  -1.616
REMARK UNBOUND:                -0.719
REMARK SMILES CCCCCCCCCCCCCCCCCCCCCCCCCCCC(=O)[O-]
REMARK SMILES IDX 15 1 16 2 17 3 18 4 19 5 20 6 21 7 22 8 23 9 24 10 25 11
REMARK SMILES IDX 26 12 27 13 28 14 29 15 30 16 14 17 13 18 12 19 11 20 10 21
REMARK SMILES IDX 9 22 8 23 7 24 6 25 5 26 4 27 3 28 2 29 1 30
REMARK H PARENT
REMARK Flexibility Score: inf
ROOT
ATOM      1  C   UNL     1      -7.763  12.912 -21.478  1.00  0.00     0.000 C 
ENDROOT
BRANCH   1   2
ATOM      2  C   UNL     1      -7.648  12.847 -23.009  1.00  0.00     0.000 C 
BRANCH   2   3
ATOM      3  C   UNL     1      -6.240  12.445 -23.478  1.00  0.00     0.000 C 
BRANCH   3   4
ATOM      4  C   UNL     1      -6.097  10.926 -23.678  1.00  0.00     0.000 C 
BRANCH   4   5
ATOM      5  C   UNL     1      -5.799  10.493 -25.128  1.00  0.00     0.000 C 
BRANCH   5   6
ATOM      6  C   UNL     1      -5.377   9.018 -25.301  1.00  0.00     0.000 C 
BRANCH   6   7
ATOM      7  C   UNL     1      -3.863   8.789 -25.465  1.00  0.00     0.000 C 
BRANCH   7   8
ATOM      8  C   UNL     1      -3.152   8.508 -24.133  1.00  0.00     0.000 C 
BRANCH   8   9
ATOM      9  C   UNL     1      -1.744   9.123 -24.123  1.00  0.00     0.000 C 
BRANCH   9  10
ATOM     10  C   UNL     1      -0.805   8.463 -23.097  1.00  0.00     0.000 C 
BRANCH  10  11
ATOM     11  C   UNL     1      -0.488   9.318 -21.857  1.00  0.00     0.000 C 
BRANCH  11  12
ATOM     12  C   UNL     1      -0.941   8.664 -20.543  1.00  0.00     0.006 C 
BRANCH  12  13
ATOM     13  C   UNL     1      -1.587   7.299 -20.808  1.00  0.00     0.053 C 
BRANCH  13  14
ATOM     14  C   UNL     1      -3.031   7.315 -20.415  1.00  0.00     0.041 C 
ATOM     15  O   UNL     1      -3.367   7.660 -19.253  1.00  0.00    -0.550 OA
ATOM     16  O   UNL     1      -4.008   6.978 -21.343  1.00  0.00    -0.550 OA
ENDBRANCH  13  14
ENDBRANCH  12  13
ENDBRANCH  11  12
ENDBRANCH  10  11
ENDBRANCH   9  10
ENDBRANCH   8   9
ENDBRANCH   7   8
ENDBRANCH   6   7
ENDBRANCH   5   6
ENDBRANCH   4   5
ENDBRANCH   3   4
ENDBRANCH   2   3
ENDBRANCH   1   2
BRANCH   1  17
ATOM     17  C   UNL     1      -9.225  12.876 -20.993  1.00  0.00     0.000 C 
BRANCH  17  18
ATOM     18  C   UNL     1      -9.346  13.142 -19.479  1.00  0.00     0.000 C 
BRANCH  18  19
ATOM     19  C   UNL     1      -8.336  14.179 -18.944  1.00  0.00     0.000 C 
BRANCH  19  20
ATOM     20  C   UNL     1      -8.518  14.563 -17.466  1.00  0.00     0.000 C 
BRANCH  20  21
ATOM     21  C   UNL     1      -9.807  15.361 -17.214  1.00  0.00     0.000 C 
BRANCH  21  22
ATOM     22  C   UNL     1      -9.961  16.496 -18.234  1.00  0.00    -0.000 C 
BRANCH  22  23
ATOM     23  C   UNL     1      -9.916  17.866 -17.539  1.00  0.00    -0.000 C 
BRANCH  23  24
ATOM     24  C   UNL     1      -8.491  18.252 -17.084  1.00  0.00    -0.000 C 
BRANCH  24  25
ATOM     25  C   UNL     1      -8.444  19.544 -16.248  1.00  0.00    -0.000 C 
BRANCH  25  26
ATOM     26  C   UNL     1      -7.065  20.229 -16.202  1.00  0.00    -0.000 C 
BRANCH  26  27
ATOM     27  C   UNL     1      -6.541  20.550 -14.787  1.00  0.00    -0.000 C 
BRANCH  27  28
ATOM     28  C   UNL     1      -5.752  19.417 -14.106  1.00  0.00    -0.000 C 
BRANCH  28  29
ATOM     29  C   UNL     1      -6.187  19.173 -12.653  1.00  0.00    -0.003 C 
ATOM     30  C   UNL     1      -7.356  18.194 -12.587  1.00  0.00     0.004 C 
ENDBRANCH  28  29
ENDBRANCH  27  28
ENDBRANCH  26  27
ENDBRANCH  25  26
ENDBRANCH  24  25
ENDBRANCH  23  24
ENDBRANCH  22  23
ENDBRANCH  21  22
ENDBRANCH  20  21
ENDBRANCH  19  20
ENDBRANCH  18  19
ENDBRANCH  17  18
ENDBRANCH   1  17
TORSDOF 26
ENDMDL
MODEL 8
REMARK VINA RESULT:    29.207      1.553      3.829
REMARK INTER + INTRA:          72.882
REMARK INTER:                  73.727
REMARK INTRA:                  -0.844
REMARK UNBOUND:                -0.719
REMARK SMILES CCCCCCCCCCCCCCCCCCCCCCCCCCCC(=O)[O-]
REMARK SMILES IDX 15 1 16 2 17 3 18 4 19 5 20 6 21 7 22 8 23 9 24 10 25 11
REMARK SMILES IDX 26 12 27 13 28 14 29 15 30 16 14 17 13 18 12 19 11 20 10 21
REMARK SMILES IDX 9 22 8 23 7 24 6 25 5 26 4 27 3 28 2 29 1 30
REMARK H PARENT
REMARK Flexibility Score: inf
ROOT
ATOM      1  C   UNL     1      -6.327  12.479 -23.262  1.00  0.00     0.000 C 
ENDROOT
BRANCH   1   2
ATOM      2  C   UNL     1      -7.722  12.955 -22.827  1.00  0.00     0.000 C 
BRANCH   2   3
ATOM      3  C   UNL     1      -8.104  12.456 -21.424  1.00  0.00     0.000 C 
BRANCH   3   4
ATOM      4  C   UNL     1      -9.186  13.329 -20.762  1.00  0.00     0.000 C 
BRANCH   4   5
ATOM      5  C   UNL     1      -8.647  14.381 -19.772  1.00  0.00     0.000 C 
BRANCH   5   6
ATOM      6  C   UNL     1      -8.359  13.857 -18.349  1.00  0.00     0.000 C 
BRANCH   6   7
ATOM      7  C   UNL     1      -9.502  14.061 -17.336  1.00  0.00     0.000 C 
BRANCH   7   8
ATOM      8  C   UNL     1     -10.302  15.347 -17.588  1.00  0.00     0.000 C 
BRANCH   8   9
ATOM      9  C   UNL     1      -9.379  16.487 -18.047  1.00  0.00     0.000 C 
BRANCH   9  10
ATOM     10  C   UNL     1      -9.738  17.844 -17.418  1.00  0.00     0.000 C 
BRANCH  10  11
ATOM     11  C   UNL     1      -8.536  18.700 -16.980  1.00  0.00     0.000 C 
BRANCH  11  12
ATOM     12  C   UNL     1      -8.873  19.673 -15.840  1.00  0.00     0.006 C 
BRANCH  12  13
ATOM     13  C   UNL     1      -8.013  19.383 -14.604  1.00  0.00     0.053 C 
BRANCH  13  14
ATOM     14  C   UNL     1      -6.703  20.099 -14.695  1.00  0.00     0.041 C 
ATOM     15  O   UNL     1      -5.755  19.786 -13.928  1.00  0.00    -0.550 OA
ATOM     16  O   UNL     1      -6.517  21.092 -15.648  1.00  0.00    -0.550 OA
ENDBRANCH  13  14
ENDBRANCH  12  13
ENDBRANCH  11  12
ENDBRANCH  10  11
ENDBRANCH   9  10
ENDBRANCH   8   9
ENDBRANCH   7   8
ENDBRANCH   6   7
ENDBRANCH   5   6
ENDBRANCH   4   5
ENDBRANCH   3   4
ENDBRANCH   2   3
ENDBRANCH   1   2
BRANCH   1  17
ATOM     17  C   UNL     1      -6.249  12.178 -24.770  1.00  0.00     0.000 C 
BRANCH  17  18
ATOM     18  C   UNL     1      -6.136  10.667 -25.062  1.00  0.00     0.000 C 
BRANCH  18  19
ATOM     19  C   UNL     1      -5.508   9.855 -23.910  1.00  0.00     0.000 C 
BRANCH  19  20
ATOM     20  C   UNL     1      -5.473   8.333 -24.131  1.00  0.00     0.000 C 
BRANCH  20  21
ATOM     21  C   UNL     1      -5.143   7.555 -22.847  1.00  0.00     0.000 C 
BRANCH  21  22
ATOM     22  C   UNL     1      -3.632   7.334 -22.709  1.00  0.00    -0.000 C 
BRANCH  22  23
ATOM     23  C   UNL     1      -3.236   7.164 -21.234  1.00  0.00    -0.000 C 
BRANCH  23  24
ATOM     24  C   UNL     1      -1.790   7.626 -20.952  1.00  0.00    -0.000 C 
BRANCH  24  25
ATOM     25  C   UNL     1      -0.973   7.898 -22.228  1.00  0.00    -0.000 C 
BRANCH  25  26
ATOM     26  C   UNL     1      -0.638   9.382 -22.473  1.00  0.00    -0.000 C 
BRANCH  26  27
ATOM     27  C   UNL     1      -1.332  10.016 -23.696  1.00  0.00    -0.000 C 
BRANCH  27  28
ATOM     28  C   UNL     1      -1.321   9.158 -24.975  1.00  0.00    -0.000 C 
BRANCH  28  29
ATOM     29  C   UNL     1       0.020   8.443 -25.204  1.00  0.00    -0.003 C 
ATOM     30  C   UNL     1       0.686   8.925 -26.490  1.00  0.00     0.004 C 
ENDBRANCH  28  29
ENDBRANCH  27  28
ENDBRANCH  26  27
ENDBRANCH  25  26
ENDBRANCH  24  25
ENDBRANCH  23  24
ENDBRANCH  22  23
ENDBRANCH  21  22
ENDBRANCH  20  21
ENDBRANCH  19  20
ENDBRANCH  18  19
ENDBRANCH  17  18
ENDBRANCH   1  17
TORSDOF 26
ENDMDL
MODEL 9
REMARK VINA RESULT:    29.355      5.600     11.126
REMARK INTER + INTRA:          73.253
REMARK INTER:                  73.566
REMARK INTRA:                  -0.313
REMARK UNBOUND:                -0.719
REMARK SMILES CCCCCCCCCCCCCCCCCCCCCCCCCCCC(=O)[O-]
REMARK SMILES IDX 15 1 16 2 17 3 18 4 19 5 20 6 21 7 22 8 23 9 24 10 25 11
REMARK SMILES IDX 26 12 27 13 28 14 29 15 30 16 14 17 13 18 12 19 11 20 10 21
REMARK SMILES IDX 9 22 8 23 7 24 6 25 5 26 4 27 3 28 2 29 1 30
REMARK H PARENT
REMARK Flexibility Score: inf
ROOT
ATOM      1  C   UNL     1      -8.959  15.096 -17.912  1.00  0.00     0.000 C 
ENDROOT
BRANCH   1   2
ATOM      2  C   UNL     1      -8.502  13.917 -18.785  1.00  0.00     0.000 C 
BRANCH   2   3
ATOM      3  C   UNL     1      -8.996  14.032 -20.237  1.00  0.00     0.000 C 
BRANCH   3   4
ATOM      4  C   UNL     1      -8.536  12.852 -21.111  1.00  0.00     0.000 C 
BRANCH   4   5
ATOM      5  C   UNL     1      -7.412  13.192 -22.111  1.00  0.00     0.000 C 
BRANCH   5   6
ATOM      6  C   UNL     1      -7.196  12.154 -23.234  1.00  0.00     0.000 C 
BRANCH   6   7
ATOM      7  C   UNL     1      -6.041  12.474 -24.202  1.00  0.00     0.000 C 
BRANCH   7   8
ATOM      8  C   UNL     1      -6.527  13.022 -25.552  1.00  0.00     0.000 C 
BRANCH   8   9
ATOM      9  C   UNL     1      -5.359  13.613 -26.357  1.00  0.00     0.000 C 
BRANCH   9  10
ATOM     10  C   UNL     1      -4.939  15.012 -25.870  1.00  0.00     0.000 C 
BRANCH  10  11
ATOM     11  C   UNL     1      -5.460  16.184 -26.721  1.00  0.00     0.000 C 
BRANCH  11  12
ATOM     12  C   UNL     1      -4.857  17.537 -26.315  1.00  0.00     0.006 C 
BRANCH  12  13
ATOM     13  C   UNL     1      -5.919  18.433 -25.667  1.00  0.00     0.053 C 
BRANCH  13  14
ATOM     14  C   UNL     1      -5.711  18.512 -24.188  1.00  0.00     0.041 C 
ATOM     15  O   UNL     1      -4.868  17.765 -23.626  1.00  0.00    -0.550 OA
ATOM     16  O   UNL     1      -6.426  19.432 -23.432  1.00  0.00    -0.550 OA
ENDBRANCH  13  14
ENDBRANCH  12  13
ENDBRANCH  11  12
ENDBRANCH  10  11
ENDBRANCH   9  10
ENDBRANCH   8   9
ENDBRANCH   7   8
ENDBRANCH   6   7
ENDBRANCH   5   6
ENDBRANCH   4   5
ENDBRANCH   3   4
ENDBRANCH   2   3
ENDBRANCH   1   2
BRANCH   1  17
ATOM     17  C   UNL     1     -10.255  14.790 -17.137  1.00  0.00     0.000 C 
BRANCH  17  18
ATOM     18  C   UNL     1     -10.205  13.419 -16.431  1.00  0.00     0.000 C 
BRANCH  18  19
ATOM     19  C   UNL     1     -10.062  13.512 -14.897  1.00  0.00     0.000 C 
BRANCH  19  20
ATOM     20  C   UNL     1      -9.071  12.514 -14.275  1.00  0.00     0.000 C 
BRANCH  20  21
ATOM     21  C   UNL     1      -9.304  12.307 -12.770  1.00  0.00     0.000 C 
BRANCH  21  22
ATOM     22  C   UNL     1      -9.367  13.649 -12.032  1.00  0.00    -0.000 C 
BRANCH  22  23
ATOM     23  C   UNL     1     -10.771  14.265 -12.136  1.00  0.00    -0.000 C 
BRANCH  23  24
ATOM     24  C   UNL     1     -11.822  13.486 -11.316  1.00  0.00    -0.000 C 
BRANCH  24  25
ATOM     25  C   UNL     1     -11.222  12.701 -10.136  1.00  0.00    -0.000 C 
BRANCH  25  26
ATOM     26  C   UNL     1     -11.699  11.241 -10.026  1.00  0.00    -0.000 C 
BRANCH  26  27
ATOM     27  C   UNL     1     -12.007  10.550 -11.370  1.00  0.00    -0.000 C 
BRANCH  27  28
ATOM     28  C   UNL     1     -11.152   9.307 -11.681  1.00  0.00    -0.000 C 
BRANCH  28  29
ATOM     29  C   UNL     1     -10.743   9.216 -13.159  1.00  0.00    -0.003 C 
ATOM     30  C   UNL     1      -9.242   9.435 -13.328  1.00  0.00     0.004 C 
ENDBRANCH  28  29
ENDBRANCH  27  28
ENDBRANCH  26  27
ENDBRANCH  25  26
ENDBRANCH  24  25
ENDBRANCH  23  24
ENDBRANCH  22  23
ENDBRANCH  21  22
ENDBRANCH  20  21
ENDBRANCH  19  20
ENDBRANCH  18  19
ENDBRANCH  17  18
ENDBRANCH   1  17
TORSDOF 26
ENDMDL
