MODEL 1
REMARK VINA RESULT:    -7.808      0.000      0.000
REMARK INTER + INTRA:          -9.831
REMARK INTER:                  -9.634
REMARK INTRA:                  -0.197
REMARK UNBOUND:                -0.197
REMARK SMILES Oc1cc(O)c2cc(O)c(-c3cc(O)c(O)c(O)c3)[o+]c2c1
REMARK SMILES IDX 10 1 20 2 21 3 22 4 2 5 3 6 4 7 6 8 7 9 8 10 11 11 12 12
REMARK SMILES IDX 13 13 19 14 15 15 17 16 14 17 16 19 18 21 9 23 1 25 5 27
REMARK H PARENT 14 18 16 20 18 22 9 24 1 26 5 28
REMARK Flexibility Score: inf
ROOT
ATOM      1  C   UNL     1      -3.485  21.028  48.080  1.00  0.00     0.402 A 
ATOM      2  O   UNL     1      -3.497  21.692  49.233  1.00  0.00    -0.202 OA
ATOM      3  C   UNL     1      -4.059  22.887  49.381  1.00  0.00     0.368 A 
ATOM      4  C   UNL     1      -4.025  23.504  50.634  1.00  0.00     0.162 A 
ATOM      5  C   UNL     1      -4.611  24.759  50.819  1.00  0.00     0.128 A 
ATOM      6  C   UNL     1      -5.235  25.400  49.746  1.00  0.00     0.093 A 
ATOM      7  C   UNL     1      -5.283  24.803  48.480  1.00  0.00     0.136 A 
ATOM      8  C   UNL     1      -4.687  23.530  48.287  1.00  0.00     0.125 A 
ATOM      9  C   UNL     1      -4.676  22.862  47.051  1.00  0.00     0.078 A 
ATOM     10  C   UNL     1      -4.065  21.610  46.937  1.00  0.00     0.223 A 
ENDROOT
BRANCH   1  11
ATOM     11  C   UNL     1      -2.836  19.698  48.044  1.00  0.00     0.091 A 
ATOM     12  C   UNL     1      -1.711  19.453  47.236  1.00  0.00     0.068 A 
ATOM     13  C   UNL     1      -1.126  18.180  47.200  1.00  0.00     0.162 A 
ATOM     14  C   UNL     1      -3.384  18.642  48.788  1.00  0.00     0.068 A 
ATOM     15  C   UNL     1      -1.666  17.137  47.962  1.00  0.00     0.200 A 
ATOM     16  C   UNL     1      -2.801  17.368  48.757  1.00  0.00     0.162 A 
BRANCH  13  17
ATOM     17  O   UNL     1      -0.007  17.943  46.402  1.00  0.00    -0.504 OA
ATOM     18  H   UNL     1       0.764  17.371  46.725  1.00  0.00     0.293 HD
ENDBRANCH  13  17
BRANCH  15  19
ATOM     19  O   UNL     1      -1.067  15.878  47.916  1.00  0.00    -0.502 OA
ATOM     20  H   UNL     1      -0.090  15.755  47.676  1.00  0.00     0.293 HD
ENDBRANCH  15  19
BRANCH  16  21
ATOM     21  O   UNL     1      -3.347  16.331  49.511  1.00  0.00    -0.504 OA
ATOM     22  H   UNL     1      -2.774  15.578  49.874  1.00  0.00     0.293 HD
ENDBRANCH  16  21
ENDBRANCH   1  11
BRANCH  10  23
ATOM     23  O   UNL     1      -4.009  20.968  45.699  1.00  0.00    -0.500 OA
ATOM     24  H   UNL     1      -3.209  21.064  45.085  1.00  0.00     0.294 HD
ENDBRANCH  10  23
BRANCH   5  25
ATOM     25  O   UNL     1      -4.579  25.380  52.065  1.00  0.00    -0.507 OA
ATOM     26  H   UNL     1      -5.395  25.407  52.665  1.00  0.00     0.293 HD
ENDBRANCH   5  25
BRANCH   7  27
ATOM     27  O   UNL     1      -5.929  25.508  47.460  1.00  0.00    -0.507 OA
ATOM     28  H   UNL     1      -6.473  26.346  47.602  1.00  0.00     0.293 HD
ENDBRANCH   7  27
TORSDOF 7
ENDMDL
MODEL 2
REMARK VINA RESULT:    -7.745      0.056      1.789
REMARK INTER + INTRA:          -9.754
REMARK INTER:                  -9.546
REMARK INTRA:                  -0.208
REMARK UNBOUND:                -0.197
REMARK SMILES Oc1cc(O)c2cc(O)c(-c3cc(O)c(O)c(O)c3)[o+]c2c1
REMARK SMILES IDX 10 1 20 2 21 3 22 4 2 5 3 6 4 7 6 8 7 9 8 10 11 11 12 12
REMARK SMILES IDX 13 13 19 14 15 15 17 16 14 17 16 19 18 21 9 23 1 25 5 27
REMARK H PARENT 14 18 16 20 18 22 9 24 1 26 5 28
REMARK Flexibility Score: inf
ROOT
ATOM      1  C   UNL     1      -3.541  21.021  48.041  1.00  0.00     0.402 A 
ATOM      2  O   UNL     1      -3.547  21.675  49.200  1.00  0.00    -0.202 OA
ATOM      3  C   UNL     1      -4.087  22.878  49.355  1.00  0.00     0.368 A 
ATOM      4  C   UNL     1      -4.047  23.484  50.615  1.00  0.00     0.162 A 
ATOM      5  C   UNL     1      -4.610  24.749  50.807  1.00  0.00     0.128 A 
ATOM      6  C   UNL     1      -5.216  25.411  49.737  1.00  0.00     0.093 A 
ATOM      7  C   UNL     1      -5.270  24.826  48.466  1.00  0.00     0.136 A 
ATOM      8  C   UNL     1      -4.697  23.543  48.265  1.00  0.00     0.125 A 
ATOM      9  C   UNL     1      -4.692  22.886  47.023  1.00  0.00     0.078 A 
ATOM     10  C   UNL     1      -4.104  21.623  46.900  1.00  0.00     0.223 A 
ENDROOT
BRANCH   1  11
ATOM     11  C   UNL     1      -2.917  19.679  47.997  1.00  0.00     0.091 A 
ATOM     12  C   UNL     1      -3.432  18.607  48.745  1.00  0.00     0.068 A 
ATOM     13  C   UNL     1      -2.812  17.350  48.707  1.00  0.00     0.162 A 
ATOM     14  C   UNL     1      -1.754  19.483  47.236  1.00  0.00     0.068 A 
ATOM     15  C   UNL     1      -1.665  17.157  47.928  1.00  0.00     0.200 A 
ATOM     16  C   UNL     1      -1.132  18.228  47.191  1.00  0.00     0.162 A 
BRANCH  13  17
ATOM     17  O   UNL     1      -3.330  16.288  49.447  1.00  0.00    -0.504 OA
ATOM     18  H   UNL     1      -3.720  15.468  48.997  1.00  0.00     0.293 HD
ENDBRANCH  13  17
BRANCH  15  19
ATOM     19  O   UNL     1      -1.065  15.898  47.899  1.00  0.00    -0.502 OA
ATOM     20  H   UNL     1      -0.510  15.583  47.112  1.00  0.00     0.293 HD
ENDBRANCH  15  19
BRANCH  16  21
ATOM     21  O   UNL     1       0.015  18.043  46.420  1.00  0.00    -0.504 OA
ATOM     22  H   UNL     1       0.590  18.824  46.125  1.00  0.00     0.293 HD
ENDBRANCH  16  21
ENDBRANCH   1  11
BRANCH  10  23
ATOM     23  O   UNL     1      -4.055  20.992  45.657  1.00  0.00    -0.500 OA
ATOM     24  H   UNL     1      -3.310  20.349  45.415  1.00  0.00     0.294 HD
ENDBRANCH  10  23
BRANCH   5  25
ATOM     25  O   UNL     1      -4.573  25.358  52.059  1.00  0.00    -0.507 OA
ATOM     26  H   UNL     1      -4.845  26.326  52.186  1.00  0.00     0.293 HD
ENDBRANCH   5  25
BRANCH   7  27
ATOM     27  O   UNL     1      -5.896  25.552  47.449  1.00  0.00    -0.507 OA
ATOM     28  H   UNL     1      -6.367  25.136  46.659  1.00  0.00     0.293 HD
ENDBRANCH   7  27
TORSDOF 7
ENDMDL
MODEL 3
REMARK VINA RESULT:    -7.725      1.622      6.903
REMARK INTER + INTRA:          -9.729
REMARK INTER:                  -9.395
REMARK INTRA:                  -0.334
REMARK UNBOUND:                -0.197
REMARK SMILES Oc1cc(O)c2cc(O)c(-c3cc(O)c(O)c(O)c3)[o+]c2c1
REMARK SMILES IDX 10 1 20 2 21 3 22 4 2 5 3 6 4 7 6 8 7 9 8 10 11 11 12 12
REMARK SMILES IDX 13 13 19 14 15 15 17 16 14 17 16 19 18 21 9 23 1 25 5 27
REMARK H PARENT 14 18 16 20 18 22 9 24 1 26 5 28
REMARK Flexibility Score: inf
ROOT
ATOM      1  C   UNL     1      -3.983  22.179  48.380  1.00  0.00     0.402 A 
ATOM      2  O   UNL     1      -3.803  21.038  49.041  1.00  0.00    -0.202 OA
ATOM      3  C   UNL     1      -3.592  19.873  48.439  1.00  0.00     0.368 A 
ATOM      4  C   UNL     1      -3.410  18.728  49.220  1.00  0.00     0.162 A 
ATOM      5  C   UNL     1      -3.183  17.489  48.614  1.00  0.00     0.128 A 
ATOM      6  C   UNL     1      -3.136  17.395  47.221  1.00  0.00     0.093 A 
ATOM      7  C   UNL     1      -3.315  18.527  46.416  1.00  0.00     0.136 A 
ATOM      8  C   UNL     1      -3.548  19.786  47.027  1.00  0.00     0.125 A 
ATOM      9  C   UNL     1      -3.751  20.971  46.300  1.00  0.00     0.078 A 
ATOM     10  C   UNL     1      -3.981  22.175  46.973  1.00  0.00     0.223 A 
ENDROOT
BRANCH   1  11
ATOM     11  C   UNL     1      -4.200  23.416  49.164  1.00  0.00     0.091 A 
ATOM     12  C   UNL     1      -3.136  24.072  49.806  1.00  0.00     0.068 A 
ATOM     13  C   UNL     1      -3.366  25.230  50.563  1.00  0.00     0.162 A 
ATOM     14  C   UNL     1      -5.502  23.917  49.318  1.00  0.00     0.068 A 
ATOM     15  C   UNL     1      -4.666  25.735  50.693  1.00  0.00     0.200 A 
ATOM     16  C   UNL     1      -5.738  25.075  50.070  1.00  0.00     0.162 A 
BRANCH  13  17
ATOM     17  O   UNL     1      -2.307  25.880  51.194  1.00  0.00    -0.504 OA
ATOM     18  H   UNL     1      -2.277  26.890  51.275  1.00  0.00     0.293 HD
ENDBRANCH  13  17
BRANCH  15  19
ATOM     19  O   UNL     1      -4.875  26.891  51.447  1.00  0.00    -0.502 OA
ATOM     20  H   UNL     1      -4.933  26.871  52.458  1.00  0.00     0.293 HD
ENDBRANCH  15  19
BRANCH  16  21
ATOM     21  O   UNL     1      -7.034  25.571  50.204  1.00  0.00    -0.504 OA
ATOM     22  H   UNL     1      -7.551  25.929  49.410  1.00  0.00     0.293 HD
ENDBRANCH  16  21
ENDBRANCH   1  11
BRANCH  10  23
ATOM     23  O   UNL     1      -4.232  23.343  46.251  1.00  0.00    -0.500 OA
ATOM     24  H   UNL     1      -4.990  23.402  45.581  1.00  0.00     0.294 HD
ENDBRANCH  10  23
BRANCH   5  25
ATOM     25  O   UNL     1      -3.002  16.344  49.386  1.00  0.00    -0.507 OA
ATOM     26  H   UNL     1      -2.086  15.928  49.510  1.00  0.00     0.293 HD
ENDBRANCH   5  25
BRANCH   7  27
ATOM     27  O   UNL     1      -3.250  18.349  45.031  1.00  0.00    -0.507 OA
ATOM     28  H   UNL     1      -3.183  19.102  44.362  1.00  0.00     0.293 HD
ENDBRANCH   7  27
TORSDOF 7
ENDMDL
MODEL 4
REMARK VINA RESULT:    -7.641      1.570      6.998
REMARK INTER + INTRA:          -9.625
REMARK INTER:                  -9.335
REMARK INTRA:                  -0.290
REMARK UNBOUND:                -0.197
REMARK SMILES Oc1cc(O)c2cc(O)c(-c3cc(O)c(O)c(O)c3)[o+]c2c1
REMARK SMILES IDX 10 1 20 2 21 3 22 4 2 5 3 6 4 7 6 8 7 9 8 10 11 11 12 12
REMARK SMILES IDX 13 13 19 14 15 15 17 16 14 17 16 19 18 21 9 23 1 25 5 27
REMARK H PARENT 14 18 16 20 18 22 9 24 1 26 5 28
REMARK Flexibility Score: inf
ROOT
ATOM      1  C   UNL     1      -3.953  21.974  48.397  1.00  0.00     0.402 A 
ATOM      2  O   UNL     1      -3.748  20.808  49.004  1.00  0.00    -0.202 OA
ATOM      3  C   UNL     1      -3.530  19.673  48.349  1.00  0.00     0.368 A 
ATOM      4  C   UNL     1      -3.321  18.498  49.076  1.00  0.00     0.162 A 
ATOM      5  C   UNL     1      -3.086  17.290  48.413  1.00  0.00     0.128 A 
ATOM      6  C   UNL     1      -3.058  17.257  47.017  1.00  0.00     0.093 A 
ATOM      7  C   UNL     1      -3.264  18.421  46.265  1.00  0.00     0.136 A 
ATOM      8  C   UNL     1      -3.505  19.649  46.934  1.00  0.00     0.125 A 
ATOM      9  C   UNL     1      -3.735  20.862  46.263  1.00  0.00     0.078 A 
ATOM     10  C   UNL     1      -3.971  22.032  46.991  1.00  0.00     0.223 A 
ENDROOT
BRANCH   1  11
ATOM     11  C   UNL     1      -4.175  23.173  49.237  1.00  0.00     0.091 A 
ATOM     12  C   UNL     1      -5.442  23.773  49.337  1.00  0.00     0.068 A 
ATOM     13  C   UNL     1      -5.626  24.920  50.121  1.00  0.00     0.162 A 
ATOM     14  C   UNL     1      -3.089  23.758  49.906  1.00  0.00     0.068 A 
ATOM     15  C   UNL     1      -4.541  25.485  50.803  1.00  0.00     0.200 A 
ATOM     16  C   UNL     1      -3.267  24.904  50.693  1.00  0.00     0.162 A 
BRANCH  13  17
ATOM     17  O   UNL     1      -6.886  25.509  50.222  1.00  0.00    -0.504 OA
ATOM     18  H   UNL     1      -7.345  25.920  49.417  1.00  0.00     0.293 HD
ENDBRANCH  13  17
BRANCH  15  19
ATOM     19  O   UNL     1      -4.745  26.625  51.581  1.00  0.00    -0.502 OA
ATOM     20  H   UNL     1      -3.986  27.248  51.833  1.00  0.00     0.293 HD
ENDBRANCH  15  19
BRANCH  16  21
ATOM     21  O   UNL     1      -2.182  25.467  51.364  1.00  0.00    -0.504 OA
ATOM     22  H   UNL     1      -2.093  26.470  51.482  1.00  0.00     0.293 HD
ENDBRANCH  16  21
ENDBRANCH   1  11
BRANCH  10  23
ATOM     23  O   UNL     1      -4.248  23.226  46.325  1.00  0.00    -0.500 OA
ATOM     24  H   UNL     1      -3.657  23.569  45.576  1.00  0.00     0.294 HD
ENDBRANCH  10  23
BRANCH   5  25
ATOM     25  O   UNL     1      -2.878  16.115  49.131  1.00  0.00    -0.507 OA
ATOM     26  H   UNL     1      -2.619  16.131  50.111  1.00  0.00     0.293 HD
ENDBRANCH   5  25
BRANCH   7  27
ATOM     27  O   UNL     1      -3.217  18.305  44.873  1.00  0.00    -0.507 OA
ATOM     28  H   UNL     1      -3.518  17.491  44.358  1.00  0.00     0.293 HD
ENDBRANCH   7  27
TORSDOF 7
ENDMDL
MODEL 5
REMARK VINA RESULT:    -7.562      1.100      2.154
REMARK INTER + INTRA:          -9.528
REMARK INTER:                  -9.147
REMARK INTRA:                  -0.381
REMARK UNBOUND:                -0.197
REMARK SMILES Oc1cc(O)c2cc(O)c(-c3cc(O)c(O)c(O)c3)[o+]c2c1
REMARK SMILES IDX 10 1 20 2 21 3 22 4 2 5 3 6 4 7 6 8 7 9 8 10 11 11 12 12
REMARK SMILES IDX 13 13 19 14 15 15 17 16 14 17 16 19 18 21 9 23 1 25 5 27
REMARK H PARENT 14 18 16 20 18 22 9 24 1 26 5 28
REMARK Flexibility Score: inf
ROOT
ATOM      1  C   UNL     1      -3.654  21.468  48.854  1.00  0.00     0.402 A 
ATOM      2  O   UNL     1      -3.150  22.213  49.835  1.00  0.00    -0.202 OA
ATOM      3  C   UNL     1      -3.672  23.376  50.209  1.00  0.00     0.368 A 
ATOM      4  C   UNL     1      -3.073  24.085  51.254  1.00  0.00     0.162 A 
ATOM      5  C   UNL     1      -3.602  25.310  51.670  1.00  0.00     0.128 A 
ATOM      6  C   UNL     1      -4.736  25.828  51.040  1.00  0.00     0.093 A 
ATOM      7  C   UNL     1      -5.355  25.137  49.990  1.00  0.00     0.136 A 
ATOM      8  C   UNL     1      -4.820  23.894  49.563  1.00  0.00     0.125 A 
ATOM      9  C   UNL     1      -5.366  23.139  48.511  1.00  0.00     0.078 A 
ATOM     10  C   UNL     1      -4.779  21.925  48.143  1.00  0.00     0.223 A 
ENDROOT
BRANCH   1  11
ATOM     11  C   UNL     1      -2.989  20.184  48.536  1.00  0.00     0.091 A 
ATOM     12  C   UNL     1      -3.433  18.972  49.093  1.00  0.00     0.068 A 
ATOM     13  C   UNL     1      -2.774  17.771  48.797  1.00  0.00     0.162 A 
ATOM     14  C   UNL     1      -1.857  20.180  47.707  1.00  0.00     0.068 A 
ATOM     15  C   UNL     1      -1.659  17.772  47.951  1.00  0.00     0.200 A 
ATOM     16  C   UNL     1      -1.196  18.981  47.405  1.00  0.00     0.162 A 
BRANCH  13  17
ATOM     17  O   UNL     1      -3.221  16.570  49.347  1.00  0.00    -0.504 OA
ATOM     18  H   UNL     1      -4.193  16.430  49.596  1.00  0.00     0.293 HD
ENDBRANCH  13  17
BRANCH  15  19
ATOM     19  O   UNL     1      -1.019  16.565  47.665  1.00  0.00    -0.502 OA
ATOM     20  H   UNL     1      -1.323  15.959  46.912  1.00  0.00     0.293 HD
ENDBRANCH  15  19
BRANCH  16  21
ATOM     21  O   UNL     1      -0.081  18.988  46.569  1.00  0.00    -0.504 OA
ATOM     22  H   UNL     1       0.435  18.141  46.363  1.00  0.00     0.293 HD
ENDBRANCH  16  21
ENDBRANCH   1  11
BRANCH  10  23
ATOM     23  O   UNL     1      -5.291  21.199  47.066  1.00  0.00    -0.500 OA
ATOM     24  H   UNL     1      -5.406  20.193  47.109  1.00  0.00     0.294 HD
ENDBRANCH  10  23
BRANCH   5  25
ATOM     25  O   UNL     1      -3.010  26.022  52.710  1.00  0.00    -0.507 OA
ATOM     26  H   UNL     1      -3.482  26.798  53.158  1.00  0.00     0.293 HD
ENDBRANCH   5  25
BRANCH   7  27
ATOM     27  O   UNL     1      -6.487  25.721  49.414  1.00  0.00    -0.507 OA
ATOM     28  H   UNL     1      -6.501  26.635  48.986  1.00  0.00     0.293 HD
ENDBRANCH   7  27
TORSDOF 7
ENDMDL
MODEL 6
REMARK VINA RESULT:    -7.270      1.702      2.239
REMARK INTER + INTRA:          -9.168
REMARK INTER:                  -9.051
REMARK INTRA:                  -0.117
REMARK UNBOUND:                -0.197
REMARK SMILES Oc1cc(O)c2cc(O)c(-c3cc(O)c(O)c(O)c3)[o+]c2c1
REMARK SMILES IDX 10 1 20 2 21 3 22 4 2 5 3 6 4 7 6 8 7 9 8 10 11 11 12 12
REMARK SMILES IDX 13 13 19 14 15 15 17 16 14 17 16 19 18 21 9 23 1 25 5 27
REMARK H PARENT 14 18 16 20 18 22 9 24 1 26 5 28
REMARK Flexibility Score: inf
ROOT
ATOM      1  C   UNL     1      -4.001  21.844  48.865  1.00  0.00     0.402 A 
ATOM      2  O   UNL     1      -3.164  22.291  49.798  1.00  0.00    -0.202 OA
ATOM      3  C   UNL     1      -3.334  23.442  50.439  1.00  0.00     0.368 A 
ATOM      4  C   UNL     1      -2.401  23.826  51.407  1.00  0.00     0.162 A 
ATOM      5  C   UNL     1      -2.556  25.030  52.099  1.00  0.00     0.128 A 
ATOM      6  C   UNL     1      -3.650  25.854  51.824  1.00  0.00     0.093 A 
ATOM      7  C   UNL     1      -4.599  25.493  50.859  1.00  0.00     0.136 A 
ATOM      8  C   UNL     1      -4.444  24.272  50.152  1.00  0.00     0.125 A 
ATOM      9  C   UNL     1      -5.338  23.835  49.160  1.00  0.00     0.078 A 
ATOM     10  C   UNL     1      -5.116  22.622  48.502  1.00  0.00     0.223 A 
ENDROOT
BRANCH   1  11
ATOM     11  C   UNL     1      -3.709  20.540  48.229  1.00  0.00     0.091 A 
ATOM     12  C   UNL     1      -3.586  20.416  46.834  1.00  0.00     0.068 A 
ATOM     13  C   UNL     1      -3.331  19.168  46.250  1.00  0.00     0.162 A 
ATOM     14  C   UNL     1      -3.608  19.389  49.027  1.00  0.00     0.068 A 
ATOM     15  C   UNL     1      -3.210  18.029  47.055  1.00  0.00     0.200 A 
ATOM     16  C   UNL     1      -3.352  18.139  48.449  1.00  0.00     0.162 A 
BRANCH  13  17
ATOM     17  O   UNL     1      -3.204  19.051  44.866  1.00  0.00    -0.504 OA
ATOM     18  H   UNL     1      -3.722  19.650  44.234  1.00  0.00     0.293 HD
ENDBRANCH  13  17
BRANCH  15  19
ATOM     19  O   UNL     1      -2.953  16.795  46.456  1.00  0.00    -0.502 OA
ATOM     20  H   UNL     1      -3.130  15.918  46.930  1.00  0.00     0.293 HD
ENDBRANCH  15  19
BRANCH  16  21
ATOM     21  O   UNL     1      -3.240  17.006  49.253  1.00  0.00    -0.504 OA
ATOM     22  H   UNL     1      -2.338  16.654  49.553  1.00  0.00     0.293 HD
ENDBRANCH  16  21
ENDBRANCH   1  11
BRANCH  10  23
ATOM     23  O   UNL     1      -5.976  22.212  47.482  1.00  0.00    -0.500 OA
ATOM     24  H   UNL     1      -6.665  21.483  47.627  1.00  0.00     0.294 HD
ENDBRANCH  10  23
BRANCH   5  25
ATOM     25  O   UNL     1      -1.630  25.418  53.063  1.00  0.00    -0.507 OA
ATOM     26  H   UNL     1      -1.863  25.429  54.049  1.00  0.00     0.293 HD
ENDBRANCH   5  25
BRANCH   7  27
ATOM     27  O   UNL     1      -5.666  26.370  50.645  1.00  0.00    -0.507 OA
ATOM     28  H   UNL     1      -5.569  27.308  50.284  1.00  0.00     0.293 HD
ENDBRANCH   7  27
TORSDOF 7
ENDMDL
MODEL 7
REMARK VINA RESULT:    -6.972      1.798      7.008
REMARK INTER + INTRA:          -8.799
REMARK INTER:                  -8.420
REMARK INTRA:                  -0.379
REMARK UNBOUND:                -0.197
REMARK SMILES Oc1cc(O)c2cc(O)c(-c3cc(O)c(O)c(O)c3)[o+]c2c1
REMARK SMILES IDX 10 1 20 2 21 3 22 4 2 5 3 6 4 7 6 8 7 9 8 10 11 11 12 12
REMARK SMILES IDX 13 13 19 14 15 15 17 16 14 17 16 19 18 21 9 23 1 25 5 27
REMARK H PARENT 14 18 16 20 18 22 9 24 1 26 5 28
REMARK Flexibility Score: inf
ROOT
ATOM      1  C   UNL     1      -3.286  20.708  47.820  1.00  0.00     0.402 A 
ATOM      2  O   UNL     1      -3.029  19.957  48.889  1.00  0.00    -0.202 OA
ATOM      3  C   UNL     1      -2.751  18.660  48.819  1.00  0.00     0.368 A 
ATOM      4  C   UNL     1      -2.491  17.956  49.998  1.00  0.00     0.162 A 
ATOM      5  C   UNL     1      -2.192  16.591  49.954  1.00  0.00     0.128 A 
ATOM      6  C   UNL     1      -2.152  15.928  48.726  1.00  0.00     0.093 A 
ATOM      7  C   UNL     1      -2.408  16.610  47.530  1.00  0.00     0.136 A 
ATOM      8  C   UNL     1      -2.714  17.995  47.570  1.00  0.00     0.125 A 
ATOM      9  C   UNL     1      -2.998  18.757  46.424  1.00  0.00     0.078 A 
ATOM     10  C   UNL     1      -3.296  20.118  46.543  1.00  0.00     0.223 A 
ENDROOT
BRANCH   1  11
ATOM     11  C   UNL     1      -3.572  22.146  48.027  1.00  0.00     0.091 A 
ATOM     12  C   UNL     1      -4.879  22.605  48.271  1.00  0.00     0.068 A 
ATOM     13  C   UNL     1      -5.131  23.972  48.441  1.00  0.00     0.162 A 
ATOM     14  C   UNL     1      -2.530  23.080  47.922  1.00  0.00     0.068 A 
ATOM     15  C   UNL     1      -4.082  24.896  48.357  1.00  0.00     0.200 A 
ATOM     16  C   UNL     1      -2.776  24.448  48.094  1.00  0.00     0.162 A 
BRANCH  13  17
ATOM     17  O   UNL     1      -6.428  24.423  48.689  1.00  0.00    -0.504 OA
ATOM     18  H   UNL     1      -6.917  24.185  49.543  1.00  0.00     0.293 HD
ENDBRANCH  13  17
BRANCH  15  19
ATOM     19  O   UNL     1      -4.353  26.253  48.533  1.00  0.00    -0.502 OA
ATOM     20  H   UNL     1      -4.327  26.694  49.444  1.00  0.00     0.293 HD
ENDBRANCH  15  19
BRANCH  16  21
ATOM     21  O   UNL     1      -1.730  25.364  48.001  1.00  0.00    -0.504 OA
ATOM     22  H   UNL     1      -1.649  26.002  47.218  1.00  0.00     0.293 HD
ENDBRANCH  16  21
ENDBRANCH   1  11
BRANCH  10  23
ATOM     23  O   UNL     1      -3.626  20.863  45.410  1.00  0.00    -0.500 OA
ATOM     24  H   UNL     1      -3.002  21.569  45.036  1.00  0.00     0.294 HD
ENDBRANCH  10  23
BRANCH   5  25
ATOM     25  O   UNL     1      -1.933  15.884  51.125  1.00  0.00    -0.507 OA
ATOM     26  H   UNL     1      -1.868  14.873  51.131  1.00  0.00     0.293 HD
ENDBRANCH   5  25
BRANCH   7  27
ATOM     27  O   UNL     1      -2.345  15.875  46.343  1.00  0.00    -0.507 OA
ATOM     28  H   UNL     1      -2.872  15.033  46.165  1.00  0.00     0.293 HD
ENDBRANCH   7  27
TORSDOF 7
ENDMDL
MODEL 8
REMARK VINA RESULT:    -6.911      1.823      3.383
REMARK INTER + INTRA:          -8.724
REMARK INTER:                  -8.461
REMARK INTRA:                  -0.263
REMARK UNBOUND:                -0.197
REMARK SMILES Oc1cc(O)c2cc(O)c(-c3cc(O)c(O)c(O)c3)[o+]c2c1
REMARK SMILES IDX 10 1 20 2 21 3 22 4 2 5 3 6 4 7 6 8 7 9 8 10 11 11 12 12
REMARK SMILES IDX 13 13 19 14 15 15 17 16 14 17 16 19 18 21 9 23 1 25 5 27
REMARK H PARENT 14 18 16 20 18 22 9 24 1 26 5 28
REMARK Flexibility Score: inf
ROOT
ATOM      1  C   UNL     1      -3.983  22.369  49.018  1.00  0.00     0.402 A 
ATOM      2  O   UNL     1      -5.108  23.052  48.818  1.00  0.00    -0.202 OA
ATOM      3  C   UNL     1      -5.337  24.249  49.345  1.00  0.00     0.368 A 
ATOM      4  C   UNL     1      -6.549  24.891  49.074  1.00  0.00     0.162 A 
ATOM      5  C   UNL     1      -6.816  26.152  49.613  1.00  0.00     0.128 A 
ATOM      6  C   UNL     1      -5.867  26.776  50.426  1.00  0.00     0.093 A 
ATOM      7  C   UNL     1      -4.645  26.155  50.713  1.00  0.00     0.136 A 
ATOM      8  C   UNL     1      -4.371  24.873  50.170  1.00  0.00     0.125 A 
ATOM      9  C   UNL     1      -3.179  24.169  50.414  1.00  0.00     0.078 A 
ATOM     10  C   UNL     1      -2.982  22.907  49.848  1.00  0.00     0.223 A 
ENDROOT
BRANCH   1  11
ATOM     11  C   UNL     1      -3.841  21.047  48.367  1.00  0.00     0.091 A 
ATOM     12  C   UNL     1      -3.832  19.858  49.116  1.00  0.00     0.068 A 
ATOM     13  C   UNL     1      -3.674  18.618  48.481  1.00  0.00     0.162 A 
ATOM     14  C   UNL     1      -3.654  20.978  46.977  1.00  0.00     0.068 A 
ATOM     15  C   UNL     1      -3.510  18.557  47.092  1.00  0.00     0.200 A 
ATOM     16  C   UNL     1      -3.497  19.742  46.337  1.00  0.00     0.162 A 
BRANCH  13  17
ATOM     17  O   UNL     1      -3.672  17.441  49.229  1.00  0.00    -0.504 OA
ATOM     18  H   UNL     1      -3.897  17.439  50.217  1.00  0.00     0.293 HD
ENDBRANCH  13  17
BRANCH  15  19
ATOM     19  O   UNL     1      -3.357  17.313  46.478  1.00  0.00    -0.502 OA
ATOM     20  H   UNL     1      -2.881  17.206  45.591  1.00  0.00     0.293 HD
ENDBRANCH  15  19
BRANCH  16  21
ATOM     21  O   UNL     1      -3.327  19.686  44.955  1.00  0.00    -0.504 OA
ATOM     22  H   UNL     1      -3.692  20.408  44.344  1.00  0.00     0.293 HD
ENDBRANCH  16  21
ENDBRANCH   1  11
BRANCH  10  23
ATOM     23  O   UNL     1      -1.820  22.186  50.130  1.00  0.00    -0.500 OA
ATOM     24  H   UNL     1      -1.669  21.254  49.763  1.00  0.00     0.294 HD
ENDBRANCH  10  23
BRANCH   5  25
ATOM     25  O   UNL     1      -8.022  26.796  49.347  1.00  0.00    -0.507 OA
ATOM     26  H   UNL     1      -8.819  26.296  48.973  1.00  0.00     0.293 HD
ENDBRANCH   5  25
BRANCH   7  27
ATOM     27  O   UNL     1      -3.748  26.846  51.532  1.00  0.00    -0.507 OA
ATOM     28  H   UNL     1      -3.963  27.177  52.461  1.00  0.00     0.293 HD
ENDBRANCH   7  27
TORSDOF 7
ENDMDL
MODEL 9
REMARK VINA RESULT:    -6.889      1.866      7.610
REMARK INTER + INTRA:          -8.697
REMARK INTER:                  -8.415
REMARK INTRA:                  -0.282
REMARK UNBOUND:                -0.197
REMARK SMILES Oc1cc(O)c2cc(O)c(-c3cc(O)c(O)c(O)c3)[o+]c2c1
REMARK SMILES IDX 10 1 20 2 21 3 22 4 2 5 3 6 4 7 6 8 7 9 8 10 11 11 12 12
REMARK SMILES IDX 13 13 19 14 15 15 17 16 14 17 16 19 18 21 9 23 1 25 5 27
REMARK H PARENT 14 18 16 20 18 22 9 24 1 26 5 28
REMARK Flexibility Score: inf
ROOT
ATOM      1  C   UNL     1      -3.360  21.026  47.454  1.00  0.00     0.402 A 
ATOM      2  O   UNL     1      -3.489  20.287  46.355  1.00  0.00    -0.202 OA
ATOM      3  C   UNL     1      -3.059  19.033  46.266  1.00  0.00     0.368 A 
ATOM      4  C   UNL     1      -3.243  18.334  45.069  1.00  0.00     0.162 A 
ATOM      5  C   UNL     1      -2.803  17.013  44.948  1.00  0.00     0.128 A 
ATOM      6  C   UNL     1      -2.177  16.387  46.028  1.00  0.00     0.093 A 
ATOM      7  C   UNL     1      -1.981  17.065  47.239  1.00  0.00     0.136 A 
ATOM      8  C   UNL     1      -2.423  18.407  47.365  1.00  0.00     0.125 A 
ATOM      9  C   UNL     1      -2.257  19.168  48.534  1.00  0.00     0.078 A 
ATOM     10  C   UNL     1      -2.716  20.488  48.583  1.00  0.00     0.223 A 
ENDROOT
BRANCH   1  11
ATOM     11  C   UNL     1      -3.890  22.409  47.433  1.00  0.00     0.091 A 
ATOM     12  C   UNL     1      -4.986  22.785  48.230  1.00  0.00     0.068 A 
ATOM     13  C   UNL     1      -5.486  24.093  48.178  1.00  0.00     0.162 A 
ATOM     14  C   UNL     1      -3.325  23.352  46.561  1.00  0.00     0.068 A 
ATOM     15  C   UNL     1      -4.902  25.035  47.322  1.00  0.00     0.200 A 
ATOM     16  C   UNL     1      -3.820  24.662  46.507  1.00  0.00     0.162 A 
BRANCH  13  17
ATOM     17  O   UNL     1      -6.570  24.463  48.974  1.00  0.00    -0.504 OA
ATOM     18  H   UNL     1      -7.523  24.395  48.637  1.00  0.00     0.293 HD
ENDBRANCH  13  17
BRANCH  15  19
ATOM     19  O   UNL     1      -5.412  26.333  47.287  1.00  0.00    -0.502 OA
ATOM     20  H   UNL     1      -5.969  26.673  46.512  1.00  0.00     0.293 HD
ENDBRANCH  15  19
BRANCH  16  21
ATOM     21  O   UNL     1      -3.241  25.594  45.647  1.00  0.00    -0.504 OA
ATOM     22  H   UNL     1      -3.303  26.590  45.822  1.00  0.00     0.293 HD
ENDBRANCH  16  21
ENDBRANCH   1  11
BRANCH  10  23
ATOM     23  O   UNL     1      -2.507  21.260  49.726  1.00  0.00    -0.500 OA
ATOM     24  H   UNL     1      -3.128  21.207  50.525  1.00  0.00     0.294 HD
ENDBRANCH  10  23
BRANCH   5  25
ATOM     25  O   UNL     1      -2.983  16.312  43.758  1.00  0.00    -0.507 OA
ATOM     26  H   UNL     1      -3.386  16.752  42.939  1.00  0.00     0.293 HD
ENDBRANCH   5  25
BRANCH   7  27
ATOM     27  O   UNL     1      -1.349  16.367  48.272  1.00  0.00    -0.507 OA
ATOM     28  H   UNL     1      -0.731  15.581  48.135  1.00  0.00     0.293 HD
ENDBRANCH   7  27
TORSDOF 7
ENDMDL
