MODEL 1
REMARK VINA RESULT:    -3.581      0.000      0.000
REMARK INTER + INTRA:          -6.254
REMARK INTER:                  -5.465
REMARK INTRA:                  -0.788
REMARK UNBOUND:                -0.788
REMARK SMILES O=C([O-])CCCCCCCCC(=O)[O-]
REMARK SMILES IDX 7 1 6 2 5 3 4 4 2 5 1 6 3 7 8 8 9 9 10 10 11 11 12 12 13 13
REMARK SMILES IDX 14 14
REMARK H PARENT
REMARK Flexibility Score: inf
ROOT
ATOM      1  C   UNL     1      36.952 -47.871   3.362  1.00  0.00     0.000 C 
ENDROOT
BRANCH   1   2
ATOM      2  C   UNL     1      35.469 -47.607   3.672  1.00  0.00     0.000 C 
BRANCH   2   3
ATOM      3  C   UNL     1      34.526 -47.900   2.485  1.00  0.00     0.006 C 
BRANCH   3   4
ATOM      4  C   UNL     1      34.398 -49.403   2.205  1.00  0.00     0.053 C 
BRANCH   4   5
ATOM      5  C   UNL     1      33.608 -49.638   0.957  1.00  0.00     0.041 C 
ATOM      6  O   UNL     1      34.095 -49.339  -0.166  1.00  0.00    -0.550 OA
ATOM      7  O   UNL     1      32.355 -50.231   1.028  1.00  0.00    -0.550 OA
ENDBRANCH   4   5
ENDBRANCH   3   4
ENDBRANCH   2   3
ENDBRANCH   1   2
BRANCH   1   8
ATOM      8  C   UNL     1      37.587 -48.898   4.315  1.00  0.00     0.000 C 
BRANCH   8   9
ATOM      9  C   UNL     1      36.560 -49.533   5.266  1.00  0.00     0.000 C 
BRANCH   9  10
ATOM     10  C   UNL     1      36.772 -51.048   5.437  1.00  0.00     0.006 C 
BRANCH  10  11
ATOM     11  C   UNL     1      36.897 -51.770   4.087  1.00  0.00     0.053 C 
BRANCH  11  12
ATOM     12  C   UNL     1      38.127 -52.623   4.023  1.00  0.00     0.041 C 
ATOM     13  O   UNL     1      38.147 -53.650   3.294  1.00  0.00    -0.550 OA
ATOM     14  O   UNL     1      39.260 -52.268   4.743  1.00  0.00    -0.550 OA
ENDBRANCH  11  12
ENDBRANCH  10  11
ENDBRANCH   9  10
ENDBRANCH   8   9
ENDBRANCH   1   8
TORSDOF 9
ENDMDL
MODEL 2
REMARK VINA RESULT:    -3.479      2.830      3.573
REMARK INTER + INTRA:          -6.098
REMARK INTER:                  -5.426
REMARK INTRA:                  -0.672
REMARK UNBOUND:                -0.788
REMARK SMILES O=C([O-])CCCCCCCCC(=O)[O-]
REMARK SMILES IDX 7 1 6 2 5 3 4 4 2 5 1 6 3 7 8 8 9 9 10 10 11 11 12 12 13 13
REMARK SMILES IDX 14 14
REMARK H PARENT
REMARK Flexibility Score: inf
ROOT
ATOM      1  C   UNL     1      35.741 -47.527   3.684  1.00  0.00     0.000 C 
ENDROOT
BRANCH   1   2
ATOM      2  C   UNL     1      34.798 -47.778   2.495  1.00  0.00     0.000 C 
BRANCH   2   3
ATOM      3  C   UNL     1      34.073 -46.508   2.001  1.00  0.00     0.006 C 
BRANCH   3   4
ATOM      4  C   UNL     1      34.440 -45.271   2.832  1.00  0.00     0.053 C 
BRANCH   4   5
ATOM      5  C   UNL     1      35.230 -44.303   2.009  1.00  0.00     0.041 C 
ATOM      6  O   UNL     1      34.644 -43.392   1.366  1.00  0.00    -0.550 OA
ATOM      7  O   UNL     1      36.617 -44.376   1.991  1.00  0.00    -0.550 OA
ENDBRANCH   4   5
ENDBRANCH   3   4
ENDBRANCH   2   3
ENDBRANCH   1   2
BRANCH   1   8
ATOM      8  C   UNL     1      37.193 -47.941   3.392  1.00  0.00     0.000 C 
BRANCH   8   9
ATOM      9  C   UNL     1      37.754 -48.910   4.445  1.00  0.00     0.000 C 
BRANCH   9  10
ATOM     10  C   UNL     1      36.649 -49.568   5.290  1.00  0.00     0.006 C 
BRANCH  10  11
ATOM     11  C   UNL     1      36.786 -51.097   5.332  1.00  0.00     0.053 C 
BRANCH  11  12
ATOM     12  C   UNL     1      36.402 -51.728   4.029  1.00  0.00     0.041 C 
ATOM     13  O   UNL     1      35.435 -51.269   3.365  1.00  0.00    -0.550 OA
ATOM     14  O   UNL     1      37.129 -52.802   3.533  1.00  0.00    -0.550 OA
ENDBRANCH  11  12
ENDBRANCH  10  11
ENDBRANCH   9  10
ENDBRANCH   8   9
ENDBRANCH   1   8
TORSDOF 9
ENDMDL
MODEL 3
REMARK VINA RESULT:    -3.461      3.041      6.617
REMARK INTER + INTRA:          -6.070
REMARK INTER:                  -5.436
REMARK INTRA:                  -0.634
REMARK UNBOUND:                -0.788
REMARK SMILES O=C([O-])CCCCCCCCC(=O)[O-]
REMARK SMILES IDX 7 1 6 2 5 3 4 4 2 5 1 6 3 7 8 8 9 9 10 10 11 11 12 12 13 13
REMARK SMILES IDX 14 14
REMARK H PARENT
REMARK Flexibility Score: inf
ROOT
ATOM      1  C   UNL     1      35.200 -45.566   2.516  1.00  0.00     0.000 C 
ENDROOT
BRANCH   1   2
ATOM      2  C   UNL     1      35.184 -46.818   3.410  1.00  0.00     0.000 C 
BRANCH   2   3
ATOM      3  C   UNL     1      34.779 -48.108   2.664  1.00  0.00     0.006 C 
BRANCH   3   4
ATOM      4  C   UNL     1      35.522 -49.341   3.195  1.00  0.00     0.053 C 
BRANCH   4   5
ATOM      5  C   UNL     1      34.830 -50.595   2.764  1.00  0.00     0.041 C 
ATOM      6  O   UNL     1      35.267 -51.718   3.131  1.00  0.00    -0.550 OA
ATOM      7  O   UNL     1      33.675 -50.523   1.997  1.00  0.00    -0.550 OA
ENDBRANCH   4   5
ENDBRANCH   3   4
ENDBRANCH   2   3
ENDBRANCH   1   2
BRANCH   1   8
ATOM      8  C   UNL     1      33.905 -44.744   2.618  1.00  0.00     0.000 C 
BRANCH   8   9
ATOM      9  C   UNL     1      32.970 -44.964   1.418  1.00  0.00     0.000 C 
BRANCH   9  10
ATOM     10  C   UNL     1      33.733 -45.340   0.136  1.00  0.00     0.006 C 
BRANCH  10  11
ATOM     11  C   UNL     1      33.210 -46.643  -0.487  1.00  0.00     0.053 C 
BRANCH  11  12
ATOM     12  C   UNL     1      32.563 -46.406  -1.817  1.00  0.00     0.041 C 
ATOM     13  O   UNL     1      32.691 -47.250  -2.743  1.00  0.00    -0.550 OA
ATOM     14  O   UNL     1      31.793 -45.269  -2.024  1.00  0.00    -0.550 OA
ENDBRANCH  11  12
ENDBRANCH  10  11
ENDBRANCH   9  10
ENDBRANCH   8   9
ENDBRANCH   1   8
TORSDOF 9
ENDMDL
MODEL 4
REMARK VINA RESULT:    -3.441      2.948      6.885
REMARK INTER + INTRA:          -6.040
REMARK INTER:                  -5.592
REMARK INTRA:                  -0.448
REMARK UNBOUND:                -0.788
REMARK SMILES O=C([O-])CCCCCCCCC(=O)[O-]
REMARK SMILES IDX 7 1 6 2 5 3 4 4 2 5 1 6 3 7 8 8 9 9 10 10 11 11 12 12 13 13
REMARK SMILES IDX 14 14
REMARK H PARENT
REMARK Flexibility Score: inf
ROOT
ATOM      1  C   UNL     1      32.906 -49.677   0.943  1.00  0.00     0.000 C 
ENDROOT
BRANCH   1   2
ATOM      2  C   UNL     1      33.605 -50.562   1.989  1.00  0.00     0.000 C 
BRANCH   2   3
ATOM      3  C   UNL     1      34.912 -49.953   2.542  1.00  0.00     0.006 C 
BRANCH   3   4
ATOM      4  C   UNL     1      35.761 -50.989   3.291  1.00  0.00     0.053 C 
BRANCH   4   5
ATOM      5  C   UNL     1      36.287 -50.411   4.567  1.00  0.00     0.041 C 
ATOM      6  O   UNL     1      36.701 -51.171   5.483  1.00  0.00    -0.550 OA
ATOM      7  O   UNL     1      36.366 -49.034   4.726  1.00  0.00    -0.550 OA
ENDBRANCH   4   5
ENDBRANCH   3   4
ENDBRANCH   2   3
ENDBRANCH   1   2
BRANCH   1   8
ATOM      8  C   UNL     1      33.434 -48.233   0.935  1.00  0.00     0.000 C 
BRANCH   8   9
ATOM      9  C   UNL     1      33.554 -47.657  -0.486  1.00  0.00     0.000 C 
BRANCH   9  10
ATOM     10  C   UNL     1      34.001 -48.710  -1.515  1.00  0.00     0.006 C 
BRANCH  10  11
ATOM     11  C   UNL     1      33.412 -48.444  -2.907  1.00  0.00     0.053 C 
BRANCH  11  12
ATOM     12  C   UNL     1      32.840 -49.687  -3.518  1.00  0.00     0.041 C 
ATOM     13  O   UNL     1      31.692 -50.086  -3.186  1.00  0.00    -0.550 OA
ATOM     14  O   UNL     1      33.561 -50.388  -4.476  1.00  0.00    -0.550 OA
ENDBRANCH  11  12
ENDBRANCH  10  11
ENDBRANCH   9  10
ENDBRANCH   8   9
ENDBRANCH   1   8
TORSDOF 9
ENDMDL
MODEL 5
REMARK VINA RESULT:    -3.431      2.863      4.319
REMARK INTER + INTRA:          -6.024
REMARK INTER:                  -5.371
REMARK INTRA:                  -0.653
REMARK UNBOUND:                -0.788
REMARK SMILES O=C([O-])CCCCCCCCC(=O)[O-]
REMARK SMILES IDX 7 1 6 2 5 3 4 4 2 5 1 6 3 7 8 8 9 9 10 10 11 11 12 12 13 13
REMARK SMILES IDX 14 14
REMARK H PARENT
REMARK Flexibility Score: inf
ROOT
ATOM      1  C   UNL     1      33.667 -48.845  -0.392  1.00  0.00     0.000 C 
ENDROOT
BRANCH   1   2
ATOM      2  C   UNL     1      33.287 -47.373  -0.630  1.00  0.00     0.000 C 
BRANCH   2   3
ATOM      3  C   UNL     1      34.120 -46.376   0.203  1.00  0.00     0.006 C 
BRANCH   3   4
ATOM      4  C   UNL     1      33.360 -45.880   1.441  1.00  0.00     0.053 C 
BRANCH   4   5
ATOM      5  C   UNL     1      34.311 -45.321   2.451  1.00  0.00     0.041 C 
ATOM      6  O   UNL     1      34.529 -44.081   2.498  1.00  0.00    -0.550 OA
ATOM      7  O   UNL     1      34.920 -46.163   3.373  1.00  0.00    -0.550 OA
ENDBRANCH   4   5
ENDBRANCH   3   4
ENDBRANCH   2   3
ENDBRANCH   1   2
BRANCH   1   8
ATOM      8  C   UNL     1      32.803 -49.517   0.687  1.00  0.00     0.000 C 
BRANCH   8   9
ATOM      9  C   UNL     1      33.635 -50.355   1.672  1.00  0.00     0.000 C 
BRANCH   9  10
ATOM     10  C   UNL     1      34.637 -49.504   2.472  1.00  0.00     0.006 C 
BRANCH  10  11
ATOM     11  C   UNL     1      35.987 -50.214   2.648  1.00  0.00     0.053 C 
BRANCH  11  12
ATOM     12  C   UNL     1      35.951 -51.213   3.764  1.00  0.00     0.041 C 
ATOM     13  O   UNL     1      35.615 -52.405   3.536  1.00  0.00    -0.550 OA
ATOM     14  O   UNL     1      36.318 -50.835   5.049  1.00  0.00    -0.550 OA
ENDBRANCH  11  12
ENDBRANCH  10  11
ENDBRANCH   9  10
ENDBRANCH   8   9
ENDBRANCH   1   8
TORSDOF 9
ENDMDL
MODEL 6
REMARK VINA RESULT:    -3.410      3.186      6.452
REMARK INTER + INTRA:          -5.993
REMARK INTER:                  -5.389
REMARK INTRA:                  -0.604
REMARK UNBOUND:                -0.788
REMARK SMILES O=C([O-])CCCCCCCCC(=O)[O-]
REMARK SMILES IDX 7 1 6 2 5 3 4 4 2 5 1 6 3 7 8 8 9 9 10 10 11 11 12 12 13 13
REMARK SMILES IDX 14 14
REMARK H PARENT
REMARK Flexibility Score: inf
ROOT
ATOM      1  C   UNL     1      33.892 -48.870   0.247  1.00  0.00     0.000 C 
ENDROOT
BRANCH   1   2
ATOM      2  C   UNL     1      32.966 -49.885   0.940  1.00  0.00     0.000 C 
BRANCH   2   3
ATOM      3  C   UNL     1      33.652 -50.672   2.078  1.00  0.00     0.006 C 
BRANCH   3   4
ATOM      4  C   UNL     1      35.041 -50.112   2.413  1.00  0.00     0.053 C 
BRANCH   4   5
ATOM      5  C   UNL     1      35.700 -50.943   3.469  1.00  0.00     0.041 C 
ATOM      6  O   UNL     1      35.869 -52.178   3.289  1.00  0.00    -0.550 OA
ATOM      7  O   UNL     1      36.173 -50.345   4.629  1.00  0.00    -0.550 OA
ENDBRANCH   4   5
ENDBRANCH   3   4
ENDBRANCH   2   3
ENDBRANCH   1   2
BRANCH   1   8
ATOM      8  C   UNL     1      33.140 -47.630  -0.265  1.00  0.00     0.000 C 
BRANCH   8   9
ATOM      9  C   UNL     1      33.664 -46.325   0.355  1.00  0.00     0.000 C 
BRANCH   9  10
ATOM     10  C   UNL     1      34.017 -46.479   1.845  1.00  0.00     0.006 C 
BRANCH  10  11
ATOM     11  C   UNL     1      34.036 -45.129   2.577  1.00  0.00     0.053 C 
BRANCH  11  12
ATOM     12  C   UNL     1      35.075 -44.206   2.019  1.00  0.00     0.041 C 
ATOM     13  O   UNL     1      36.293 -44.523   2.063  1.00  0.00    -0.550 OA
ATOM     14  O   UNL     1      34.696 -43.010   1.424  1.00  0.00    -0.550 OA
ENDBRANCH  11  12
ENDBRANCH  10  11
ENDBRANCH   9  10
ENDBRANCH   8   9
ENDBRANCH   1   8
TORSDOF 9
ENDMDL
MODEL 7
REMARK VINA RESULT:    -3.406      1.422      4.936
REMARK INTER + INTRA:          -5.986
REMARK INTER:                  -5.262
REMARK INTRA:                  -0.724
REMARK UNBOUND:                -0.788
REMARK SMILES O=C([O-])CCCCCCCCC(=O)[O-]
REMARK SMILES IDX 7 1 6 2 5 3 4 4 2 5 1 6 3 7 8 8 9 9 10 10 11 11 12 12 13 13
REMARK SMILES IDX 14 14
REMARK H PARENT
REMARK Flexibility Score: inf
ROOT
ATOM      1  C   UNL     1      36.997 -47.690   3.390  1.00  0.00     0.000 C 
ENDROOT
BRANCH   1   2
ATOM      2  C   UNL     1      37.660 -48.740   4.298  1.00  0.00     0.000 C 
BRANCH   2   3
ATOM      3  C   UNL     1      36.656 -49.530   5.167  1.00  0.00     0.006 C 
BRANCH   3   4
ATOM      4  C   UNL     1      36.949 -51.036   5.163  1.00  0.00     0.053 C 
BRANCH   4   5
ATOM      5  C   UNL     1      36.424 -51.668   3.913  1.00  0.00     0.041 C 
ATOM      6  O   UNL     1      36.929 -52.740   3.485  1.00  0.00    -0.550 OA
ATOM      7  O   UNL     1      35.345 -51.102   3.247  1.00  0.00    -0.550 OA
ENDBRANCH   4   5
ENDBRANCH   3   4
ENDBRANCH   2   3
ENDBRANCH   1   2
BRANCH   1   8
ATOM      8  C   UNL     1      35.495 -47.521   3.671  1.00  0.00     0.000 C 
BRANCH   8   9
ATOM      9  C   UNL     1      34.886 -46.322   2.926  1.00  0.00     0.000 C 
BRANCH   9  10
ATOM     10  C   UNL     1      34.176 -46.733   1.624  1.00  0.00     0.006 C 
BRANCH  10  11
ATOM     11  C   UNL     1      33.883 -48.239   1.577  1.00  0.00     0.053 C 
BRANCH  11  12
ATOM     12  C   UNL     1      34.401 -48.870   0.320  1.00  0.00     0.041 C 
ATOM     13  O   UNL     1      33.610 -49.151  -0.619  1.00  0.00    -0.550 OA
ATOM     14  O   UNL     1      35.759 -49.118   0.174  1.00  0.00    -0.550 OA
ENDBRANCH  11  12
ENDBRANCH  10  11
ENDBRANCH   9  10
ENDBRANCH   8   9
ENDBRANCH   1   8
TORSDOF 9
ENDMDL
MODEL 8
REMARK VINA RESULT:    -3.376      1.474      5.819
REMARK INTER + INTRA:          -5.941
REMARK INTER:                  -5.357
REMARK INTRA:                  -0.584
REMARK UNBOUND:                -0.788
REMARK SMILES O=C([O-])CCCCCCCCC(=O)[O-]
REMARK SMILES IDX 7 1 6 2 5 3 4 4 2 5 1 6 3 7 8 8 9 9 10 10 11 11 12 12 13 13
REMARK SMILES IDX 14 14
REMARK H PARENT
REMARK Flexibility Score: inf
ROOT
ATOM      1  C   UNL     1      36.280 -49.188   2.673  1.00  0.00     0.000 C 
ENDROOT
BRANCH   1   2
ATOM      2  C   UNL     1      36.971 -48.815   3.997  1.00  0.00     0.000 C 
BRANCH   2   3
ATOM      3  C   UNL     1      36.674 -49.799   5.149  1.00  0.00     0.006 C 
BRANCH   3   4
ATOM      4  C   UNL     1      37.696 -50.941   5.213  1.00  0.00     0.053 C 
BRANCH   4   5
ATOM      5  C   UNL     1      37.105 -52.205   4.671  1.00  0.00     0.041 C 
ATOM      6  O   UNL     1      36.015 -52.641   5.128  1.00  0.00    -0.550 OA
ATOM      7  O   UNL     1      37.732 -52.874   3.628  1.00  0.00    -0.550 OA
ENDBRANCH   4   5
ENDBRANCH   3   4
ENDBRANCH   2   3
ENDBRANCH   1   2
BRANCH   1   8
ATOM      8  C   UNL     1      34.746 -49.142   2.769  1.00  0.00     0.000 C 
BRANCH   8   9
ATOM      9  C   UNL     1      34.080 -50.389   2.163  1.00  0.00     0.000 C 
BRANCH   9  10
ATOM     10  C   UNL     1      33.077 -50.041   1.049  1.00  0.00     0.006 C 
BRANCH  10  11
ATOM     11  C   UNL     1      33.180 -48.571   0.617  1.00  0.00     0.053 C 
BRANCH  11  12
ATOM     12  C   UNL     1      33.679 -48.436  -0.789  1.00  0.00     0.041 C 
ATOM     13  O   UNL     1      34.655 -49.127  -1.183  1.00  0.00    -0.550 OA
ATOM     14  O   UNL     1      33.047 -47.571  -1.673  1.00  0.00    -0.550 OA
ENDBRANCH  11  12
ENDBRANCH  10  11
ENDBRANCH   9  10
ENDBRANCH   8   9
ENDBRANCH   1   8
TORSDOF 9
ENDMDL
MODEL 9
REMARK VINA RESULT:    -3.373      2.480      6.182
REMARK INTER + INTRA:          -5.936
REMARK INTER:                  -5.392
REMARK INTRA:                  -0.544
REMARK UNBOUND:                -0.788
REMARK SMILES O=C([O-])CCCCCCCCC(=O)[O-]
REMARK SMILES IDX 7 1 6 2 5 3 4 4 2 5 1 6 3 7 8 8 9 9 10 10 11 11 12 12 13 13
REMARK SMILES IDX 14 14
REMARK H PARENT
REMARK Flexibility Score: inf
ROOT
ATOM      1  C   UNL     1      36.850 -48.390   3.984  1.00  0.00     0.000 C 
ENDROOT
BRANCH   1   2
ATOM      2  C   UNL     1      36.793 -49.398   5.145  1.00  0.00     0.000 C 
BRANCH   2   3
ATOM      3  C   UNL     1      37.827 -50.539   5.027  1.00  0.00     0.006 C 
BRANCH   3   4
ATOM      4  C   UNL     1      37.479 -51.521   3.900  1.00  0.00     0.053 C 
BRANCH   4   5
ATOM      5  C   UNL     1      36.171 -52.193   4.177  1.00  0.00     0.041 C 
ATOM      6  O   UNL     1      36.032 -52.910   5.204  1.00  0.00    -0.550 OA
ATOM      7  O   UNL     1      35.091 -51.988   3.330  1.00  0.00    -0.550 OA
ENDBRANCH   4   5
ENDBRANCH   3   4
ENDBRANCH   2   3
ENDBRANCH   1   2
BRANCH   1   8
ATOM      8  C   UNL     1      35.476 -47.785   3.652  1.00  0.00     0.000 C 
BRANCH   8   9
ATOM      9  C   UNL     1      34.744 -48.557   2.542  1.00  0.00     0.000 C 
BRANCH   9  10
ATOM     10  C   UNL     1      33.943 -47.633   1.608  1.00  0.00     0.006 C 
BRANCH  10  11
ATOM     11  C   UNL     1      33.938 -46.178   2.101  1.00  0.00     0.053 C 
BRANCH  11  12
ATOM     12  C   UNL     1      33.503 -45.227   1.028  1.00  0.00     0.041 C 
ATOM     13  O   UNL     1      34.099 -45.210  -0.082  1.00  0.00    -0.550 OA
ATOM     14  O   UNL     1      32.421 -44.384   1.241  1.00  0.00    -0.550 OA
ENDBRANCH  11  12
ENDBRANCH  10  11
ENDBRANCH   9  10
ENDBRANCH   8   9
ENDBRANCH   1   8
TORSDOF 9
ENDMDL
