MODEL 1
REMARK VINA RESULT:    -4.093      0.000      0.000
REMARK INTER + INTRA:          -4.978
REMARK INTER:                  -4.691
REMARK INTRA:                  -0.287
REMARK UNBOUND:                -0.287
REMARK SMILES O=C1C[C@H](c2ccc(O)cc2)Oc2cc(O)cc(O)c21
REMARK SMILES IDX 3 1 4 2 12 3 13 4 14 5 15 6 17 7 18 8 20 9 2 10 1 11 5 12
REMARK SMILES IDX 6 13 11 14 7 15 10 16 8 17 9 18 19 20 16 22
REMARK H PARENT 9 19 19 21 16 23
REMARK Flexibility Score: inf
ROOT
ATOM      1  C   UNL     1      -7.749  21.155  18.321  1.00  0.00     0.131 C 
ATOM      2  C   UNL     1      -7.118  20.418  19.512  1.00  0.00     0.211 C 
ATOM      3  O   UNL     1      -5.690  20.498  19.454  1.00  0.00    -0.484 OA
ATOM      4  C   UNL     1      -4.975  20.400  18.252  1.00  0.00     0.138 A 
ATOM      5  C   UNL     1      -3.593  20.208  18.302  1.00  0.00     0.093 A 
ATOM      6  C   UNL     1      -2.855  20.091  17.121  1.00  0.00     0.123 A 
ATOM      7  C   UNL     1      -3.500  20.197  15.886  1.00  0.00     0.093 A 
ATOM      8  C   UNL     1      -4.879  20.429  15.814  1.00  0.00     0.133 A 
ATOM      9  C   UNL     1      -5.639  20.500  17.010  1.00  0.00     0.102 A 
ATOM     10  C   UNL     1      -7.113  20.671  17.052  1.00  0.00     0.174 C 
ATOM     11  O   UNL     1      -7.843  20.371  16.070  1.00  0.00    -0.294 OA
ENDROOT
BRANCH   2  12
ATOM     12  C   UNL     1      -7.616  20.988  20.817  1.00  0.00    -0.007 A 
ATOM     13  C   UNL     1      -7.690  20.180  21.967  1.00  0.00     0.011 A 
ATOM     14  C   UNL     1      -7.959  22.347  20.911  1.00  0.00     0.011 A 
ATOM     15  C   UNL     1      -8.124  20.720  23.181  1.00  0.00     0.046 A 
ATOM     16  C   UNL     1      -8.392  22.883  22.127  1.00  0.00     0.046 A 
ATOM     17  C   UNL     1      -8.476  22.071  23.266  1.00  0.00     0.115 A 
BRANCH  17  18
ATOM     18  O   UNL     1      -8.908  22.595  24.482  1.00  0.00    -0.508 OA
ATOM     19  H   UNL     1      -8.816  23.581  24.696  1.00  0.00     0.293 HD
ENDBRANCH  17  18
ENDBRANCH   2  12
BRANCH   8  20
ATOM     20  O   UNL     1      -5.432  20.615  14.545  1.00  0.00    -0.507 OA
ATOM     21  H   UNL     1      -4.889  20.802  13.715  1.00  0.00     0.293 HD
ENDBRANCH   8  20
BRANCH   6  22
ATOM     22  O   UNL     1      -1.478  19.879  17.160  1.00  0.00    -0.508 OA
ATOM     23  H   UNL     1      -1.073  18.986  16.903  1.00  0.00     0.293 HD
ENDBRANCH   6  22
TORSDOF 4
ENDMDL
MODEL 2
REMARK VINA RESULT:    -3.559     12.247     17.270
REMARK INTER + INTRA:          -4.365
REMARK INTER:                  -4.054
REMARK INTRA:                  -0.312
REMARK UNBOUND:                -0.287
REMARK SMILES O=C1C[C@H](c2ccc(O)cc2)Oc2cc(O)cc(O)c21
REMARK SMILES IDX 3 1 4 2 12 3 13 4 14 5 15 6 17 7 18 8 20 9 2 10 1 11 5 12
REMARK SMILES IDX 6 13 11 14 7 15 10 16 8 17 9 18 19 20 16 22
REMARK H PARENT 9 19 19 21 16 23
REMARK Flexibility Score: inf
ROOT
ATOM      1  C   UNL     1       9.793  21.247  13.449  1.00  0.00     0.131 C 
ATOM      2  C   UNL     1       9.188  20.028  12.737  1.00  0.00     0.211 C 
ATOM      3  O   UNL     1       7.775  19.969  12.952  1.00  0.00    -0.484 OA
ATOM      4  C   UNL     1       7.184  20.287  14.183  1.00  0.00     0.138 A 
ATOM      5  C   UNL     1       5.848  19.943  14.401  1.00  0.00     0.093 A 
ATOM      6  C   UNL     1       5.236  20.234  15.623  1.00  0.00     0.123 A 
ATOM      7  C   UNL     1       5.955  20.898  16.619  1.00  0.00     0.093 A 
ATOM      8  C   UNL     1       7.283  21.289  16.406  1.00  0.00     0.133 A 
ATOM      9  C   UNL     1       7.923  20.952  15.186  1.00  0.00     0.102 A 
ATOM     10  C   UNL     1       9.345  21.252  14.880  1.00  0.00     0.174 C 
ATOM     11  O   UNL     1      10.190  21.455  15.792  1.00  0.00    -0.294 OA
ENDROOT
BRANCH   2  12
ATOM     12  C   UNL     1       9.485  20.073  11.257  1.00  0.00    -0.007 A 
ATOM     13  C   UNL     1      10.812  20.150  10.797  1.00  0.00     0.011 A 
ATOM     14  C   UNL     1       8.440  19.980  10.323  1.00  0.00     0.011 A 
ATOM     15  C   UNL     1      11.083  20.159   9.426  1.00  0.00     0.046 A 
ATOM     16  C   UNL     1       8.715  19.990   8.953  1.00  0.00     0.046 A 
ATOM     17  C   UNL     1      10.038  20.081   8.500  1.00  0.00     0.115 A 
BRANCH  17  18
ATOM     18  O   UNL     1      10.323  20.093   7.137  1.00  0.00    -0.508 OA
ATOM     19  H   UNL     1      11.248  20.323   6.791  1.00  0.00     0.293 HD
ENDBRANCH  17  18
ENDBRANCH   2  12
BRANCH   8  20
ATOM     20  O   UNL     1       7.903  22.030  17.415  1.00  0.00    -0.507 OA
ATOM     21  H   UNL     1       7.837  23.034  17.498  1.00  0.00     0.293 HD
ENDBRANCH   8  20
BRANCH   6  22
ATOM     22  O   UNL     1       3.910  19.875  15.857  1.00  0.00    -0.508 OA
ATOM     23  H   UNL     1       3.628  18.904  15.919  1.00  0.00     0.293 HD
ENDBRANCH   6  22
TORSDOF 4
ENDMDL
MODEL 3
REMARK VINA RESULT:    -3.173      1.533      3.096
REMARK INTER + INTRA:          -3.924
REMARK INTER:                  -3.613
REMARK INTRA:                  -0.311
REMARK UNBOUND:                -0.287
REMARK SMILES O=C1C[C@H](c2ccc(O)cc2)Oc2cc(O)cc(O)c21
REMARK SMILES IDX 3 1 4 2 12 3 13 4 14 5 15 6 17 7 18 8 20 9 2 10 1 11 5 12
REMARK SMILES IDX 6 13 11 14 7 15 10 16 8 17 9 18 19 20 16 22
REMARK H PARENT 9 19 19 21 16 23
REMARK Flexibility Score: inf
ROOT
ATOM      1  C   UNL     1      -5.274  20.043  19.838  1.00  0.00     0.131 C 
ATOM      2  C   UNL     1      -6.418  21.039  20.079  1.00  0.00     0.211 C 
ATOM      3  O   UNL     1      -7.347  21.011  18.991  1.00  0.00    -0.484 OA
ATOM      4  C   UNL     1      -6.942  20.887  17.654  1.00  0.00     0.138 A 
ATOM      5  C   UNL     1      -7.868  21.144  16.641  1.00  0.00     0.093 A 
ATOM      6  C   UNL     1      -7.490  21.044  15.299  1.00  0.00     0.123 A 
ATOM      7  C   UNL     1      -6.189  20.656  14.972  1.00  0.00     0.093 A 
ATOM      8  C   UNL     1      -5.257  20.353  15.972  1.00  0.00     0.133 A 
ATOM      9  C   UNL     1      -5.622  20.501  17.335  1.00  0.00     0.102 A 
ATOM     10  C   UNL     1      -4.697  20.278  18.474  1.00  0.00     0.174 C 
ATOM     11  O   UNL     1      -3.446  20.334  18.333  1.00  0.00    -0.294 OA
ENDROOT
BRANCH   2  12
ATOM     12  C   UNL     1      -7.129  20.733  21.374  1.00  0.00    -0.007 A 
ATOM     13  C   UNL     1      -6.439  20.130  22.442  1.00  0.00     0.011 A 
ATOM     14  C   UNL     1      -8.474  21.099  21.547  1.00  0.00     0.011 A 
ATOM     15  C   UNL     1      -7.094  19.876  23.651  1.00  0.00     0.046 A 
ATOM     16  C   UNL     1      -9.125  20.844  22.757  1.00  0.00     0.046 A 
ATOM     17  C   UNL     1      -8.437  20.231  23.813  1.00  0.00     0.115 A 
BRANCH  17  18
ATOM     18  O   UNL     1      -9.077  19.971  25.023  1.00  0.00    -0.508 OA
ATOM     19  H   UNL     1     -10.083  20.050  25.117  1.00  0.00     0.293 HD
ENDBRANCH  17  18
ENDBRANCH   2  12
BRANCH   8  20
ATOM     20  O   UNL     1      -4.007  19.883  15.562  1.00  0.00    -0.507 OA
ATOM     21  H   UNL     1      -3.683  18.939  15.713  1.00  0.00     0.293 HD
ENDBRANCH   8  20
BRANCH   6  22
ATOM     22  O   UNL     1      -8.402  21.320  14.282  1.00  0.00    -0.508 OA
ATOM     23  H   UNL     1      -8.648  20.621  13.589  1.00  0.00     0.293 HD
ENDBRANCH   6  22
TORSDOF 4
ENDMDL
MODEL 4
REMARK VINA RESULT:    -2.716      2.812      6.975
REMARK INTER + INTRA:          -3.400
REMARK INTER:                  -3.086
REMARK INTRA:                  -0.315
REMARK UNBOUND:                -0.287
REMARK SMILES O=C1C[C@H](c2ccc(O)cc2)Oc2cc(O)cc(O)c21
REMARK SMILES IDX 3 1 4 2 12 3 13 4 14 5 15 6 17 7 18 8 20 9 2 10 1 11 5 12
REMARK SMILES IDX 6 13 11 14 7 15 10 16 8 17 9 18 19 20 16 22
REMARK H PARENT 9 19 19 21 16 23
REMARK Flexibility Score: inf
ROOT
ATOM      1  C   UNL     1      -3.990  20.548  18.819  1.00  0.00     0.131 C 
ATOM      2  C   UNL     1      -3.652  19.897  17.469  1.00  0.00     0.211 C 
ATOM      3  O   UNL     1      -4.597  20.291  16.470  1.00  0.00    -0.484 OA
ATOM      4  C   UNL     1      -5.967  20.424  16.735  1.00  0.00     0.138 A 
ATOM      5  C   UNL     1      -6.856  20.537  15.664  1.00  0.00     0.093 A 
ATOM      6  C   UNL     1      -8.229  20.656  15.897  1.00  0.00     0.123 A 
ATOM      7  C   UNL     1      -8.710  20.691  17.208  1.00  0.00     0.093 A 
ATOM      8  C   UNL     1      -7.833  20.620  18.297  1.00  0.00     0.133 A 
ATOM      9  C   UNL     1      -6.443  20.451  18.065  1.00  0.00     0.102 A 
ATOM     10  C   UNL     1      -5.432  20.293  19.140  1.00  0.00     0.174 C 
ATOM     11  O   UNL     1      -5.748  19.899  20.295  1.00  0.00    -0.294 OA
ENDROOT
BRANCH   2  12
ATOM     12  C   UNL     1      -2.254  20.265  17.034  1.00  0.00    -0.007 A 
ATOM     13  C   UNL     1      -2.047  21.048  15.884  1.00  0.00     0.011 A 
ATOM     14  C   UNL     1      -1.147  19.875  17.806  1.00  0.00     0.011 A 
ATOM     15  C   UNL     1      -0.753  21.411  15.501  1.00  0.00     0.046 A 
ATOM     16  C   UNL     1       0.146  20.240  17.421  1.00  0.00     0.046 A 
ATOM     17  C   UNL     1       0.347  21.009  16.266  1.00  0.00     0.115 A 
BRANCH  17  18
ATOM     18  O   UNL     1       1.631  21.378  15.873  1.00  0.00    -0.508 OA
ATOM     19  H   UNL     1       1.984  21.163  14.948  1.00  0.00     0.293 HD
ENDBRANCH  17  18
ENDBRANCH   2  12
BRANCH   8  20
ATOM     20  O   UNL     1      -8.383  20.756  19.573  1.00  0.00    -0.507 OA
ATOM     21  H   UNL     1      -9.252  21.234  19.765  1.00  0.00     0.293 HD
ENDBRANCH   8  20
BRANCH   6  22
ATOM     22  O   UNL     1      -9.125  20.749  14.834  1.00  0.00    -0.508 OA
ATOM     23  H   UNL     1      -9.924  20.129  14.761  1.00  0.00     0.293 HD
ENDBRANCH   6  22
TORSDOF 4
ENDMDL
MODEL 5
REMARK VINA RESULT:    -2.237     10.214     13.956
REMARK INTER + INTRA:          -2.851
REMARK INTER:                  -2.539
REMARK INTRA:                  -0.312
REMARK UNBOUND:                -0.287
REMARK SMILES O=C1C[C@H](c2ccc(O)cc2)Oc2cc(O)cc(O)c21
REMARK SMILES IDX 3 1 4 2 12 3 13 4 14 5 15 6 17 7 18 8 20 9 2 10 1 11 5 12
REMARK SMILES IDX 6 13 11 14 7 15 10 16 8 17 9 18 19 20 16 22
REMARK H PARENT 9 19 19 21 16 23
REMARK Flexibility Score: inf
ROOT
ATOM      1  C   UNL     1       6.658  20.800  14.461  1.00  0.00     0.131 C 
ATOM      2  C   UNL     1       6.284  20.493  15.919  1.00  0.00     0.211 C 
ATOM      3  O   UNL     1       7.003  21.347  16.813  1.00  0.00    -0.484 OA
ATOM      4  C   UNL     1       8.345  21.699  16.609  1.00  0.00     0.138 A 
ATOM      5  C   UNL     1       9.053  22.298  17.652  1.00  0.00     0.093 A 
ATOM      6  C   UNL     1      10.396  22.646  17.484  1.00  0.00     0.123 A 
ATOM      7  C   UNL     1      11.022  22.420  16.256  1.00  0.00     0.093 A 
ATOM      8  C   UNL     1      10.319  21.858  15.184  1.00  0.00     0.133 A 
ATOM      9  C   UNL     1       8.970  21.458  15.366  1.00  0.00     0.102 A 
ATOM     10  C   UNL     1       8.151  20.789  14.324  1.00  0.00     0.174 C 
ATOM     11  O   UNL     1       8.679  20.169  13.362  1.00  0.00    -0.294 OA
ENDROOT
BRANCH   2  12
ATOM     12  C   UNL     1       4.799  20.650  16.134  1.00  0.00    -0.007 A 
ATOM     13  C   UNL     1       3.884  19.879  15.394  1.00  0.00     0.011 A 
ATOM     14  C   UNL     1       4.315  21.530  17.117  1.00  0.00     0.011 A 
ATOM     15  C   UNL     1       2.510  20.006  15.618  1.00  0.00     0.046 A 
ATOM     16  C   UNL     1       2.941  21.654  17.338  1.00  0.00     0.046 A 
ATOM     17  C   UNL     1       2.034  20.893  16.588  1.00  0.00     0.115 A 
BRANCH  17  18
ATOM     18  O   UNL     1       0.662  21.010  16.801  1.00  0.00    -0.508 OA
ATOM     19  H   UNL     1       0.089  21.623  16.233  1.00  0.00     0.293 HD
ENDBRANCH  17  18
ENDBRANCH   2  12
BRANCH   8  20
ATOM     20  O   UNL     1      10.989  21.751  13.963  1.00  0.00    -0.507 OA
ATOM     21  H   UNL     1      11.244  20.873  13.535  1.00  0.00     0.293 HD
ENDBRANCH   8  20
BRANCH   6  22
ATOM     22  O   UNL     1      11.117  23.225  18.526  1.00  0.00    -0.508 OA
ATOM     23  H   UNL     1      11.052  24.217  18.726  1.00  0.00     0.293 HD
ENDBRANCH   6  22
TORSDOF 4
ENDMDL
MODEL 6
REMARK VINA RESULT:    -1.920     14.447     17.772
REMARK INTER + INTRA:          -2.488
REMARK INTER:                  -2.173
REMARK INTRA:                  -0.315
REMARK UNBOUND:                -0.287
REMARK SMILES O=C1C[C@H](c2ccc(O)cc2)Oc2cc(O)cc(O)c21
REMARK SMILES IDX 3 1 4 2 12 3 13 4 14 5 15 6 17 7 18 8 20 9 2 10 1 11 5 12
REMARK SMILES IDX 6 13 11 14 7 15 10 16 8 17 9 18 19 20 16 22
REMARK H PARENT 9 19 19 21 16 23
REMARK Flexibility Score: inf
ROOT
ATOM      1  C   UNL     1       7.694  20.115  12.523  1.00  0.00     0.131 C 
ATOM      2  C   UNL     1       8.586  21.251  12.002  1.00  0.00     0.211 C 
ATOM      3  O   UNL     1       9.599  21.576  12.958  1.00  0.00    -0.484 OA
ATOM      4  C   UNL     1       9.356  21.603  14.338  1.00  0.00     0.138 A 
ATOM      5  C   UNL     1      10.301  22.191  15.181  1.00  0.00     0.093 A 
ATOM      6  C   UNL     1      10.079  22.246  16.559  1.00  0.00     0.123 A 
ATOM      7  C   UNL     1       8.920  21.684  17.098  1.00  0.00     0.093 A 
ATOM      8  C   UNL     1       7.978  21.053  16.277  1.00  0.00     0.133 A 
ATOM      9  C   UNL     1       8.176  21.038  14.872  1.00  0.00     0.102 A 
ATOM     10  C   UNL     1       7.212  20.462  13.900  1.00  0.00     0.174 C 
ATOM     11  O   UNL     1       5.995  20.309  14.186  1.00  0.00    -0.294 OA
ENDROOT
BRANCH   2  12
ATOM     12  C   UNL     1       9.218  20.871  10.685  1.00  0.00    -0.007 A 
ATOM     13  C   UNL     1       8.472  20.198   9.702  1.00  0.00     0.011 A 
ATOM     14  C   UNL     1      10.546  21.238  10.406  1.00  0.00     0.011 A 
ATOM     15  C   UNL     1       9.053  19.875   8.472  1.00  0.00     0.046 A 
ATOM     16  C   UNL     1      11.124  20.913   9.176  1.00  0.00     0.046 A 
ATOM     17  C   UNL     1      10.379  20.230   8.205  1.00  0.00     0.115 A 
BRANCH  17  18
ATOM     18  O   UNL     1      10.946  19.902   6.976  1.00  0.00    -0.508 OA
ATOM     19  H   UNL     1      11.665  20.477   6.553  1.00  0.00     0.293 HD
ENDBRANCH  17  18
ENDBRANCH   2  12
BRANCH   8  20
ATOM     20  O   UNL     1       6.893  20.435  16.902  1.00  0.00    -0.507 OA
ATOM     21  H   UNL     1       6.405  19.636  16.524  1.00  0.00     0.293 HD
ENDBRANCH   8  20
BRANCH   6  22
ATOM     22  O   UNL     1      11.008  22.850  17.405  1.00  0.00    -0.508 OA
ATOM     23  H   UNL     1      11.000  23.850  17.570  1.00  0.00     0.293 HD
ENDBRANCH   6  22
TORSDOF 4
ENDMDL
