MODEL 1
REMARK VINA RESULT:    -5.514      0.000      0.000
REMARK INTER + INTRA:          -6.262
REMARK INTER:                  -5.997
REMARK INTRA:                  -0.265
REMARK UNBOUND:                -0.265
REMARK SMILES C=C(C)[C@H]1CC[C@@]2(C)CC[C@]3(C)[C@H](CC[C@H]4[C@@]5(C)CC[C@@H](O)C(C)(C)[C@H]5CC[C@]43C)[C@@H]12
REMARK SMILES IDX 4 1 5 2 6 3 7 4 31 5 13 6 14 7 15 8 16 9 17 10 19 11 20 12
REMARK SMILES IDX 21 13 23 14 26 15 27 16 28 17 29 18 11 19 10 20 9 21 12 22
REMARK SMILES IDX 30 23 24 24 25 25 18 26 8 27 2 28 3 29 1 30 22 31
REMARK H PARENT 22 32
REMARK Flexibility Score: inf
ROOT
ATOM      1  C   UNL     1      17.041   3.093  11.383  1.00  0.00     0.018 C 
ATOM      2  C   UNL     1      16.719   1.600  11.458  1.00  0.00     0.009 C 
ATOM      3  C   UNL     1      18.061   0.875  11.450  1.00  0.00     0.008 C 
ATOM      4  C   UNL     1      19.176   1.940  11.280  1.00  0.00    -0.029 C 
ATOM      5  C   UNL     1      18.449   3.219  10.729  1.00  0.00     0.006 C 
ATOM      6  C   UNL     1      18.429   3.350   9.153  1.00  0.00    -0.000 C 
ATOM      7  C   UNL     1      17.897   4.739   8.693  1.00  0.00     0.005 C 
ATOM      8  C   UNL     1      18.681   5.407   7.568  1.00  0.00     0.005 C 
ATOM      9  C   UNL     1      18.977   4.439   6.384  1.00  0.00     0.002 C 
ATOM     10  C   UNL     1      19.533   5.168   5.046  1.00  0.00    -0.026 C 
ATOM     11  C   UNL     1      20.494   6.394   5.320  1.00  0.00     0.010 C 
ATOM     12  C   UNL     1      21.987   6.145   5.076  1.00  0.00     0.033 C 
ATOM     13  C   UNL     1      22.351   5.636   3.657  1.00  0.00     0.120 C 
ATOM     14  C   UNL     1      21.169   4.892   2.928  1.00  0.00    -0.006 C 
ATOM     15  C   UNL     1      20.219   4.175   3.993  1.00  0.00     0.003 C 
ATOM     16  C   UNL     1      20.955   2.947   4.636  1.00  0.00     0.005 C 
ATOM     17  C   UNL     1      20.989   2.869   6.151  1.00  0.00     0.008 C 
ATOM     18  C   UNL     1      19.616   3.053   6.837  1.00  0.00    -0.024 C 
ATOM     19  C   UNL     1      19.776   2.946   8.443  1.00  0.00    -0.024 C 
ATOM     20  C   UNL     1      20.060   1.479   8.894  1.00  0.00     0.008 C 
ATOM     21  C   UNL     1      20.322   1.376  10.398  1.00  0.00     0.007 C 
ATOM     22  C   UNL     1      20.984   3.828   8.942  1.00  0.00     0.012 C 
ATOM     23  C   UNL     1      18.700   1.896   6.305  1.00  0.00     0.012 C 
ATOM     24  C   UNL     1      21.702   3.866   1.875  1.00  0.00     0.014 C 
ATOM     25  C   UNL     1      20.406   5.931   2.050  1.00  0.00     0.014 C 
ATOM     26  C   UNL     1      18.240   5.758   4.371  1.00  0.00     0.012 C 
ATOM     27  C   UNL     1      19.797   2.255  12.669  1.00  0.00     0.011 C 
ENDROOT
BRANCH   1  28
ATOM     28  C   UNL     1      15.898   3.977  10.871  1.00  0.00    -0.077 C 
ATOM     29  C   UNL     1      15.868   5.438  11.252  1.00  0.00     0.039 C 
ATOM     30  C   UNL     1      14.882   3.501  10.128  1.00  0.00     0.008 C 
ENDBRANCH   1  28
BRANCH  13  31
ATOM     31  O   UNL     1      23.488   4.809   3.775  1.00  0.00    -0.393 OA
ATOM     32  H   UNL     1      23.173   3.871   3.869  1.00  0.00     0.210 HD
ENDBRANCH  13  31
TORSDOF 2
ENDMDL
MODEL 2
REMARK VINA RESULT:    -3.121      2.089      7.487
REMARK INTER + INTRA:          -3.659
REMARK INTER:                  -3.677
REMARK INTRA:                   0.018
REMARK UNBOUND:                -0.265
REMARK SMILES C=C(C)[C@H]1CC[C@@]2(C)CC[C@]3(C)[C@H](CC[C@H]4[C@@]5(C)CC[C@@H](O)C(C)(C)[C@H]5CC[C@]43C)[C@@H]12
REMARK SMILES IDX 4 1 5 2 6 3 7 4 31 5 13 6 14 7 15 8 16 9 17 10 19 11 20 12
REMARK SMILES IDX 21 13 23 14 26 15 27 16 28 17 29 18 11 19 10 20 9 21 12 22
REMARK SMILES IDX 30 23 24 24 25 25 18 26 8 27 2 28 3 29 1 30 22 31
REMARK H PARENT 22 32
REMARK Flexibility Score: inf
ROOT
ATOM      1  C   UNL     1      19.374   4.947   1.989  1.00  0.00     0.018 C 
ATOM      2  C   UNL     1      19.849   6.396   1.876  1.00  0.00     0.009 C 
ATOM      3  C   UNL     1      21.269   6.422   2.432  1.00  0.00     0.008 C 
ATOM      4  C   UNL     1      21.600   5.000   2.958  1.00  0.00    -0.029 C 
ATOM      5  C   UNL     1      20.211   4.284   3.122  1.00  0.00     0.006 C 
ATOM      6  C   UNL     1      19.568   4.395   4.562  1.00  0.00    -0.000 C 
ATOM      7  C   UNL     1      18.317   3.480   4.711  1.00  0.00     0.005 C 
ATOM      8  C   UNL     1      18.227   2.690   6.012  1.00  0.00     0.005 C 
ATOM      9  C   UNL     1      18.499   3.569   7.270  1.00  0.00     0.002 C 
ATOM     10  C   UNL     1      18.121   2.859   8.678  1.00  0.00    -0.026 C 
ATOM     11  C   UNL     1      18.410   1.304   8.725  1.00  0.00     0.010 C 
ATOM     12  C   UNL     1      19.642   0.875   9.532  1.00  0.00     0.033 C 
ATOM     13  C   UNL     1      19.667   1.352  11.008  1.00  0.00     0.120 C 
ATOM     14  C   UNL     1      18.807   2.645  11.270  1.00  0.00    -0.006 C 
ATOM     15  C   UNL     1      18.765   3.563   9.963  1.00  0.00     0.003 C 
ATOM     16  C   UNL     1      20.169   4.218   9.715  1.00  0.00     0.005 C 
ATOM     17  C   UNL     1      20.778   4.063   8.334  1.00  0.00     0.008 C 
ATOM     18  C   UNL     1      19.832   4.433   7.168  1.00  0.00    -0.024 C 
ATOM     19  C   UNL     1      20.588   4.233   5.752  1.00  0.00    -0.024 C 
ATOM     20  C   UNL     1      21.673   5.331   5.521  1.00  0.00     0.008 C 
ATOM     21  C   UNL     1      22.472   5.094   4.239  1.00  0.00     0.007 C 
ATOM     22  C   UNL     1      21.320   2.837   5.704  1.00  0.00     0.012 C 
ATOM     23  C   UNL     1      19.453   5.942   7.372  1.00  0.00     0.012 C 
ATOM     24  C   UNL     1      19.344   3.449  12.500  1.00  0.00     0.014 C 
ATOM     25  C   UNL     1      17.386   2.201  11.736  1.00  0.00     0.014 C 
ATOM     26  C   UNL     1      16.558   3.023   8.777  1.00  0.00     0.012 C 
ATOM     27  C   UNL     1      22.448   4.249   1.895  1.00  0.00     0.011 C 
ENDROOT
BRANCH   1  28
ATOM     28  C   UNL     1      17.852   4.762   1.979  1.00  0.00    -0.077 C 
ATOM     29  C   UNL     1      17.279   3.369   1.877  1.00  0.00     0.039 C 
ATOM     30  C   UNL     1      16.989   5.795   2.011  1.00  0.00     0.008 C 
ENDBRANCH   1  28
BRANCH  13  31
ATOM     31  O   UNL     1      21.015   1.543  11.375  1.00  0.00    -0.393 OA
ATOM     32  H   UNL     1      21.566   1.480  10.551  1.00  0.00     0.210 HD
ENDBRANCH  13  31
TORSDOF 2
ENDMDL
MODEL 3
REMARK VINA RESULT:    -2.811      2.103      7.854
REMARK INTER + INTRA:          -3.323
REMARK INTER:                  -3.332
REMARK INTRA:                   0.010
REMARK UNBOUND:                -0.265
REMARK SMILES C=C(C)[C@H]1CC[C@@]2(C)CC[C@]3(C)[C@H](CC[C@H]4[C@@]5(C)CC[C@@H](O)C(C)(C)[C@H]5CC[C@]43C)[C@@H]12
REMARK SMILES IDX 4 1 5 2 6 3 7 4 31 5 13 6 14 7 15 8 16 9 17 10 19 11 20 12
REMARK SMILES IDX 21 13 23 14 26 15 27 16 28 17 29 18 11 19 10 20 9 21 12 22
REMARK SMILES IDX 30 23 24 24 25 25 18 26 8 27 2 28 3 29 1 30 22 31
REMARK H PARENT 22 32
REMARK Flexibility Score: inf
ROOT
ATOM      1  C   UNL     1      22.798   5.098   2.646  1.00  0.00     0.018 C 
ATOM      2  C   UNL     1      21.989   6.142   1.875  1.00  0.00     0.009 C 
ATOM      3  C   UNL     1      21.885   7.358   2.790  1.00  0.00     0.008 C 
ATOM      4  C   UNL     1      22.558   6.997   4.140  1.00  0.00    -0.029 C 
ATOM      5  C   UNL     1      22.636   5.428   4.160  1.00  0.00     0.006 C 
ATOM      6  C   UNL     1      21.415   4.706   4.860  1.00  0.00    -0.000 C 
ATOM      7  C   UNL     1      21.669   3.180   5.040  1.00  0.00     0.005 C 
ATOM      8  C   UNL     1      21.278   2.601   6.395  1.00  0.00     0.005 C 
ATOM      9  C   UNL     1      19.856   3.047   6.852  1.00  0.00     0.002 C 
ATOM     10  C   UNL     1      19.275   2.226   8.125  1.00  0.00    -0.026 C 
ATOM     11  C   UNL     1      20.364   1.836   9.204  1.00  0.00     0.010 C 
ATOM     12  C   UNL     1      20.353   2.661  10.497  1.00  0.00     0.033 C 
ATOM     13  C   UNL     1      19.001   2.688  11.256  1.00  0.00     0.120 C 
ATOM     14  C   UNL     1      17.752   2.416  10.335  1.00  0.00    -0.006 C 
ATOM     15  C   UNL     1      18.032   2.931   8.849  1.00  0.00     0.003 C 
ATOM     16  C   UNL     1      18.058   4.499   8.814  1.00  0.00     0.005 C 
ATOM     17  C   UNL     1      19.260   5.163   8.168  1.00  0.00     0.008 C 
ATOM     18  C   UNL     1      19.622   4.618   6.767  1.00  0.00    -0.024 C 
ATOM     19  C   UNL     1      20.910   5.401   6.180  1.00  0.00    -0.024 C 
ATOM     20  C   UNL     1      20.553   6.864   5.769  1.00  0.00     0.008 C 
ATOM     21  C   UNL     1      21.783   7.654   5.315  1.00  0.00     0.007 C 
ATOM     22  C   UNL     1      22.051   5.487   7.265  1.00  0.00     0.012 C 
ATOM     23  C   UNL     1      18.370   4.877   5.858  1.00  0.00     0.012 C 
ATOM     24  C   UNL     1      16.458   3.073  10.918  1.00  0.00     0.014 C 
ATOM     25  C   UNL     1      17.427   0.892  10.389  1.00  0.00     0.014 C 
ATOM     26  C   UNL     1      18.761   0.875   7.503  1.00  0.00     0.012 C 
ATOM     27  C   UNL     1      23.994   7.588   4.168  1.00  0.00     0.011 C 
ENDROOT
BRANCH   1  28
ATOM     28  C   UNL     1      22.607   3.652   2.173  1.00  0.00    -0.077 C 
ATOM     29  C   UNL     1      21.213   3.145   1.892  1.00  0.00     0.039 C 
ATOM     30  C   UNL     1      23.628   2.786   2.038  1.00  0.00     0.008 C 
ENDBRANCH   1  28
BRANCH  13  31
ATOM     31  O   UNL     1      18.900   3.932  11.911  1.00  0.00    -0.393 OA
ATOM     32  H   UNL     1      19.651   3.996  12.559  1.00  0.00     0.210 HD
ENDBRANCH  13  31
TORSDOF 2
ENDMDL
