MODEL 1
REMARK VINA RESULT:    -5.051      0.000      0.000
REMARK INTER + INTRA:          -7.918
REMARK INTER:                  -7.119
REMARK INTRA:                  -0.799
REMARK UNBOUND:                -0.799
REMARK SMILES CC(=O)OCC[C@H](C)CCC=C(C)C
REMARK SMILES IDX 8 1 7 2 9 3 10 4 11 5 12 6 13 7 14 8 6 9 5 10 4 11 2 12 3 13
REMARK SMILES IDX 1 14
REMARK H PARENT
REMARK Flexibility Score: inf
ROOT
ATOM      1  C   UNL     1     -35.456  -4.256 -11.228  1.00  0.00     0.008 C 
ATOM      2  C   UNL     1     -33.990  -4.144 -11.687  1.00  0.00    -0.011 C 
ENDROOT
BRANCH   2   3
ATOM      3  C   UNL     1     -33.226  -3.079 -10.863  1.00  0.00     0.007 C 
BRANCH   3   4
ATOM      4  C   UNL     1     -34.140  -1.966 -10.325  1.00  0.00     0.027 C 
BRANCH   4   5
ATOM      5  C   UNL     1     -33.858  -1.699  -8.867  1.00  0.00    -0.028 C 
ATOM      6  C   UNL     1     -34.761  -1.855  -7.874  1.00  0.00    -0.080 C 
ATOM      7  C   UNL     1     -36.188  -2.268  -8.148  1.00  0.00     0.039 C 
ATOM      8  C   UNL     1     -34.323  -1.590  -6.457  1.00  0.00     0.039 C 
ENDBRANCH   4   5
ENDBRANCH   3   4
ENDBRANCH   2   3
BRANCH   2   9
ATOM      9  C   UNL     1     -33.902  -3.793 -13.194  1.00  0.00     0.045 C 
BRANCH   9  10
ATOM     10  C   UNL     1     -35.223  -3.258 -13.765  1.00  0.00     0.233 C 
BRANCH  10  11
ATOM     11  O   UNL     1     -35.660  -4.069 -14.854  1.00  0.00    -0.466 OA
BRANCH  11  12
ATOM     12  C   UNL     1     -36.355  -5.273 -14.688  1.00  0.00     0.302 C 
ATOM     13  O   UNL     1     -35.881  -6.359 -15.120  1.00  0.00    -0.253 OA
ATOM     14  C   UNL     1     -37.691  -5.262 -14.025  1.00  0.00     0.139 C 
ENDBRANCH  11  12
ENDBRANCH  10  11
ENDBRANCH   9  10
ENDBRANCH   2   9
TORSDOF 7
ENDMDL
MODEL 2
REMARK VINA RESULT:    -5.003      2.545      4.446
REMARK INTER + INTRA:          -7.850
REMARK INTER:                  -6.751
REMARK INTRA:                  -1.099
REMARK UNBOUND:                -0.799
REMARK SMILES CC(=O)OCC[C@H](C)CCC=C(C)C
REMARK SMILES IDX 8 1 7 2 9 3 10 4 11 5 12 6 13 7 14 8 6 9 5 10 4 11 2 12 3 13
REMARK SMILES IDX 1 14
REMARK H PARENT
REMARK Flexibility Score: inf
ROOT
ATOM      1  C   UNL     1     -38.021  -4.354  -7.969  1.00  0.00     0.008 C 
ATOM      2  C   UNL     1     -37.646  -3.350  -9.076  1.00  0.00    -0.011 C 
ENDROOT
BRANCH   2   3
ATOM      3  C   UNL     1     -36.883  -2.136  -8.492  1.00  0.00     0.007 C 
BRANCH   3   4
ATOM      4  C   UNL     1     -35.382  -2.151  -8.826  1.00  0.00     0.027 C 
BRANCH   4   5
ATOM      5  C   UNL     1     -35.101  -3.071  -9.989  1.00  0.00    -0.028 C 
ATOM      6  C   UNL     1     -33.915  -3.146 -10.632  1.00  0.00    -0.080 C 
ATOM      7  C   UNL     1     -32.751  -2.254 -10.272  1.00  0.00     0.039 C 
ATOM      8  C   UNL     1     -33.768  -4.143 -11.752  1.00  0.00     0.039 C 
ENDBRANCH   4   5
ENDBRANCH   3   4
ENDBRANCH   2   3
BRANCH   2   9
ATOM      9  C   UNL     1     -38.905  -2.855  -9.831  1.00  0.00     0.045 C 
BRANCH   9  10
ATOM     10  C   UNL     1     -38.761  -1.425 -10.370  1.00  0.00     0.233 C 
BRANCH  10  11
ATOM     11  O   UNL     1     -38.645  -1.439 -11.792  1.00  0.00    -0.466 OA
BRANCH  11  12
ATOM     12  C   UNL     1     -37.485  -1.839 -12.467  1.00  0.00     0.302 C 
ATOM     13  O   UNL     1     -37.368  -3.013 -12.912  1.00  0.00    -0.253 OA
ATOM     14  C   UNL     1     -36.359  -0.875 -12.626  1.00  0.00     0.139 C 
ENDBRANCH  11  12
ENDBRANCH  10  11
ENDBRANCH   9  10
ENDBRANCH   2   9
TORSDOF 7
ENDMDL
MODEL 3
REMARK VINA RESULT:    -4.921      1.889      2.406
REMARK INTER + INTRA:          -7.734
REMARK INTER:                  -6.884
REMARK INTRA:                  -0.850
REMARK UNBOUND:                -0.799
REMARK SMILES CC(=O)OCC[C@H](C)CCC=C(C)C
REMARK SMILES IDX 8 1 7 2 9 3 10 4 11 5 12 6 13 7 14 8 6 9 5 10 4 11 2 12 3 13
REMARK SMILES IDX 1 14
REMARK H PARENT
REMARK Flexibility Score: inf
ROOT
ATOM      1  C   UNL     1     -35.337  -4.488 -11.577  1.00  0.00     0.008 C 
ATOM      2  C   UNL     1     -33.889  -4.127 -11.955  1.00  0.00    -0.011 C 
ENDROOT
BRANCH   2   3
ATOM      3  C   UNL     1     -33.258  -3.179 -10.906  1.00  0.00     0.007 C 
BRANCH   3   4
ATOM      4  C   UNL     1     -34.237  -2.108 -10.397  1.00  0.00     0.027 C 
BRANCH   4   5
ATOM      5  C   UNL     1     -33.957  -1.770  -8.954  1.00  0.00    -0.028 C 
ATOM      6  C   UNL     1     -34.838  -1.945  -7.945  1.00  0.00    -0.080 C 
ATOM      7  C   UNL     1     -36.238  -2.458  -8.185  1.00  0.00     0.039 C 
ATOM      8  C   UNL     1     -34.403  -1.601  -6.543  1.00  0.00     0.039 C 
ENDBRANCH   4   5
ENDBRANCH   3   4
ENDBRANCH   2   3
BRANCH   2   9
ATOM      9  C   UNL     1     -33.826  -3.465 -13.355  1.00  0.00     0.045 C 
BRANCH   9  10
ATOM     10  C   UNL     1     -35.207  -3.063 -13.893  1.00  0.00     0.233 C 
BRANCH  10  11
ATOM     11  O   UNL     1     -35.507  -1.714 -13.539  1.00  0.00    -0.466 OA
BRANCH  11  12
ATOM     12  C   UNL     1     -36.812  -1.229 -13.385  1.00  0.00     0.302 C 
ATOM     13  O   UNL     1     -37.559  -1.056 -14.386  1.00  0.00    -0.253 OA
ATOM     14  C   UNL     1     -37.308  -0.877 -12.024  1.00  0.00     0.139 C 
ENDBRANCH  11  12
ENDBRANCH  10  11
ENDBRANCH   9  10
ENDBRANCH   2   9
TORSDOF 7
ENDMDL
MODEL 4
REMARK VINA RESULT:    -4.704      2.069      2.628
REMARK INTER + INTRA:          -7.429
REMARK INTER:                  -6.238
REMARK INTRA:                  -1.190
REMARK UNBOUND:                -0.799
REMARK SMILES CC(=O)OCC[C@H](C)CCC=C(C)C
REMARK SMILES IDX 8 1 7 2 9 3 10 4 11 5 12 6 13 7 14 8 6 9 5 10 4 11 2 12 3 13
REMARK SMILES IDX 1 14
REMARK H PARENT
REMARK Flexibility Score: inf
ROOT
ATOM      1  C   UNL     1     -36.717  -4.111  -9.936  1.00  0.00     0.008 C 
ATOM      2  C   UNL     1     -35.929  -3.713 -11.198  1.00  0.00    -0.011 C 
ENDROOT
BRANCH   2   3
ATOM      3  C   UNL     1     -34.428  -3.511 -10.877  1.00  0.00     0.007 C 
BRANCH   3   4
ATOM      4  C   UNL     1     -34.094  -2.074 -10.444  1.00  0.00     0.027 C 
BRANCH   4   5
ATOM      5  C   UNL     1     -33.796  -2.015  -8.966  1.00  0.00    -0.028 C 
ATOM      6  C   UNL     1     -34.635  -1.504  -8.039  1.00  0.00    -0.080 C 
ATOM      7  C   UNL     1     -35.958  -0.879  -8.414  1.00  0.00     0.039 C 
ATOM      8  C   UNL     1     -34.220  -1.551  -6.591  1.00  0.00     0.039 C 
ENDBRANCH   4   5
ENDBRANCH   3   4
ENDBRANCH   2   3
BRANCH   2   9
ATOM      9  C   UNL     1     -36.502  -2.420 -11.829  1.00  0.00     0.045 C 
BRANCH   9  10
ATOM     10  C   UNL     1     -36.606  -2.491 -13.359  1.00  0.00     0.233 C 
BRANCH  10  11
ATOM     11  O   UNL     1     -35.636  -1.636 -13.964  1.00  0.00    -0.466 OA
BRANCH  11  12
ATOM     12  C   UNL     1     -34.329  -2.042 -14.260  1.00  0.00     0.302 C 
ATOM     13  O   UNL     1     -33.347  -1.291 -14.014  1.00  0.00    -0.253 OA
ATOM     14  C   UNL     1     -34.101  -3.365 -14.908  1.00  0.00     0.139 C 
ENDBRANCH  11  12
ENDBRANCH  10  11
ENDBRANCH   9  10
ENDBRANCH   2   9
TORSDOF 7
ENDMDL
MODEL 5
REMARK VINA RESULT:    -4.675      1.946      2.814
REMARK INTER + INTRA:          -7.387
REMARK INTER:                  -6.470
REMARK INTRA:                  -0.917
REMARK UNBOUND:                -0.799
REMARK SMILES CC(=O)OCC[C@H](C)CCC=C(C)C
REMARK SMILES IDX 8 1 7 2 9 3 10 4 11 5 12 6 13 7 14 8 6 9 5 10 4 11 2 12 3 13
REMARK SMILES IDX 1 14
REMARK H PARENT
REMARK Flexibility Score: inf
ROOT
ATOM      1  C   UNL     1     -33.923  -3.167 -14.219  1.00  0.00     0.008 C 
ATOM      2  C   UNL     1     -34.612  -3.650 -12.929  1.00  0.00    -0.011 C 
ENDROOT
BRANCH   2   3
ATOM      3  C   UNL     1     -33.570  -4.016 -11.844  1.00  0.00     0.007 C 
BRANCH   3   4
ATOM      4  C   UNL     1     -33.572  -3.042 -10.654  1.00  0.00     0.027 C 
BRANCH   4   5
ATOM      5  C   UNL     1     -34.938  -2.977 -10.018  1.00  0.00    -0.028 C 
ATOM      6  C   UNL     1     -35.234  -2.243  -8.923  1.00  0.00    -0.080 C 
ATOM      7  C   UNL     1     -34.185  -1.445  -8.186  1.00  0.00     0.039 C 
ATOM      8  C   UNL     1     -36.656  -2.241  -8.422  1.00  0.00     0.039 C 
ENDBRANCH   4   5
ENDBRANCH   3   4
ENDBRANCH   2   3
BRANCH   2   9
ATOM      9  C   UNL     1     -35.523  -4.872 -13.206  1.00  0.00     0.045 C 
BRANCH   9  10
ATOM     10  C   UNL     1     -36.861  -4.491 -13.855  1.00  0.00     0.233 C 
BRANCH  10  11
ATOM     11  O   UNL     1     -37.942  -4.765 -12.964  1.00  0.00    -0.466 OA
BRANCH  11  12
ATOM     12  C   UNL     1     -38.066  -4.176 -11.700  1.00  0.00     0.302 C 
ATOM     13  O   UNL     1     -38.169  -2.925 -11.577  1.00  0.00    -0.253 OA
ATOM     14  C   UNL     1     -38.038  -5.037 -10.484  1.00  0.00     0.139 C 
ENDBRANCH  11  12
ENDBRANCH  10  11
ENDBRANCH   9  10
ENDBRANCH   2   9
TORSDOF 7
ENDMDL
MODEL 6
REMARK VINA RESULT:    -4.673      2.048      2.843
REMARK INTER + INTRA:          -7.384
REMARK INTER:                  -6.212
REMARK INTRA:                  -1.172
REMARK UNBOUND:                -0.799
REMARK SMILES CC(=O)OCC[C@H](C)CCC=C(C)C
REMARK SMILES IDX 8 1 7 2 9 3 10 4 11 5 12 6 13 7 14 8 6 9 5 10 4 11 2 12 3 13
REMARK SMILES IDX 1 14
REMARK H PARENT
REMARK Flexibility Score: inf
ROOT
ATOM      1  C   UNL     1     -33.894  -4.222 -11.773  1.00  0.00     0.008 C 
ATOM      2  C   UNL     1     -33.452  -2.860 -11.205  1.00  0.00    -0.011 C 
ENDROOT
BRANCH   2   3
ATOM      3  C   UNL     1     -34.103  -2.594  -9.826  1.00  0.00     0.007 C 
BRANCH   3   4
ATOM      4  C   UNL     1     -35.562  -2.120  -9.930  1.00  0.00     0.027 C 
BRANCH   4   5
ATOM      5  C   UNL     1     -36.427  -2.822  -8.911  1.00  0.00    -0.028 C 
ATOM      6  C   UNL     1     -37.198  -3.898  -9.178  1.00  0.00    -0.080 C 
ATOM      7  C   UNL     1     -37.310  -4.478 -10.568  1.00  0.00     0.039 C 
ATOM      8  C   UNL     1     -37.978  -4.521  -8.049  1.00  0.00     0.039 C 
ENDBRANCH   4   5
ENDBRANCH   3   4
ENDBRANCH   2   3
BRANCH   2   9
ATOM      9  C   UNL     1     -33.810  -1.708 -12.177  1.00  0.00     0.045 C 
BRANCH   9  10
ATOM     10  C   UNL     1     -34.008  -2.180 -13.624  1.00  0.00     0.233 C 
BRANCH  10  11
ATOM     11  O   UNL     1     -35.287  -1.775 -14.110  1.00  0.00    -0.466 OA
BRANCH  11  12
ATOM     12  C   UNL     1     -36.488  -2.377 -13.712  1.00  0.00     0.302 C 
ATOM     13  O   UNL     1     -36.726  -3.585 -13.982  1.00  0.00    -0.253 OA
ATOM     14  C   UNL     1     -37.512  -1.565 -12.994  1.00  0.00     0.139 C 
ENDBRANCH  11  12
ENDBRANCH  10  11
ENDBRANCH   9  10
ENDBRANCH   2   9
TORSDOF 7
ENDMDL
MODEL 7
REMARK VINA RESULT:    -4.596     13.113     14.825
REMARK INTER + INTRA:          -7.276
REMARK INTER:                  -5.932
REMARK INTRA:                  -1.344
REMARK UNBOUND:                -0.799
REMARK SMILES CC(=O)OCC[C@H](C)CCC=C(C)C
REMARK SMILES IDX 8 1 7 2 9 3 10 4 11 5 12 6 13 7 14 8 6 9 5 10 4 11 2 12 3 13
REMARK SMILES IDX 1 14
REMARK H PARENT
REMARK Flexibility Score: inf
ROOT
ATOM      1  C   UNL     1     -21.223  -2.467 -10.535  1.00  0.00     0.008 C 
ATOM      2  C   UNL     1     -21.401  -2.531  -9.006  1.00  0.00    -0.011 C 
ENDROOT
BRANCH   2   3
ATOM      3  C   UNL     1     -20.170  -3.181  -8.328  1.00  0.00     0.007 C 
BRANCH   3   4
ATOM      4  C   UNL     1     -19.521  -4.280  -9.186  1.00  0.00     0.027 C 
BRANCH   4   5
ATOM      5  C   UNL     1     -19.741  -5.639  -8.570  1.00  0.00    -0.028 C 
ATOM      6  C   UNL     1     -20.626  -6.550  -9.031  1.00  0.00    -0.080 C 
ATOM      7  C   UNL     1     -21.537  -6.261 -10.200  1.00  0.00     0.039 C 
ATOM      8  C   UNL     1     -20.708  -7.886  -8.338  1.00  0.00     0.039 C 
ENDBRANCH   4   5
ENDBRANCH   3   4
ENDBRANCH   2   3
BRANCH   2   9
ATOM      9  C   UNL     1     -22.678  -3.322  -8.626  1.00  0.00     0.045 C 
BRANCH   9  10
ATOM     10  C   UNL     1     -22.869  -3.463  -7.109  1.00  0.00     0.233 C 
BRANCH  10  11
ATOM     11  O   UNL     1     -23.419  -4.741  -6.793  1.00  0.00    -0.466 OA
BRANCH  11  12
ATOM     12  C   UNL     1     -22.749  -5.699  -6.022  1.00  0.00     0.302 C 
ATOM     13  O   UNL     1     -23.214  -6.864  -5.890  1.00  0.00    -0.253 OA
ATOM     14  C   UNL     1     -21.491  -5.323  -5.317  1.00  0.00     0.139 C 
ENDBRANCH  11  12
ENDBRANCH  10  11
ENDBRANCH   9  10
ENDBRANCH   2   9
TORSDOF 7
ENDMDL
MODEL 8
REMARK VINA RESULT:    -4.522      3.294      5.018
REMARK INTER + INTRA:          -7.172
REMARK INTER:                  -5.989
REMARK INTRA:                  -1.183
REMARK UNBOUND:                -0.799
REMARK SMILES CC(=O)OCC[C@H](C)CCC=C(C)C
REMARK SMILES IDX 8 1 7 2 9 3 10 4 11 5 12 6 13 7 14 8 6 9 5 10 4 11 2 12 3 13
REMARK SMILES IDX 1 14
REMARK H PARENT
REMARK Flexibility Score: inf
ROOT
ATOM      1  C   UNL     1     -33.547  -4.195 -11.761  1.00  0.00     0.008 C 
ATOM      2  C   UNL     1     -33.958  -2.771 -11.340  1.00  0.00    -0.011 C 
ENDROOT
BRANCH   2   3
ATOM      3  C   UNL     1     -33.832  -1.781 -12.524  1.00  0.00     0.007 C 
BRANCH   3   4
ATOM      4  C   UNL     1     -35.136  -1.636 -13.327  1.00  0.00     0.027 C 
BRANCH   4   5
ATOM      5  C   UNL     1     -36.223  -1.026 -12.477  1.00  0.00    -0.028 C 
ATOM      6  C   UNL     1     -37.437  -1.583 -12.277  1.00  0.00    -0.080 C 
ATOM      7  C   UNL     1     -37.846  -2.873 -12.947  1.00  0.00     0.039 C 
ATOM      8  C   UNL     1     -38.410  -0.878 -11.367  1.00  0.00     0.039 C 
ENDBRANCH   4   5
ENDBRANCH   3   4
ENDBRANCH   2   3
BRANCH   2   9
ATOM      9  C   UNL     1     -33.097  -2.270 -10.153  1.00  0.00     0.045 C 
BRANCH   9  10
ATOM     10  C   UNL     1     -33.924  -1.964  -8.896  1.00  0.00     0.233 C 
BRANCH  10  11
ATOM     11  O   UNL     1     -35.316  -1.940  -9.210  1.00  0.00    -0.466 OA
BRANCH  11  12
ATOM     12  C   UNL     1     -36.262  -2.753  -8.574  1.00  0.00     0.302 C 
ATOM     13  O   UNL     1     -36.465  -2.661  -7.333  1.00  0.00    -0.253 OA
ATOM     14  C   UNL     1     -37.011  -3.767  -9.371  1.00  0.00     0.139 C 
ENDBRANCH  11  12
ENDBRANCH  10  11
ENDBRANCH   9  10
ENDBRANCH   2   9
TORSDOF 7
ENDMDL
MODEL 9
REMARK VINA RESULT:    -4.499      2.785      5.280
REMARK INTER + INTRA:          -7.139
REMARK INTER:                  -6.039
REMARK INTRA:                  -1.100
REMARK UNBOUND:                -0.799
REMARK SMILES CC(=O)OCC[C@H](C)CCC=C(C)C
REMARK SMILES IDX 8 1 7 2 9 3 10 4 11 5 12 6 13 7 14 8 6 9 5 10 4 11 2 12 3 13
REMARK SMILES IDX 1 14
REMARK H PARENT
REMARK Flexibility Score: inf
ROOT
ATOM      1  C   UNL     1     -32.722  -2.353 -10.248  1.00  0.00     0.008 C 
ATOM      2  C   UNL     1     -34.060  -3.057 -10.540  1.00  0.00    -0.011 C 
ENDROOT
BRANCH   2   3
ATOM      3  C   UNL     1     -33.902  -4.113 -11.661  1.00  0.00     0.007 C 
BRANCH   3   4
ATOM      4  C   UNL     1     -34.533  -3.674 -12.993  1.00  0.00     0.027 C 
BRANCH   4   5
ATOM      5  C   UNL     1     -35.488  -4.725 -13.505  1.00  0.00    -0.028 C 
ATOM      6  C   UNL     1     -36.788  -4.498 -13.792  1.00  0.00    -0.080 C 
ATOM      7  C   UNL     1     -37.434  -3.151 -13.570  1.00  0.00     0.039 C 
ATOM      8  C   UNL     1     -37.613  -5.636 -14.336  1.00  0.00     0.039 C 
ENDBRANCH   4   5
ENDBRANCH   3   4
ENDBRANCH   2   3
BRANCH   2   9
ATOM      9  C   UNL     1     -35.153  -2.036 -10.941  1.00  0.00     0.045 C 
BRANCH   9  10
ATOM     10  C   UNL     1     -36.123  -1.709  -9.796  1.00  0.00     0.233 C 
BRANCH  10  11
ATOM     11  O   UNL     1     -37.326  -2.464  -9.933  1.00  0.00    -0.466 OA
BRANCH  11  12
ATOM     12  C   UNL     1     -37.513  -3.727  -9.357  1.00  0.00     0.302 C 
ATOM     13  O   UNL     1     -37.535  -3.870  -8.105  1.00  0.00    -0.253 OA
ATOM     14  C   UNL     1     -37.649  -4.921 -10.239  1.00  0.00     0.139 C 
ENDBRANCH  11  12
ENDBRANCH  10  11
ENDBRANCH   9  10
ENDBRANCH   2   9
TORSDOF 7
ENDMDL
