MODEL 1
REMARK VINA RESULT:    -3.503      0.000      0.000
REMARK INTER + INTRA:          -4.283
REMARK INTER:                  -4.220
REMARK INTRA:                  -0.063
REMARK UNBOUND:                -0.063
REMARK SMILES CC[C@@H](C)[C@H]([NH3+])C(=O)[O-]
REMARK SMILES IDX 3 1 4 2 5 3 6 4 7 8 8 9 9 10 2 11 1 12
REMARK H PARENT 6 5 6 6 6 7
REMARK Flexibility Score: inf
ROOT
ATOM      1  C   UNL     1     128.267 124.205 130.538  1.00  0.00     0.050 C 
ATOM      2  C   UNL     1     128.966 122.845 130.363  1.00  0.00     0.014 C 
ENDROOT
BRANCH   1   3
ATOM      3  C   UNL     1     128.172 124.566 132.061  1.00  0.00     0.230 C 
BRANCH   3   4
ATOM      4  N   UNL     1     129.127 123.798 132.874  1.00  0.00    -0.350 N 
ATOM      5  H   UNL     1     128.679 122.917 133.216  1.00  0.00     0.345 HD
ATOM      6  H   UNL     1     129.950 123.529 132.284  1.00  0.00     0.345 HD
ATOM      7  H   UNL     1     129.474 124.343 133.691  1.00  0.00     0.345 HD
ENDBRANCH   3   4
BRANCH   3   8
ATOM      8  C   UNL     1     126.771 124.449 132.610  1.00  0.00     0.099 C 
ATOM      9  O   UNL     1     126.020 123.514 132.224  1.00  0.00    -0.544 OA
ATOM     10  O   UNL     1     126.306 125.342 133.568  1.00  0.00    -0.544 OA
ENDBRANCH   3   8
ENDBRANCH   1   3
BRANCH   1  11
ATOM     11  C   UNL     1     128.978 125.253 129.638  1.00  0.00     0.006 C 
ATOM     12  C   UNL     1     130.009 124.663 128.678  1.00  0.00     0.004 C 
ENDBRANCH   1  11
TORSDOF 4
ENDMDL
MODEL 2
REMARK VINA RESULT:    -3.487      6.917      7.929
REMARK INTER + INTRA:          -4.263
REMARK INTER:                  -4.144
REMARK INTRA:                  -0.120
REMARK UNBOUND:                -0.063
REMARK SMILES CC[C@@H](C)[C@H]([NH3+])C(=O)[O-]
REMARK SMILES IDX 3 1 4 2 5 3 6 4 7 8 8 9 9 10 2 11 1 12
REMARK H PARENT 6 5 6 6 6 7
REMARK Flexibility Score: inf
ROOT
ATOM      1  C   UNL     1     129.640 123.246 125.533  1.00  0.00     0.050 C 
ATOM      2  C   UNL     1     128.629 122.088 125.457  1.00  0.00     0.014 C 
ENDROOT
BRANCH   1   3
ATOM      3  C   UNL     1     129.610 124.071 124.200  1.00  0.00     0.230 C 
BRANCH   3   4
ATOM      4  N   UNL     1     128.720 123.469 123.195  1.00  0.00    -0.350 N 
ATOM      5  H   UNL     1     127.785 123.937 123.218  1.00  0.00     0.345 HD
ATOM      6  H   UNL     1     129.125 123.612 122.240  1.00  0.00     0.345 HD
ATOM      7  H   UNL     1     128.594 122.446 123.347  1.00  0.00     0.345 HD
ENDBRANCH   3   4
BRANCH   3   8
ATOM      8  C   UNL     1     130.984 124.325 123.629  1.00  0.00     0.099 C 
ATOM      9  O   UNL     1     131.152 125.233 122.774  1.00  0.00    -0.544 OA
ATOM     10  O   UNL     1     132.080 123.589 124.064  1.00  0.00    -0.544 OA
ENDBRANCH   3   8
ENDBRANCH   1   3
BRANCH   1  11
ATOM     11  C   UNL     1     129.380 124.055 126.834  1.00  0.00     0.006 C 
ATOM     12  C   UNL     1     130.631 124.689 127.442  1.00  0.00     0.004 C 
ENDBRANCH   1  11
TORSDOF 4
ENDMDL
MODEL 3
REMARK VINA RESULT:    -3.483      9.402     10.080
REMARK INTER + INTRA:          -4.259
REMARK INTER:                  -4.192
REMARK INTRA:                  -0.067
REMARK UNBOUND:                -0.063
REMARK SMILES CC[C@@H](C)[C@H]([NH3+])C(=O)[O-]
REMARK SMILES IDX 3 1 4 2 5 3 6 4 7 8 8 9 9 10 2 11 1 12
REMARK H PARENT 6 5 6 6 6 7
REMARK Flexibility Score: inf
ROOT
ATOM      1  C   UNL     1     129.827 134.079 130.557  1.00  0.00     0.050 C 
ATOM      2  C   UNL     1     128.906 135.313 130.526  1.00  0.00     0.014 C 
ENDROOT
BRANCH   1   3
ATOM      3  C   UNL     1     129.889 133.494 132.010  1.00  0.00     0.230 C 
BRANCH   3   4
ATOM      4  N   UNL     1     128.903 134.121 132.904  1.00  0.00    -0.350 N 
ATOM      5  H   UNL     1     127.952 133.726 132.720  1.00  0.00     0.345 HD
ATOM      6  H   UNL     1     129.150 133.909 133.899  1.00  0.00     0.345 HD
ATOM      7  H   UNL     1     128.871 135.155 132.787  1.00  0.00     0.345 HD
ENDBRANCH   3   4
BRANCH   3   8
ATOM      8  C   UNL     1     131.274 133.540 132.608  1.00  0.00     0.099 C 
ATOM      9  O   UNL     1     131.598 132.719 133.507  1.00  0.00    -0.544 OA
ATOM     10  O   UNL     1     132.214 134.457 132.154  1.00  0.00    -0.544 OA
ENDBRANCH   3   8
ENDBRANCH   1   3
BRANCH   1  11
ATOM     11  C   UNL     1     129.377 133.090 129.447  1.00  0.00     0.006 C 
ATOM     12  C   UNL     1     130.407 132.875 128.339  1.00  0.00     0.004 C 
ENDBRANCH   1  11
TORSDOF 4
ENDMDL
MODEL 4
REMARK VINA RESULT:    -3.476     11.449     12.421
REMARK INTER + INTRA:          -4.251
REMARK INTER:                  -4.125
REMARK INTRA:                  -0.125
REMARK UNBOUND:                -0.063
REMARK SMILES CC[C@@H](C)[C@H]([NH3+])C(=O)[O-]
REMARK SMILES IDX 3 1 4 2 5 3 6 4 7 8 8 9 9 10 2 11 1 12
REMARK H PARENT 6 5 6 6 6 7
REMARK Flexibility Score: inf
ROOT
ATOM      1  C   UNL     1     128.419 134.911 125.495  1.00  0.00     0.050 C 
ATOM      2  C   UNL     1     129.426 136.071 125.385  1.00  0.00     0.014 C 
ENDROOT
BRANCH   1   3
ATOM      3  C   UNL     1     128.505 134.004 124.219  1.00  0.00     0.230 C 
BRANCH   3   4
ATOM      4  N   UNL     1     129.403 134.566 123.199  1.00  0.00    -0.350 N 
ATOM      5  H   UNL     1     129.729 135.515 123.493  1.00  0.00     0.345 HD
ATOM      6  H   UNL     1     130.247 133.954 123.102  1.00  0.00     0.345 HD
ATOM      7  H   UNL     1     128.941 134.638 122.268  1.00  0.00     0.345 HD
ENDBRANCH   3   4
BRANCH   3   8
ATOM      8  C   UNL     1     127.153 133.676 123.634  1.00  0.00     0.099 C 
ATOM      9  O   UNL     1     127.041 132.746 122.792  1.00  0.00    -0.544 OA
ATOM     10  O   UNL     1     126.017 134.366 124.041  1.00  0.00    -0.544 OA
ENDBRANCH   3   8
ENDBRANCH   1   3
BRANCH   1  11
ATOM     11  C   UNL     1     128.633 134.189 126.854  1.00  0.00     0.006 C 
ATOM     12  C   UNL     1     127.376 133.535 127.425  1.00  0.00     0.004 C 
ENDBRANCH   1  11
TORSDOF 4
ENDMDL
MODEL 5
REMARK VINA RESULT:    -3.469      0.940      1.543
REMARK INTER + INTRA:          -4.242
REMARK INTER:                  -4.125
REMARK INTRA:                  -0.116
REMARK UNBOUND:                -0.063
REMARK SMILES CC[C@@H](C)[C@H]([NH3+])C(=O)[O-]
REMARK SMILES IDX 3 1 4 2 5 3 6 4 7 8 8 9 9 10 2 11 1 12
REMARK H PARENT 6 5 6 6 6 7
REMARK Flexibility Score: inf
ROOT
ATOM      1  C   UNL     1     128.429 123.228 130.646  1.00  0.00     0.050 C 
ATOM      2  C   UNL     1     129.425 122.055 130.692  1.00  0.00     0.014 C 
ENDROOT
BRANCH   1   3
ATOM      3  C   UNL     1     128.484 124.029 131.993  1.00  0.00     0.230 C 
BRANCH   3   4
ATOM      4  N   UNL     1     129.389 123.408 132.972  1.00  0.00    -0.350 N 
ATOM      5  H   UNL     1     130.239 123.038 132.488  1.00  0.00     0.345 HD
ATOM      6  H   UNL     1     129.703 124.129 133.663  1.00  0.00     0.345 HD
ATOM      7  H   UNL     1     128.929 122.632 133.493  1.00  0.00     0.345 HD
ENDBRANCH   3   4
BRANCH   3   8
ATOM      8  C   UNL     1     127.119 124.273 132.591  1.00  0.00     0.099 C 
ATOM      9  O   UNL     1     126.968 125.164 133.469  1.00  0.00    -0.544 OA
ATOM     10  O   UNL     1     126.014 123.550 132.159  1.00  0.00    -0.544 OA
ENDBRANCH   3   8
ENDBRANCH   1   3
BRANCH   1  11
ATOM     11  C   UNL     1     128.689 124.056 129.357  1.00  0.00     0.006 C 
ATOM     12  C   UNL     1     127.428 124.633 128.714  1.00  0.00     0.004 C 
ENDBRANCH   1  11
TORSDOF 4
ENDMDL
MODEL 6
REMARK VINA RESULT:    -3.403      6.640      7.689
REMARK INTER + INTRA:          -4.162
REMARK INTER:                  -4.072
REMARK INTRA:                  -0.090
REMARK UNBOUND:                -0.063
REMARK SMILES CC[C@@H](C)[C@H]([NH3+])C(=O)[O-]
REMARK SMILES IDX 3 1 4 2 5 3 6 4 7 8 8 9 9 10 2 11 1 12
REMARK H PARENT 6 5 6 6 6 7
REMARK Flexibility Score: inf
ROOT
ATOM      1  C   UNL     1     129.775 124.014 126.093  1.00  0.00     0.050 C 
ATOM      2  C   UNL     1     128.946 125.209 126.598  1.00  0.00     0.014 C 
ENDROOT
BRANCH   1   3
ATOM      3  C   UNL     1     130.185 124.241 124.597  1.00  0.00     0.230 C 
BRANCH   3   4
ATOM      4  N   UNL     1     129.044 124.099 123.681  1.00  0.00    -0.350 N 
ATOM      5  H   UNL     1     128.151 124.059 124.225  1.00  0.00     0.345 HD
ATOM      6  H   UNL     1     128.996 124.934 123.051  1.00  0.00     0.345 HD
ATOM      7  H   UNL     1     129.120 123.246 123.089  1.00  0.00     0.345 HD
ENDBRANCH   3   4
BRANCH   3   8
ATOM      8  C   UNL     1     131.343 123.375 124.164  1.00  0.00     0.099 C 
ATOM      9  O   UNL     1     132.465 123.897 123.929  1.00  0.00    -0.544 OA
ATOM     10  O   UNL     1     131.198 121.997 124.053  1.00  0.00    -0.544 OA
ENDBRANCH   3   8
ENDBRANCH   1   3
BRANCH   1  11
ATOM     11  C   UNL     1     130.945 123.762 127.085  1.00  0.00     0.006 C 
ATOM     12  C   UNL     1     130.580 122.881 128.279  1.00  0.00     0.004 C 
ENDBRANCH   1  11
TORSDOF 4
ENDMDL
MODEL 7
REMARK VINA RESULT:    -3.390     11.191     12.138
REMARK INTER + INTRA:          -4.146
REMARK INTER:                  -4.059
REMARK INTRA:                  -0.087
REMARK UNBOUND:                -0.063
REMARK SMILES CC[C@@H](C)[C@H]([NH3+])C(=O)[O-]
REMARK SMILES IDX 3 1 4 2 5 3 6 4 7 8 8 9 9 10 2 11 1 12
REMARK H PARENT 6 5 6 6 6 7
REMARK Flexibility Score: inf
ROOT
ATOM      1  C   UNL     1     128.228 134.026 126.174  1.00  0.00     0.050 C 
ATOM      2  C   UNL     1     128.973 132.776 126.678  1.00  0.00     0.014 C 
ENDROOT
BRANCH   1   3
ATOM      3  C   UNL     1     127.795 133.825 124.681  1.00  0.00     0.230 C 
BRANCH   3   4
ATOM      4  N   UNL     1     128.942 133.858 123.761  1.00  0.00    -0.350 N 
ATOM      5  H   UNL     1     129.311 134.834 123.683  1.00  0.00     0.345 HD
ATOM      6  H   UNL     1     129.710 133.255 124.139  1.00  0.00     0.345 HD
ATOM      7  H   UNL     1     128.692 133.512 122.811  1.00  0.00     0.345 HD
ENDBRANCH   3   4
BRANCH   3   8
ATOM      8  C   UNL     1     126.717 134.787 124.243  1.00  0.00     0.099 C 
ATOM      9  O   UNL     1     127.009 135.986 123.993  1.00  0.00    -0.544 OA
ATOM     10  O   UNL     1     125.406 134.358 124.078  1.00  0.00    -0.544 OA
ENDBRANCH   3   8
ENDBRANCH   1   3
BRANCH   1  11
ATOM     11  C   UNL     1     127.085 134.363 127.171  1.00  0.00     0.006 C 
ATOM     12  C   UNL     1     127.563 134.745 128.571  1.00  0.00     0.004 C 
ENDBRANCH   1  11
TORSDOF 4
ENDMDL
MODEL 8
REMARK VINA RESULT:    -3.364      9.652     10.402
REMARK INTER + INTRA:          -4.116
REMARK INTER:                  -4.019
REMARK INTRA:                  -0.096
REMARK UNBOUND:                -0.063
REMARK SMILES CC[C@@H](C)[C@H]([NH3+])C(=O)[O-]
REMARK SMILES IDX 3 1 4 2 5 3 6 4 7 8 8 9 9 10 2 11 1 12
REMARK H PARENT 6 5 6 6 6 7
REMARK Flexibility Score: inf
ROOT
ATOM      1  C   UNL     1     131.710 134.492 130.411  1.00  0.00     0.050 C 
ATOM      2  C   UNL     1     131.448 135.949 129.988  1.00  0.00     0.014 C 
ENDROOT
BRANCH   1   3
ATOM      3  C   UNL     1     131.605 134.360 131.969  1.00  0.00     0.230 C 
BRANCH   3   4
ATOM      4  N   UNL     1     132.654 133.492 132.526  1.00  0.00    -0.350 N 
ATOM      5  H   UNL     1     132.280 132.960 133.345  1.00  0.00     0.345 HD
ATOM      6  H   UNL     1     132.951 132.796 131.802  1.00  0.00     0.345 HD
ATOM      7  H   UNL     1     133.492 134.033 132.824  1.00  0.00     0.345 HD
ENDBRANCH   3   4
BRANCH   3   8
ATOM      8  C   UNL     1     130.235 133.927 132.435  1.00  0.00     0.099 C 
ATOM      9  O   UNL     1     130.063 132.763 132.883  1.00  0.00    -0.544 OA
ATOM     10  O   UNL     1     129.163 134.812 132.408  1.00  0.00    -0.544 OA
ENDBRANCH   3   8
ENDBRANCH   1   3
BRANCH   1  11
ATOM     11  C   UNL     1     130.782 133.556 129.588  1.00  0.00     0.006 C 
ATOM     12  C   UNL     1     130.512 134.032 128.161  1.00  0.00     0.004 C 
ENDBRANCH   1  11
TORSDOF 4
ENDMDL
MODEL 9
REMARK VINA RESULT:    -3.342      2.244      2.573
REMARK INTER + INTRA:          -4.089
REMARK INTER:                  -4.008
REMARK INTRA:                  -0.081
REMARK UNBOUND:                -0.063
REMARK SMILES CC[C@@H](C)[C@H]([NH3+])C(=O)[O-]
REMARK SMILES IDX 3 1 4 2 5 3 6 4 7 8 8 9 9 10 2 11 1 12
REMARK H PARENT 6 5 6 6 6 7
REMARK Flexibility Score: inf
ROOT
ATOM      1  C   UNL     1     126.384 123.607 130.388  1.00  0.00     0.050 C 
ATOM      2  C   UNL     1     126.527 122.145 129.930  1.00  0.00     0.014 C 
ENDROOT
BRANCH   1   3
ATOM      3  C   UNL     1     126.415 123.682 131.954  1.00  0.00     0.230 C 
BRANCH   3   4
ATOM      4  N   UNL     1     125.354 124.549 132.489  1.00  0.00    -0.350 N 
ATOM      5  H   UNL     1     124.926 125.109 131.716  1.00  0.00     0.345 HD
ATOM      6  H   UNL     1     124.600 123.958 132.911  1.00  0.00     0.345 HD
ATOM      7  H   UNL     1     125.711 125.197 133.222  1.00  0.00     0.345 HD
ENDBRANCH   3   4
BRANCH   3   8
ATOM      8  C   UNL     1     127.767 124.073 132.501  1.00  0.00     0.099 C 
ATOM      9  O   UNL     1     127.946 125.230 132.966  1.00  0.00    -0.544 OA
ATOM     10  O   UNL     1     128.813 123.158 132.531  1.00  0.00    -0.544 OA
ENDBRANCH   3   8
ENDBRANCH   1   3
BRANCH   1  11
ATOM     11  C   UNL     1     127.444 124.470 129.649  1.00  0.00     0.006 C 
ATOM     12  C   UNL     1     127.498 124.244 128.139  1.00  0.00     0.004 C 
ENDBRANCH   1  11
TORSDOF 4
ENDMDL
