MODEL 1
REMARK VINA RESULT:    -6.588      0.000      0.000
REMARK INTER + INTRA:          -7.636
REMARK INTER:                  -7.936
REMARK INTRA:                   0.300
REMARK UNBOUND:                 0.300
REMARK SMILES O=c1c(O)c(-c2ccc(O)c(O)c2)oc2cc(O)cc(O)c12
REMARK SMILES IDX 5 1 3 2 2 3 1 4 22 5 20 6 19 7 17 8 16 9 15 10 14 11 6 12
REMARK SMILES IDX 7 13 8 14 9 15 13 16 11 17 10 18 12 20 4 22 21 24 18 26
REMARK H PARENT 10 19 12 21 4 23 21 25 18 27
REMARK Flexibility Score: inf
ROOT
ATOM      1  C   UNL     1     -16.595 -36.517 -11.702  1.00  0.00     0.180 A 
ATOM      2  C   UNL     1     -17.599 -36.777 -12.650  1.00  0.00     0.208 A 
ATOM      3  C   UNL     1     -17.297 -36.646 -14.015  1.00  0.00     0.238 A 
ATOM      4  O   UNL     1     -18.215 -36.827 -14.857  1.00  0.00    -0.285 OA
ATOM      5  C   UNL     1     -15.992 -36.271 -14.415  1.00  0.00     0.111 A 
ATOM      6  C   UNL     1     -15.564 -36.147 -15.771  1.00  0.00     0.134 A 
ATOM      7  C   UNL     1     -14.287 -35.644 -16.049  1.00  0.00     0.093 A 
ATOM      8  C   UNL     1     -13.400 -35.322 -15.022  1.00  0.00     0.123 A 
ATOM      9  C   UNL     1     -13.788 -35.496 -13.692  1.00  0.00     0.094 A 
ATOM     10  C   UNL     1     -15.067 -35.962 -13.383  1.00  0.00     0.146 A 
ATOM     11  O   UNL     1     -15.400 -36.104 -12.106  1.00  0.00    -0.452 OA
ENDROOT
BRANCH   1  12
ATOM     12  C   UNL     1     -16.830 -36.658 -10.247  1.00  0.00     0.025 A 
ATOM     13  C   UNL     1     -15.792 -37.020  -9.369  1.00  0.00     0.016 A 
ATOM     14  C   UNL     1     -16.032 -37.124  -7.997  1.00  0.00     0.051 A 
ATOM     15  C   UNL     1     -17.305 -36.855  -7.479  1.00  0.00     0.157 A 
ATOM     16  C   UNL     1     -18.099 -36.369  -9.719  1.00  0.00     0.062 A 
ATOM     17  C   UNL     1     -18.343 -36.472  -8.345  1.00  0.00     0.158 A 
BRANCH  15  18
ATOM     18  O   UNL     1     -17.542 -36.962  -6.108  1.00  0.00    -0.504 OA
ATOM     19  H   UNL     1     -18.085 -37.725  -5.722  1.00  0.00     0.293 HD
ENDBRANCH  15  18
BRANCH  17  20
ATOM     20  O   UNL     1     -19.620 -36.191  -7.861  1.00  0.00    -0.504 OA
ATOM     21  H   UNL     1     -20.160 -36.872  -7.340  1.00  0.00     0.293 HD
ENDBRANCH  17  20
ENDBRANCH   1  12
BRANCH   2  22
ATOM     22  O   UNL     1     -18.887 -37.124 -12.233  1.00  0.00    -0.502 OA
ATOM     23  H   UNL     1     -19.693 -36.536 -12.410  1.00  0.00     0.293 HD
ENDBRANCH   2  22
BRANCH   6  24
ATOM     24  O   UNL     1     -16.338 -36.527 -16.871  1.00  0.00    -0.507 OA
ATOM     25  H   UNL     1     -16.398 -37.466 -17.236  1.00  0.00     0.293 HD
ENDBRANCH   6  24
BRANCH   8  26
ATOM     26  O   UNL     1     -12.132 -34.839 -15.335  1.00  0.00    -0.508 OA
ATOM     27  H   UNL     1     -11.297 -35.386 -15.158  1.00  0.00     0.293 HD
ENDBRANCH   8  26
TORSDOF 6
ENDMDL
