MODEL 1
REMARK VINA RESULT:    -0.510      0.000      0.000
REMARK INTER + INTRA:          -6.474
REMARK INTER:                  -1.166
REMARK INTRA:                  -5.308
REMARK UNBOUND:                -5.308
REMARK SMILES CCCCCCCCCCCCCCCCCCCCCCCC(=O)[O-]
REMARK SMILES IDX 13 1 14 2 15 3 16 4 17 5 18 6 19 7 20 8 21 9 22 10 23 11
REMARK SMILES IDX 24 12 25 13 26 14 12 15 11 16 10 17 9 18 8 19 7 20 6 21 5 22
REMARK SMILES IDX 4 23 3 24 2 25 1 26
REMARK H PARENT
REMARK Flexibility Score: inf
ROOT
ATOM      1  C   UNL     1      38.410   5.358  38.786  1.00  0.00     0.000 C 
ENDROOT
BRANCH   1   2
ATOM      2  C   UNL     1      36.884   5.329  38.994  1.00  0.00     0.000 C 
BRANCH   2   3
ATOM      3  C   UNL     1      36.469   5.689  40.431  1.00  0.00     0.000 C 
BRANCH   3   4
ATOM      4  C   UNL     1      35.867   4.499  41.201  1.00  0.00     0.000 C 
BRANCH   4   5
ATOM      5  C   UNL     1      36.844   3.748  42.125  1.00  0.00     0.000 C 
BRANCH   5   6
ATOM      6  C   UNL     1      36.903   2.239  41.837  1.00  0.00     0.000 C 
BRANCH   6   7
ATOM      7  C   UNL     1      36.067   1.881  40.598  1.00  0.00     0.000 C 
BRANCH   7   8
ATOM      8  C   UNL     1      36.893   1.186  39.505  1.00  0.00     0.000 C 
BRANCH   8   9
ATOM      9  C   UNL     1      36.520   1.653  38.090  1.00  0.00     0.000 C 
BRANCH   9  10
ATOM     10  C   UNL     1      37.769   2.042  37.290  1.00  0.00     0.006 C 
BRANCH  10  11
ATOM     11  C   UNL     1      37.403   2.958  36.117  1.00  0.00     0.053 C 
BRANCH  11  12
ATOM     12  C   UNL     1      37.804   2.338  34.816  1.00  0.00     0.041 C 
ATOM     13  O   UNL     1      38.992   1.971  34.630  1.00  0.00    -0.550 OA
ATOM     14  O   UNL     1      36.853   2.128  33.823  1.00  0.00    -0.550 OA
ENDBRANCH  11  12
ENDBRANCH  10  11
ENDBRANCH   9  10
ENDBRANCH   8   9
ENDBRANCH   7   8
ENDBRANCH   6   7
ENDBRANCH   5   6
ENDBRANCH   4   5
ENDBRANCH   3   4
ENDBRANCH   2   3
ENDBRANCH   1   2
BRANCH   1  15
ATOM     15  C   UNL     1      39.230   5.848  39.994  1.00  0.00     0.000 C 
BRANCH  15  16
ATOM     16  C   UNL     1      40.274   4.820  40.466  1.00  0.00     0.000 C 
BRANCH  16  17
ATOM     17  C   UNL     1      39.915   3.380  40.063  1.00  0.00     0.000 C 
BRANCH  17  18
ATOM     18  C   UNL     1      40.461   2.283  41.000  1.00  0.00    -0.000 C 
BRANCH  18  19
ATOM     19  C   UNL     1      40.478   0.875  40.369  1.00  0.00    -0.000 C 
BRANCH  19  20
ATOM     20  C   UNL     1      40.827   0.911  38.871  1.00  0.00    -0.000 C 
BRANCH  20  21
ATOM     21  C   UNL     1      42.340   1.018  38.619  1.00  0.00    -0.000 C 
BRANCH  21  22
ATOM     22  C   UNL     1      42.722   2.307  37.877  1.00  0.00    -0.000 C 
BRANCH  22  23
ATOM     23  C   UNL     1      41.781   2.562  36.688  1.00  0.00    -0.000 C 
BRANCH  23  24
ATOM     24  C   UNL     1      41.177   3.979  36.697  1.00  0.00    -0.000 C 
BRANCH  24  25
ATOM     25  C   UNL     1      42.149   5.093  37.123  1.00  0.00    -0.003 C 
ATOM     26  C   UNL     1      41.520   6.484  37.073  1.00  0.00     0.004 C 
ENDBRANCH  24  25
ENDBRANCH  23  24
ENDBRANCH  22  23
ENDBRANCH  21  22
ENDBRANCH  20  21
ENDBRANCH  19  20
ENDBRANCH  18  19
ENDBRANCH  17  18
ENDBRANCH  16  17
ENDBRANCH  15  16
ENDBRANCH   1  15
TORSDOF 22
ENDMDL
MODEL 2
REMARK VINA RESULT:    -0.432      3.367      7.107
REMARK INTER + INTRA:          -6.296
REMARK INTER:                  -1.641
REMARK INTRA:                  -4.656
REMARK UNBOUND:                -5.308
REMARK SMILES CCCCCCCCCCCCCCCCCCCCCCCC(=O)[O-]
REMARK SMILES IDX 13 1 14 2 15 3 16 4 17 5 18 6 19 7 20 8 21 9 22 10 23 11
REMARK SMILES IDX 24 12 25 13 26 14 12 15 11 16 10 17 9 18 8 19 7 20 6 21 5 22
REMARK SMILES IDX 4 23 3 24 2 25 1 26
REMARK H PARENT
REMARK Flexibility Score: inf
ROOT
ATOM      1  C   UNL     1      37.734   4.632  37.619  1.00  0.00     0.000 C 
ENDROOT
BRANCH   1   2
ATOM      2  C   UNL     1      36.905   3.420  38.084  1.00  0.00     0.000 C 
BRANCH   2   3
ATOM      3  C   UNL     1      37.777   2.223  38.502  1.00  0.00     0.000 C 
BRANCH   3   4
ATOM      4  C   UNL     1      36.955   1.039  39.044  1.00  0.00     0.000 C 
BRANCH   4   5
ATOM      5  C   UNL     1      35.896   1.399  40.102  1.00  0.00     0.000 C 
BRANCH   5   6
ATOM      6  C   UNL     1      36.504   1.735  41.473  1.00  0.00     0.000 C 
BRANCH   6   7
ATOM      7  C   UNL     1      36.006   3.098  41.977  1.00  0.00     0.000 C 
BRANCH   7   8
ATOM      8  C   UNL     1      37.112   4.165  41.995  1.00  0.00     0.000 C 
BRANCH   8   9
ATOM      9  C   UNL     1      38.509   3.579  41.740  1.00  0.00     0.000 C 
BRANCH   9  10
ATOM     10  C   UNL     1      39.376   4.551  40.931  1.00  0.00     0.006 C 
BRANCH  10  11
ATOM     11  C   UNL     1      39.155   5.995  41.395  1.00  0.00     0.053 C 
BRANCH  11  12
ATOM     12  C   UNL     1      40.075   6.929  40.673  1.00  0.00     0.041 C 
ATOM     13  O   UNL     1      41.037   7.466  41.281  1.00  0.00    -0.550 OA
ATOM     14  O   UNL     1      39.892   7.175  39.316  1.00  0.00    -0.550 OA
ENDBRANCH  11  12
ENDBRANCH  10  11
ENDBRANCH   9  10
ENDBRANCH   8   9
ENDBRANCH   7   8
ENDBRANCH   6   7
ENDBRANCH   5   6
ENDBRANCH   4   5
ENDBRANCH   3   4
ENDBRANCH   2   3
ENDBRANCH   1   2
BRANCH   1  15
ATOM     15  C   UNL     1      36.994   5.982  37.637  1.00  0.00     0.000 C 
BRANCH  15  16
ATOM     16  C   UNL     1      36.412   6.328  39.018  1.00  0.00     0.000 C 
BRANCH  16  17
ATOM     17  C   UNL     1      34.879   6.463  39.001  1.00  0.00     0.000 C 
BRANCH  17  18
ATOM     18  C   UNL     1      34.120   5.400  39.821  1.00  0.00    -0.000 C 
BRANCH  18  19
ATOM     19  C   UNL     1      33.128   5.993  40.844  1.00  0.00    -0.000 C 
BRANCH  19  20
ATOM     20  C   UNL     1      33.011   5.128  42.112  1.00  0.00    -0.000 C 
BRANCH  20  21
ATOM     21  C   UNL     1      31.831   4.145  42.049  1.00  0.00    -0.000 C 
BRANCH  21  22
ATOM     22  C   UNL     1      32.289   2.679  42.009  1.00  0.00    -0.000 C 
BRANCH  22  23
ATOM     23  C   UNL     1      32.442   2.185  40.562  1.00  0.00    -0.000 C 
BRANCH  23  24
ATOM     24  C   UNL     1      31.325   2.699  39.633  1.00  0.00    -0.000 C 
BRANCH  24  25
ATOM     25  C   UNL     1      31.770   2.988  38.188  1.00  0.00    -0.003 C 
ATOM     26  C   UNL     1      33.173   2.468  37.880  1.00  0.00     0.004 C 
ENDBRANCH  24  25
ENDBRANCH  23  24
ENDBRANCH  22  23
ENDBRANCH  21  22
ENDBRANCH  20  21
ENDBRANCH  19  20
ENDBRANCH  18  19
ENDBRANCH  17  18
ENDBRANCH  16  17
ENDBRANCH  15  16
ENDBRANCH   1  15
TORSDOF 22
ENDMDL
MODEL 3
REMARK VINA RESULT:    -0.413      3.054      4.912
REMARK INTER + INTRA:          -6.251
REMARK INTER:                  -1.218
REMARK INTRA:                  -5.033
REMARK UNBOUND:                -5.308
REMARK SMILES CCCCCCCCCCCCCCCCCCCCCCCC(=O)[O-]
REMARK SMILES IDX 13 1 14 2 15 3 16 4 17 5 18 6 19 7 20 8 21 9 22 10 23 11
REMARK SMILES IDX 24 12 25 13 26 14 12 15 11 16 10 17 9 18 8 19 7 20 6 21 5 22
REMARK SMILES IDX 4 23 3 24 2 25 1 26
REMARK H PARENT
REMARK Flexibility Score: inf
ROOT
ATOM      1  C   UNL     1      38.129   6.768  36.962  1.00  0.00     0.000 C 
ENDROOT
BRANCH   1   2
ATOM      2  C   UNL     1      37.084   7.600  37.729  1.00  0.00     0.000 C 
BRANCH   2   3
ATOM      3  C   UNL     1      37.437   9.096  37.790  1.00  0.00     0.000 C 
BRANCH   3   4
ATOM      4  C   UNL     1      37.944   9.540  39.175  1.00  0.00     0.000 C 
BRANCH   4   5
ATOM      5  C   UNL     1      37.405   8.728  40.368  1.00  0.00     0.000 C 
BRANCH   5   6
ATOM      6  C   UNL     1      38.276   8.859  41.627  1.00  0.00     0.000 C 
BRANCH   6   7
ATOM      7  C   UNL     1      38.736   7.481  42.125  1.00  0.00     0.000 C 
BRANCH   7   8
ATOM      8  C   UNL     1      38.203   6.328  41.260  1.00  0.00     0.000 C 
BRANCH   8   9
ATOM      9  C   UNL     1      38.008   5.028  42.055  1.00  0.00     0.000 C 
BRANCH   9  10
ATOM     10  C   UNL     1      36.553   4.551  41.985  1.00  0.00     0.006 C 
BRANCH  10  11
ATOM     11  C   UNL     1      35.730   5.443  41.050  1.00  0.00     0.053 C 
BRANCH  11  12
ATOM     12  C   UNL     1      34.458   4.762  40.652  1.00  0.00     0.041 C 
ATOM     13  O   UNL     1      33.745   4.197  41.521  1.00  0.00    -0.550 OA
ATOM     14  O   UNL     1      34.040   4.789  39.326  1.00  0.00    -0.550 OA
ENDBRANCH  11  12
ENDBRANCH  10  11
ENDBRANCH   9  10
ENDBRANCH   8   9
ENDBRANCH   7   8
ENDBRANCH   6   7
ENDBRANCH   5   6
ENDBRANCH   4   5
ENDBRANCH   3   4
ENDBRANCH   2   3
ENDBRANCH   1   2
BRANCH   1  15
ATOM     15  C   UNL     1      38.475   5.405  37.589  1.00  0.00     0.000 C 
BRANCH  15  16
ATOM     16  C   UNL     1      37.251   4.484  37.736  1.00  0.00     0.000 C 
BRANCH  16  17
ATOM     17  C   UNL     1      37.518   3.283  38.659  1.00  0.00     0.000 C 
BRANCH  17  18
ATOM     18  C   UNL     1      38.995   2.856  38.766  1.00  0.00    -0.000 C 
BRANCH  18  19
ATOM     19  C   UNL     1      39.342   2.134  40.085  1.00  0.00    -0.000 C 
BRANCH  19  20
ATOM     20  C   UNL     1      40.595   2.721  40.760  1.00  0.00    -0.000 C 
BRANCH  20  21
ATOM     21  C   UNL     1      41.050   4.040  40.114  1.00  0.00    -0.000 C 
BRANCH  21  22
ATOM     22  C   UNL     1      41.662   5.013  41.133  1.00  0.00    -0.000 C 
BRANCH  22  23
ATOM     23  C   UNL     1      42.566   6.045  40.441  1.00  0.00    -0.000 C 
BRANCH  23  24
ATOM     24  C   UNL     1      41.935   7.449  40.382  1.00  0.00    -0.000 C 
BRANCH  24  25
ATOM     25  C   UNL     1      41.056   7.710  39.146  1.00  0.00    -0.003 C 
ATOM     26  C   UNL     1      41.732   7.302  37.838  1.00  0.00     0.004 C 
ENDBRANCH  24  25
ENDBRANCH  23  24
ENDBRANCH  22  23
ENDBRANCH  21  22
ENDBRANCH  20  21
ENDBRANCH  19  20
ENDBRANCH  18  19
ENDBRANCH  17  18
ENDBRANCH  16  17
ENDBRANCH  15  16
ENDBRANCH   1  15
TORSDOF 22
ENDMDL
MODEL 4
REMARK VINA RESULT:    -0.359      2.199      5.734
REMARK INTER + INTRA:          -6.128
REMARK INTER:                  -1.215
REMARK INTRA:                  -4.914
REMARK UNBOUND:                -5.308
REMARK SMILES CCCCCCCCCCCCCCCCCCCCCCCC(=O)[O-]
REMARK SMILES IDX 13 1 14 2 15 3 16 4 17 5 18 6 19 7 20 8 21 9 22 10 23 11
REMARK SMILES IDX 24 12 25 13 26 14 12 15 11 16 10 17 9 18 8 19 7 20 6 21 5 22
REMARK SMILES IDX 4 23 3 24 2 25 1 26
REMARK H PARENT
REMARK Flexibility Score: inf
ROOT
ATOM      1  C   UNL     1      36.236   5.909  36.860  1.00  0.00     0.000 C 
ENDROOT
BRANCH   1   2
ATOM      2  C   UNL     1      37.307   6.922  37.303  1.00  0.00     0.000 C 
BRANCH   2   3
ATOM      3  C   UNL     1      38.208   6.386  38.429  1.00  0.00     0.000 C 
BRANCH   3   4
ATOM      4  C   UNL     1      39.696   6.329  38.035  1.00  0.00     0.000 C 
BRANCH   4   5
ATOM      5  C   UNL     1      40.428   5.025  38.402  1.00  0.00     0.000 C 
BRANCH   5   6
ATOM      6  C   UNL     1      39.504   3.976  39.041  1.00  0.00     0.000 C 
BRANCH   6   7
ATOM      7  C   UNL     1      39.498   2.675  38.224  1.00  0.00     0.000 C 
BRANCH   7   8
ATOM      8  C   UNL     1      38.451   2.685  37.099  1.00  0.00     0.000 C 
BRANCH   8   9
ATOM      9  C   UNL     1      39.081   2.765  35.700  1.00  0.00     0.000 C 
BRANCH   9  10
ATOM     10  C   UNL     1      38.822   4.132  35.056  1.00  0.00     0.006 C 
BRANCH  10  11
ATOM     11  C   UNL     1      40.139   4.812  34.670  1.00  0.00     0.053 C 
BRANCH  11  12
ATOM     12  C   UNL     1      40.582   4.374  33.309  1.00  0.00     0.041 C 
ATOM     13  O   UNL     1      40.078   4.895  32.281  1.00  0.00    -0.550 OA
ATOM     14  O   UNL     1      41.584   3.417  33.178  1.00  0.00    -0.550 OA
ENDBRANCH  11  12
ENDBRANCH  10  11
ENDBRANCH   9  10
ENDBRANCH   8   9
ENDBRANCH   7   8
ENDBRANCH   6   7
ENDBRANCH   5   6
ENDBRANCH   4   5
ENDBRANCH   3   4
ENDBRANCH   2   3
ENDBRANCH   1   2
BRANCH   1  15
ATOM     15  C   UNL     1      35.732   4.958  37.962  1.00  0.00     0.000 C 
BRANCH  15  16
ATOM     16  C   UNL     1      34.209   5.036  38.171  1.00  0.00     0.000 C 
BRANCH  16  17
ATOM     17  C   UNL     1      33.825   5.429  39.608  1.00  0.00     0.000 C 
BRANCH  17  18
ATOM     18  C   UNL     1      34.543   6.678  40.158  1.00  0.00    -0.000 C 
BRANCH  18  19
ATOM     19  C   UNL     1      34.797   6.632  41.680  1.00  0.00    -0.000 C 
BRANCH  19  20
ATOM     20  C   UNL     1      35.435   5.304  42.125  1.00  0.00    -0.000 C 
BRANCH  20  21
ATOM     21  C   UNL     1      36.872   5.136  41.605  1.00  0.00    -0.000 C 
BRANCH  21  22
ATOM     22  C   UNL     1      37.504   3.807  42.045  1.00  0.00    -0.000 C 
BRANCH  22  23
ATOM     23  C   UNL     1      36.529   2.635  41.840  1.00  0.00    -0.000 C 
BRANCH  23  24
ATOM     24  C   UNL     1      36.436   2.186  40.369  1.00  0.00    -0.000 C 
BRANCH  24  25
ATOM     25  C   UNL     1      35.019   1.816  39.896  1.00  0.00    -0.003 C 
ATOM     26  C   UNL     1      33.963   1.988  40.986  1.00  0.00     0.004 C 
ENDBRANCH  24  25
ENDBRANCH  23  24
ENDBRANCH  22  23
ENDBRANCH  21  22
ENDBRANCH  20  21
ENDBRANCH  19  20
ENDBRANCH  18  19
ENDBRANCH  17  18
ENDBRANCH  16  17
ENDBRANCH  15  16
ENDBRANCH   1  15
TORSDOF 22
ENDMDL
MODEL 5
REMARK VINA RESULT:    -0.357      3.171      5.598
REMARK INTER + INTRA:          -6.123
REMARK INTER:                  -0.992
REMARK INTRA:                  -5.131
REMARK UNBOUND:                -5.308
REMARK SMILES CCCCCCCCCCCCCCCCCCCCCCCC(=O)[O-]
REMARK SMILES IDX 13 1 14 2 15 3 16 4 17 5 18 6 19 7 20 8 21 9 22 10 23 11
REMARK SMILES IDX 24 12 25 13 26 14 12 15 11 16 10 17 9 18 8 19 7 20 6 21 5 22
REMARK SMILES IDX 4 23 3 24 2 25 1 26
REMARK H PARENT
REMARK Flexibility Score: inf
ROOT
ATOM      1  C   UNL     1      35.537   7.160  36.830  1.00  0.00     0.000 C 
ENDROOT
BRANCH   1   2
ATOM      2  C   UNL     1      34.587   8.259  37.338  1.00  0.00     0.000 C 
BRANCH   2   3
ATOM      3  C   UNL     1      33.137   7.770  37.499  1.00  0.00     0.000 C 
BRANCH   3   4
ATOM      4  C   UNL     1      32.697   7.660  38.971  1.00  0.00     0.000 C 
BRANCH   4   5
ATOM      5  C   UNL     1      33.714   8.178  40.005  1.00  0.00     0.000 C 
BRANCH   5   6
ATOM      6  C   UNL     1      34.361   7.052  40.828  1.00  0.00     0.000 C 
BRANCH   6   7
ATOM      7  C   UNL     1      33.343   5.944  41.142  1.00  0.00     0.000 C 
BRANCH   7   8
ATOM      8  C   UNL     1      33.829   4.551  40.713  1.00  0.00     0.000 C 
BRANCH   8   9
ATOM      9  C   UNL     1      34.600   4.573  39.384  1.00  0.00     0.000 C 
BRANCH   9  10
ATOM     10  C   UNL     1      34.001   3.580  38.382  1.00  0.00     0.006 C 
BRANCH  10  11
ATOM     11  C   UNL     1      32.678   4.106  37.816  1.00  0.00     0.053 C 
BRANCH  11  12
ATOM     12  C   UNL     1      32.265   3.317  36.613  1.00  0.00     0.041 C 
ATOM     13  O   UNL     1      31.826   2.146  36.745  1.00  0.00    -0.550 OA
ATOM     14  O   UNL     1      32.328   3.893  35.348  1.00  0.00    -0.550 OA
ENDBRANCH  11  12
ENDBRANCH  10  11
ENDBRANCH   9  10
ENDBRANCH   8   9
ENDBRANCH   7   8
ENDBRANCH   6   7
ENDBRANCH   5   6
ENDBRANCH   4   5
ENDBRANCH   3   4
ENDBRANCH   2   3
ENDBRANCH   1   2
BRANCH   1  15
ATOM     15  C   UNL     1      34.971   6.264  35.713  1.00  0.00     0.000 C 
BRANCH  15  16
ATOM     16  C   UNL     1      35.790   4.978  35.502  1.00  0.00     0.000 C 
BRANCH  16  17
ATOM     17  C   UNL     1      37.146   5.011  36.228  1.00  0.00     0.000 C 
BRANCH  17  18
ATOM     18  C   UNL     1      37.459   3.768  37.084  1.00  0.00    -0.000 C 
BRANCH  18  19
ATOM     19  C   UNL     1      38.555   4.002  38.146  1.00  0.00    -0.000 C 
BRANCH  19  20
ATOM     20  C   UNL     1      39.202   5.392  38.020  1.00  0.00    -0.000 C 
BRANCH  20  21
ATOM     21  C   UNL     1      39.153   6.188  39.335  1.00  0.00    -0.000 C 
BRANCH  21  22
ATOM     22  C   UNL     1      37.789   6.083  40.033  1.00  0.00    -0.000 C 
BRANCH  22  23
ATOM     23  C   UNL     1      37.954   5.946  41.555  1.00  0.00    -0.000 C 
BRANCH  23  24
ATOM     24  C   UNL     1      37.242   4.704  42.125  1.00  0.00    -0.000 C 
BRANCH  24  25
ATOM     25  C   UNL     1      37.913   3.362  41.781  1.00  0.00    -0.003 C 
ATOM     26  C   UNL     1      36.946   2.355  41.160  1.00  0.00     0.004 C 
ENDBRANCH  24  25
ENDBRANCH  23  24
ENDBRANCH  22  23
ENDBRANCH  21  22
ENDBRANCH  20  21
ENDBRANCH  19  20
ENDBRANCH  18  19
ENDBRANCH  17  18
ENDBRANCH  16  17
ENDBRANCH  15  16
ENDBRANCH   1  15
TORSDOF 22
ENDMDL
MODEL 6
REMARK VINA RESULT:    -0.350      2.823      4.653
REMARK INTER + INTRA:          -6.108
REMARK INTER:                  -1.452
REMARK INTRA:                  -4.656
REMARK UNBOUND:                -5.308
REMARK SMILES CCCCCCCCCCCCCCCCCCCCCCCC(=O)[O-]
REMARK SMILES IDX 13 1 14 2 15 3 16 4 17 5 18 6 19 7 20 8 21 9 22 10 23 11
REMARK SMILES IDX 24 12 25 13 26 14 12 15 11 16 10 17 9 18 8 19 7 20 6 21 5 22
REMARK SMILES IDX 4 23 3 24 2 25 1 26
REMARK H PARENT
REMARK Flexibility Score: inf
ROOT
ATOM      1  C   UNL     1      37.566   4.279  36.624  1.00  0.00     0.000 C 
ENDROOT
BRANCH   1   2
ATOM      2  C   UNL     1      36.681   4.017  37.857  1.00  0.00     0.000 C 
BRANCH   2   3
ATOM      3  C   UNL     1      36.656   5.203  38.837  1.00  0.00     0.000 C 
BRANCH   3   4
ATOM      4  C   UNL     1      37.600   6.348  38.423  1.00  0.00     0.000 C 
BRANCH   4   5
ATOM      5  C   UNL     1      38.893   6.472  39.250  1.00  0.00     0.000 C 
BRANCH   5   6
ATOM      6  C   UNL     1      38.633   6.550  40.763  1.00  0.00     0.000 C 
BRANCH   6   7
ATOM      7  C   UNL     1      39.226   5.332  41.488  1.00  0.00     0.000 C 
BRANCH   7   8
ATOM      8  C   UNL     1      38.151   4.437  42.125  1.00  0.00     0.000 C 
BRANCH   8   9
ATOM      9  C   UNL     1      38.129   3.020  41.533  1.00  0.00     0.000 C 
BRANCH   9  10
ATOM     10  C   UNL     1      36.702   2.461  41.494  1.00  0.00     0.006 C 
BRANCH  10  11
ATOM     11  C   UNL     1      35.706   3.462  42.088  1.00  0.00     0.053 C 
BRANCH  11  12
ATOM     12  C   UNL     1      34.346   3.271  41.495  1.00  0.00     0.041 C 
ATOM     13  O   UNL     1      33.707   2.208  41.705  1.00  0.00    -0.550 OA
ATOM     14  O   UNL     1      33.766   4.288  40.742  1.00  0.00    -0.550 OA
ENDBRANCH  11  12
ENDBRANCH  10  11
ENDBRANCH   9  10
ENDBRANCH   8   9
ENDBRANCH   7   8
ENDBRANCH   6   7
ENDBRANCH   5   6
ENDBRANCH   4   5
ENDBRANCH   3   4
ENDBRANCH   2   3
ENDBRANCH   1   2
BRANCH   1  15
ATOM     15  C   UNL     1      38.891   3.494  36.585  1.00  0.00     0.000 C 
BRANCH  15  16
ATOM     16  C   UNL     1      39.130   2.660  37.857  1.00  0.00     0.000 C 
BRANCH  16  17
ATOM     17  C   UNL     1      40.343   3.147  38.668  1.00  0.00     0.000 C 
BRANCH  17  18
ATOM     18  C   UNL     1      41.579   3.530  37.830  1.00  0.00    -0.000 C 
BRANCH  18  19
ATOM     19  C   UNL     1      42.758   4.069  38.667  1.00  0.00    -0.000 C 
BRANCH  19  20
ATOM     20  C   UNL     1      42.355   5.274  39.536  1.00  0.00    -0.000 C 
BRANCH  20  21
ATOM     21  C   UNL     1      42.963   6.594  39.034  1.00  0.00    -0.000 C 
BRANCH  21  22
ATOM     22  C   UNL     1      43.879   6.392  37.817  1.00  0.00    -0.000 C 
BRANCH  22  23
ATOM     23  C   UNL     1      43.244   6.969  36.542  1.00  0.00    -0.000 C 
BRANCH  23  24
ATOM     24  C   UNL     1      41.829   7.529  36.780  1.00  0.00    -0.000 C 
BRANCH  24  25
ATOM     25  C   UNL     1      40.693   6.705  36.149  1.00  0.00    -0.003 C 
ATOM     26  C   UNL     1      41.125   5.966  34.883  1.00  0.00     0.004 C 
ENDBRANCH  24  25
ENDBRANCH  23  24
ENDBRANCH  22  23
ENDBRANCH  21  22
ENDBRANCH  20  21
ENDBRANCH  19  20
ENDBRANCH  18  19
ENDBRANCH  17  18
ENDBRANCH  16  17
ENDBRANCH  15  16
ENDBRANCH   1  15
TORSDOF 22
ENDMDL
MODEL 7
REMARK VINA RESULT:    -0.330      2.499      4.852
REMARK INTER + INTRA:          -6.061
REMARK INTER:                  -1.259
REMARK INTRA:                  -4.803
REMARK UNBOUND:                -5.308
REMARK SMILES CCCCCCCCCCCCCCCCCCCCCCCC(=O)[O-]
REMARK SMILES IDX 13 1 14 2 15 3 16 4 17 5 18 6 19 7 20 8 21 9 22 10 23 11
REMARK SMILES IDX 24 12 25 13 26 14 12 15 11 16 10 17 9 18 8 19 7 20 6 21 5 22
REMARK SMILES IDX 4 23 3 24 2 25 1 26
REMARK H PARENT
REMARK Flexibility Score: inf
ROOT
ATOM      1  C   UNL     1      37.156   2.840  36.874  1.00  0.00     0.000 C 
ENDROOT
BRANCH   1   2
ATOM      2  C   UNL     1      36.080   3.505  35.995  1.00  0.00     0.000 C 
BRANCH   2   3
ATOM      3  C   UNL     1      34.649   3.227  36.487  1.00  0.00     0.000 C 
BRANCH   3   4
ATOM      4  C   UNL     1      33.724   4.454  36.376  1.00  0.00     0.000 C 
BRANCH   4   5
ATOM      5  C   UNL     1      33.169   4.986  37.710  1.00  0.00     0.000 C 
BRANCH   5   6
ATOM      6  C   UNL     1      33.827   4.336  38.938  1.00  0.00     0.000 C 
BRANCH   6   7
ATOM      7  C   UNL     1      33.904   5.326  40.111  1.00  0.00     0.000 C 
BRANCH   7   8
ATOM      8  C   UNL     1      35.334   5.822  40.378  1.00  0.00     0.000 C 
BRANCH   8   9
ATOM      9  C   UNL     1      36.306   5.474  39.241  1.00  0.00     0.000 C 
BRANCH   9  10
ATOM     10  C   UNL     1      37.089   6.711  38.787  1.00  0.00     0.006 C 
BRANCH  10  11
ATOM     11  C   UNL     1      37.840   6.433  37.481  1.00  0.00     0.053 C 
BRANCH  11  12
ATOM     12  C   UNL     1      37.354   7.333  36.389  1.00  0.00     0.041 C 
ATOM     13  O   UNL     1      37.729   7.148  35.202  1.00  0.00    -0.550 OA
ATOM     14  O   UNL     1      36.452   8.353  36.677  1.00  0.00    -0.550 OA
ENDBRANCH  11  12
ENDBRANCH  10  11
ENDBRANCH   9  10
ENDBRANCH   8   9
ENDBRANCH   7   8
ENDBRANCH   6   7
ENDBRANCH   5   6
ENDBRANCH   4   5
ENDBRANCH   3   4
ENDBRANCH   2   3
ENDBRANCH   1   2
BRANCH   1  15
ATOM     15  C   UNL     1      37.026   1.313  37.030  1.00  0.00     0.000 C 
BRANCH  15  16
ATOM     16  C   UNL     1      36.833   0.875  38.493  1.00  0.00     0.000 C 
BRANCH  16  17
ATOM     17  C   UNL     1      36.776   2.064  39.467  1.00  0.00     0.000 C 
BRANCH  17  18
ATOM     18  C   UNL     1      35.841   1.872  40.679  1.00  0.00    -0.000 C 
BRANCH  18  19
ATOM     19  C   UNL     1      36.457   2.326  42.020  1.00  0.00    -0.000 C 
BRANCH  19  20
ATOM     20  C   UNL     1      37.934   2.734  41.875  1.00  0.00    -0.000 C 
BRANCH  20  21
ATOM     21  C   UNL     1      38.158   4.235  42.124  1.00  0.00    -0.000 C 
BRANCH  21  22
ATOM     22  C   UNL     1      39.289   4.810  41.257  1.00  0.00    -0.000 C 
BRANCH  22  23
ATOM     23  C   UNL     1      40.137   3.689  40.636  1.00  0.00    -0.000 C 
BRANCH  23  24
ATOM     24  C   UNL     1      40.160   3.739  39.096  1.00  0.00    -0.000 C 
BRANCH  24  25
ATOM     25  C   UNL     1      40.360   2.377  38.409  1.00  0.00    -0.003 C 
ATOM     26  C   UNL     1      41.347   1.475  39.149  1.00  0.00     0.004 C 
ENDBRANCH  24  25
ENDBRANCH  23  24
ENDBRANCH  22  23
ENDBRANCH  21  22
ENDBRANCH  20  21
ENDBRANCH  19  20
ENDBRANCH  18  19
ENDBRANCH  17  18
ENDBRANCH  16  17
ENDBRANCH  15  16
ENDBRANCH   1  15
TORSDOF 22
ENDMDL
MODEL 8
REMARK VINA RESULT:    -0.225      3.595      5.637
REMARK INTER + INTRA:          -5.822
REMARK INTER:                  -1.021
REMARK INTRA:                  -4.801
REMARK UNBOUND:                -5.308
REMARK SMILES CCCCCCCCCCCCCCCCCCCCCCCC(=O)[O-]
REMARK SMILES IDX 13 1 14 2 15 3 16 4 17 5 18 6 19 7 20 8 21 9 22 10 23 11
REMARK SMILES IDX 24 12 25 13 26 14 12 15 11 16 10 17 9 18 8 19 7 20 6 21 5 22
REMARK SMILES IDX 4 23 3 24 2 25 1 26
REMARK H PARENT
REMARK Flexibility Score: inf
ROOT
ATOM      1  C   UNL     1      38.215   2.461  38.250  1.00  0.00     0.000 C 
ENDROOT
BRANCH   1   2
ATOM      2  C   UNL     1      38.219   3.604  37.217  1.00  0.00     0.000 C 
BRANCH   2   3
ATOM      3  C   UNL     1      37.018   4.553  37.371  1.00  0.00     0.000 C 
BRANCH   3   4
ATOM      4  C   UNL     1      36.245   4.340  38.686  1.00  0.00     0.000 C 
BRANCH   4   5
ATOM      5  C   UNL     1      35.208   5.427  39.027  1.00  0.00     0.000 C 
BRANCH   5   6
ATOM      6  C   UNL     1      34.376   5.093  40.275  1.00  0.00     0.000 C 
BRANCH   6   7
ATOM      7  C   UNL     1      34.213   6.327  41.176  1.00  0.00     0.000 C 
BRANCH   7   8
ATOM      8  C   UNL     1      35.284   7.399  40.915  1.00  0.00     0.000 C 
BRANCH   8   9
ATOM      9  C   UNL     1      36.201   7.631  42.125  1.00  0.00     0.000 C 
BRANCH   9  10
ATOM     10  C   UNL     1      37.580   8.135  41.684  1.00  0.00     0.006 C 
BRANCH  10  11
ATOM     11  C   UNL     1      37.512   8.758  40.285  1.00  0.00     0.053 C 
BRANCH  11  12
ATOM     12  C   UNL     1      37.702  10.241  40.356  1.00  0.00     0.041 C 
ATOM     13  O   UNL     1      38.536  10.808  39.604  1.00  0.00    -0.550 OA
ATOM     14  O   UNL     1      36.927  11.001  41.226  1.00  0.00    -0.550 OA
ENDBRANCH  11  12
ENDBRANCH  10  11
ENDBRANCH   9  10
ENDBRANCH   8   9
ENDBRANCH   7   8
ENDBRANCH   6   7
ENDBRANCH   5   6
ENDBRANCH   4   5
ENDBRANCH   3   4
ENDBRANCH   2   3
ENDBRANCH   1   2
BRANCH   1  15
ATOM     15  C   UNL     1      39.601   1.893  38.609  1.00  0.00     0.000 C 
BRANCH  15  16
ATOM     16  C   UNL     1      39.613   1.150  39.956  1.00  0.00     0.000 C 
BRANCH  16  17
ATOM     17  C   UNL     1      38.215   1.041  40.589  1.00  0.00     0.000 C 
BRANCH  17  18
ATOM     18  C   UNL     1      38.037   1.803  41.917  1.00  0.00    -0.000 C 
BRANCH  18  19
ATOM     19  C   UNL     1      37.174   3.076  41.795  1.00  0.00    -0.000 C 
BRANCH  19  20
ATOM     20  C   UNL     1      37.967   4.353  42.125  1.00  0.00    -0.000 C 
BRANCH  20  21
ATOM     21  C   UNL     1      38.693   4.931  40.898  1.00  0.00    -0.000 C 
BRANCH  21  22
ATOM     22  C   UNL     1      40.212   4.715  40.960  1.00  0.00    -0.000 C 
BRANCH  22  23
ATOM     23  C   UNL     1      40.919   5.411  39.786  1.00  0.00    -0.000 C 
BRANCH  23  24
ATOM     24  C   UNL     1      39.987   6.352  38.999  1.00  0.00    -0.000 C 
BRANCH  24  25
ATOM     25  C   UNL     1      40.621   7.693  38.588  1.00  0.00    -0.003 C 
ATOM     26  C   UNL     1      41.363   8.378  39.735  1.00  0.00     0.004 C 
ENDBRANCH  24  25
ENDBRANCH  23  24
ENDBRANCH  22  23
ENDBRANCH  21  22
ENDBRANCH  20  21
ENDBRANCH  19  20
ENDBRANCH  18  19
ENDBRANCH  17  18
ENDBRANCH  16  17
ENDBRANCH  15  16
ENDBRANCH   1  15
TORSDOF 22
ENDMDL
