MODEL 1
REMARK VINA RESULT:    -3.760      0.000      0.000
REMARK INTER + INTRA:          -6.288
REMARK INTER:                  -5.738
REMARK INTRA:                  -0.550
REMARK UNBOUND:                -0.550
REMARK SMILES O=C([O-])CCCCCCCCC(=O)[O-]
REMARK SMILES IDX 7 1 6 2 5 3 4 4 2 5 1 6 3 7 8 8 9 9 10 10 11 11 12 12 13 13
REMARK SMILES IDX 14 14
REMARK H PARENT
REMARK Flexibility Score: inf
ROOT
ATOM      1  C   UNL     1      -5.723  14.979  21.713  1.00  0.00     0.000 C 
ENDROOT
BRANCH   1   2
ATOM      2  C   UNL     1      -5.496  16.154  22.681  1.00  0.00     0.000 C 
BRANCH   2   3
ATOM      3  C   UNL     1      -4.250  17.017  22.392  1.00  0.00     0.006 C 
BRANCH   3   4
ATOM      4  C   UNL     1      -2.910  16.332  22.704  1.00  0.00     0.053 C 
BRANCH   4   5
ATOM      5  C   UNL     1      -1.952  16.422  21.557  1.00  0.00     0.041 C 
ATOM      6  O   UNL     1      -1.491  17.540  21.204  1.00  0.00    -0.550 OA
ATOM      7  O   UNL     1      -1.541  15.270  20.900  1.00  0.00    -0.550 OA
ENDBRANCH   4   5
ENDBRANCH   3   4
ENDBRANCH   2   3
ENDBRANCH   1   2
BRANCH   1   8
ATOM      8  C   UNL     1      -7.191  14.830  21.283  1.00  0.00     0.000 C 
BRANCH   8   9
ATOM      9  C   UNL     1      -8.168  15.518  22.251  1.00  0.00     0.000 C 
BRANCH   9  10
ATOM     10  C   UNL     1      -8.977  16.662  21.606  1.00  0.00     0.006 C 
BRANCH  10  11
ATOM     11  C   UNL     1      -8.273  17.243  20.372  1.00  0.00     0.053 C 
BRANCH  11  12
ATOM     12  C   UNL     1      -8.433  18.729  20.327  1.00  0.00     0.041 C 
ATOM     13  O   UNL     1      -8.556  19.386  21.394  1.00  0.00    -0.550 OA
ATOM     14  O   UNL     1      -8.398  19.395  19.109  1.00  0.00    -0.550 OA
ENDBRANCH  11  12
ENDBRANCH  10  11
ENDBRANCH   9  10
ENDBRANCH   8   9
ENDBRANCH   1   8
TORSDOF 9
ENDMDL
MODEL 2
REMARK VINA RESULT:    -3.743      1.246      6.123
REMARK INTER + INTRA:          -6.262
REMARK INTER:                  -5.648
REMARK INTRA:                  -0.614
REMARK UNBOUND:                -0.550
REMARK SMILES O=C([O-])CCCCCCCCC(=O)[O-]
REMARK SMILES IDX 7 1 6 2 5 3 4 4 2 5 1 6 3 7 8 8 9 9 10 10 11 11 12 12 13 13
REMARK SMILES IDX 14 14
REMARK H PARENT
REMARK Flexibility Score: inf
ROOT
ATOM      1  C   UNL     1      -5.057  15.588  21.628  1.00  0.00     0.000 C 
ENDROOT
BRANCH   1   2
ATOM      2  C   UNL     1      -6.172  14.543  21.807  1.00  0.00     0.000 C 
BRANCH   2   3
ATOM      3  C   UNL     1      -7.553  14.948  21.250  1.00  0.00     0.006 C 
BRANCH   3   4
ATOM      4  C   UNL     1      -8.174  16.186  21.915  1.00  0.00     0.053 C 
BRANCH   4   5
ATOM      5  C   UNL     1      -8.022  17.413  21.071  1.00  0.00     0.041 C 
ATOM      6  O   UNL     1      -7.403  18.415  21.517  1.00  0.00    -0.550 OA
ATOM      7  O   UNL     1      -8.532  17.439  19.779  1.00  0.00    -0.550 OA
ENDBRANCH   4   5
ENDBRANCH   3   4
ENDBRANCH   2   3
ENDBRANCH   1   2
BRANCH   1   8
ATOM      8  C   UNL     1      -4.562  16.173  22.961  1.00  0.00     0.000 C 
BRANCH   8   9
ATOM      9  C   UNL     1      -3.965  17.583  22.808  1.00  0.00     0.000 C 
BRANCH   9  10
ATOM     10  C   UNL     1      -2.427  17.620  22.923  1.00  0.00     0.006 C 
BRANCH  10  11
ATOM     11  C   UNL     1      -1.742  17.490  21.557  1.00  0.00     0.053 C 
BRANCH  11  12
ATOM     12  C   UNL     1      -1.022  16.183  21.452  1.00  0.00     0.041 C 
ATOM     13  O   UNL     1      -1.594  15.183  20.943  1.00  0.00    -0.550 OA
ATOM     14  O   UNL     1       0.297  16.080  21.873  1.00  0.00    -0.550 OA
ENDBRANCH  11  12
ENDBRANCH  10  11
ENDBRANCH   9  10
ENDBRANCH   8   9
ENDBRANCH   1   8
TORSDOF 9
ENDMDL
MODEL 3
REMARK VINA RESULT:    -3.619      1.472      2.022
REMARK INTER + INTRA:          -6.072
REMARK INTER:                  -5.344
REMARK INTRA:                  -0.728
REMARK UNBOUND:                -0.550
REMARK SMILES O=C([O-])CCCCCCCCC(=O)[O-]
REMARK SMILES IDX 7 1 6 2 5 3 4 4 2 5 1 6 3 7 8 8 9 9 10 10 11 11 12 12 13 13
REMARK SMILES IDX 14 14
REMARK H PARENT
REMARK Flexibility Score: inf
ROOT
ATOM      1  C   UNL     1      -4.758  15.989  22.707  1.00  0.00     0.000 C 
ENDROOT
BRANCH   1   2
ATOM      2  C   UNL     1      -4.242  17.413  22.428  1.00  0.00     0.000 C 
BRANCH   2   3
ATOM      3  C   UNL     1      -2.757  17.656  22.769  1.00  0.00     0.006 C 
BRANCH   3   4
ATOM      4  C   UNL     1      -1.800  17.550  21.572  1.00  0.00     0.053 C 
BRANCH   4   5
ATOM      5  C   UNL     1      -1.130  16.213  21.506  1.00  0.00     0.041 C 
ATOM      6  O   UNL     1      -1.696  15.249  20.926  1.00  0.00    -0.550 OA
ATOM      7  O   UNL     1       0.135  16.038  22.054  1.00  0.00    -0.550 OA
ENDBRANCH   4   5
ENDBRANCH   3   4
ENDBRANCH   2   3
ENDBRANCH   1   2
BRANCH   1   8
ATOM      8  C   UNL     1      -5.229  15.262  21.438  1.00  0.00     0.000 C 
BRANCH   8   9
ATOM      9  C   UNL     1      -6.551  14.503  21.643  1.00  0.00     0.000 C 
BRANCH   9  10
ATOM     10  C   UNL     1      -7.802  15.328  21.274  1.00  0.00     0.006 C 
BRANCH  10  11
ATOM     11  C   UNL     1      -8.374  16.080  22.483  1.00  0.00     0.053 C 
BRANCH  11  12
ATOM     12  C   UNL     1      -8.250  17.558  22.288  1.00  0.00     0.041 C 
ATOM     13  O   UNL     1      -8.756  18.352  23.124  1.00  0.00    -0.550 OA
ATOM     14  O   UNL     1      -7.534  18.059  21.209  1.00  0.00    -0.550 OA
ENDBRANCH  11  12
ENDBRANCH  10  11
ENDBRANCH   9  10
ENDBRANCH   8   9
ENDBRANCH   1   8
TORSDOF 9
ENDMDL
MODEL 4
REMARK VINA RESULT:    -3.609     10.861     15.526
REMARK INTER + INTRA:          -6.058
REMARK INTER:                  -5.465
REMARK INTRA:                  -0.593
REMARK UNBOUND:                -0.550
REMARK SMILES O=C([O-])CCCCCCCCC(=O)[O-]
REMARK SMILES IDX 7 1 6 2 5 3 4 4 2 5 1 6 3 7 8 8 9 9 10 10 11 11 12 12 13 13
REMARK SMILES IDX 14 14
REMARK H PARENT
REMARK Flexibility Score: inf
ROOT
ATOM      1  C   UNL     1       8.352  17.124  20.907  1.00  0.00     0.000 C 
ENDROOT
BRANCH   1   2
ATOM      2  C   UNL     1       8.378  16.193  22.134  1.00  0.00     0.000 C 
BRANCH   2   3
ATOM      3  C   UNL     1       7.006  15.917  22.783  1.00  0.00     0.006 C 
BRANCH   3   4
ATOM      4  C   UNL     1       5.977  15.259  21.852  1.00  0.00     0.053 C 
BRANCH   4   5
ATOM      5  C   UNL     1       4.764  16.115  21.660  1.00  0.00     0.041 C 
ATOM      6  O   UNL     1       4.771  17.038  20.803  1.00  0.00    -0.550 OA
ATOM      7  O   UNL     1       3.614  15.873  22.401  1.00  0.00    -0.550 OA
ENDBRANCH   4   5
ENDBRANCH   3   4
ENDBRANCH   2   3
ENDBRANCH   1   2
BRANCH   1   8
ATOM      8  C   UNL     1       9.705  17.203  20.184  1.00  0.00     0.000 C 
BRANCH   8   9
ATOM      9  C   UNL     1      10.646  16.042  20.551  1.00  0.00     0.000 C 
BRANCH   9  10
ATOM     10  C   UNL     1      10.716  14.938  19.476  1.00  0.00     0.006 C 
BRANCH  10  11
ATOM     11  C   UNL     1      10.247  13.579  20.012  1.00  0.00     0.053 C 
BRANCH  11  12
ATOM     12  C   UNL     1      10.508  12.500  19.009  1.00  0.00     0.041 C 
ATOM     13  O   UNL     1      10.687  12.792  17.797  1.00  0.00    -0.550 OA
ATOM     14  O   UNL     1      10.602  11.177  19.420  1.00  0.00    -0.550 OA
ENDBRANCH  11  12
ENDBRANCH  10  11
ENDBRANCH   9  10
ENDBRANCH   8   9
ENDBRANCH   1   8
TORSDOF 9
ENDMDL
MODEL 5
REMARK VINA RESULT:    -3.453     10.442     14.108
REMARK INTER + INTRA:          -5.820
REMARK INTER:                  -5.039
REMARK INTRA:                  -0.781
REMARK UNBOUND:                -0.550
REMARK SMILES O=C([O-])CCCCCCCCC(=O)[O-]
REMARK SMILES IDX 7 1 6 2 5 3 4 4 2 5 1 6 3 7 8 8 9 9 10 10 11 11 12 12 13 13
REMARK SMILES IDX 14 14
REMARK H PARENT
REMARK Flexibility Score: inf
ROOT
ATOM      1  C   UNL     1       8.231  16.818  21.000  1.00  0.00     0.000 C 
ENDROOT
BRANCH   1   2
ATOM      2  C   UNL     1       9.566  17.314  20.416  1.00  0.00     0.000 C 
BRANCH   2   3
ATOM      3  C   UNL     1      10.722  16.292  20.449  1.00  0.00     0.006 C 
BRANCH   3   4
ATOM      4  C   UNL     1      10.643  15.200  19.371  1.00  0.00     0.053 C 
BRANCH   4   5
ATOM      5  C   UNL     1      10.624  13.825  19.964  1.00  0.00     0.041 C 
ATOM      6  O   UNL     1      11.000  13.644  21.152  1.00  0.00    -0.550 OA
ATOM      7  O   UNL     1      10.159  12.750  19.218  1.00  0.00    -0.550 OA
ENDBRANCH   4   5
ENDBRANCH   3   4
ENDBRANCH   2   3
ENDBRANCH   1   2
BRANCH   1   8
ATOM      8  C   UNL     1       8.405  16.007  22.294  1.00  0.00     0.000 C 
BRANCH   8   9
ATOM      9  C   UNL     1       7.793  14.599  22.201  1.00  0.00     0.000 C 
BRANCH   9  10
ATOM     10  C   UNL     1       6.328  14.591  21.716  1.00  0.00     0.006 C 
BRANCH  10  11
ATOM     11  C   UNL     1       5.372  15.188  22.756  1.00  0.00     0.053 C 
BRANCH  11  12
ATOM     12  C   UNL     1       4.357  16.065  22.093  1.00  0.00     0.041 C 
ATOM     13  O   UNL     1       4.690  16.801  21.127  1.00  0.00    -0.550 OA
ATOM     14  O   UNL     1       3.033  16.033  22.509  1.00  0.00    -0.550 OA
ENDBRANCH  11  12
ENDBRANCH  10  11
ENDBRANCH   9  10
ENDBRANCH   8   9
ENDBRANCH   1   8
TORSDOF 9
ENDMDL
MODEL 6
REMARK VINA RESULT:    -3.438      0.820      6.275
REMARK INTER + INTRA:          -5.796
REMARK INTER:                  -5.392
REMARK INTRA:                  -0.404
REMARK UNBOUND:                -0.550
REMARK SMILES O=C([O-])CCCCCCCCC(=O)[O-]
REMARK SMILES IDX 7 1 6 2 5 3 4 4 2 5 1 6 3 7 8 8 9 9 10 10 11 11 12 12 13 13
REMARK SMILES IDX 14 14
REMARK H PARENT
REMARK Flexibility Score: inf
ROOT
ATOM      1  C   UNL     1      -6.783  15.707  20.951  1.00  0.00     0.000 C 
ENDROOT
BRANCH   1   2
ATOM      2  C   UNL     1      -8.133  15.939  21.653  1.00  0.00     0.000 C 
BRANCH   2   3
ATOM      3  C   UNL     1      -9.045  16.998  20.998  1.00  0.00     0.006 C 
BRANCH   3   4
ATOM      4  C   UNL     1      -8.394  17.779  19.845  1.00  0.00     0.053 C 
BRANCH   4   5
ATOM      5  C   UNL     1      -8.700  19.242  19.916  1.00  0.00     0.041 C 
ATOM      6  O   UNL     1      -8.696  19.940  18.868  1.00  0.00    -0.550 OA
ATOM      7  O   UNL     1      -9.023  19.830  21.133  1.00  0.00    -0.550 OA
ENDBRANCH   4   5
ENDBRANCH   3   4
ENDBRANCH   2   3
ENDBRANCH   1   2
BRANCH   1   8
ATOM      8  C   UNL     1      -5.707  15.140  21.891  1.00  0.00     0.000 C 
BRANCH   8   9
ATOM      9  C   UNL     1      -5.090  16.211  22.806  1.00  0.00     0.000 C 
BRANCH   9  10
ATOM     10  C   UNL     1      -3.565  16.063  22.991  1.00  0.00     0.006 C 
BRANCH  10  11
ATOM     11  C   UNL     1      -2.776  16.869  21.952  1.00  0.00     0.053 C 
BRANCH  11  12
ATOM     12  C   UNL     1      -1.566  16.110  21.507  1.00  0.00     0.041 C 
ATOM     13  O   UNL     1      -1.693  15.049  20.840  1.00  0.00    -0.550 OA
ATOM     14  O   UNL     1      -0.297  16.600  21.786  1.00  0.00    -0.550 OA
ENDBRANCH  11  12
ENDBRANCH  10  11
ENDBRANCH   9  10
ENDBRANCH   8   9
ENDBRANCH   1   8
TORSDOF 9
ENDMDL
MODEL 7
REMARK VINA RESULT:    -3.407     11.985     15.343
REMARK INTER + INTRA:          -5.750
REMARK INTER:                  -5.154
REMARK INTRA:                  -0.595
REMARK UNBOUND:                -0.550
REMARK SMILES O=C([O-])CCCCCCCCC(=O)[O-]
REMARK SMILES IDX 7 1 6 2 5 3 4 4 2 5 1 6 3 7 8 8 9 9 10 10 11 11 12 12 13 13
REMARK SMILES IDX 14 14
REMARK H PARENT
REMARK Flexibility Score: inf
ROOT
ATOM      1  C   UNL     1      10.686  16.254  20.450  1.00  0.00     0.000 C 
ENDROOT
BRANCH   1   2
ATOM      2  C   UNL     1      11.125  15.015  19.649  1.00  0.00     0.000 C 
BRANCH   2   3
ATOM      3  C   UNL     1      10.293  13.740  19.897  1.00  0.00     0.006 C 
BRANCH   3   4
ATOM      4  C   UNL     1      11.086  12.427  19.796  1.00  0.00     0.053 C 
BRANCH   4   5
ATOM      5  C   UNL     1      10.738  11.654  18.563  1.00  0.00     0.041 C 
ATOM      6  O   UNL     1      10.439  12.260  17.500  1.00  0.00    -0.550 OA
ATOM      7  O   UNL     1      10.779  10.266  18.574  1.00  0.00    -0.550 OA
ENDBRANCH   4   5
ENDBRANCH   3   4
ENDBRANCH   2   3
ENDBRANCH   1   2
BRANCH   1   8
ATOM      8  C   UNL     1       9.266  16.724  20.098  1.00  0.00     0.000 C 
BRANCH   8   9
ATOM      9  C   UNL     1       8.489  17.241  21.321  1.00  0.00     0.000 C 
BRANCH   9  10
ATOM     10  C   UNL     1       8.113  16.134  22.329  1.00  0.00     0.006 C 
BRANCH  10  11
ATOM     11  C   UNL     1       7.285  15.018  21.679  1.00  0.00     0.053 C 
BRANCH  11  12
ATOM     12  C   UNL     1       5.823  15.261  21.886  1.00  0.00     0.041 C 
ATOM     13  O   UNL     1       5.125  14.425  22.519  1.00  0.00    -0.550 OA
ATOM     14  O   UNL     1       5.241  16.434  21.424  1.00  0.00    -0.550 OA
ENDBRANCH  11  12
ENDBRANCH  10  11
ENDBRANCH   9  10
ENDBRANCH   8   9
ENDBRANCH   1   8
TORSDOF 9
ENDMDL
MODEL 8
REMARK VINA RESULT:    -3.313     12.317     15.786
REMARK INTER + INTRA:          -5.605
REMARK INTER:                  -5.301
REMARK INTRA:                  -0.304
REMARK UNBOUND:                -0.550
REMARK SMILES O=C([O-])CCCCCCCCC(=O)[O-]
REMARK SMILES IDX 7 1 6 2 5 3 4 4 2 5 1 6 3 7 8 8 9 9 10 10 11 11 12 12 13 13
REMARK SMILES IDX 14 14
REMARK H PARENT
REMARK Flexibility Score: inf
ROOT
ATOM      1  C   UNL     1      10.376  14.228  19.936  1.00  0.00     0.000 C 
ENDROOT
BRANCH   1   2
ATOM      2  C   UNL     1      10.805  13.527  18.634  1.00  0.00     0.000 C 
BRANCH   2   3
ATOM      3  C   UNL     1      10.986  11.998  18.736  1.00  0.00     0.006 C 
BRANCH   3   4
ATOM      4  C   UNL     1      10.012  11.179  17.875  1.00  0.00     0.053 C 
BRANCH   4   5
ATOM      5  C   UNL     1      10.020   9.728  18.246  1.00  0.00     0.041 C 
ATOM      6  O   UNL     1       9.087   8.973  17.864  1.00  0.00    -0.550 OA
ATOM      7  O   UNL     1      11.073   9.201  18.982  1.00  0.00    -0.550 OA
ENDBRANCH   4   5
ENDBRANCH   3   4
ENDBRANCH   2   3
ENDBRANCH   1   2
BRANCH   1   8
ATOM      8  C   UNL     1      10.438  15.761  19.841  1.00  0.00     0.000 C 
BRANCH   8   9
ATOM      9  C   UNL     1       9.263  16.450  20.557  1.00  0.00     0.000 C 
BRANCH   9  10
ATOM     10  C   UNL     1       8.582  15.565  21.622  1.00  0.00     0.006 C 
BRANCH  10  11
ATOM     11  C   UNL     1       7.618  16.365  22.507  1.00  0.00     0.053 C 
BRANCH  11  12
ATOM     12  C   UNL     1       6.205  15.938  22.264  1.00  0.00     0.041 C 
ATOM     13  O   UNL     1       5.578  16.363  21.258  1.00  0.00    -0.550 OA
ATOM     14  O   UNL     1       5.596  15.031  23.121  1.00  0.00    -0.550 OA
ENDBRANCH  11  12
ENDBRANCH  10  11
ENDBRANCH   9  10
ENDBRANCH   8   9
ENDBRANCH   1   8
TORSDOF 9
ENDMDL
MODEL 9
REMARK VINA RESULT:    -3.289     11.919     15.931
REMARK INTER + INTRA:          -5.569
REMARK INTER:                  -4.983
REMARK INTRA:                  -0.586
REMARK UNBOUND:                -0.550
REMARK SMILES O=C([O-])CCCCCCCCC(=O)[O-]
REMARK SMILES IDX 7 1 6 2 5 3 4 4 2 5 1 6 3 7 8 8 9 9 10 10 11 11 12 12 13 13
REMARK SMILES IDX 14 14
REMARK H PARENT
REMARK Flexibility Score: inf
ROOT
ATOM      1  C   UNL     1       9.315  17.537  20.566  1.00  0.00     0.000 C 
ENDROOT
BRANCH   1   2
ATOM      2  C   UNL     1       8.144  16.617  20.958  1.00  0.00     0.000 C 
BRANCH   2   3
ATOM      3  C   UNL     1       7.736  16.665  22.445  1.00  0.00     0.006 C 
BRANCH   3   4
ATOM      4  C   UNL     1       7.113  15.367  22.981  1.00  0.00     0.053 C 
BRANCH   4   5
ATOM      5  C   UNL     1       5.765  15.103  22.386  1.00  0.00     0.041 C 
ATOM      6  O   UNL     1       5.371  13.919  22.212  1.00  0.00    -0.550 OA
ATOM      7  O   UNL     1       4.928  16.162  22.056  1.00  0.00    -0.550 OA
ENDBRANCH   4   5
ENDBRANCH   3   4
ENDBRANCH   2   3
ENDBRANCH   1   2
BRANCH   1   8
ATOM      8  C   UNL     1      10.662  16.800  20.502  1.00  0.00     0.000 C 
BRANCH   8   9
ATOM      9  C   UNL     1      10.613  15.544  19.615  1.00  0.00     0.000 C 
BRANCH   9  10
ATOM     10  C   UNL     1      10.988  14.245  20.359  1.00  0.00     0.006 C 
BRANCH  10  11
ATOM     11  C   UNL     1       9.999  13.109  20.071  1.00  0.00     0.053 C 
BRANCH  11  12
ATOM     12  C   UNL     1      10.597  12.121  19.119  1.00  0.00     0.041 C 
ATOM     13  O   UNL     1      10.912  10.969  19.516  1.00  0.00    -0.550 OA
ATOM     14  O   UNL     1      10.760  12.457  17.781  1.00  0.00    -0.550 OA
ENDBRANCH  11  12
ENDBRANCH  10  11
ENDBRANCH   9  10
ENDBRANCH   8   9
ENDBRANCH   1   8
TORSDOF 9
ENDMDL
