MODEL 1
REMARK VINA RESULT:     7.201      0.000      0.000
REMARK INTER + INTRA:           9.274
REMARK INTER:                   8.674
REMARK INTRA:                   0.600
REMARK UNBOUND:                 0.600
REMARK SMILES O=c1c(O)c(-c2ccc(O)cc2O)oc2cc(O)cc(O)c12
REMARK SMILES IDX 5 1 3 2 2 3 1 4 22 5 20 6 19 7 17 8 16 9 15 10 14 11 6 12
REMARK SMILES IDX 8 13 7 14 9 15 11 16 12 17 10 18 13 20 4 22 21 24 18 26
REMARK H PARENT 10 19 13 21 4 23 21 25 18 27
REMARK Flexibility Score: inf
ROOT
ATOM      1  C   UNL     1     -37.207 -36.006 -35.435  1.00  0.00     0.184 A 
ATOM      2  C   UNL     1     -38.327 -36.060 -36.283  1.00  0.00     0.208 A 
ATOM      3  C   UNL     1     -38.126 -36.081 -37.672  1.00  0.00     0.238 A 
ATOM      4  O   UNL     1     -39.124 -36.117 -38.443  1.00  0.00    -0.285 OA
ATOM      5  C   UNL     1     -36.812 -36.069 -38.186  1.00  0.00     0.111 A 
ATOM      6  C   UNL     1     -36.523 -36.092 -39.571  1.00  0.00     0.134 A 
ATOM      7  C   UNL     1     -35.188 -36.088 -40.003  1.00  0.00     0.093 A 
ATOM      8  C   UNL     1     -34.141 -36.061 -39.080  1.00  0.00     0.123 A 
ATOM      9  C   UNL     1     -34.420 -36.037 -37.709  1.00  0.00     0.094 A 
ATOM     10  C   UNL     1     -35.744 -36.040 -37.258  1.00  0.00     0.146 A 
ATOM     11  O   UNL     1     -35.981 -36.012 -35.952  1.00  0.00    -0.451 OA
ENDROOT
BRANCH   1  12
ATOM     12  C   UNL     1     -37.348 -35.970 -33.965  1.00  0.00     0.063 A 
ATOM     13  C   UNL     1     -38.806 -35.907 -32.020  1.00  0.00     0.047 A 
ATOM     14  C   UNL     1     -38.636 -35.936 -33.406  1.00  0.00     0.020 A 
ATOM     15  C   UNL     1     -37.694 -35.927 -31.175  1.00  0.00     0.119 A 
ATOM     16  C   UNL     1     -36.406 -35.984 -31.721  1.00  0.00     0.093 A 
ATOM     17  C   UNL     1     -36.226 -36.018 -33.112  1.00  0.00     0.130 A 
BRANCH  15  18
ATOM     18  O   UNL     1     -37.879 -35.894 -29.794  1.00  0.00    -0.508 OA
ATOM     19  H   UNL     1     -37.793 -36.730 -29.229  1.00  0.00     0.293 HD
ENDBRANCH  15  18
BRANCH  17  20
ATOM     20  O   UNL     1     -34.940 -36.125 -33.644  1.00  0.00    -0.507 OA
ATOM     21  H   UNL     1     -34.584 -37.001 -34.005  1.00  0.00     0.293 HD
ENDBRANCH  17  20
ENDBRANCH   1  12
BRANCH   2  22
ATOM     22  O   UNL     1     -39.615 -36.116 -35.742  1.00  0.00    -0.502 OA
ATOM     23  H   UNL     1     -40.312 -35.406 -35.931  1.00  0.00     0.293 HD
ENDBRANCH   2  22
BRANCH   6  24
ATOM     24  O   UNL     1     -37.547 -36.121 -40.518  1.00  0.00    -0.507 OA
ATOM     25  H   UNL     1     -37.352 -36.173 -41.512  1.00  0.00     0.293 HD
ENDBRANCH   6  24
BRANCH   8  26
ATOM     26  O   UNL     1     -32.824 -36.058 -39.535  1.00  0.00    -0.508 OA
ATOM     27  H   UNL     1     -32.383 -35.211 -39.876  1.00  0.00     0.293 HD
ENDBRANCH   8  26
TORSDOF 6
ENDMDL
