MODEL 1
REMARK VINA RESULT:     1.651      0.000      0.000
REMARK INTER + INTRA:           2.418
REMARK INTER:                   3.196
REMARK INTRA:                  -0.778
REMARK UNBOUND:                -0.778
REMARK SMILES CCCCCCCCCCCCCCCC(=O)OCC
REMARK SMILES IDX 10 1 9 2 8 3 7 4 6 5 5 6 4 7 3 8 2 9 1 10 11 11 12 12 13 13
REMARK SMILES IDX 14 14 15 15 16 16 17 17 18 18 19 19 20 20
REMARK H PARENT
REMARK Flexibility Score: inf
ROOT
ATOM      1  C   UNL     1     178.123 178.540 170.864  1.00  0.00     0.000 C 
ENDROOT
BRANCH   1   2
ATOM      2  C   UNL     1     179.546 179.046 170.580  1.00  0.00     0.000 C 
BRANCH   2   3
ATOM      3  C   UNL     1     180.491 178.884 171.782  1.00  0.00     0.000 C 
BRANCH   3   4
ATOM      4  C   UNL     1     181.282 177.561 171.818  1.00  0.00    -0.000 C 
BRANCH   4   5
ATOM      5  C   UNL     1     181.925 177.218 173.175  1.00  0.00    -0.000 C 
BRANCH   5   6
ATOM      6  C   UNL     1     181.660 178.289 174.247  1.00  0.00    -0.000 C 
BRANCH   6   7
ATOM      7  C   UNL     1     182.721 178.292 175.361  1.00  0.00    -0.000 C 
BRANCH   7   8
ATOM      8  C   UNL     1     182.363 179.133 176.603  1.00  0.00    -0.000 C 
BRANCH   8   9
ATOM      9  C   UNL     1     183.168 180.443 176.720  1.00  0.00    -0.003 C 
ATOM     10  C   UNL     1     182.756 181.275 177.936  1.00  0.00     0.004 C 
ENDBRANCH   8   9
ENDBRANCH   7   8
ENDBRANCH   6   7
ENDBRANCH   5   6
ENDBRANCH   4   5
ENDBRANCH   3   4
ENDBRANCH   2   3
ENDBRANCH   1   2
BRANCH   1  11
ATOM     11  C   UNL     1     177.954 178.184 172.346  1.00  0.00     0.000 C 
BRANCH  11  12
ATOM     12  C   UNL     1     176.879 179.057 173.005  1.00  0.00     0.000 C 
BRANCH  12  13
ATOM     13  C   UNL     1     176.243 180.011 171.983  1.00  0.00     0.001 C 
BRANCH  13  14
ATOM     14  C   UNL     1     176.986 181.354 171.886  1.00  0.00     0.012 C 
BRANCH  14  15
ATOM     15  C   UNL     1     178.163 181.448 172.864  1.00  0.00     0.123 C 
BRANCH  15  16
ATOM     16  C   UNL     1     178.509 182.880 173.122  1.00  0.00     0.305 C 
ATOM     17  O   UNL     1     178.060 183.780 172.360  1.00  0.00    -0.252 OA
BRANCH  16  18
ATOM     18  O   UNL     1     179.360 183.200 174.186  1.00  0.00    -0.466 OA
BRANCH  18  19
ATOM     19  C   UNL     1     178.937 183.933 175.334  1.00  0.00     0.229 C 
ATOM     20  C   UNL     1     180.126 184.251 176.235  1.00  0.00     0.049 C 
ENDBRANCH  18  19
ENDBRANCH  16  18
ENDBRANCH  15  16
ENDBRANCH  14  15
ENDBRANCH  13  14
ENDBRANCH  12  13
ENDBRANCH  11  12
ENDBRANCH   1  11
TORSDOF 16
ENDMDL
MODEL 2
REMARK VINA RESULT:     1.675      3.647      6.581
REMARK INTER + INTRA:           2.463
REMARK INTER:                   3.126
REMARK INTRA:                  -0.663
REMARK UNBOUND:                -0.778
REMARK SMILES CCCCCCCCCCCCCCCC(=O)OCC
REMARK SMILES IDX 10 1 9 2 8 3 7 4 6 5 5 6 4 7 3 8 2 9 1 10 11 11 12 12 13 13
REMARK SMILES IDX 14 14 15 15 16 16 17 17 18 18 19 19 20 20
REMARK H PARENT
REMARK Flexibility Score: inf
ROOT
ATOM      1  C   UNL     1     179.961 179.075 171.188  1.00  0.00     0.000 C 
ENDROOT
BRANCH   1   2
ATOM      2  C   UNL     1     178.457 178.826 170.994  1.00  0.00     0.000 C 
BRANCH   2   3
ATOM      3  C   UNL     1     177.722 178.541 172.315  1.00  0.00     0.000 C 
BRANCH   3   4
ATOM      4  C   UNL     1     176.800 179.675 172.807  1.00  0.00    -0.000 C 
BRANCH   4   5
ATOM      5  C   UNL     1     176.415 180.717 171.740  1.00  0.00    -0.000 C 
BRANCH   5   6
ATOM      6  C   UNL     1     177.275 181.991 171.817  1.00  0.00    -0.000 C 
BRANCH   6   7
ATOM      7  C   UNL     1     178.353 181.918 172.912  1.00  0.00    -0.000 C 
BRANCH   7   8
ATOM      8  C   UNL     1     178.456 183.165 173.812  1.00  0.00    -0.000 C 
BRANCH   8   9
ATOM      9  C   UNL     1     179.760 183.233 174.635  1.00  0.00    -0.003 C 
ATOM     10  C   UNL     1     179.673 184.238 175.785  1.00  0.00     0.004 C 
ENDBRANCH   8   9
ENDBRANCH   7   8
ENDBRANCH   6   7
ENDBRANCH   5   6
ENDBRANCH   4   5
ENDBRANCH   3   4
ENDBRANCH   2   3
ENDBRANCH   1   2
BRANCH   1  11
ATOM     11  C   UNL     1     180.314 179.172 172.676  1.00  0.00     0.000 C 
BRANCH  11  12
ATOM     12  C   UNL     1     181.451 178.209 173.039  1.00  0.00     0.000 C 
BRANCH  12  13
ATOM     13  C   UNL     1     181.795 177.295 171.854  1.00  0.00     0.001 C 
BRANCH  13  14
ATOM     14  C   UNL     1     180.887 176.057 171.778  1.00  0.00     0.012 C 
BRANCH  14  15
ATOM     15  C   UNL     1     179.884 175.990 172.937  1.00  0.00     0.123 C 
BRANCH  15  16
ATOM     16  C   UNL     1     179.409 174.585 173.131  1.00  0.00     0.305 C 
ATOM     17  O   UNL     1     179.860 173.665 172.396  1.00  0.00    -0.252 OA
BRANCH  16  18
ATOM     18  O   UNL     1     178.439 174.316 174.104  1.00  0.00    -0.466 OA
BRANCH  18  19
ATOM     19  C   UNL     1     178.732 173.678 175.346  1.00  0.00     0.229 C 
ATOM     20  C   UNL     1     177.530 173.753 176.282  1.00  0.00     0.049 C 
ENDBRANCH  18  19
ENDBRANCH  16  18
ENDBRANCH  15  16
ENDBRANCH  14  15
ENDBRANCH  13  14
ENDBRANCH  12  13
ENDBRANCH  11  12
ENDBRANCH   1  11
TORSDOF 16
ENDMDL
MODEL 3
REMARK VINA RESULT:     1.857      2.404      3.678
REMARK INTER + INTRA:           2.817
REMARK INTER:                   4.004
REMARK INTRA:                  -1.188
REMARK UNBOUND:                -0.778
REMARK SMILES CCCCCCCCCCCCCCCC(=O)OCC
REMARK SMILES IDX 10 1 9 2 8 3 7 4 6 5 5 6 4 7 3 8 2 9 1 10 11 11 12 12 13 13
REMARK SMILES IDX 14 14 15 15 16 16 17 17 18 18 19 19 20 20
REMARK H PARENT
REMARK Flexibility Score: inf
ROOT
ATOM      1  C   UNL     1     180.105 179.325 171.102  1.00  0.00     0.000 C 
ENDROOT
BRANCH   1   2
ATOM      2  C   UNL     1     180.175 179.221 172.634  1.00  0.00     0.000 C 
BRANCH   2   3
ATOM      3  C   UNL     1     181.252 178.236 173.118  1.00  0.00     0.000 C 
BRANCH   3   4
ATOM      4  C   UNL     1     181.856 177.336 172.021  1.00  0.00    -0.000 C 
BRANCH   4   5
ATOM      5  C   UNL     1     181.132 175.994 171.801  1.00  0.00    -0.000 C 
BRANCH   5   6
ATOM      6  C   UNL     1     179.800 175.904 172.566  1.00  0.00    -0.000 C 
BRANCH   6   7
ATOM      7  C   UNL     1     179.589 174.536 173.237  1.00  0.00    -0.000 C 
BRANCH   7   8
ATOM      8  C   UNL     1     178.384 174.456 174.195  1.00  0.00    -0.000 C 
BRANCH   8   9
ATOM      9  C   UNL     1     178.679 173.693 175.503  1.00  0.00    -0.003 C 
ATOM     10  C   UNL     1     177.486 173.694 176.461  1.00  0.00     0.004 C 
ENDBRANCH   8   9
ENDBRANCH   7   8
ENDBRANCH   6   7
ENDBRANCH   5   6
ENDBRANCH   4   5
ENDBRANCH   3   4
ENDBRANCH   2   3
ENDBRANCH   1   2
BRANCH   1  11
ATOM     11  C   UNL     1     178.721 178.914 170.587  1.00  0.00     0.000 C 
BRANCH  11  12
ATOM     12  C   UNL     1     177.806 178.486 171.741  1.00  0.00     0.000 C 
BRANCH  12  13
ATOM     13  C   UNL     1     176.389 179.052 171.556  1.00  0.00     0.001 C 
BRANCH  13  14
ATOM     14  C   UNL     1     176.279 180.523 171.989  1.00  0.00     0.012 C 
BRANCH  14  15
ATOM     15  C   UNL     1     177.242 180.876 173.129  1.00  0.00     0.123 C 
BRANCH  15  16
ATOM     16  C   UNL     1     177.997 182.125 172.802  1.00  0.00     0.305 C 
ATOM     17  O   UNL     1     177.712 182.773 171.758  1.00  0.00    -0.252 OA
BRANCH  16  18
ATOM     18  O   UNL     1     179.037 182.539 173.642  1.00  0.00    -0.466 OA
BRANCH  18  19
ATOM     19  C   UNL     1     179.014 183.764 174.372  1.00  0.00     0.229 C 
ATOM     20  C   UNL     1     180.022 183.726 175.515  1.00  0.00     0.049 C 
ENDBRANCH  18  19
ENDBRANCH  16  18
ENDBRANCH  15  16
ENDBRANCH  14  15
ENDBRANCH  13  14
ENDBRANCH  12  13
ENDBRANCH  11  12
ENDBRANCH   1  11
TORSDOF 16
ENDMDL
MODEL 4
REMARK VINA RESULT:     1.930      2.226      5.494
REMARK INTER + INTRA:           2.956
REMARK INTER:                   3.348
REMARK INTRA:                  -0.392
REMARK UNBOUND:                -0.778
REMARK SMILES CCCCCCCCCCCCCCCC(=O)OCC
REMARK SMILES IDX 10 1 9 2 8 3 7 4 6 5 5 6 4 7 3 8 2 9 1 10 11 11 12 12 13 13
REMARK SMILES IDX 14 14 15 15 16 16 17 17 18 18 19 19 20 20
REMARK H PARENT
REMARK Flexibility Score: inf
ROOT
ATOM      1  C   UNL     1     179.641 179.132 172.385  1.00  0.00     0.000 C 
ENDROOT
BRANCH   1   2
ATOM      2  C   UNL     1     178.423 178.196 172.346  1.00  0.00     0.000 C 
BRANCH   2   3
ATOM      3  C   UNL     1     177.453 178.524 171.198  1.00  0.00     0.000 C 
BRANCH   3   4
ATOM      4  C   UNL     1     176.203 179.327 171.608  1.00  0.00    -0.000 C 
BRANCH   4   5
ATOM      5  C   UNL     1     176.398 180.279 172.803  1.00  0.00    -0.000 C 
BRANCH   5   6
ATOM      6  C   UNL     1     176.943 181.656 172.384  1.00  0.00    -0.000 C 
BRANCH   6   7
ATOM      7  C   UNL     1     178.370 181.913 172.896  1.00  0.00    -0.000 C 
BRANCH   7   8
ATOM      8  C   UNL     1     178.559 183.231 173.673  1.00  0.00    -0.000 C 
BRANCH   8   9
ATOM      9  C   UNL     1     179.728 183.199 174.678  1.00  0.00    -0.003 C 
ATOM     10  C   UNL     1     179.569 184.235 175.793  1.00  0.00     0.004 C 
ENDBRANCH   8   9
ENDBRANCH   7   8
ENDBRANCH   6   7
ENDBRANCH   5   6
ENDBRANCH   4   5
ENDBRANCH   3   4
ENDBRANCH   2   3
ENDBRANCH   1   2
BRANCH   1  11
ATOM     11  C   UNL     1     180.564 178.882 171.187  1.00  0.00     0.000 C 
BRANCH  11  12
ATOM     12  C   UNL     1     181.719 177.946 171.563  1.00  0.00     0.000 C 
BRANCH  12  13
ATOM     13  C   UNL     1     181.290 176.959 172.660  1.00  0.00     0.001 C 
BRANCH  13  14
ATOM     14  C   UNL     1     182.128 177.096 173.940  1.00  0.00     0.012 C 
BRANCH  14  15
ATOM     15  C   UNL     1     181.925 178.448 174.636  1.00  0.00     0.123 C 
BRANCH  15  16
ATOM     16  C   UNL     1     182.754 178.522 175.878  1.00  0.00     0.305 C 
ATOM     17  O   UNL     1     183.221 177.465 176.383  1.00  0.00    -0.252 OA
BRANCH  16  18
ATOM     18  O   UNL     1     182.971 179.764 176.487  1.00  0.00    -0.466 OA
BRANCH  18  19
ATOM     19  C   UNL     1     182.402 180.130 177.743  1.00  0.00     0.229 C 
ATOM     20  C   UNL     1     182.730 181.581 178.077  1.00  0.00     0.049 C 
ENDBRANCH  18  19
ENDBRANCH  16  18
ENDBRANCH  15  16
ENDBRANCH  14  15
ENDBRANCH  13  14
ENDBRANCH  12  13
ENDBRANCH  11  12
ENDBRANCH   1  11
TORSDOF 16
ENDMDL
MODEL 5
REMARK VINA RESULT:     2.035      3.196      6.150
REMARK INTER + INTRA:           3.160
REMARK INTER:                   4.084
REMARK INTRA:                  -0.924
REMARK UNBOUND:                -0.778
REMARK SMILES CCCCCCCCCCCCCCCC(=O)OCC
REMARK SMILES IDX 10 1 9 2 8 3 7 4 6 5 5 6 4 7 3 8 2 9 1 10 11 11 12 12 13 13
REMARK SMILES IDX 14 14 15 15 16 16 17 17 18 18 19 19 20 20
REMARK H PARENT
REMARK Flexibility Score: inf
ROOT
ATOM      1  C   UNL     1     177.473 178.397 170.950  1.00  0.00     0.000 C 
ENDROOT
BRANCH   1   2
ATOM      2  C   UNL     1     177.526 178.349 172.485  1.00  0.00     0.000 C 
BRANCH   2   3
ATOM      3  C   UNL     1     176.641 179.417 173.149  1.00  0.00     0.000 C 
BRANCH   3   4
ATOM      4  C   UNL     1     176.059 180.473 172.188  1.00  0.00    -0.000 C 
BRANCH   4   5
ATOM      5  C   UNL     1     177.024 181.609 171.799  1.00  0.00    -0.000 C 
BRANCH   5   6
ATOM      6  C   UNL     1     178.229 181.718 172.750  1.00  0.00    -0.000 C 
BRANCH   6   7
ATOM      7  C   UNL     1     178.367 183.115 173.380  1.00  0.00    -0.000 C 
BRANCH   7   8
ATOM      8  C   UNL     1     179.537 183.272 174.371  1.00  0.00    -0.000 C 
BRANCH   8   9
ATOM      9  C   UNL     1     179.164 184.039 175.657  1.00  0.00    -0.003 C 
ATOM     10  C   UNL     1     180.378 184.311 176.548  1.00  0.00     0.004 C 
ENDBRANCH   8   9
ENDBRANCH   7   8
ENDBRANCH   6   7
ENDBRANCH   5   6
ENDBRANCH   4   5
ENDBRANCH   3   4
ENDBRANCH   2   3
ENDBRANCH   1   2
BRANCH   1  11
ATOM     11  C   UNL     1     178.830 178.809 170.368  1.00  0.00     0.000 C 
BRANCH  11  12
ATOM     12  C   UNL     1     179.823 179.169 171.480  1.00  0.00     0.000 C 
BRANCH  12  13
ATOM     13  C   UNL     1     181.270 178.927 171.022  1.00  0.00     0.001 C 
BRANCH  13  14
ATOM     14  C   UNL     1     182.051 178.017 171.984  1.00  0.00     0.012 C 
BRANCH  14  15
ATOM     15  C   UNL     1     181.140 177.311 172.996  1.00  0.00     0.123 C 
BRANCH  15  16
ATOM     16  C   UNL     1     180.533 176.090 172.382  1.00  0.00     0.305 C 
ATOM     17  O   UNL     1     181.039 175.596 171.338  1.00  0.00    -0.252 OA
BRANCH  16  18
ATOM     18  O   UNL     1     179.384 175.532 172.955  1.00  0.00    -0.466 OA
BRANCH  18  19
ATOM     19  C   UNL     1     179.345 174.218 173.510  1.00  0.00     0.229 C 
ATOM     20  C   UNL     1     178.273 174.124 174.590  1.00  0.00     0.049 C 
ENDBRANCH  18  19
ENDBRANCH  16  18
ENDBRANCH  15  16
ENDBRANCH  14  15
ENDBRANCH  13  14
ENDBRANCH  12  13
ENDBRANCH  11  12
ENDBRANCH   1  11
TORSDOF 16
ENDMDL
MODEL 6
REMARK VINA RESULT:     2.108      2.178      5.383
REMARK INTER + INTRA:           3.302
REMARK INTER:                   3.980
REMARK INTRA:                  -0.678
REMARK UNBOUND:                -0.778
REMARK SMILES CCCCCCCCCCCCCCCC(=O)OCC
REMARK SMILES IDX 10 1 9 2 8 3 7 4 6 5 5 6 4 7 3 8 2 9 1 10 11 11 12 12 13 13
REMARK SMILES IDX 14 14 15 15 16 16 17 17 18 18 19 19 20 20
REMARK H PARENT
REMARK Flexibility Score: inf
ROOT
ATOM      1  C   UNL     1     177.490 178.290 171.035  1.00  0.00     0.000 C 
ENDROOT
BRANCH   1   2
ATOM      2  C   UNL     1     177.743 178.255 172.550  1.00  0.00     0.000 C 
BRANCH   2   3
ATOM      3  C   UNL     1     176.820 179.204 173.334  1.00  0.00     0.000 C 
BRANCH   3   4
ATOM      4  C   UNL     1     176.005 180.185 172.468  1.00  0.00    -0.000 C 
BRANCH   4   5
ATOM      5  C   UNL     1     176.789 181.400 171.939  1.00  0.00    -0.000 C 
BRANCH   5   6
ATOM      6  C   UNL     1     178.150 181.579 172.634  1.00  0.00    -0.000 C 
BRANCH   6   7
ATOM      7  C   UNL     1     178.328 182.980 173.244  1.00  0.00    -0.000 C 
BRANCH   7   8
ATOM      8  C   UNL     1     179.454 183.100 174.290  1.00  0.00    -0.000 C 
BRANCH   8   9
ATOM      9  C   UNL     1     179.178 184.151 175.384  1.00  0.00    -0.003 C 
ATOM     10  C   UNL     1     180.242 184.143 176.484  1.00  0.00     0.004 C 
ENDBRANCH   8   9
ENDBRANCH   7   8
ENDBRANCH   6   7
ENDBRANCH   5   6
ENDBRANCH   4   5
ENDBRANCH   3   4
ENDBRANCH   2   3
ENDBRANCH   1   2
BRANCH   1  11
ATOM     11  C   UNL     1     178.687 178.896 170.293  1.00  0.00     0.000 C 
BRANCH  11  12
ATOM     12  C   UNL     1     179.791 179.313 171.272  1.00  0.00     0.000 C 
BRANCH  12  13
ATOM     13  C   UNL     1     181.170 178.858 170.770  1.00  0.00     0.001 C 
BRANCH  13  14
ATOM     14  C   UNL     1     181.816 177.806 171.685  1.00  0.00     0.012 C 
BRANCH  14  15
ATOM     15  C   UNL     1     180.983 177.529 172.943  1.00  0.00     0.123 C 
BRANCH  15  16
ATOM     16  C   UNL     1     181.871 177.454 174.145  1.00  0.00     0.305 C 
ATOM     17  O   UNL     1     182.416 176.360 174.455  1.00  0.00    -0.252 OA
BRANCH  16  18
ATOM     18  O   UNL     1     182.054 178.595 174.936  1.00  0.00    -0.466 OA
BRANCH  18  19
ATOM     19  C   UNL     1     182.887 178.621 176.093  1.00  0.00     0.229 C 
ATOM     20  C   UNL     1     182.215 179.400 177.219  1.00  0.00     0.049 C 
ENDBRANCH  18  19
ENDBRANCH  16  18
ENDBRANCH  15  16
ENDBRANCH  14  15
ENDBRANCH  13  14
ENDBRANCH  12  13
ENDBRANCH  11  12
ENDBRANCH   1  11
TORSDOF 16
ENDMDL
MODEL 7
REMARK VINA RESULT:     2.139      1.116      1.909
REMARK INTER + INTRA:           3.362
REMARK INTER:                   4.323
REMARK INTRA:                  -0.961
REMARK UNBOUND:                -0.778
REMARK SMILES CCCCCCCCCCCCCCCC(=O)OCC
REMARK SMILES IDX 10 1 9 2 8 3 7 4 6 5 5 6 4 7 3 8 2 9 1 10 11 11 12 12 13 13
REMARK SMILES IDX 14 14 15 15 16 16 17 17 18 18 19 19 20 20
REMARK H PARENT
REMARK Flexibility Score: inf
ROOT
ATOM      1  C   UNL     1     179.897 179.256 171.497  1.00  0.00     0.000 C 
ENDROOT
BRANCH   1   2
ATOM      2  C   UNL     1     181.230 178.630 171.059  1.00  0.00     0.000 C 
BRANCH   2   3
ATOM      3  C   UNL     1     181.316 177.126 171.372  1.00  0.00     0.000 C 
BRANCH   3   4
ATOM      4  C   UNL     1     181.027 176.746 172.838  1.00  0.00    -0.000 C 
BRANCH   4   5
ATOM      5  C   UNL     1     182.170 177.035 173.829  1.00  0.00    -0.000 C 
BRANCH   5   6
ATOM      6  C   UNL     1     181.924 178.300 174.669  1.00  0.00    -0.000 C 
BRANCH   6   7
ATOM      7  C   UNL     1     182.750 178.323 175.967  1.00  0.00    -0.000 C 
BRANCH   7   8
ATOM      8  C   UNL     1     182.291 179.357 177.015  1.00  0.00    -0.000 C 
BRANCH   8   9
ATOM      9  C   UNL     1     183.046 180.700 176.937  1.00  0.00    -0.003 C 
ATOM     10  C   UNL     1     182.722 181.621 178.114  1.00  0.00     0.004 C 
ENDBRANCH   8   9
ENDBRANCH   7   8
ENDBRANCH   6   7
ENDBRANCH   5   6
ENDBRANCH   4   5
ENDBRANCH   3   4
ENDBRANCH   2   3
ENDBRANCH   1   2
BRANCH   1  11
ATOM     11  C   UNL     1     178.801 178.994 170.458  1.00  0.00     0.000 C 
BRANCH  11  12
ATOM     12  C   UNL     1     177.507 178.515 171.128  1.00  0.00     0.000 C 
BRANCH  12  13
ATOM     13  C   UNL     1     177.707 178.333 172.640  1.00  0.00     0.001 C 
BRANCH  13  14
ATOM     14  C   UNL     1     176.797 179.251 173.472  1.00  0.00     0.012 C 
BRANCH  14  15
ATOM     15  C   UNL     1     176.008 180.241 172.605  1.00  0.00     0.123 C 
BRANCH  15  16
ATOM     16  C   UNL     1     176.906 181.334 172.120  1.00  0.00     0.305 C 
ATOM     17  O   UNL     1     176.663 181.904 171.022  1.00  0.00    -0.252 OA
BRANCH  16  18
ATOM     18  O   UNL     1     178.031 181.686 172.877  1.00  0.00    -0.466 OA
BRANCH  18  19
ATOM     19  C   UNL     1     178.406 183.036 173.141  1.00  0.00     0.229 C 
ATOM     20  C   UNL     1     179.415 183.098 174.282  1.00  0.00     0.049 C 
ENDBRANCH  18  19
ENDBRANCH  16  18
ENDBRANCH  15  16
ENDBRANCH  14  15
ENDBRANCH  13  14
ENDBRANCH  12  13
ENDBRANCH  11  12
ENDBRANCH   1  11
TORSDOF 16
ENDMDL
MODEL 8
REMARK VINA RESULT:     2.547      2.802      4.430
REMARK INTER + INTRA:           4.152
REMARK INTER:                   4.996
REMARK INTRA:                  -0.845
REMARK UNBOUND:                -0.778
REMARK SMILES CCCCCCCCCCCCCCCC(=O)OCC
REMARK SMILES IDX 10 1 9 2 8 3 7 4 6 5 5 6 4 7 3 8 2 9 1 10 11 11 12 12 13 13
REMARK SMILES IDX 14 14 15 15 16 16 17 17 18 18 19 19 20 20
REMARK H PARENT
REMARK Flexibility Score: inf
ROOT
ATOM      1  C   UNL     1     180.207 179.026 172.954  1.00  0.00     0.000 C 
ENDROOT
BRANCH   1   2
ATOM      2  C   UNL     1     181.489 178.632 173.702  1.00  0.00     0.000 C 
BRANCH   2   3
ATOM      3  C   UNL     1     181.966 177.209 173.367  1.00  0.00     0.000 C 
BRANCH   3   4
ATOM      4  C   UNL     1     181.723 176.765 171.910  1.00  0.00    -0.000 C 
BRANCH   4   5
ATOM      5  C   UNL     1     180.688 175.639 171.731  1.00  0.00    -0.000 C 
BRANCH   5   6
ATOM      6  C   UNL     1     179.689 175.557 172.899  1.00  0.00    -0.000 C 
BRANCH   6   7
ATOM      7  C   UNL     1     179.363 174.110 173.304  1.00  0.00    -0.000 C 
BRANCH   7   8
ATOM      8  C   UNL     1     178.197 173.956 174.301  1.00  0.00    -0.000 C 
BRANCH   8   9
ATOM      9  C   UNL     1     178.649 173.669 175.748  1.00  0.00    -0.003 C 
ATOM     10  C   UNL     1     177.517 173.854 176.760  1.00  0.00     0.004 C 
ENDBRANCH   8   9
ENDBRANCH   7   8
ENDBRANCH   6   7
ENDBRANCH   5   6
ENDBRANCH   4   5
ENDBRANCH   3   4
ENDBRANCH   2   3
ENDBRANCH   1   2
BRANCH   1  11
ATOM     11  C   UNL     1     180.505 179.342 171.483  1.00  0.00     0.000 C 
BRANCH  11  12
ATOM     12  C   UNL     1     179.313 178.982 170.587  1.00  0.00     0.000 C 
BRANCH  12  13
ATOM     13  C   UNL     1     178.220 178.261 171.391  1.00  0.00     0.001 C 
BRANCH  13  14
ATOM     14  C   UNL     1     176.804 178.600 170.899  1.00  0.00     0.012 C 
BRANCH  14  15
ATOM     15  C   UNL     1     176.384 180.032 171.255  1.00  0.00     0.123 C 
BRANCH  15  16
ATOM     16  C   UNL     1     176.528 180.264 172.726  1.00  0.00     0.305 C 
ATOM     17  O   UNL     1     176.162 179.372 173.539  1.00  0.00    -0.252 OA
BRANCH  16  18
ATOM     18  O   UNL     1     177.034 181.487 173.182  1.00  0.00    -0.466 OA
BRANCH  18  19
ATOM     19  C   UNL     1     178.273 182.036 172.737  1.00  0.00     0.229 C 
ATOM     20  C   UNL     1     178.888 182.917 173.820  1.00  0.00     0.049 C 
ENDBRANCH  18  19
ENDBRANCH  16  18
ENDBRANCH  15  16
ENDBRANCH  14  15
ENDBRANCH  13  14
ENDBRANCH  12  13
ENDBRANCH  11  12
ENDBRANCH   1  11
TORSDOF 16
ENDMDL
MODEL 9
REMARK VINA RESULT:     2.942     13.727     15.859
REMARK INTER + INTRA:           4.915
REMARK INTER:                   4.031
REMARK INTRA:                   0.883
REMARK UNBOUND:                -0.778
REMARK SMILES CCCCCCCCCCCCCCCC(=O)OCC
REMARK SMILES IDX 10 1 9 2 8 3 7 4 6 5 5 6 4 7 3 8 2 9 1 10 11 11 12 12 13 13
REMARK SMILES IDX 14 14 15 15 16 16 17 17 18 18 19 19 20 20
REMARK H PARENT
REMARK Flexibility Score: inf
ROOT
ATOM      1  C   UNL     1     175.626 169.766 179.896  1.00  0.00     0.000 C 
ENDROOT
BRANCH   1   2
ATOM      2  C   UNL     1     174.439 168.879 179.487  1.00  0.00     0.000 C 
BRANCH   2   3
ATOM      3  C   UNL     1     173.307 168.876 180.528  1.00  0.00     0.000 C 
BRANCH   3   4
ATOM      4  C   UNL     1     171.905 169.191 179.969  1.00  0.00    -0.000 C 
BRANCH   4   5
ATOM      5  C   UNL     1     171.339 170.570 180.357  1.00  0.00    -0.000 C 
BRANCH   5   6
ATOM      6  C   UNL     1     170.813 171.360 179.146  1.00  0.00    -0.000 C 
BRANCH   6   7
ATOM      7  C   UNL     1     171.310 170.794 177.805  1.00  0.00    -0.000 C 
BRANCH   7   8
ATOM      8  C   UNL     1     170.201 170.310 176.848  1.00  0.00    -0.000 C 
BRANCH   8   9
ATOM      9  C   UNL     1     170.264 170.953 175.447  1.00  0.00    -0.003 C 
ATOM     10  C   UNL     1     169.010 170.669 174.618  1.00  0.00     0.004 C 
ENDBRANCH   8   9
ENDBRANCH   7   8
ENDBRANCH   6   7
ENDBRANCH   5   6
ENDBRANCH   4   5
ENDBRANCH   3   4
ENDBRANCH   2   3
ENDBRANCH   1   2
BRANCH   1  11
ATOM     11  C   UNL     1     176.567 169.018 180.846  1.00  0.00     0.000 C 
BRANCH  11  12
ATOM     12  C   UNL     1     176.187 169.266 182.311  1.00  0.00     0.000 C 
BRANCH  12  13
ATOM     13  C   UNL     1     174.724 168.875 182.572  1.00  0.00     0.001 C 
BRANCH  13  14
ATOM     14  C   UNL     1     174.124 169.604 183.784  1.00  0.00     0.012 C 
BRANCH  14  15
ATOM     15  C   UNL     1     172.896 170.447 183.416  1.00  0.00     0.123 C 
BRANCH  15  16
ATOM     16  C   UNL     1     172.451 171.256 184.594  1.00  0.00     0.305 C 
ATOM     17  O   UNL     1     172.779 172.470 184.679  1.00  0.00    -0.252 OA
BRANCH  16  18
ATOM     18  O   UNL     1     171.707 170.641 185.607  1.00  0.00    -0.466 OA
BRANCH  18  19
ATOM     19  C   UNL     1     172.240 170.333 186.894  1.00  0.00     0.229 C 
ATOM     20  C   UNL     1     171.870 171.417 187.901  1.00  0.00     0.049 C 
ENDBRANCH  18  19
ENDBRANCH  16  18
ENDBRANCH  15  16
ENDBRANCH  14  15
ENDBRANCH  13  14
ENDBRANCH  12  13
ENDBRANCH  11  12
ENDBRANCH   1  11
TORSDOF 16
ENDMDL
