MODEL 1
REMARK VINA RESULT:    -3.153      0.000      0.000
REMARK INTER + INTRA:          -8.644
REMARK INTER:                  -6.102
REMARK INTRA:                  -2.542
REMARK UNBOUND:                -2.542
REMARK SMILES CCCCCCCCCCCCCCCCCC(=O)[O-]
REMARK SMILES IDX 10 1 11 2 12 3 13 4 14 5 15 6 16 7 17 8 18 9 19 10 20 11
REMARK SMILES IDX 9 12 8 13 7 14 6 15 5 16 4 17 3 18 2 19 1 20
REMARK H PARENT
REMARK Flexibility Score: inf
ROOT
ATOM      1  C   UNL     1      28.634  38.944   1.404  1.00  0.00     0.000 C 
ENDROOT
BRANCH   1   2
ATOM      2  C   UNL     1      27.768  39.222   2.647  1.00  0.00     0.000 C 
BRANCH   2   3
ATOM      3  C   UNL     1      27.539  40.719   2.898  1.00  0.00     0.000 C 
BRANCH   3   4
ATOM      4  C   UNL     1      26.468  40.939   3.975  1.00  0.00     0.000 C 
BRANCH   4   5
ATOM      5  C   UNL     1      25.329  41.864   3.511  1.00  0.00     0.000 C 
BRANCH   5   6
ATOM      6  C   UNL     1      24.165  42.012   4.509  1.00  0.00     0.000 C 
BRANCH   6   7
ATOM      7  C   UNL     1      24.618  42.539   5.881  1.00  0.00     0.006 C 
BRANCH   7   8
ATOM      8  C   UNL     1      25.025  44.018   5.827  1.00  0.00     0.053 C 
BRANCH   8   9
ATOM      9  C   UNL     1      26.241  44.287   6.662  1.00  0.00     0.041 C 
ATOM     10  O   UNL     1      26.204  44.119   7.908  1.00  0.00    -0.550 OA
ATOM     11  O   UNL     1      27.423  44.692   6.056  1.00  0.00    -0.550 OA
ENDBRANCH   8   9
ENDBRANCH   7   8
ENDBRANCH   6   7
ENDBRANCH   5   6
ENDBRANCH   4   5
ENDBRANCH   3   4
ENDBRANCH   2   3
ENDBRANCH   1   2
BRANCH   1  12
ATOM     12  C   UNL     1      27.902  38.260   0.235  1.00  0.00     0.000 C 
BRANCH  12  13
ATOM     13  C   UNL     1      27.565  39.230  -0.911  1.00  0.00    -0.000 C 
BRANCH  13  14
ATOM     14  C   UNL     1      26.051  39.352  -1.165  1.00  0.00    -0.000 C 
BRANCH  14  15
ATOM     15  C   UNL     1      25.234  39.968  -0.010  1.00  0.00    -0.000 C 
BRANCH  15  16
ATOM     16  C   UNL     1      24.020  39.143   0.451  1.00  0.00    -0.000 C 
BRANCH  16  17
ATOM     17  C   UNL     1      24.048  38.832   1.958  1.00  0.00    -0.000 C 
BRANCH  17  18
ATOM     18  C   UNL     1      24.573  37.419   2.257  1.00  0.00    -0.000 C 
BRANCH  18  19
ATOM     19  C   UNL     1      24.617  37.109   3.760  1.00  0.00    -0.003 C 
ATOM     20  C   UNL     1      24.024  38.256   4.575  1.00  0.00     0.004 C 
ENDBRANCH  18  19
ENDBRANCH  17  18
ENDBRANCH  16  17
ENDBRANCH  15  16
ENDBRANCH  14  15
ENDBRANCH  13  14
ENDBRANCH  12  13
ENDBRANCH   1  12
TORSDOF 16
ENDMDL
MODEL 2
REMARK VINA RESULT:    -3.113      1.570      3.440
REMARK INTER + INTRA:          -8.567
REMARK INTER:                  -6.709
REMARK INTRA:                  -1.858
REMARK UNBOUND:                -2.542
REMARK SMILES CCCCCCCCCCCCCCCCCC(=O)[O-]
REMARK SMILES IDX 10 1 11 2 12 3 13 4 14 5 15 6 16 7 17 8 18 9 19 10 20 11
REMARK SMILES IDX 9 12 8 13 7 14 6 15 5 16 4 17 3 18 2 19 1 20
REMARK H PARENT
REMARK Flexibility Score: inf
ROOT
ATOM      1  C   UNL     1      24.616  39.378   2.299  1.00  0.00     0.000 C 
ENDROOT
BRANCH   1   2
ATOM      2  C   UNL     1      24.103  40.825   2.433  1.00  0.00     0.000 C 
BRANCH   2   3
ATOM      3  C   UNL     1      24.482  41.474   3.772  1.00  0.00     0.000 C 
BRANCH   3   4
ATOM      4  C   UNL     1      25.980  41.810   3.816  1.00  0.00     0.000 C 
BRANCH   4   5
ATOM      5  C   UNL     1      26.255  43.321   3.910  1.00  0.00     0.000 C 
BRANCH   5   6
ATOM      6  C   UNL     1      26.801  43.798   5.269  1.00  0.00     0.000 C 
BRANCH   6   7
ATOM      7  C   UNL     1      25.750  44.549   6.105  1.00  0.00     0.006 C 
BRANCH   7   8
ATOM      8  C   UNL     1      24.814  43.591   6.853  1.00  0.00     0.053 C 
BRANCH   8   9
ATOM      9  C   UNL     1      25.299  43.319   8.245  1.00  0.00     0.041 C 
ATOM     10  O   UNL     1      25.234  44.215   9.126  1.00  0.00    -0.550 OA
ATOM     11  O   UNL     1      25.790  42.063   8.576  1.00  0.00    -0.550 OA
ENDBRANCH   8   9
ENDBRANCH   7   8
ENDBRANCH   6   7
ENDBRANCH   5   6
ENDBRANCH   4   5
ENDBRANCH   3   4
ENDBRANCH   2   3
ENDBRANCH   1   2
BRANCH   1  12
ATOM     12  C   UNL     1      24.924  38.923   0.861  1.00  0.00     0.000 C 
BRANCH  12  13
ATOM     13  C   UNL     1      25.585  40.022   0.012  1.00  0.00    -0.000 C 
BRANCH  13  14
ATOM     14  C   UNL     1      25.779  39.607  -1.458  1.00  0.00    -0.000 C 
BRANCH  14  15
ATOM     15  C   UNL     1      26.943  38.629  -1.721  1.00  0.00    -0.000 C 
BRANCH  15  16
ATOM     16  C   UNL     1      28.353  39.231  -1.583  1.00  0.00    -0.000 C 
BRANCH  16  17
ATOM     17  C   UNL     1      29.264  38.409  -0.655  1.00  0.00    -0.000 C 
BRANCH  17  18
ATOM     18  C   UNL     1      28.479  37.688   0.452  1.00  0.00    -0.000 C 
BRANCH  18  19
ATOM     19  C   UNL     1      28.948  38.078   1.861  1.00  0.00    -0.003 C 
ATOM     20  C   UNL     1      28.455  39.473   2.237  1.00  0.00     0.004 C 
ENDBRANCH  18  19
ENDBRANCH  17  18
ENDBRANCH  16  17
ENDBRANCH  15  16
ENDBRANCH  14  15
ENDBRANCH  13  14
ENDBRANCH  12  13
ENDBRANCH   1  12
TORSDOF 16
ENDMDL
MODEL 3
REMARK VINA RESULT:    -3.109     17.235     19.525
REMARK INTER + INTRA:          -8.560
REMARK INTER:                  -6.660
REMARK INTRA:                  -1.900
REMARK UNBOUND:                -2.542
REMARK SMILES CCCCCCCCCCCCCCCCCC(=O)[O-]
REMARK SMILES IDX 10 1 11 2 12 3 13 4 14 5 15 6 16 7 17 8 18 9 19 10 20 11
REMARK SMILES IDX 9 12 8 13 7 14 6 15 5 16 4 17 3 18 2 19 1 20
REMARK H PARENT
REMARK Flexibility Score: inf
ROOT
ATOM      1  C   UNL     1      39.860  31.215   4.983  1.00  0.00     0.000 C 
ENDROOT
BRANCH   1   2
ATOM      2  C   UNL     1      39.000  29.995   4.603  1.00  0.00     0.000 C 
BRANCH   2   3
ATOM      3  C   UNL     1      38.671  29.094   5.803  1.00  0.00     0.000 C 
BRANCH   3   4
ATOM      4  C   UNL     1      39.786  29.155   6.857  1.00  0.00     0.000 C 
BRANCH   4   5
ATOM      5  C   UNL     1      40.206  27.765   7.368  1.00  0.00     0.000 C 
BRANCH   5   6
ATOM      6  C   UNL     1      41.571  27.269   6.854  1.00  0.00     0.000 C 
BRANCH   6   7
ATOM      7  C   UNL     1      42.260  28.278   5.919  1.00  0.00     0.006 C 
BRANCH   7   8
ATOM      8  C   UNL     1      43.548  28.845   6.530  1.00  0.00     0.053 C 
BRANCH   8   9
ATOM      9  C   UNL     1      43.260  29.949   7.502  1.00  0.00     0.041 C 
ATOM     10  O   UNL     1      42.832  31.059   7.091  1.00  0.00    -0.550 OA
ATOM     11  O   UNL     1      43.431  29.739   8.864  1.00  0.00    -0.550 OA
ENDBRANCH   8   9
ENDBRANCH   7   8
ENDBRANCH   6   7
ENDBRANCH   5   6
ENDBRANCH   4   5
ENDBRANCH   3   4
ENDBRANCH   2   3
ENDBRANCH   1   2
BRANCH   1  12
ATOM     12  C   UNL     1      40.765  31.754   3.861  1.00  0.00     0.000 C 
BRANCH  12  13
ATOM     13  C   UNL     1      41.913  30.794   3.503  1.00  0.00    -0.000 C 
BRANCH  13  14
ATOM     14  C   UNL     1      43.296  31.470   3.556  1.00  0.00    -0.000 C 
BRANCH  14  15
ATOM     15  C   UNL     1      43.783  32.085   2.228  1.00  0.00    -0.000 C 
BRANCH  15  16
ATOM     16  C   UNL     1      43.339  33.537   1.973  1.00  0.00    -0.000 C 
BRANCH  16  17
ATOM     17  C   UNL     1      42.908  33.781   0.517  1.00  0.00    -0.000 C 
BRANCH  17  18
ATOM     18  C   UNL     1      42.627  32.474  -0.241  1.00  0.00    -0.000 C 
BRANCH  18  19
ATOM     19  C   UNL     1      41.871  32.703  -1.557  1.00  0.00    -0.003 C 
ATOM     20  C   UNL     1      40.729  33.698  -1.369  1.00  0.00     0.004 C 
ENDBRANCH  18  19
ENDBRANCH  17  18
ENDBRANCH  16  17
ENDBRANCH  15  16
ENDBRANCH  14  15
ENDBRANCH  13  14
ENDBRANCH  12  13
ENDBRANCH   1  12
TORSDOF 16
ENDMDL
MODEL 4
REMARK VINA RESULT:    -3.077     18.016     20.103
REMARK INTER + INTRA:          -8.496
REMARK INTER:                  -5.281
REMARK INTRA:                  -3.216
REMARK UNBOUND:                -2.542
REMARK SMILES CCCCCCCCCCCCCCCCCC(=O)[O-]
REMARK SMILES IDX 10 1 11 2 12 3 13 4 14 5 15 6 16 7 17 8 18 9 19 10 20 11
REMARK SMILES IDX 9 12 8 13 7 14 6 15 5 16 4 17 3 18 2 19 1 20
REMARK H PARENT
REMARK Flexibility Score: inf
ROOT
ATOM      1  C   UNL     1      43.255  28.989   6.485  1.00  0.00     0.000 C 
ENDROOT
BRANCH   1   2
ATOM      2  C   UNL     1      43.766  29.892   7.623  1.00  0.00     0.000 C 
BRANCH   2   3
ATOM      3  C   UNL     1      43.805  31.378   7.239  1.00  0.00     0.000 C 
BRANCH   3   4
ATOM      4  C   UNL     1      43.352  32.261   8.410  1.00  0.00     0.000 C 
BRANCH   4   5
ATOM      5  C   UNL     1      42.945  31.448   9.654  1.00  0.00     0.000 C 
BRANCH   5   6
ATOM      6  C   UNL     1      41.647  31.915  10.338  1.00  0.00     0.000 C 
BRANCH   6   7
ATOM      7  C   UNL     1      41.335  31.133  11.625  1.00  0.00     0.006 C 
BRANCH   7   8
ATOM      8  C   UNL     1      42.417  30.094  11.947  1.00  0.00     0.053 C 
BRANCH   8   9
ATOM      9  C   UNL     1      42.276  29.562  13.341  1.00  0.00     0.041 C 
ATOM     10  O   UNL     1      41.792  28.417  13.536  1.00  0.00    -0.550 OA
ATOM     11  O   UNL     1      42.710  30.319  14.421  1.00  0.00    -0.550 OA
ENDBRANCH   8   9
ENDBRANCH   7   8
ENDBRANCH   6   7
ENDBRANCH   5   6
ENDBRANCH   4   5
ENDBRANCH   3   4
ENDBRANCH   2   3
ENDBRANCH   1   2
BRANCH   1  12
ATOM     12  C   UNL     1      41.978  28.191   6.805  1.00  0.00     0.000 C 
BRANCH  12  13
ATOM     13  C   UNL     1      41.537  28.328   8.272  1.00  0.00    -0.000 C 
BRANCH  13  14
ATOM     14  C   UNL     1      40.209  29.092   8.429  1.00  0.00    -0.000 C 
BRANCH  14  15
ATOM     15  C   UNL     1      39.720  29.834   7.167  1.00  0.00    -0.000 C 
BRANCH  15  16
ATOM     16  C   UNL     1      39.862  31.367   7.209  1.00  0.00    -0.000 C 
BRANCH  16  17
ATOM     17  C   UNL     1      40.511  31.940   5.937  1.00  0.00    -0.000 C 
BRANCH  17  18
ATOM     18  C   UNL     1      40.450  30.962   4.754  1.00  0.00    -0.000 C 
BRANCH  18  19
ATOM     19  C   UNL     1      41.190  31.484   3.514  1.00  0.00    -0.003 C 
ATOM     20  C   UNL     1      42.659  31.070   3.538  1.00  0.00     0.004 C 
ENDBRANCH  18  19
ENDBRANCH  17  18
ENDBRANCH  16  17
ENDBRANCH  15  16
ENDBRANCH  14  15
ENDBRANCH  13  14
ENDBRANCH  12  13
ENDBRANCH   1  12
TORSDOF 16
ENDMDL
MODEL 5
REMARK VINA RESULT:    -3.072      2.429      5.010
REMARK INTER + INTRA:          -8.488
REMARK INTER:                  -6.634
REMARK INTRA:                  -1.853
REMARK UNBOUND:                -2.542
REMARK SMILES CCCCCCCCCCCCCCCCCC(=O)[O-]
REMARK SMILES IDX 10 1 11 2 12 3 13 4 14 5 15 6 16 7 17 8 18 9 19 10 20 11
REMARK SMILES IDX 9 12 8 13 7 14 6 15 5 16 4 17 3 18 2 19 1 20
REMARK H PARENT
REMARK Flexibility Score: inf
ROOT
ATOM      1  C   UNL     1      26.079  43.594   6.028  1.00  0.00     0.000 C 
ENDROOT
BRANCH   1   2
ATOM      2  C   UNL     1      24.664  43.573   6.636  1.00  0.00     0.000 C 
BRANCH   2   3
ATOM      3  C   UNL     1      24.222  42.171   7.080  1.00  0.00     0.000 C 
BRANCH   3   4
ATOM      4  C   UNL     1      25.395  41.183   7.028  1.00  0.00     0.000 C 
BRANCH   4   5
ATOM      5  C   UNL     1      25.455  40.254   8.255  1.00  0.00     0.000 C 
BRANCH   5   6
ATOM      6  C   UNL     1      25.479  40.976   9.615  1.00  0.00     0.000 C 
BRANCH   6   7
ATOM      7  C   UNL     1      26.902  41.329  10.080  1.00  0.00     0.006 C 
BRANCH   7   8
ATOM      8  C   UNL     1      27.268  42.786   9.768  1.00  0.00     0.053 C 
BRANCH   8   9
ATOM      9  C   UNL     1      26.301  43.745  10.395  1.00  0.00     0.041 C 
ATOM     10  O   UNL     1      25.611  44.511   9.674  1.00  0.00    -0.550 OA
ATOM     11  O   UNL     1      26.139  43.766  11.774  1.00  0.00    -0.550 OA
ENDBRANCH   8   9
ENDBRANCH   7   8
ENDBRANCH   6   7
ENDBRANCH   5   6
ENDBRANCH   4   5
ENDBRANCH   3   4
ENDBRANCH   2   3
ENDBRANCH   1   2
BRANCH   1  12
ATOM     12  C   UNL     1      26.135  43.802   4.504  1.00  0.00     0.000 C 
BRANCH  12  13
ATOM     13  C   UNL     1      27.026  42.772   3.790  1.00  0.00    -0.000 C 
BRANCH  13  14
ATOM     14  C   UNL     1      26.293  41.450   3.493  1.00  0.00    -0.000 C 
BRANCH  14  15
ATOM     15  C   UNL     1      24.756  41.550   3.414  1.00  0.00    -0.000 C 
BRANCH  15  16
ATOM     16  C   UNL     1      24.108  40.811   2.229  1.00  0.00    -0.000 C 
BRANCH  16  17
ATOM     17  C   UNL     1      24.826  39.494   1.884  1.00  0.00    -0.000 C 
BRANCH  17  18
ATOM     18  C   UNL     1      24.846  39.213   0.374  1.00  0.00    -0.000 C 
BRANCH  18  19
ATOM     19  C   UNL     1      26.161  39.645  -0.292  1.00  0.00    -0.003 C 
ATOM     20  C   UNL     1      25.923  40.111  -1.726  1.00  0.00     0.004 C 
ENDBRANCH  18  19
ENDBRANCH  17  18
ENDBRANCH  16  17
ENDBRANCH  15  16
ENDBRANCH  14  15
ENDBRANCH  13  14
ENDBRANCH  12  13
ENDBRANCH   1  12
TORSDOF 16
ENDMDL
MODEL 6
REMARK VINA RESULT:    -3.071      1.696      3.668
REMARK INTER + INTRA:          -8.485
REMARK INTER:                  -6.411
REMARK INTRA:                  -2.073
REMARK UNBOUND:                -2.542
REMARK SMILES CCCCCCCCCCCCCCCCCC(=O)[O-]
REMARK SMILES IDX 10 1 11 2 12 3 13 4 14 5 15 6 16 7 17 8 18 9 19 10 20 11
REMARK SMILES IDX 9 12 8 13 7 14 6 15 5 16 4 17 3 18 2 19 1 20
REMARK H PARENT
REMARK Flexibility Score: inf
ROOT
ATOM      1  C   UNL     1      24.278  40.657   3.686  1.00  0.00     0.000 C 
ENDROOT
BRANCH   1   2
ATOM      2  C   UNL     1      24.833  41.957   4.298  1.00  0.00     0.000 C 
BRANCH   2   3
ATOM      3  C   UNL     1      26.139  42.422   3.639  1.00  0.00     0.000 C 
BRANCH   3   4
ATOM      4  C   UNL     1      26.584  43.781   4.197  1.00  0.00     0.000 C 
BRANCH   4   5
ATOM      5  C   UNL     1      25.705  44.268   5.364  1.00  0.00     0.000 C 
BRANCH   5   6
ATOM      6  C   UNL     1      26.454  45.057   6.454  1.00  0.00     0.000 C 
BRANCH   6   7
ATOM      7  C   UNL     1      26.306  44.433   7.852  1.00  0.00     0.006 C 
BRANCH   7   8
ATOM      8  C   UNL     1      25.452  43.158   7.828  1.00  0.00     0.053 C 
BRANCH   8   9
ATOM      9  C   UNL     1      26.087  42.053   8.617  1.00  0.00     0.041 C 
ATOM     10  O   UNL     1      27.324  41.841   8.529  1.00  0.00    -0.550 OA
ATOM     11  O   UNL     1      25.315  41.281   9.476  1.00  0.00    -0.550 OA
ENDBRANCH   8   9
ENDBRANCH   7   8
ENDBRANCH   6   7
ENDBRANCH   5   6
ENDBRANCH   4   5
ENDBRANCH   3   4
ENDBRANCH   2   3
ENDBRANCH   1   2
BRANCH   1  12
ATOM     12  C   UNL     1      24.054  40.692   2.164  1.00  0.00     0.000 C 
BRANCH  12  13
ATOM     13  C   UNL     1      23.939  39.290   1.542  1.00  0.00    -0.000 C 
BRANCH  13  14
ATOM     14  C   UNL     1      24.264  39.274   0.037  1.00  0.00    -0.000 C 
BRANCH  14  15
ATOM     15  C   UNL     1      25.588  39.959  -0.360  1.00  0.00    -0.000 C 
BRANCH  15  16
ATOM     16  C   UNL     1      26.702  39.011  -0.842  1.00  0.00    -0.000 C 
BRANCH  16  17
ATOM     17  C   UNL     1      27.751  38.724   0.246  1.00  0.00    -0.000 C 
BRANCH  17  18
ATOM     18  C   UNL     1      27.656  39.701   1.428  1.00  0.00    -0.000 C 
BRANCH  18  19
ATOM     19  C   UNL     1      27.455  38.988   2.773  1.00  0.00    -0.003 C 
ATOM     20  C   UNL     1      28.379  39.563   3.843  1.00  0.00     0.004 C 
ENDBRANCH  18  19
ENDBRANCH  17  18
ENDBRANCH  16  17
ENDBRANCH  15  16
ENDBRANCH  14  15
ENDBRANCH  13  14
ENDBRANCH  12  13
ENDBRANCH   1  12
TORSDOF 16
ENDMDL
MODEL 7
REMARK VINA RESULT:    -3.066      3.085      6.706
REMARK INTER + INTRA:          -8.476
REMARK INTER:                  -6.331
REMARK INTRA:                  -2.145
REMARK UNBOUND:                -2.542
REMARK SMILES CCCCCCCCCCCCCCCCCC(=O)[O-]
REMARK SMILES IDX 10 1 11 2 12 3 13 4 14 5 15 6 16 7 17 8 18 9 19 10 20 11
REMARK SMILES IDX 9 12 8 13 7 14 6 15 5 16 4 17 3 18 2 19 1 20
REMARK H PARENT
REMARK Flexibility Score: inf
ROOT
ATOM      1  C   UNL     1      26.209  38.995   5.403  1.00  0.00     0.000 C 
ENDROOT
BRANCH   1   2
ATOM      2  C   UNL     1      25.400  38.089   4.456  1.00  0.00     0.000 C 
BRANCH   2   3
ATOM      3  C   UNL     1      25.603  38.436   2.974  1.00  0.00     0.000 C 
BRANCH   3   4
ATOM      4  C   UNL     1      24.255  38.605   2.259  1.00  0.00     0.000 C 
BRANCH   4   5
ATOM      5  C   UNL     1      24.277  39.708   1.185  1.00  0.00     0.000 C 
BRANCH   5   6
ATOM      6  C   UNL     1      24.631  39.226  -0.234  1.00  0.00     0.000 C 
BRANCH   6   7
ATOM      7  C   UNL     1      25.813  39.994  -0.850  1.00  0.00     0.006 C 
BRANCH   7   8
ATOM      8  C   UNL     1      26.874  39.052  -1.434  1.00  0.00     0.053 C 
BRANCH   8   9
ATOM      9  C   UNL     1      28.112  39.022  -0.589  1.00  0.00     0.041 C 
ATOM     10  O   UNL     1      28.060  39.354   0.623  1.00  0.00    -0.550 OA
ATOM     11  O   UNL     1      29.315  38.594  -1.135  1.00  0.00    -0.550 OA
ENDBRANCH   8   9
ENDBRANCH   7   8
ENDBRANCH   6   7
ENDBRANCH   5   6
ENDBRANCH   4   5
ENDBRANCH   3   4
ENDBRANCH   2   3
ENDBRANCH   1   2
BRANCH   1  12
ATOM     12  C   UNL     1      25.376  39.763   6.446  1.00  0.00     0.000 C 
BRANCH  12  13
ATOM     13  C   UNL     1      23.995  40.185   5.917  1.00  0.00    -0.000 C 
BRANCH  13  14
ATOM     14  C   UNL     1      23.951  41.658   5.469  1.00  0.00    -0.000 C 
BRANCH  14  15
ATOM     15  C   UNL     1      24.264  41.905   3.978  1.00  0.00    -0.000 C 
BRANCH  15  16
ATOM     16  C   UNL     1      25.752  42.115   3.644  1.00  0.00    -0.000 C 
BRANCH  16  17
ATOM     17  C   UNL     1      26.247  43.529   3.995  1.00  0.00    -0.000 C 
BRANCH  17  18
ATOM     18  C   UNL     1      27.212  43.535   5.191  1.00  0.00    -0.000 C 
BRANCH  18  19
ATOM     19  C   UNL     1      26.733  44.441   6.334  1.00  0.00    -0.003 C 
ATOM     20  C   UNL     1      26.062  45.701   5.792  1.00  0.00     0.004 C 
ENDBRANCH  18  19
ENDBRANCH  17  18
ENDBRANCH  16  17
ENDBRANCH  15  16
ENDBRANCH  14  15
ENDBRANCH  13  14
ENDBRANCH  12  13
ENDBRANCH   1  12
TORSDOF 16
ENDMDL
MODEL 8
REMARK VINA RESULT:    -3.053     15.793     18.204
REMARK INTER + INTRA:          -8.450
REMARK INTER:                  -5.660
REMARK INTRA:                  -2.791
REMARK UNBOUND:                -2.542
REMARK SMILES CCCCCCCCCCCCCCCCCC(=O)[O-]
REMARK SMILES IDX 10 1 11 2 12 3 13 4 14 5 15 6 16 7 17 8 18 9 19 10 20 11
REMARK SMILES IDX 9 12 8 13 7 14 6 15 5 16 4 17 3 18 2 19 1 20
REMARK H PARENT
REMARK Flexibility Score: inf
ROOT
ATOM      1  C   UNL     1      42.249  32.499  -0.914  1.00  0.00     0.000 C 
ENDROOT
BRANCH   1   2
ATOM      2  C   UNL     1      43.517  33.021  -0.213  1.00  0.00     0.000 C 
BRANCH   2   3
ATOM      3  C   UNL     1      43.663  32.504   1.226  1.00  0.00     0.000 C 
BRANCH   3   4
ATOM      4  C   UNL     1      43.757  33.668   2.222  1.00  0.00     0.000 C 
BRANCH   4   5
ATOM      5  C   UNL     1      43.832  33.203   3.687  1.00  0.00     0.000 C 
BRANCH   5   6
ATOM      6  C   UNL     1      43.990  31.683   3.879  1.00  0.00     0.000 C 
BRANCH   6   7
ATOM      7  C   UNL     1      42.864  31.066   4.724  1.00  0.00     0.006 C 
BRANCH   7   8
ATOM      8  C   UNL     1      41.937  30.172   3.889  1.00  0.00     0.053 C 
BRANCH   8   9
ATOM      9  C   UNL     1      40.900  29.504   4.740  1.00  0.00     0.041 C 
ATOM     10  O   UNL     1      41.243  28.835   5.749  1.00  0.00    -0.550 OA
ATOM     11  O   UNL     1      39.553  29.649   4.436  1.00  0.00    -0.550 OA
ENDBRANCH   8   9
ENDBRANCH   7   8
ENDBRANCH   6   7
ENDBRANCH   5   6
ENDBRANCH   4   5
ENDBRANCH   3   4
ENDBRANCH   2   3
ENDBRANCH   1   2
BRANCH   1  12
ATOM     12  C   UNL     1      41.156  33.555  -1.162  1.00  0.00     0.000 C 
BRANCH  12  13
ATOM     13  C   UNL     1      39.936  33.381  -0.242  1.00  0.00    -0.000 C 
BRANCH  13  14
ATOM     14  C   UNL     1      40.155  33.976   1.162  1.00  0.00    -0.000 C 
BRANCH  14  15
ATOM     15  C   UNL     1      40.151  32.957   2.320  1.00  0.00    -0.000 C 
BRANCH  15  16
ATOM     16  C   UNL     1      39.073  33.187   3.396  1.00  0.00    -0.000 C 
BRANCH  16  17
ATOM     17  C   UNL     1      39.636  33.121   4.826  1.00  0.00    -0.000 C 
BRANCH  17  18
ATOM     18  C   UNL     1      40.729  34.171   5.078  1.00  0.00    -0.000 C 
BRANCH  18  19
ATOM     19  C   UNL     1      40.219  35.610   4.912  1.00  0.00    -0.003 C 
ATOM     20  C   UNL     1      41.066  36.379   3.902  1.00  0.00     0.004 C 
ENDBRANCH  18  19
ENDBRANCH  17  18
ENDBRANCH  16  17
ENDBRANCH  15  16
ENDBRANCH  14  15
ENDBRANCH  13  14
ENDBRANCH  12  13
ENDBRANCH   1  12
TORSDOF 16
ENDMDL
MODEL 9
REMARK VINA RESULT:    -3.034      1.896      4.204
REMARK INTER + INTRA:          -8.413
REMARK INTER:                  -6.448
REMARK INTRA:                  -1.965
REMARK UNBOUND:                -2.542
REMARK SMILES CCCCCCCCCCCCCCCCCC(=O)[O-]
REMARK SMILES IDX 10 1 11 2 12 3 13 4 14 5 15 6 16 7 17 8 18 9 19 10 20 11
REMARK SMILES IDX 9 12 8 13 7 14 6 15 5 16 4 17 3 18 2 19 1 20
REMARK H PARENT
REMARK Flexibility Score: inf
ROOT
ATOM      1  C   UNL     1      27.233  41.631   3.499  1.00  0.00     0.000 C 
ENDROOT
BRANCH   1   2
ATOM      2  C   UNL     1      27.452  42.952   4.259  1.00  0.00     0.000 C 
BRANCH   2   3
ATOM      3  C   UNL     1      26.210  43.856   4.262  1.00  0.00     0.000 C 
BRANCH   3   4
ATOM      4  C   UNL     1      26.123  44.666   5.563  1.00  0.00     0.000 C 
BRANCH   4   5
ATOM      5  C   UNL     1      25.057  44.130   6.536  1.00  0.00     0.000 C 
BRANCH   5   6
ATOM      6  C   UNL     1      24.059  43.132   5.920  1.00  0.00     0.000 C 
BRANCH   6   7
ATOM      7  C   UNL     1      23.972  41.812   6.705  1.00  0.00     0.006 C 
BRANCH   7   8
ATOM      8  C   UNL     1      25.358  41.249   7.044  1.00  0.00     0.053 C 
BRANCH   8   9
ATOM      9  C   UNL     1      25.480  40.920   8.501  1.00  0.00     0.041 C 
ATOM     10  O   UNL     1      25.700  39.737   8.868  1.00  0.00    -0.550 OA
ATOM     11  O   UNL     1      25.384  41.929   9.451  1.00  0.00    -0.550 OA
ENDBRANCH   8   9
ENDBRANCH   7   8
ENDBRANCH   6   7
ENDBRANCH   5   6
ENDBRANCH   4   5
ENDBRANCH   3   4
ENDBRANCH   2   3
ENDBRANCH   1   2
BRANCH   1  12
ATOM     12  C   UNL     1      25.767  41.302   3.165  1.00  0.00     0.000 C 
BRANCH  12  13
ATOM     13  C   UNL     1      25.358  39.882   3.592  1.00  0.00    -0.000 C 
BRANCH  13  14
ATOM     14  C   UNL     1      24.317  39.249   2.649  1.00  0.00    -0.000 C 
BRANCH  14  15
ATOM     15  C   UNL     1      24.871  38.725   1.309  1.00  0.00    -0.000 C 
BRANCH  15  16
ATOM     16  C   UNL     1      24.587  39.615   0.085  1.00  0.00    -0.000 C 
BRANCH  16  17
ATOM     17  C   UNL     1      25.790  39.720  -0.868  1.00  0.00    -0.000 C 
BRANCH  17  18
ATOM     18  C   UNL     1      26.910  38.730  -0.512  1.00  0.00    -0.000 C 
BRANCH  18  19
ATOM     19  C   UNL     1      27.694  38.253  -1.743  1.00  0.00    -0.003 C 
ATOM     20  C   UNL     1      28.780  39.255  -2.125  1.00  0.00     0.004 C 
ENDBRANCH  18  19
ENDBRANCH  17  18
ENDBRANCH  16  17
ENDBRANCH  15  16
ENDBRANCH  14  15
ENDBRANCH  13  14
ENDBRANCH  12  13
ENDBRANCH   1  12
TORSDOF 16
ENDMDL
