MODEL 1
REMARK VINA RESULT:    -3.979      0.000      0.000
REMARK INTER + INTRA:          -9.623
REMARK INTER:                  -7.236
REMARK INTRA:                  -2.387
REMARK UNBOUND:                -2.387
REMARK SMILES CCCCCCCCCCCCCC[C@H](C)C(=O)[O-]
REMARK SMILES IDX 9 1 10 2 11 3 12 4 13 5 14 6 15 7 16 8 17 9 18 10 19 11 8 12
REMARK SMILES IDX 7 13 6 14 5 15 4 16 3 17 2 18 1 19
REMARK H PARENT
REMARK Flexibility Score: inf
ROOT
ATOM      1  C   UNL     1      26.773  -1.174  10.682  1.00  0.00     0.000 C 
ENDROOT
BRANCH   1   2
ATOM      2  C   UNL     1      27.846  -0.157  10.271  1.00  0.00     0.000 C 
BRANCH   2   3
ATOM      3  C   UNL     1      29.097  -0.867   9.732  1.00  0.00     0.000 C 
BRANCH   3   4
ATOM      4  C   UNL     1      28.947  -1.301   8.265  1.00  0.00     0.000 C 
BRANCH   4   5
ATOM      5  C   UNL     1      28.891  -2.831   8.105  1.00  0.00     0.001 C 
BRANCH   5   6
ATOM      6  C   UNL     1      27.477  -3.352   7.785  1.00  0.00     0.009 C 
BRANCH   6   7
ATOM      7  C   UNL     1      26.890  -2.874   6.436  1.00  0.00     0.032 C 
ATOM      8  C   UNL     1      25.367  -3.048   6.364  1.00  0.00     0.014 C 
BRANCH   7   9
ATOM      9  C   UNL     1      27.539  -3.633   5.312  1.00  0.00     0.044 C 
ATOM     10  O   UNL     1      27.382  -4.879   5.216  1.00  0.00    -0.550 OA
ATOM     11  O   UNL     1      28.305  -2.965   4.363  1.00  0.00    -0.550 OA
ENDBRANCH   7   9
ENDBRANCH   6   7
ENDBRANCH   5   6
ENDBRANCH   4   5
ENDBRANCH   3   4
ENDBRANCH   2   3
ENDBRANCH   1   2
BRANCH   1  12
ATOM     12  C   UNL     1      25.388  -0.747  10.173  1.00  0.00     0.000 C 
BRANCH  12  13
ATOM     13  C   UNL     1      25.447  -0.001   8.828  1.00  0.00    -0.000 C 
BRANCH  13  14
ATOM     14  C   UNL     1      24.858   1.421   8.844  1.00  0.00    -0.000 C 
BRANCH  14  15
ATOM     15  C   UNL     1      25.933   2.516   8.765  1.00  0.00    -0.000 C 
BRANCH  15  16
ATOM     16  C   UNL     1      26.374   2.750   7.315  1.00  0.00    -0.000 C 
BRANCH  16  17
ATOM     17  C   UNL     1      27.762   2.145   7.058  1.00  0.00    -0.000 C 
BRANCH  17  18
ATOM     18  C   UNL     1      27.993   1.804   5.578  1.00  0.00    -0.003 C 
ATOM     19  C   UNL     1      27.644   0.355   5.244  1.00  0.00     0.004 C 
ENDBRANCH  17  18
ENDBRANCH  16  17
ENDBRANCH  15  16
ENDBRANCH  14  15
ENDBRANCH  13  14
ENDBRANCH  12  13
ENDBRANCH   1  12
TORSDOF 14
ENDMDL
MODEL 2
REMARK VINA RESULT:    -3.912      3.210      5.232
REMARK INTER + INTRA:          -9.500
REMARK INTER:                  -6.882
REMARK INTRA:                  -2.618
REMARK UNBOUND:                -2.387
REMARK SMILES CCCCCCCCCCCCCC[C@H](C)C(=O)[O-]
REMARK SMILES IDX 9 1 10 2 11 3 12 4 13 5 14 6 15 7 16 8 17 9 18 10 19 11 8 12
REMARK SMILES IDX 7 13 6 14 5 15 4 16 3 17 2 18 1 19
REMARK H PARENT
REMARK Flexibility Score: inf
ROOT
ATOM      1  C   UNL     1      29.125  -2.043   9.318  1.00  0.00     0.000 C 
ENDROOT
BRANCH   1   2
ATOM      2  C   UNL     1      29.081  -0.554   8.950  1.00  0.00     0.000 C 
BRANCH   2   3
ATOM      3  C   UNL     1      27.827   0.117   9.529  1.00  0.00     0.000 C 
BRANCH   3   4
ATOM      4  C   UNL     1      27.201  -0.686  10.680  1.00  0.00     0.000 C 
BRANCH   4   5
ATOM      5  C   UNL     1      25.729  -1.049  10.415  1.00  0.00     0.001 C 
BRANCH   5   6
ATOM      6  C   UNL     1      24.932   0.102   9.771  1.00  0.00     0.009 C 
BRANCH   6   7
ATOM      7  C   UNL     1      24.704   1.333  10.679  1.00  0.00     0.032 C 
ATOM      8  C   UNL     1      24.025   0.966  12.006  1.00  0.00     0.014 C 
BRANCH   7   9
ATOM      9  C   UNL     1      23.866   2.345   9.946  1.00  0.00     0.044 C 
ATOM     10  O   UNL     1      23.357   3.315  10.568  1.00  0.00    -0.550 OA
ATOM     11  O   UNL     1      23.659   2.225   8.577  1.00  0.00    -0.550 OA
ENDBRANCH   7   9
ENDBRANCH   6   7
ENDBRANCH   5   6
ENDBRANCH   4   5
ENDBRANCH   3   4
ENDBRANCH   2   3
ENDBRANCH   1   2
BRANCH   1  12
ATOM     12  C   UNL     1      28.848  -2.921   8.088  1.00  0.00     0.000 C 
BRANCH  12  13
ATOM     13  C   UNL     1      27.352  -3.235   7.900  1.00  0.00    -0.000 C 
BRANCH  13  14
ATOM     14  C   UNL     1      26.615  -2.323   6.903  1.00  0.00    -0.000 C 
BRANCH  14  15
ATOM     15  C   UNL     1      27.499  -1.885   5.725  1.00  0.00    -0.000 C 
BRANCH  15  16
ATOM     16  C   UNL     1      27.578  -0.356   5.636  1.00  0.00    -0.000 C 
BRANCH  16  17
ATOM     17  C   UNL     1      26.273   0.292   6.124  1.00  0.00    -0.000 C 
BRANCH  17  18
ATOM     18  C   UNL     1      26.453   1.771   6.499  1.00  0.00    -0.003 C 
ATOM     19  C   UNL     1      27.912   2.220   6.447  1.00  0.00     0.004 C 
ENDBRANCH  17  18
ENDBRANCH  16  17
ENDBRANCH  15  16
ENDBRANCH  14  15
ENDBRANCH  13  14
ENDBRANCH  12  13
ENDBRANCH   1  12
TORSDOF 14
ENDMDL
MODEL 3
REMARK VINA RESULT:    -3.859      9.997     11.981
REMARK INTER + INTRA:          -9.404
REMARK INTER:                  -7.523
REMARK INTRA:                  -1.882
REMARK UNBOUND:                -2.387
REMARK SMILES CCCCCCCCCCCCCC[C@H](C)C(=O)[O-]
REMARK SMILES IDX 9 1 10 2 11 3 12 4 13 5 14 6 15 7 16 8 17 9 18 10 19 11 8 12
REMARK SMILES IDX 7 13 6 14 5 15 4 16 3 17 2 18 1 19
REMARK H PARENT
REMARK Flexibility Score: inf
ROOT
ATOM      1  C   UNL     1      23.723  -1.310  18.023  1.00  0.00     0.000 C 
ENDROOT
BRANCH   1   2
ATOM      2  C   UNL     1      25.063  -2.043  18.163  1.00  0.00     0.000 C 
BRANCH   2   3
ATOM      3  C   UNL     1      25.091  -3.307  17.291  1.00  0.00     0.000 C 
BRANCH   3   4
ATOM      4  C   UNL     1      25.534  -4.556  18.070  1.00  0.00     0.000 C 
BRANCH   4   5
ATOM      5  C   UNL     1      24.381  -5.547  18.302  1.00  0.00     0.001 C 
BRANCH   5   6
ATOM      6  C   UNL     1      23.330  -5.025  19.300  1.00  0.00     0.009 C 
BRANCH   6   7
ATOM      7  C   UNL     1      21.935  -4.736  18.695  1.00  0.00     0.032 C 
ATOM      8  C   UNL     1      21.171  -3.656  19.473  1.00  0.00     0.014 C 
BRANCH   7   9
ATOM      9  C   UNL     1      21.129  -6.006  18.668  1.00  0.00     0.044 C 
ATOM     10  O   UNL     1      20.292  -6.243  19.577  1.00  0.00    -0.550 OA
ATOM     11  O   UNL     1      21.294  -6.919  17.633  1.00  0.00    -0.550 OA
ENDBRANCH   7   9
ENDBRANCH   6   7
ENDBRANCH   5   6
ENDBRANCH   4   5
ENDBRANCH   3   4
ENDBRANCH   2   3
ENDBRANCH   1   2
BRANCH   1  12
ATOM     12  C   UNL     1      23.337  -0.614  19.338  1.00  0.00     0.000 C 
BRANCH  12  13
ATOM     13  C   UNL     1      21.916  -0.022  19.307  1.00  0.00    -0.000 C 
BRANCH  13  14
ATOM     14  C   UNL     1      21.851   1.516  19.336  1.00  0.00    -0.000 C 
BRANCH  14  15
ATOM     15  C   UNL     1      23.086   2.156  19.987  1.00  0.00    -0.000 C 
BRANCH  15  16
ATOM     16  C   UNL     1      23.616   3.319  19.138  1.00  0.00    -0.000 C 
BRANCH  16  17
ATOM     17  C   UNL     1      23.063   3.250  17.706  1.00  0.00    -0.000 C 
BRANCH  17  18
ATOM     18  C   UNL     1      24.143   2.891  16.674  1.00  0.00    -0.003 C 
ATOM     19  C   UNL     1      23.771   1.675  15.828  1.00  0.00     0.004 C 
ENDBRANCH  17  18
ENDBRANCH  16  17
ENDBRANCH  15  16
ENDBRANCH  14  15
ENDBRANCH  13  14
ENDBRANCH  12  13
ENDBRANCH   1  12
TORSDOF 14
ENDMDL
MODEL 4
REMARK VINA RESULT:    -3.847     10.049     11.555
REMARK INTER + INTRA:          -9.382
REMARK INTER:                  -7.406
REMARK INTRA:                  -1.976
REMARK UNBOUND:                -2.387
REMARK SMILES CCCCCCCCCCCCCC[C@H](C)C(=O)[O-]
REMARK SMILES IDX 9 1 10 2 11 3 12 4 13 5 14 6 15 7 16 8 17 9 18 10 19 11 8 12
REMARK SMILES IDX 7 13 6 14 5 15 4 16 3 17 2 18 1 19
REMARK H PARENT
REMARK Flexibility Score: inf
ROOT
ATOM      1  C   UNL     1      21.679  -0.344  18.665  1.00  0.00     0.000 C 
ENDROOT
BRANCH   1   2
ATOM      2  C   UNL     1      22.924  -1.165  19.022  1.00  0.00     0.000 C 
BRANCH   2   3
ATOM      3  C   UNL     1      23.538  -1.804  17.767  1.00  0.00     0.000 C 
BRANCH   3   4
ATOM      4  C   UNL     1      25.043  -2.079  17.917  1.00  0.00     0.000 C 
BRANCH   4   5
ATOM      5  C   UNL     1      25.413  -3.536  17.591  1.00  0.00     0.001 C 
BRANCH   5   6
ATOM      6  C   UNL     1      25.001  -4.524  18.699  1.00  0.00     0.009 C 
BRANCH   6   7
ATOM      7  C   UNL     1      24.104  -5.696  18.234  1.00  0.00     0.032 C 
ATOM      8  C   UNL     1      24.077  -5.846  16.707  1.00  0.00     0.014 C 
BRANCH   7   9
ATOM      9  C   UNL     1      22.705  -5.487  18.746  1.00  0.00     0.044 C 
ATOM     10  O   UNL     1      22.475  -4.614  19.624  1.00  0.00    -0.550 OA
ATOM     11  O   UNL     1      21.653  -6.246  18.244  1.00  0.00    -0.550 OA
ENDBRANCH   7   9
ENDBRANCH   6   7
ENDBRANCH   5   6
ENDBRANCH   4   5
ENDBRANCH   3   4
ENDBRANCH   2   3
ENDBRANCH   1   2
BRANCH   1  12
ATOM     12  C   UNL     1      21.706   1.026  19.361  1.00  0.00     0.000 C 
BRANCH  12  13
ATOM     13  C   UNL     1      23.114   1.430  19.835  1.00  0.00    -0.000 C 
BRANCH  13  14
ATOM     14  C   UNL     1      23.310   2.937  20.082  1.00  0.00    -0.000 C 
BRANCH  14  15
ATOM     15  C   UNL     1      23.080   3.786  18.822  1.00  0.00    -0.000 C 
BRANCH  15  16
ATOM     16  C   UNL     1      24.287   3.709  17.879  1.00  0.00    -0.000 C 
BRANCH  16  17
ATOM     17  C   UNL     1      23.855   3.291  16.465  1.00  0.00    -0.000 C 
BRANCH  17  18
ATOM     18  C   UNL     1      23.975   1.776  16.237  1.00  0.00    -0.003 C 
ATOM     19  C   UNL     1      22.791   1.200  15.462  1.00  0.00     0.004 C 
ENDBRANCH  17  18
ENDBRANCH  16  17
ENDBRANCH  15  16
ENDBRANCH  14  15
ENDBRANCH  13  14
ENDBRANCH  12  13
ENDBRANCH   1  12
TORSDOF 14
ENDMDL
MODEL 5
REMARK VINA RESULT:    -3.807      1.238      3.544
REMARK INTER + INTRA:          -9.310
REMARK INTER:                  -6.834
REMARK INTRA:                  -2.476
REMARK UNBOUND:                -2.387
REMARK SMILES CCCCCCCCCCCCCC[C@H](C)C(=O)[O-]
REMARK SMILES IDX 9 1 10 2 11 3 12 4 13 5 14 6 15 7 16 8 17 9 18 10 19 11 8 12
REMARK SMILES IDX 7 13 6 14 5 15 4 16 3 17 2 18 1 19
REMARK H PARENT
REMARK Flexibility Score: inf
ROOT
ATOM      1  C   UNL     1      26.366   2.248   7.685  1.00  0.00     0.000 C 
ENDROOT
BRANCH   1   2
ATOM      2  C   UNL     1      26.598   2.256   6.169  1.00  0.00     0.000 C 
BRANCH   2   3
ATOM      3  C   UNL     1      27.764   1.332   5.788  1.00  0.00     0.000 C 
BRANCH   3   4
ATOM      4  C   UNL     1      27.863   0.095   6.695  1.00  0.00     0.000 C 
BRANCH   4   5
ATOM      5  C   UNL     1      27.266  -1.164   6.043  1.00  0.00     0.001 C 
BRANCH   5   6
ATOM      6  C   UNL     1      27.954  -2.464   6.501  1.00  0.00     0.009 C 
BRANCH   6   7
ATOM      7  C   UNL     1      27.099  -3.746   6.359  1.00  0.00     0.032 C 
ATOM      8  C   UNL     1      27.144  -4.623   7.617  1.00  0.00     0.014 C 
BRANCH   7   9
ATOM      9  C   UNL     1      27.580  -4.538   5.174  1.00  0.00     0.044 C 
ATOM     10  O   UNL     1      27.913  -5.744   5.311  1.00  0.00    -0.550 OA
ATOM     11  O   UNL     1      27.646  -3.948   3.916  1.00  0.00    -0.550 OA
ENDBRANCH   7   9
ENDBRANCH   6   7
ENDBRANCH   5   6
ENDBRANCH   4   5
ENDBRANCH   3   4
ENDBRANCH   2   3
ENDBRANCH   1   2
BRANCH   1  12
ATOM     12  C   UNL     1      24.914   1.872   8.017  1.00  0.00     0.000 C 
BRANCH  12  13
ATOM     13  C   UNL     1      24.338   0.806   7.067  1.00  0.00    -0.000 C 
BRANCH  13  14
ATOM     14  C   UNL     1      23.700  -0.409   7.763  1.00  0.00    -0.000 C 
BRANCH  14  15
ATOM     15  C   UNL     1      24.213  -0.618   9.196  1.00  0.00    -0.000 C 
BRANCH  15  16
ATOM     16  C   UNL     1      25.358  -1.637   9.227  1.00  0.00    -0.000 C 
BRANCH  16  17
ATOM     17  C   UNL     1      26.230  -1.447  10.477  1.00  0.00    -0.000 C 
BRANCH  17  18
ATOM     18  C   UNL     1      27.222  -0.282  10.333  1.00  0.00    -0.003 C 
ATOM     19  C   UNL     1      28.678  -0.743  10.322  1.00  0.00     0.004 C 
ENDBRANCH  17  18
ENDBRANCH  16  17
ENDBRANCH  15  16
ENDBRANCH  14  15
ENDBRANCH  13  14
ENDBRANCH  12  13
ENDBRANCH   1  12
TORSDOF 14
ENDMDL
MODEL 6
REMARK VINA RESULT:    -3.782     10.333     11.989
REMARK INTER + INTRA:          -9.264
REMARK INTER:                  -6.915
REMARK INTRA:                  -2.348
REMARK UNBOUND:                -2.387
REMARK SMILES CCCCCCCCCCCCCC[C@H](C)C(=O)[O-]
REMARK SMILES IDX 9 1 10 2 11 3 12 4 13 5 14 6 15 7 16 8 17 9 18 10 19 11 8 12
REMARK SMILES IDX 7 13 6 14 5 15 4 16 3 17 2 18 1 19
REMARK H PARENT
REMARK Flexibility Score: inf
ROOT
ATOM      1  C   UNL     1      25.290  -4.207  17.136  1.00  0.00     0.000 C 
ENDROOT
BRANCH   1   2
ATOM      2  C   UNL     1      25.734  -5.350  18.057  1.00  0.00     0.000 C 
BRANCH   2   3
ATOM      3  C   UNL     1      25.249  -6.706  17.522  1.00  0.00     0.000 C 
BRANCH   3   4
ATOM      4  C   UNL     1      24.995  -6.689  16.006  1.00  0.00     0.000 C 
BRANCH   4   5
ATOM      5  C   UNL     1      23.910  -7.693  15.578  1.00  0.00     0.001 C 
BRANCH   5   6
ATOM      6  C   UNL     1      23.283  -8.445  16.767  1.00  0.00     0.009 C 
BRANCH   6   7
ATOM      7  C   UNL     1      23.450  -9.983  16.736  1.00  0.00     0.032 C 
ATOM      8  C   UNL     1      24.922 -10.414  16.785  1.00  0.00     0.014 C 
BRANCH   7   9
ATOM      9  C   UNL     1      22.805 -10.529  15.492  1.00  0.00     0.044 C 
ATOM     10  O   UNL     1      23.499 -11.132  14.631  1.00  0.00    -0.550 OA
ATOM     11  O   UNL     1      21.437 -10.385  15.289  1.00  0.00    -0.550 OA
ENDBRANCH   7   9
ENDBRANCH   6   7
ENDBRANCH   5   6
ENDBRANCH   4   5
ENDBRANCH   3   4
ENDBRANCH   2   3
ENDBRANCH   1   2
BRANCH   1  12
ATOM     12  C   UNL     1      25.095  -2.906  17.929  1.00  0.00     0.000 C 
BRANCH  12  13
ATOM     13  C   UNL     1      24.249  -1.864  17.175  1.00  0.00    -0.000 C 
BRANCH  13  14
ATOM     14  C   UNL     1      22.740  -1.911  17.474  1.00  0.00    -0.000 C 
BRANCH  14  15
ATOM     15  C   UNL     1      22.429  -2.055  18.971  1.00  0.00    -0.000 C 
BRANCH  15  16
ATOM     16  C   UNL     1      21.464  -3.220  19.224  1.00  0.00    -0.000 C 
BRANCH  16  17
ATOM     17  C   UNL     1      22.232  -4.516  19.524  1.00  0.00    -0.000 C 
BRANCH  17  18
ATOM     18  C   UNL     1      21.811  -5.676  18.608  1.00  0.00    -0.003 C 
ATOM     19  C   UNL     1      21.543  -5.228  17.173  1.00  0.00     0.004 C 
ENDBRANCH  17  18
ENDBRANCH  16  17
ENDBRANCH  15  16
ENDBRANCH  14  15
ENDBRANCH  13  14
ENDBRANCH  12  13
ENDBRANCH   1  12
TORSDOF 14
ENDMDL
MODEL 7
REMARK VINA RESULT:    -3.781      1.367      2.138
REMARK INTER + INTRA:          -9.263
REMARK INTER:                  -6.597
REMARK INTRA:                  -2.666
REMARK UNBOUND:                -2.387
REMARK SMILES CCCCCCCCCCCCCC[C@H](C)C(=O)[O-]
REMARK SMILES IDX 9 1 10 2 11 3 12 4 13 5 14 6 15 7 16 8 17 9 18 10 19 11 8 12
REMARK SMILES IDX 7 13 6 14 5 15 4 16 3 17 2 18 1 19
REMARK H PARENT
REMARK Flexibility Score: inf
ROOT
ATOM      1  C   UNL     1      27.866   0.000  10.547  1.00  0.00     0.000 C 
ENDROOT
BRANCH   1   2
ATOM      2  C   UNL     1      29.105  -0.432   9.753  1.00  0.00     0.000 C 
BRANCH   2   3
ATOM      3  C   UNL     1      28.973  -1.888   9.280  1.00  0.00     0.000 C 
BRANCH   3   4
ATOM      4  C   UNL     1      28.878  -2.009   7.751  1.00  0.00     0.000 C 
BRANCH   4   5
ATOM      5  C   UNL     1      28.330  -3.374   7.300  1.00  0.00     0.001 C 
BRANCH   5   6
ATOM      6  C   UNL     1      28.003  -3.425   5.796  1.00  0.00     0.009 C 
BRANCH   6   7
ATOM      7  C   UNL     1      26.542  -3.804   5.453  1.00  0.00     0.032 C 
ATOM      8  C   UNL     1      25.903  -4.702   6.521  1.00  0.00     0.014 C 
BRANCH   7   9
ATOM      9  C   UNL     1      26.507  -4.501   4.120  1.00  0.00     0.044 C 
ATOM     10  O   UNL     1      27.556  -4.603   3.431  1.00  0.00    -0.550 OA
ATOM     11  O   UNL     1      25.320  -5.049   3.646  1.00  0.00    -0.550 OA
ENDBRANCH   7   9
ENDBRANCH   6   7
ENDBRANCH   5   6
ENDBRANCH   4   5
ENDBRANCH   3   4
ENDBRANCH   2   3
ENDBRANCH   1   2
BRANCH   1  12
ATOM     12  C   UNL     1      26.908  -1.182  10.758  1.00  0.00     0.000 C 
BRANCH  12  13
ATOM     13  C   UNL     1      25.537  -0.969  10.091  1.00  0.00    -0.000 C 
BRANCH  13  14
ATOM     14  C   UNL     1      25.294  -1.803   8.819  1.00  0.00    -0.000 C 
BRANCH  14  15
ATOM     15  C   UNL     1      24.665  -0.988   7.679  1.00  0.00    -0.000 C 
BRANCH  15  16
ATOM     16  C   UNL     1      25.743  -0.415   6.752  1.00  0.00    -0.000 C 
BRANCH  16  17
ATOM     17  C   UNL     1      26.043   1.052   7.097  1.00  0.00    -0.000 C 
BRANCH  17  18
ATOM     18  C   UNL     1      27.534   1.398   6.956  1.00  0.00    -0.003 C 
ATOM     19  C   UNL     1      27.999   1.421   5.501  1.00  0.00     0.004 C 
ENDBRANCH  17  18
ENDBRANCH  16  17
ENDBRANCH  15  16
ENDBRANCH  14  15
ENDBRANCH  13  14
ENDBRANCH  12  13
ENDBRANCH   1  12
TORSDOF 14
ENDMDL
MODEL 8
REMARK VINA RESULT:    -3.755      2.624      5.442
REMARK INTER + INTRA:          -9.214
REMARK INTER:                  -6.661
REMARK INTRA:                  -2.553
REMARK UNBOUND:                -2.387
REMARK SMILES CCCCCCCCCCCCCC[C@H](C)C(=O)[O-]
REMARK SMILES IDX 9 1 10 2 11 3 12 4 13 5 14 6 15 7 16 8 17 9 18 10 19 11 8 12
REMARK SMILES IDX 7 13 6 14 5 15 4 16 3 17 2 18 1 19
REMARK H PARENT
REMARK Flexibility Score: inf
ROOT
ATOM      1  C   UNL     1      27.629   0.860   5.475  1.00  0.00     0.000 C 
ENDROOT
BRANCH   1   2
ATOM      2  C   UNL     1      27.912   1.864   6.599  1.00  0.00     0.000 C 
BRANCH   2   3
ATOM      3  C   UNL     1      26.645   2.655   6.960  1.00  0.00     0.000 C 
BRANCH   3   4
ATOM      4  C   UNL     1      26.416   2.748   8.477  1.00  0.00     0.000 C 
BRANCH   4   5
ATOM      5  C   UNL     1      25.535   1.606   9.012  1.00  0.00     0.001 C 
BRANCH   5   6
ATOM      6  C   UNL     1      24.421   1.194   8.032  1.00  0.00     0.009 C 
BRANCH   6   7
ATOM      7  C   UNL     1      24.324  -0.323   7.746  1.00  0.00     0.032 C 
ATOM      8  C   UNL     1      23.896  -0.623   6.303  1.00  0.00     0.014 C 
BRANCH   7   9
ATOM      9  C   UNL     1      23.347  -0.950   8.703  1.00  0.00     0.044 C 
ATOM     10  O   UNL     1      23.341  -2.197   8.875  1.00  0.00    -0.550 OA
ATOM     11  O   UNL     1      22.453  -0.156   9.413  1.00  0.00    -0.550 OA
ENDBRANCH   7   9
ENDBRANCH   6   7
ENDBRANCH   5   6
ENDBRANCH   4   5
ENDBRANCH   3   4
ENDBRANCH   2   3
ENDBRANCH   1   2
BRANCH   1  12
ATOM     12  C   UNL     1      27.615  -0.579   6.014  1.00  0.00     0.000 C 
BRANCH  12  13
ATOM     13  C   UNL     1      28.077  -0.675   7.479  1.00  0.00    -0.000 C 
BRANCH  13  14
ATOM     14  C   UNL     1      27.718  -1.992   8.191  1.00  0.00    -0.000 C 
BRANCH  14  15
ATOM     15  C   UNL     1      28.716  -3.123   7.898  1.00  0.00    -0.000 C 
BRANCH  15  16
ATOM     16  C   UNL     1      28.034  -4.277   7.153  1.00  0.00    -0.000 C 
BRANCH  16  17
ATOM     17  C   UNL     1      26.561  -3.952   6.863  1.00  0.00    -0.000 C 
BRANCH  17  18
ATOM     18  C   UNL     1      26.215  -4.065   5.370  1.00  0.00    -0.003 C 
ATOM     19  C   UNL     1      27.423  -3.833   4.464  1.00  0.00     0.004 C 
ENDBRANCH  17  18
ENDBRANCH  16  17
ENDBRANCH  15  16
ENDBRANCH  14  15
ENDBRANCH  13  14
ENDBRANCH  12  13
ENDBRANCH   1  12
TORSDOF 14
ENDMDL
