MODEL 1
REMARK VINA RESULT:    -3.950      0.000      0.000
REMARK INTER + INTRA:          -4.296
REMARK INTER:                  -4.296
REMARK INTRA:                   0.000
REMARK UNBOUND:                 0.000
REMARK SMILES Cc1cc(O)c2c(c1)C(=O)c1cc(O)cc(O)c1C2=O
REMARK SMILES IDX 1 1 2 2 8 3 7 4 6 5 4 6 3 7 19 8 20 9 18 10 11 11 9 12 10 13
REMARK SMILES IDX 12 14 13 15 15 16 16 17 5 18 17 20 14 22
REMARK H PARENT 5 19 17 21 14 23
REMARK Flexibility Score: inf
ROOT
ATOM      1  C   UNL     1      30.648  66.117  24.560  1.00  0.00     0.044 C 
ATOM      2  C   UNL     1      30.664  66.015  23.062  1.00  0.00    -0.047 A 
ATOM      3  C   UNL     1      29.464  66.009  22.343  1.00  0.00     0.016 A 
ATOM      4  C   UNL     1      29.467  65.877  20.943  1.00  0.00     0.038 A 
ATOM      5  C   UNL     1      30.690  65.741  20.254  1.00  0.00     0.076 A 
ATOM      6  C   UNL     1      31.899  65.721  20.988  1.00  0.00     0.127 A 
ATOM      7  C   UNL     1      31.876  65.852  22.381  1.00  0.00     0.050 A 
ATOM      8  C   UNL     1      30.679  65.644  18.771  1.00  0.00     0.201 C 
ATOM      9  O   UNL     1      31.732  65.888  18.126  1.00  0.00    -0.288 OA
ATOM     10  C   UNL     1      29.404  65.376  18.049  1.00  0.00     0.076 A 
ATOM     11  C   UNL     1      28.185  65.574  18.740  1.00  0.00     0.041 A 
ATOM     12  C   UNL     1      28.192  65.878  20.190  1.00  0.00     0.194 C 
ATOM     13  O   UNL     1      27.109  66.123  20.789  1.00  0.00    -0.289 OA
ATOM     14  C   UNL     1      26.965  65.471  18.050  1.00  0.00     0.059 A 
ATOM     15  C   UNL     1      26.942  65.159  16.688  1.00  0.00     0.120 A 
ATOM     16  C   UNL     1      28.137  64.917  16.014  1.00  0.00     0.093 A 
ATOM     17  C   UNL     1      29.363  64.985  16.682  1.00  0.00     0.131 A 
ENDROOT
BRANCH   6  18
ATOM     18  O   UNL     1      33.123  65.557  20.337  1.00  0.00    -0.507 OA
ATOM     19  H   UNL     1      33.986  65.422  20.850  1.00  0.00     0.293 HD
ENDBRANCH   6  18
BRANCH  17  20
ATOM     20  O   UNL     1      30.502  64.622  15.960  1.00  0.00    -0.507 OA
ATOM     21  H   UNL     1      30.961  63.726  16.047  1.00  0.00     0.293 HD
ENDBRANCH  17  20
BRANCH  15  22
ATOM     22  O   UNL     1      25.735  65.073  15.999  1.00  0.00    -0.508 OA
ATOM     23  H   UNL     1      25.005  64.431  16.285  1.00  0.00     0.293 HD
ENDBRANCH  15  22
TORSDOF 3
ENDMDL
MODEL 2
REMARK VINA RESULT:    -2.973      1.230      5.480
REMARK INTER + INTRA:          -3.234
REMARK INTER:                  -3.234
REMARK INTRA:                   0.000
REMARK UNBOUND:                 0.000
REMARK SMILES Cc1cc(O)c2c(c1)C(=O)c1cc(O)cc(O)c1C2=O
REMARK SMILES IDX 1 1 2 2 8 3 7 4 6 5 4 6 3 7 19 8 20 9 18 10 11 11 9 12 10 13
REMARK SMILES IDX 12 14 13 15 15 16 16 17 5 18 17 20 14 22
REMARK H PARENT 5 19 17 21 14 23
REMARK Flexibility Score: inf
ROOT
ATOM      1  C   UNL     1      25.168  66.123  16.350  1.00  0.00     0.044 C 
ATOM      2  C   UNL     1      26.508  65.800  16.943  1.00  0.00    -0.047 A 
ATOM      3  C   UNL     1      26.724  65.949  18.318  1.00  0.00     0.016 A 
ATOM      4  C   UNL     1      27.986  65.685  18.879  1.00  0.00     0.038 A 
ATOM      5  C   UNL     1      29.050  65.273  18.049  1.00  0.00     0.076 A 
ATOM      6  C   UNL     1      28.834  65.150  16.657  1.00  0.00     0.127 A 
ATOM      7  C   UNL     1      27.571  65.418  16.117  1.00  0.00     0.050 A 
ATOM      8  C   UNL     1      30.366  64.958  18.664  1.00  0.00     0.201 C 
ATOM      9  O   UNL     1      31.196  64.258  18.025  1.00  0.00    -0.288 OA
ATOM     10  C   UNL     1      30.655  65.369  20.066  1.00  0.00     0.076 A 
ATOM     11  C   UNL     1      29.568  65.723  20.900  1.00  0.00     0.041 A 
ATOM     12  C   UNL     1      28.204  65.839  20.336  1.00  0.00     0.194 C 
ATOM     13  O   UNL     1      27.226  66.087  21.094  1.00  0.00    -0.289 OA
ATOM     14  C   UNL     1      29.787  65.974  22.266  1.00  0.00     0.059 A 
ATOM     15  C   UNL     1      31.073  65.892  22.806  1.00  0.00     0.120 A 
ATOM     16  C   UNL     1      32.153  65.591  21.980  1.00  0.00     0.093 A 
ATOM     17  C   UNL     1      31.969  65.364  20.613  1.00  0.00     0.131 A 
ENDROOT
BRANCH   6  18
ATOM     18  O   UNL     1      29.875  64.774  15.807  1.00  0.00    -0.507 OA
ATOM     19  H   UNL     1      29.707  64.250  14.957  1.00  0.00     0.293 HD
ENDBRANCH   6  18
BRANCH  17  20
ATOM     20  O   UNL     1      33.115  65.175  19.838  1.00  0.00    -0.507 OA
ATOM     21  H   UNL     1      33.833  64.497  20.053  1.00  0.00     0.293 HD
ENDBRANCH  17  20
BRANCH  15  22
ATOM     22  O   UNL     1      31.289  66.125  24.162  1.00  0.00    -0.508 OA
ATOM     23  H   UNL     1      31.979  65.600  24.687  1.00  0.00     0.293 HD
ENDBRANCH  15  22
TORSDOF 3
ENDMDL
MODEL 3
REMARK VINA RESULT:    -2.358      2.015      6.108
REMARK INTER + INTRA:          -2.565
REMARK INTER:                  -2.565
REMARK INTRA:                   0.000
REMARK UNBOUND:                 0.000
REMARK SMILES Cc1cc(O)c2c(c1)C(=O)c1cc(O)cc(O)c1C2=O
REMARK SMILES IDX 1 1 2 2 8 3 7 4 6 5 4 6 3 7 19 8 20 9 18 10 11 11 9 12 10 13
REMARK SMILES IDX 12 14 13 15 15 16 16 17 5 18 17 20 14 22
REMARK H PARENT 5 19 17 21 14 23
REMARK Flexibility Score: inf
ROOT
ATOM      1  C   UNL     1      32.387  63.106  14.145  1.00  0.00     0.044 C 
ATOM      2  C   UNL     1      31.544  63.753  15.204  1.00  0.00    -0.047 A 
ATOM      3  C   UNL     1      32.086  64.031  16.464  1.00  0.00     0.016 A 
ATOM      4  C   UNL     1      31.294  64.603  17.475  1.00  0.00     0.038 A 
ATOM      5  C   UNL     1      29.937  64.894  17.223  1.00  0.00     0.076 A 
ATOM      6  C   UNL     1      29.387  64.586  15.958  1.00  0.00     0.127 A 
ATOM      7  C   UNL     1      30.190  64.015  14.963  1.00  0.00     0.050 A 
ATOM      8  C   UNL     1      29.124  65.536  18.289  1.00  0.00     0.201 C 
ATOM      9  O   UNL     1      28.054  66.125  17.982  1.00  0.00    -0.288 OA
ATOM     10  C   UNL     1      29.630  65.583  19.689  1.00  0.00     0.076 A 
ATOM     11  C   UNL     1      31.007  65.346  19.916  1.00  0.00     0.041 A 
ATOM     12  C   UNL     1      31.877  64.900  18.803  1.00  0.00     0.194 C 
ATOM     13  O   UNL     1      33.117  64.756  18.991  1.00  0.00    -0.289 OA
ATOM     14  C   UNL     1      31.545  65.524  21.201  1.00  0.00     0.059 A 
ATOM     15  C   UNL     1      30.730  65.920  22.265  1.00  0.00     0.120 A 
ATOM     16  C   UNL     1      29.366  66.109  22.058  1.00  0.00     0.093 A 
ATOM     17  C   UNL     1      28.798  65.911  20.796  1.00  0.00     0.131 A 
ENDROOT
BRANCH   6  18
ATOM     18  O   UNL     1      28.040  64.834  15.689  1.00  0.00    -0.507 OA
ATOM     19  H   UNL     1      27.582  64.459  14.866  1.00  0.00     0.293 HD
ENDBRANCH   6  18
BRANCH  17  20
ATOM     20  O   UNL     1      27.409  66.016  20.699  1.00  0.00    -0.507 OA
ATOM     21  H   UNL     1      26.931  66.445  19.919  1.00  0.00     0.293 HD
ENDBRANCH  17  20
BRANCH  15  22
ATOM     22  O   UNL     1      31.266  66.114  23.536  1.00  0.00    -0.508 OA
ATOM     23  H   UNL     1      30.812  66.711  24.218  1.00  0.00     0.293 HD
ENDBRANCH  15  22
TORSDOF 3
ENDMDL
MODEL 4
REMARK VINA RESULT:    -2.173      3.400      6.635
REMARK INTER + INTRA:          -2.364
REMARK INTER:                  -2.364
REMARK INTRA:                   0.000
REMARK UNBOUND:                 0.000
REMARK SMILES Cc1cc(O)c2c(c1)C(=O)c1cc(O)cc(O)c1C2=O
REMARK SMILES IDX 1 1 2 2 8 3 7 4 6 5 4 6 3 7 19 8 20 9 18 10 11 11 9 12 10 13
REMARK SMILES IDX 12 14 13 15 15 16 16 17 5 18 17 20 14 22
REMARK H PARENT 5 19 17 21 14 23
REMARK Flexibility Score: inf
ROOT
ATOM      1  C   UNL     1      32.328  64.263  15.317  1.00  0.00     0.044 C 
ATOM      2  C   UNL     1      32.323  63.723  16.717  1.00  0.00    -0.047 A 
ATOM      3  C   UNL     1      32.006  64.560  17.794  1.00  0.00     0.016 A 
ATOM      4  C   UNL     1      32.033  64.073  19.113  1.00  0.00     0.038 A 
ATOM      5  C   UNL     1      32.391  62.730  19.358  1.00  0.00     0.076 A 
ATOM      6  C   UNL     1      32.736  61.897  18.269  1.00  0.00     0.127 A 
ATOM      7  C   UNL     1      32.704  62.399  16.963  1.00  0.00     0.050 A 
ATOM      8  C   UNL     1      32.375  62.221  20.754  1.00  0.00     0.201 C 
ATOM      9  O   UNL     1      32.329  60.979  20.959  1.00  0.00    -0.288 OA
ATOM     10  C   UNL     1      32.296  63.172  21.897  1.00  0.00     0.076 A 
ATOM     11  C   UNL     1      31.879  64.500  21.639  1.00  0.00     0.041 A 
ATOM     12  C   UNL     1      31.690  64.963  20.245  1.00  0.00     0.194 C 
ATOM     13  O   UNL     1      31.251  66.125  20.020  1.00  0.00    -0.289 OA
ATOM     14  C   UNL     1      31.654  65.382  22.710  1.00  0.00     0.059 A 
ATOM     15  C   UNL     1      31.853  64.966  24.028  1.00  0.00     0.120 A 
ATOM     16  C   UNL     1      32.309  63.675  24.285  1.00  0.00     0.093 A 
ATOM     17  C   UNL     1      32.568  62.785  23.239  1.00  0.00     0.131 A 
ENDROOT
BRANCH   6  18
ATOM     18  O   UNL     1      33.124  60.573  18.483  1.00  0.00    -0.507 OA
ATOM     19  H   UNL     1      32.731  59.809  17.945  1.00  0.00     0.293 HD
ENDBRANCH   6  18
BRANCH  17  20
ATOM     20  O   UNL     1      33.125  61.549  23.576  1.00  0.00    -0.507 OA
ATOM     21  H   UNL     1      33.215  60.778  22.929  1.00  0.00     0.293 HD
ENDBRANCH  17  20
BRANCH  15  22
ATOM     22  O   UNL     1      31.614  65.834  25.091  1.00  0.00    -0.508 OA
ATOM     23  H   UNL     1      32.317  66.011  25.800  1.00  0.00     0.293 HD
ENDBRANCH  15  22
TORSDOF 3
ENDMDL
MODEL 5
REMARK VINA RESULT:    -1.892      3.855      5.098
REMARK INTER + INTRA:          -2.058
REMARK INTER:                  -2.058
REMARK INTRA:                   0.000
REMARK UNBOUND:                 0.000
REMARK SMILES Cc1cc(O)c2c(c1)C(=O)c1cc(O)cc(O)c1C2=O
REMARK SMILES IDX 1 1 2 2 8 3 7 4 6 5 4 6 3 7 19 8 20 9 18 10 11 11 9 12 10 13
REMARK SMILES IDX 12 14 13 15 15 16 16 17 5 18 17 20 14 22
REMARK H PARENT 5 19 17 21 14 23
REMARK Flexibility Score: inf
ROOT
ATOM      1  C   UNL     1      33.124  60.749  24.816  1.00  0.00     0.044 C 
ATOM      2  C   UNL     1      32.871  61.669  23.658  1.00  0.00    -0.047 A 
ATOM      3  C   UNL     1      32.948  61.188  22.346  1.00  0.00     0.016 A 
ATOM      4  C   UNL     1      32.749  62.050  21.253  1.00  0.00     0.038 A 
ATOM      5  C   UNL     1      32.476  63.416  21.477  1.00  0.00     0.076 A 
ATOM      6  C   UNL     1      32.426  63.902  22.804  1.00  0.00     0.127 A 
ATOM      7  C   UNL     1      32.628  63.029  23.880  1.00  0.00     0.050 A 
ATOM      8  C   UNL     1      32.228  64.305  20.313  1.00  0.00     0.201 C 
ATOM      9  O   UNL     1      31.637  65.404  20.487  1.00  0.00    -0.288 OA
ATOM     10  C   UNL     1      32.568  63.848  18.937  1.00  0.00     0.076 A 
ATOM     11  C   UNL     1      32.781  62.465  18.720  1.00  0.00     0.041 A 
ATOM     12  C   UNL     1      32.825  61.531  19.868  1.00  0.00     0.194 C 
ATOM     13  O   UNL     1      32.945  60.291  19.668  1.00  0.00    -0.289 OA
ATOM     14  C   UNL     1      32.961  61.982  17.413  1.00  0.00     0.059 A 
ATOM     15  C   UNL     1      32.946  62.856  16.323  1.00  0.00     0.120 A 
ATOM     16  C   UNL     1      32.785  64.223  16.535  1.00  0.00     0.093 A 
ATOM     17  C   UNL     1      32.632  64.736  17.826  1.00  0.00     0.131 A 
ENDROOT
BRANCH   6  18
ATOM     18  O   UNL     1      32.189  65.254  23.057  1.00  0.00    -0.507 OA
ATOM     19  H   UNL     1      31.535  65.794  22.502  1.00  0.00     0.293 HD
ENDBRANCH   6  18
BRANCH  17  20
ATOM     20  O   UNL     1      32.585  66.125  17.959  1.00  0.00    -0.507 OA
ATOM     21  H   UNL     1      33.403  66.706  18.076  1.00  0.00     0.293 HD
ENDBRANCH  17  20
BRANCH  15  22
ATOM     22  O   UNL     1      33.107  62.376  15.025  1.00  0.00    -0.508 OA
ATOM     23  H   UNL     1      32.328  62.317  14.380  1.00  0.00     0.293 HD
ENDBRANCH  15  22
TORSDOF 3
ENDMDL
MODEL 6
REMARK VINA RESULT:    -1.810     10.997     15.402
REMARK INTER + INTRA:          -1.968
REMARK INTER:                  -1.968
REMARK INTRA:                   0.000
REMARK UNBOUND:                 0.000
REMARK SMILES Cc1cc(O)c2c(c1)C(=O)c1cc(O)cc(O)c1C2=O
REMARK SMILES IDX 1 1 2 2 8 3 7 4 6 5 4 6 3 7 19 8 20 9 18 10 11 11 9 12 10 13
REMARK SMILES IDX 12 14 13 15 15 16 16 17 5 18 17 20 14 22
REMARK H PARENT 5 19 17 21 14 23
REMARK Flexibility Score: inf
ROOT
ATOM      1  C   UNL     1      13.128  65.247  10.078  1.00  0.00     0.044 C 
ATOM      2  C   UNL     1      13.788  65.401  11.416  1.00  0.00    -0.047 A 
ATOM      3  C   UNL     1      15.172  65.595  11.501  1.00  0.00     0.016 A 
ATOM      4  C   UNL     1      15.806  65.704  12.751  1.00  0.00     0.038 A 
ATOM      5  C   UNL     1      15.044  65.609  13.935  1.00  0.00     0.076 A 
ATOM      6  C   UNL     1      13.650  65.385  13.844  1.00  0.00     0.127 A 
ATOM      7  C   UNL     1      13.037  65.278  12.590  1.00  0.00     0.050 A 
ATOM      8  C   UNL     1      15.723  65.766  15.247  1.00  0.00     0.201 C 
ATOM      9  O   UNL     1      15.041  66.047  16.268  1.00  0.00    -0.288 OA
ATOM     10  C   UNL     1      17.209  65.708  15.332  1.00  0.00     0.076 A 
ATOM     11  C   UNL     1      17.958  65.864  14.142  1.00  0.00     0.041 A 
ATOM     12  C   UNL     1      17.269  65.916  12.831  1.00  0.00     0.194 C 
ATOM     13  O   UNL     1      17.932  66.125  11.778  1.00  0.00    -0.289 OA
ATOM     14  C   UNL     1      19.358  65.959  14.204  1.00  0.00     0.059 A 
ATOM     15  C   UNL     1      20.022  65.887  15.431  1.00  0.00     0.120 A 
ATOM     16  C   UNL     1      19.293  65.685  16.601  1.00  0.00     0.093 A 
ATOM     17  C   UNL     1      17.902  65.559  16.566  1.00  0.00     0.131 A 
ENDROOT
BRANCH   6  18
ATOM     18  O   UNL     1      12.875  65.256  14.998  1.00  0.00    -0.507 OA
ATOM     19  H   UNL     1      12.109  64.594  15.054  1.00  0.00     0.293 HD
ENDBRANCH   6  18
BRANCH  17  20
ATOM     20  O   UNL     1      17.260  65.252  17.768  1.00  0.00    -0.507 OA
ATOM     21  H   UNL     1      17.733  65.191  18.658  1.00  0.00     0.293 HD
ENDBRANCH  17  20
BRANCH  15  22
ATOM     22  O   UNL     1      21.409  65.998  15.496  1.00  0.00    -0.508 OA
ATOM     23  H   UNL     1      22.009  65.181  15.473  1.00  0.00     0.293 HD
ENDBRANCH  15  22
TORSDOF 3
ENDMDL
MODEL 7
REMARK VINA RESULT:    -1.720      1.676      2.069
REMARK INTER + INTRA:          -1.870
REMARK INTER:                  -1.870
REMARK INTRA:                   0.000
REMARK UNBOUND:                 0.000
REMARK SMILES Cc1cc(O)c2c(c1)C(=O)c1cc(O)cc(O)c1C2=O
REMARK SMILES IDX 1 1 2 2 8 3 7 4 6 5 4 6 3 7 19 8 20 9 18 10 11 11 9 12 10 13
REMARK SMILES IDX 12 14 13 15 15 16 16 17 5 18 17 20 14 22
REMARK H PARENT 5 19 17 21 14 23
REMARK Flexibility Score: inf
ROOT
ATOM      1  C   UNL     1      33.041  64.412  22.671  1.00  0.00     0.044 C 
ATOM      2  C   UNL     1      32.398  64.449  21.316  1.00  0.00    -0.047 A 
ATOM      3  C   UNL     1      31.108  64.970  21.162  1.00  0.00     0.016 A 
ATOM      4  C   UNL     1      30.483  64.976  19.903  1.00  0.00     0.038 A 
ATOM      5  C   UNL     1      31.155  64.445  18.782  1.00  0.00     0.076 A 
ATOM      6  C   UNL     1      32.447  63.894  18.948  1.00  0.00     0.127 A 
ATOM      7  C   UNL     1      33.054  63.896  20.210  1.00  0.00     0.050 A 
ATOM      8  C   UNL     1      30.496  64.495  17.451  1.00  0.00     0.201 C 
ATOM      9  O   UNL     1      31.194  64.373  16.410  1.00  0.00    -0.288 OA
ATOM     10  C   UNL     1      29.043  64.805  17.347  1.00  0.00     0.076 A 
ATOM     11  C   UNL     1      28.399  65.392  18.462  1.00  0.00     0.041 A 
ATOM     12  C   UNL     1      29.120  65.536  19.748  1.00  0.00     0.194 C 
ATOM     13  O   UNL     1      28.568  66.122  20.719  1.00  0.00    -0.289 OA
ATOM     14  C   UNL     1      27.068  65.829  18.351  1.00  0.00     0.059 A 
ATOM     15  C   UNL     1      26.367  65.677  17.151  1.00  0.00     0.120 A 
ATOM     16  C   UNL     1      26.981  65.056  16.066  1.00  0.00     0.093 A 
ATOM     17  C   UNL     1      28.295  64.586  16.157  1.00  0.00     0.131 A 
ENDROOT
BRANCH   6  18
ATOM     18  O   UNL     1      33.125  63.333  17.865  1.00  0.00    -0.507 OA
ATOM     19  H   UNL     1      33.013  62.358  17.612  1.00  0.00     0.293 HD
ENDBRANCH   6  18
BRANCH  17  20
ATOM     20  O   UNL     1      28.796  63.881  15.061  1.00  0.00    -0.507 OA
ATOM     21  H   UNL     1      28.376  63.039  14.694  1.00  0.00     0.293 HD
ENDBRANCH  17  20
BRANCH  15  22
ATOM     22  O   UNL     1      25.054  66.124  17.034  1.00  0.00    -0.508 OA
ATOM     23  H   UNL     1      24.317  65.774  17.636  1.00  0.00     0.293 HD
ENDBRANCH  15  22
TORSDOF 3
ENDMDL
