MODEL 1
REMARK VINA RESULT:    -5.684      0.000      0.000
REMARK INTER + INTRA:          -9.839
REMARK INTER:                  -8.674
REMARK INTRA:                  -1.165
REMARK UNBOUND:                -1.165
REMARK SMILES OC[C@@H]1O[C@@](CO)(O[C@@H]2O[C@H](CO)[C@@H](O)[C@H](O)[C@@H]2O)[C@H](O)[C@H]1O
REMARK SMILES IDX 8 1 9 2 11 3 14 4 10 5 16 6 18 7 12 8 13 9 15 11 17 13 19 15
REMARK SMILES IDX 5 17 20 18 4 19 22 20 3 21 6 22 7 23 21 25 23 27 2 29 1 30
REMARK H PARENT 13 10 15 12 17 14 19 16 7 24 21 26 23 28 1 31
REMARK Flexibility Score: inf
ROOT
ATOM      1  O   UNL     1       2.116  45.120  10.147  1.00  0.00    -0.313 OA
ENDROOT
BRANCH   1   2
ATOM      2  C   UNL     1       2.951  44.061   9.694  1.00  0.00     0.285 C 
ATOM      3  C   UNL     1       2.333  42.517  11.416  1.00  0.00     0.178 C 
ATOM      4  C   UNL     1       3.702  42.671  12.134  1.00  0.00     0.177 C 
ATOM      5  O   UNL     1       2.383  42.799  10.020  1.00  0.00    -0.341 OA
ATOM      6  C   UNL     1       4.395  44.002  11.790  1.00  0.00     0.179 C 
ATOM      7  C   UNL     1       4.376  44.208  10.267  1.00  0.00     0.202 C 
BRANCH   3   8
ATOM      8  C   UNL     1       1.164  43.236  12.126  1.00  0.00     0.191 C 
BRANCH   8   9
ATOM      9  O   UNL     1       0.661  42.448  13.173  1.00  0.00    -0.394 OA
ATOM     10  H   UNL     1       0.905  41.508  12.967  1.00  0.00     0.210 HD
ENDBRANCH   8   9
ENDBRANCH   3   8
BRANCH   4  11
ATOM     11  O   UNL     1       4.530  41.599  11.754  1.00  0.00    -0.387 OA
ATOM     12  H   UNL     1       5.301  41.987  11.264  1.00  0.00     0.211 HD
ENDBRANCH   4  11
BRANCH   6  13
ATOM     13  O   UNL     1       3.754  45.060  12.456  1.00  0.00    -0.387 OA
ATOM     14  H   UNL     1       2.845  45.146  12.065  1.00  0.00     0.211 HD
ENDBRANCH   6  13
BRANCH   7  15
ATOM     15  O   UNL     1       4.963  45.434   9.901  1.00  0.00    -0.385 OA
ATOM     16  H   UNL     1       5.942  45.367  10.047  1.00  0.00     0.211 HD
ENDBRANCH   7  15
ENDBRANCH   1   2
BRANCH   1  17
ATOM     17  C   UNL     1       1.675  46.002   9.123  1.00  0.00     0.224 C 
ATOM     18  C   UNL     1       1.002  47.203   9.827  1.00  0.00     0.208 C 
ATOM     19  O   UNL     1       2.782  46.498   8.382  1.00  0.00    -0.337 OA
ATOM     20  C   UNL     1       1.462  48.381   9.011  1.00  0.00     0.180 C 
ATOM     21  C   UNL     1       2.816  47.903   8.493  1.00  0.00     0.179 C 
BRANCH  17  22
ATOM     22  C   UNL     1       0.707  45.274   8.150  1.00  0.00     0.225 C 
BRANCH  22  23
ATOM     23  O   UNL     1       0.433  46.073   7.031  1.00  0.00    -0.391 OA
ATOM     24  H   UNL     1       0.057  45.466   6.343  1.00  0.00     0.210 HD
ENDBRANCH  22  23
ENDBRANCH  17  22
BRANCH  18  25
ATOM     25  O   UNL     1      -0.401  47.129   9.856  1.00  0.00    -0.385 OA
ATOM     26  H   UNL     1      -0.710  47.900  10.400  1.00  0.00     0.211 HD
ENDBRANCH  18  25
BRANCH  20  27
ATOM     27  O   UNL     1       1.551  49.563   9.769  1.00  0.00    -0.387 OA
ATOM     28  H   UNL     1       1.503  50.339   9.151  1.00  0.00     0.211 HD
ENDBRANCH  20  27
BRANCH  21  29
ATOM     29  C   UNL     1       3.171  48.516   7.133  1.00  0.00     0.191 C 
BRANCH  29  30
ATOM     30  O   UNL     1       3.007  49.909   7.157  1.00  0.00    -0.394 OA
ATOM     31  H   UNL     1       2.055  50.089   6.939  1.00  0.00     0.210 HD
ENDBRANCH  29  30
ENDBRANCH  21  29
ENDBRANCH   1  17
TORSDOF 13
ENDMDL
MODEL 2
REMARK VINA RESULT:    -5.171      1.633      2.709
REMARK INTER + INTRA:          -9.057
REMARK INTER:                  -7.620
REMARK INTRA:                  -1.437
REMARK UNBOUND:                -1.165
REMARK SMILES OC[C@@H]1O[C@@](CO)(O[C@@H]2O[C@H](CO)[C@@H](O)[C@H](O)[C@@H]2O)[C@H](O)[C@H]1O
REMARK SMILES IDX 8 1 9 2 11 3 14 4 10 5 16 6 18 7 12 8 13 9 15 11 17 13 19 15
REMARK SMILES IDX 5 17 20 18 4 19 22 20 3 21 6 22 7 23 21 25 23 27 2 29 1 30
REMARK H PARENT 13 10 15 12 17 14 19 16 7 24 21 26 23 28 1 31
REMARK Flexibility Score: inf
ROOT
ATOM      1  O   UNL     1       1.333  45.296  10.232  1.00  0.00    -0.313 OA
ENDROOT
BRANCH   1   2
ATOM      2  C   UNL     1       2.087  44.333   9.505  1.00  0.00     0.285 C 
ATOM      3  C   UNL     1       2.698  43.021  11.412  1.00  0.00     0.178 C 
ATOM      4  C   UNL     1       4.166  43.524  11.368  1.00  0.00     0.177 C 
ATOM      5  O   UNL     1       2.037  43.067  10.149  1.00  0.00    -0.341 OA
ATOM      6  C   UNL     1       4.299  44.875  10.643  1.00  0.00     0.179 C 
ATOM      7  C   UNL     1       3.540  44.814   9.308  1.00  0.00     0.202 C 
BRANCH   3   8
ATOM      8  C   UNL     1       1.851  43.641  12.547  1.00  0.00     0.191 C 
BRANCH   8   9
ATOM      9  O   UNL     1       0.530  43.171  12.492  1.00  0.00    -0.394 OA
ATOM     10  H   UNL     1       0.094  43.440  13.343  1.00  0.00     0.210 HD
ENDBRANCH   8   9
ENDBRANCH   3   8
BRANCH   4  11
ATOM     11  O   UNL     1       4.950  42.559  10.710  1.00  0.00    -0.387 OA
ATOM     12  H   UNL     1       4.997  41.767  11.306  1.00  0.00     0.211 HD
ENDBRANCH   4  11
BRANCH   6  13
ATOM     13  O   UNL     1       3.809  45.906  11.462  1.00  0.00    -0.387 OA
ATOM     14  H   UNL     1       3.785  45.557  12.392  1.00  0.00     0.211 HD
ENDBRANCH   6  13
BRANCH   7  15
ATOM     15  O   UNL     1       3.595  46.042   8.622  1.00  0.00    -0.385 OA
ATOM     16  H   UNL     1       2.742  46.524   8.776  1.00  0.00     0.211 HD
ENDBRANCH   7  15
ENDBRANCH   1   2
BRANCH   1  17
ATOM     17  C   UNL     1       0.160  45.749   9.568  1.00  0.00     0.224 C 
ATOM     18  C   UNL     1       0.399  47.231   9.200  1.00  0.00     0.208 C 
ATOM     19  O   UNL     1      -0.039  45.028   8.359  1.00  0.00    -0.337 OA
ATOM     20  C   UNL     1      -0.206  47.346   7.827  1.00  0.00     0.180 C 
ATOM     21  C   UNL     1      -0.025  45.933   7.278  1.00  0.00     0.179 C 
BRANCH  17  22
ATOM     22  C   UNL     1      -1.089  45.563  10.474  1.00  0.00     0.225 C 
BRANCH  22  23
ATOM     23  O   UNL     1      -0.749  45.719  11.825  1.00  0.00    -0.391 OA
ATOM     24  H   UNL     1      -1.282  46.487  12.157  1.00  0.00     0.210 HD
ENDBRANCH  22  23
ENDBRANCH  17  22
BRANCH  18  25
ATOM     25  O   UNL     1      -0.200  48.139  10.090  1.00  0.00    -0.385 OA
ATOM     26  H   UNL     1      -0.700  47.594  10.752  1.00  0.00     0.211 HD
ENDBRANCH  18  25
BRANCH  20  27
ATOM     27  O   UNL     1       0.425  48.326   7.038  1.00  0.00    -0.387 OA
ATOM     28  H   UNL     1       0.922  48.942   7.637  1.00  0.00     0.211 HD
ENDBRANCH  20  27
BRANCH  21  29
ATOM     29  C   UNL     1      -1.121  45.550   6.276  1.00  0.00     0.191 C 
BRANCH  29  30
ATOM     30  O   UNL     1      -0.744  44.419   5.536  1.00  0.00    -0.394 OA
ATOM     31  H   UNL     1      -1.539  43.826   5.493  1.00  0.00     0.210 HD
ENDBRANCH  29  30
ENDBRANCH  21  29
ENDBRANCH   1  17
TORSDOF 13
ENDMDL
MODEL 3
REMARK VINA RESULT:    -5.167      1.598      5.901
REMARK INTER + INTRA:          -9.050
REMARK INTER:                  -7.574
REMARK INTRA:                  -1.477
REMARK UNBOUND:                -1.165
REMARK SMILES OC[C@@H]1O[C@@](CO)(O[C@@H]2O[C@H](CO)[C@@H](O)[C@H](O)[C@@H]2O)[C@H](O)[C@H]1O
REMARK SMILES IDX 8 1 9 2 11 3 14 4 10 5 16 6 18 7 12 8 13 9 15 11 17 13 19 15
REMARK SMILES IDX 5 17 20 18 4 19 22 20 3 21 6 22 7 23 21 25 23 27 2 29 1 30
REMARK H PARENT 13 10 15 12 17 14 19 16 7 24 21 26 23 28 1 31
REMARK Flexibility Score: inf
ROOT
ATOM      1  O   UNL     1       1.474  45.975   9.284  1.00  0.00    -0.313 OA
ENDROOT
BRANCH   1   2
ATOM      2  C   UNL     1       1.398  47.259   9.891  1.00  0.00     0.285 C 
ATOM      3  C   UNL     1      -0.350  48.086   8.479  1.00  0.00     0.178 C 
ATOM      4  C   UNL     1       0.625  49.017   7.710  1.00  0.00     0.177 C 
ATOM      5  O   UNL     1       0.076  47.777   9.804  1.00  0.00    -0.341 OA
ATOM      6  C   UNL     1       2.084  48.538   7.800  1.00  0.00     0.179 C 
ATOM      7  C   UNL     1       2.428  48.221   9.264  1.00  0.00     0.202 C 
BRANCH   3   8
ATOM      8  C   UNL     1      -0.781  46.830   7.687  1.00  0.00     0.191 C 
BRANCH   8   9
ATOM      9  O   UNL     1      -0.741  47.078   6.307  1.00  0.00    -0.394 OA
ATOM     10  H   UNL     1      -0.761  48.064   6.192  1.00  0.00     0.210 HD
ENDBRANCH   8   9
ENDBRANCH   3   8
BRANCH   4  11
ATOM     11  O   UNL     1       0.523  50.313   8.247  1.00  0.00    -0.387 OA
ATOM     12  H   UNL     1       0.595  50.226   9.233  1.00  0.00     0.211 HD
ENDBRANCH   4  11
BRANCH   6  13
ATOM     13  O   UNL     1       2.269  47.413   6.978  1.00  0.00    -0.387 OA
ATOM     14  H   UNL     1       1.632  47.495   6.220  1.00  0.00     0.211 HD
ENDBRANCH   6  13
BRANCH   7  15
ATOM     15  O   UNL     1       3.744  47.737   9.397  1.00  0.00    -0.385 OA
ATOM     16  H   UNL     1       4.157  47.706   8.496  1.00  0.00     0.211 HD
ENDBRANCH   7  15
ENDBRANCH   1   2
BRANCH   1  17
ATOM     17  C   UNL     1       1.824  44.922  10.175  1.00  0.00     0.224 C 
ATOM     18  C   UNL     1       2.595  43.872   9.343  1.00  0.00     0.208 C 
ATOM     19  O   UNL     1       2.696  45.398  11.191  1.00  0.00    -0.337 OA
ATOM     20  C   UNL     1       3.692  43.435  10.275  1.00  0.00     0.180 C 
ATOM     21  C   UNL     1       3.912  44.687  11.121  1.00  0.00     0.179 C 
BRANCH  17  22
ATOM     22  C   UNL     1       0.554  44.325  10.843  1.00  0.00     0.225 C 
BRANCH  22  23
ATOM     23  O   UNL     1       0.778  44.085  12.206  1.00  0.00    -0.391 OA
ATOM     24  H   UNL     1       0.141  43.371  12.469  1.00  0.00     0.210 HD
ENDBRANCH  22  23
ENDBRANCH  17  22
BRANCH  18  25
ATOM     25  O   UNL     1       1.810  42.777   8.944  1.00  0.00    -0.385 OA
ATOM     26  H   UNL     1       2.333  41.963   9.165  1.00  0.00     0.211 HD
ENDBRANCH  18  25
BRANCH  20  27
ATOM     27  O   UNL     1       4.853  43.025   9.591  1.00  0.00    -0.387 OA
ATOM     28  H   UNL     1       5.036  43.674   8.863  1.00  0.00     0.211 HD
ENDBRANCH  20  27
BRANCH  21  29
ATOM     29  C   UNL     1       4.393  44.357  12.540  1.00  0.00     0.191 C 
BRANCH  29  30
ATOM     30  O   UNL     1       4.594  42.977  12.688  1.00  0.00    -0.394 OA
ATOM     31  H   UNL     1       5.563  42.810  12.547  1.00  0.00     0.210 HD
ENDBRANCH  29  30
ENDBRANCH  21  29
ENDBRANCH   1  17
TORSDOF 13
ENDMDL
MODEL 4
REMARK VINA RESULT:    -5.157      1.358      6.119
REMARK INTER + INTRA:          -9.036
REMARK INTER:                  -7.557
REMARK INTRA:                  -1.479
REMARK UNBOUND:                -1.165
REMARK SMILES OC[C@@H]1O[C@@](CO)(O[C@@H]2O[C@H](CO)[C@@H](O)[C@H](O)[C@@H]2O)[C@H](O)[C@H]1O
REMARK SMILES IDX 8 1 9 2 11 3 14 4 10 5 16 6 18 7 12 8 13 9 15 11 17 13 19 15
REMARK SMILES IDX 5 17 20 18 4 19 22 20 3 21 6 22 7 23 21 25 23 27 2 29 1 30
REMARK H PARENT 13 10 15 12 17 14 19 16 7 24 21 26 23 28 1 31
REMARK Flexibility Score: inf
ROOT
ATOM      1  O   UNL     1       1.909  45.834   9.527  1.00  0.00    -0.313 OA
ENDROOT
BRANCH   1   2
ATOM      2  C   UNL     1       0.671  45.800   8.826  1.00  0.00     0.285 C 
ATOM      3  C   UNL     1       1.224  47.543   7.281  1.00  0.00     0.178 C 
ATOM      4  C   UNL     1       0.272  48.551   7.979  1.00  0.00     0.177 C 
ATOM      5  O   UNL     1       0.853  46.179   7.468  1.00  0.00    -0.341 OA
ATOM      6  C   UNL     1      -0.004  48.175   9.445  1.00  0.00     0.179 C 
ATOM      7  C   UNL     1      -0.378  46.686   9.529  1.00  0.00     0.202 C 
BRANCH   3   8
ATOM      8  C   UNL     1       2.724  47.793   7.560  1.00  0.00     0.191 C 
BRANCH   8   9
ATOM      9  O   UNL     1       2.954  49.147   7.851  1.00  0.00    -0.394 OA
ATOM     10  H   UNL     1       3.937  49.280   7.837  1.00  0.00     0.210 HD
ENDBRANCH   8   9
ENDBRANCH   3   8
BRANCH   4  11
ATOM     11  O   UNL     1      -0.941  48.587   7.268  1.00  0.00    -0.387 OA
ATOM     12  H   UNL     1      -1.352  49.474   7.438  1.00  0.00     0.211 HD
ENDBRANCH   4  11
BRANCH   6  13
ATOM     13  O   UNL     1       1.125  48.462  10.232  1.00  0.00    -0.387 OA
ATOM     14  H   UNL     1       0.796  48.772  11.117  1.00  0.00     0.211 HD
ENDBRANCH   6  13
BRANCH   7  15
ATOM     15  O   UNL     1      -0.601  46.279  10.858  1.00  0.00    -0.385 OA
ATOM     16  H   UNL     1       0.239  45.883  11.208  1.00  0.00     0.211 HD
ENDBRANCH   7  15
ENDBRANCH   1   2
BRANCH   1  17
ATOM     17  C   UNL     1       2.360  44.567   9.989  1.00  0.00     0.224 C 
ATOM     18  C   UNL     1       3.698  44.810  10.723  1.00  0.00     0.208 C 
ATOM     19  O   UNL     1       1.441  44.024  10.928  1.00  0.00    -0.337 OA
ATOM     20  C   UNL     1       3.609  43.892  11.912  1.00  0.00     0.180 C 
ATOM     21  C   UNL     1       2.103  43.831  12.158  1.00  0.00     0.179 C 
BRANCH  17  22
ATOM     22  C   UNL     1       2.512  43.573   8.804  1.00  0.00     0.225 C 
BRANCH  22  23
ATOM     23  O   UNL     1       2.904  42.309   9.265  1.00  0.00    -0.391 OA
ATOM     24  H   UNL     1       2.087  41.881   9.628  1.00  0.00     0.210 HD
ENDBRANCH  22  23
ENDBRANCH  17  22
BRANCH  18  25
ATOM     25  O   UNL     1       4.832  44.517   9.946  1.00  0.00    -0.385 OA
ATOM     26  H   UNL     1       5.329  45.370   9.844  1.00  0.00     0.211 HD
ENDBRANCH  18  25
BRANCH  20  27
ATOM     27  O   UNL     1       4.327  44.373  13.023  1.00  0.00    -0.387 OA
ATOM     28  H   UNL     1       4.986  43.682  13.296  1.00  0.00     0.211 HD
ENDBRANCH  20  27
BRANCH  21  29
ATOM     29  C   UNL     1       1.664  42.496  12.772  1.00  0.00     0.191 C 
BRANCH  29  30
ATOM     30  O   UNL     1       2.413  41.435  12.241  1.00  0.00    -0.394 OA
ATOM     31  H   UNL     1       2.732  40.895  13.011  1.00  0.00     0.210 HD
ENDBRANCH  29  30
ENDBRANCH  21  29
ENDBRANCH   1  17
TORSDOF 13
ENDMDL
MODEL 5
REMARK VINA RESULT:    -5.126      1.506      5.822
REMARK INTER + INTRA:          -8.987
REMARK INTER:                  -8.310
REMARK INTRA:                  -0.677
REMARK UNBOUND:                -1.165
REMARK SMILES OC[C@@H]1O[C@@](CO)(O[C@@H]2O[C@H](CO)[C@@H](O)[C@H](O)[C@@H]2O)[C@H](O)[C@H]1O
REMARK SMILES IDX 8 1 9 2 11 3 14 4 10 5 16 6 18 7 12 8 13 9 15 11 17 13 19 15
REMARK SMILES IDX 5 17 20 18 4 19 22 20 3 21 6 22 7 23 21 25 23 27 2 29 1 30
REMARK H PARENT 13 10 15 12 17 14 19 16 7 24 21 26 23 28 1 31
REMARK Flexibility Score: inf
ROOT
ATOM      1  O   UNL     1       2.014  45.136   9.222  1.00  0.00    -0.313 OA
ENDROOT
BRANCH   1   2
ATOM      2  C   UNL     1       1.278  46.082   9.987  1.00  0.00     0.285 C 
ATOM      3  C   UNL     1      -0.593  46.188   8.497  1.00  0.00     0.178 C 
ATOM      4  C   UNL     1      -0.192  47.601   7.992  1.00  0.00     0.177 C 
ATOM      5  O   UNL     1      -0.120  45.893   9.809  1.00  0.00    -0.341 OA
ATOM      6  C   UNL     1       1.306  47.890   8.195  1.00  0.00     0.179 C 
ATOM      7  C   UNL     1       1.706  47.521   9.633  1.00  0.00     0.202 C 
BRANCH   3   8
ATOM      8  C   UNL     1      -0.303  45.051   7.491  1.00  0.00     0.191 C 
BRANCH   8   9
ATOM      9  O   UNL     1      -0.427  45.514   6.172  1.00  0.00    -0.394 OA
ATOM     10  H   UNL     1      -0.548  46.498   6.224  1.00  0.00     0.210 HD
ENDBRANCH   8   9
ENDBRANCH   3   8
BRANCH   4  11
ATOM     11  O   UNL     1      -0.954  48.558   8.687  1.00  0.00    -0.387 OA
ATOM     12  H   UNL     1      -0.834  48.376   9.656  1.00  0.00     0.211 HD
ENDBRANCH   4  11
BRANCH   6  13
ATOM     13  O   UNL     1       2.062  47.171   7.254  1.00  0.00    -0.387 OA
ATOM     14  H   UNL     1       1.757  46.227   7.290  1.00  0.00     0.211 HD
ENDBRANCH   6  13
BRANCH   7  15
ATOM     15  O   UNL     1       3.080  47.729   9.859  1.00  0.00    -0.385 OA
ATOM     16  H   UNL     1       3.557  46.876   9.687  1.00  0.00     0.211 HD
ENDBRANCH   7  15
ENDBRANCH   1   2
BRANCH   1  17
ATOM     17  C   UNL     1       2.437  43.989   9.950  1.00  0.00     0.224 C 
ATOM     18  C   UNL     1       3.642  44.428  10.814  1.00  0.00     0.208 C 
ATOM     19  O   UNL     1       1.409  43.551  10.829  1.00  0.00    -0.337 OA
ATOM     20  C   UNL     1       3.410  43.711  12.116  1.00  0.00     0.180 C 
ATOM     21  C   UNL     1       1.888  43.600  12.155  1.00  0.00     0.179 C 
BRANCH  17  22
ATOM     22  C   UNL     1       2.799  42.828   8.983  1.00  0.00     0.225 C 
BRANCH  22  23
ATOM     23  O   UNL     1       3.849  43.201   8.133  1.00  0.00    -0.391 OA
ATOM     24  H   UNL     1       3.556  44.033   7.679  1.00  0.00     0.210 HD
ENDBRANCH  22  23
ENDBRANCH  17  22
BRANCH  18  25
ATOM     25  O   UNL     1       4.888  44.082  10.265  1.00  0.00    -0.385 OA
ATOM     26  H   UNL     1       5.396  43.631  10.988  1.00  0.00     0.211 HD
ENDBRANCH  18  25
BRANCH  20  27
ATOM     27  O   UNL     1       3.937  44.407  13.220  1.00  0.00    -0.387 OA
ATOM     28  H   UNL     1       3.218  44.521  13.895  1.00  0.00     0.211 HD
ENDBRANCH  20  27
BRANCH  21  29
ATOM     29  C   UNL     1       1.411  42.357  12.917  1.00  0.00     0.191 C 
BRANCH  29  30
ATOM     30  O   UNL     1       0.057  42.478  13.265  1.00  0.00    -0.394 OA
ATOM     31  H   UNL     1      -0.373  41.608  13.051  1.00  0.00     0.210 HD
ENDBRANCH  29  30
ENDBRANCH  21  29
ENDBRANCH   1  17
TORSDOF 13
ENDMDL
MODEL 6
REMARK VINA RESULT:    -4.897      1.559      3.343
REMARK INTER + INTRA:          -8.638
REMARK INTER:                  -7.671
REMARK INTRA:                  -0.967
REMARK UNBOUND:                -1.165
REMARK SMILES OC[C@@H]1O[C@@](CO)(O[C@@H]2O[C@H](CO)[C@@H](O)[C@H](O)[C@@H]2O)[C@H](O)[C@H]1O
REMARK SMILES IDX 8 1 9 2 11 3 14 4 10 5 16 6 18 7 12 8 13 9 15 11 17 13 19 15
REMARK SMILES IDX 5 17 20 18 4 19 22 20 3 21 6 22 7 23 21 25 23 27 2 29 1 30
REMARK H PARENT 13 10 15 12 17 14 19 16 7 24 21 26 23 28 1 31
REMARK Flexibility Score: inf
ROOT
ATOM      1  O   UNL     1       1.369  44.476  10.230  1.00  0.00    -0.313 OA
ENDROOT
BRANCH   1   2
ATOM      2  C   UNL     1       1.860  44.735  11.540  1.00  0.00     0.285 C 
ATOM      3  C   UNL     1       4.178  44.603  10.954  1.00  0.00     0.178 C 
ATOM      4  C   UNL     1       4.344  43.232  11.662  1.00  0.00     0.177 C 
ATOM      5  O   UNL     1       3.117  45.396  11.482  1.00  0.00    -0.341 OA
ATOM      6  C   UNL     1       3.010  42.478  11.797  1.00  0.00     0.179 C 
ATOM      7  C   UNL     1       1.941  43.430  12.359  1.00  0.00     0.202 C 
BRANCH   3   8
ATOM      8  C   UNL     1       4.143  44.518   9.411  1.00  0.00     0.191 C 
BRANCH   8   9
ATOM      9  O   UNL     1       4.511  43.235   8.979  1.00  0.00    -0.394 OA
ATOM     10  H   UNL     1       3.901  42.998   8.231  1.00  0.00     0.210 HD
ENDBRANCH   8   9
ENDBRANCH   3   8
BRANCH   4  11
ATOM     11  O   UNL     1       4.891  43.451  12.939  1.00  0.00    -0.387 OA
ATOM     12  H   UNL     1       4.240  44.005  13.444  1.00  0.00     0.211 HD
ENDBRANCH   4  11
BRANCH   6  13
ATOM     13  O   UNL     1       2.626  41.959  10.549  1.00  0.00    -0.387 OA
ATOM     14  H   UNL     1       2.144  41.108  10.720  1.00  0.00     0.211 HD
ENDBRANCH   6  13
BRANCH   7  15
ATOM     15  O   UNL     1       0.687  42.799  12.464  1.00  0.00    -0.385 OA
ATOM     16  H   UNL     1       0.783  42.010  13.057  1.00  0.00     0.211 HD
ENDBRANCH   7  15
ENDBRANCH   1   2
BRANCH   1  17
ATOM     17  C   UNL     1       0.557  45.512   9.690  1.00  0.00     0.224 C 
ATOM     18  C   UNL     1       1.515  46.630   9.218  1.00  0.00     0.208 C 
ATOM     19  O   UNL     1      -0.158  45.044   8.554  1.00  0.00    -0.337 OA
ATOM     20  C   UNL     1       0.898  47.086   7.924  1.00  0.00     0.180 C 
ATOM     21  C   UNL     1       0.206  45.817   7.433  1.00  0.00     0.179 C 
BRANCH  17  22
ATOM     22  C   UNL     1      -0.460  46.020  10.749  1.00  0.00     0.225 C 
BRANCH  22  23
ATOM     23  O   UNL     1      -1.124  47.166  10.289  1.00  0.00    -0.391 OA
ATOM     24  H   UNL     1      -1.721  47.455  11.027  1.00  0.00     0.210 HD
ENDBRANCH  22  23
ENDBRANCH  17  22
BRANCH  18  25
ATOM     25  O   UNL     1       1.630  47.698  10.124  1.00  0.00    -0.385 OA
ATOM     26  H   UNL     1       2.600  47.805  10.308  1.00  0.00     0.211 HD
ENDBRANCH  18  25
BRANCH  20  27
ATOM     27  O   UNL     1       1.851  47.579   7.012  1.00  0.00    -0.387 OA
ATOM     28  H   UNL     1       2.412  48.254   7.476  1.00  0.00     0.211 HD
ENDBRANCH  20  27
BRANCH  21  29
ATOM     29  C   UNL     1      -1.042  46.118   6.593  1.00  0.00     0.191 C 
BRANCH  29  30
ATOM     30  O   UNL     1      -1.057  47.462   6.190  1.00  0.00    -0.394 OA
ATOM     31  H   UNL     1      -0.855  47.473   5.218  1.00  0.00     0.210 HD
ENDBRANCH  29  30
ENDBRANCH  21  29
ENDBRANCH   1  17
TORSDOF 13
ENDMDL
MODEL 7
REMARK VINA RESULT:    -4.783      1.494      6.091
REMARK INTER + INTRA:          -8.465
REMARK INTER:                  -7.120
REMARK INTRA:                  -1.344
REMARK UNBOUND:                -1.165
REMARK SMILES OC[C@@H]1O[C@@](CO)(O[C@@H]2O[C@H](CO)[C@@H](O)[C@H](O)[C@@H]2O)[C@H](O)[C@H]1O
REMARK SMILES IDX 8 1 9 2 11 3 14 4 10 5 16 6 18 7 12 8 13 9 15 11 17 13 19 15
REMARK SMILES IDX 5 17 20 18 4 19 22 20 3 21 6 22 7 23 21 25 23 27 2 29 1 30
REMARK H PARENT 13 10 15 12 17 14 19 16 7 24 21 26 23 28 1 31
REMARK Flexibility Score: inf
ROOT
ATOM      1  O   UNL     1       1.656  46.183   9.805  1.00  0.00    -0.313 OA
ENDROOT
BRANCH   1   2
ATOM      2  C   UNL     1       0.488  46.242   8.994  1.00  0.00     0.285 C 
ATOM      3  C   UNL     1       1.441  47.650   7.308  1.00  0.00     0.178 C 
ATOM      4  C   UNL     1       0.616  48.879   7.778  1.00  0.00     0.177 C 
ATOM      5  O   UNL     1       0.836  46.398   7.624  1.00  0.00    -0.341 OA
ATOM      6  C   UNL     1       0.168  48.756   9.245  1.00  0.00     0.179 C 
ATOM      7  C   UNL     1      -0.452  47.368   9.474  1.00  0.00     0.202 C 
BRANCH   3   8
ATOM      8  C   UNL     1       2.935  47.704   7.702  1.00  0.00     0.191 C 
BRANCH   8   9
ATOM      9  O   UNL     1       3.381  49.032   7.769  1.00  0.00    -0.394 OA
ATOM     10  H   UNL     1       3.749  49.257   6.875  1.00  0.00     0.210 HD
ENDBRANCH   8   9
ENDBRANCH   3   8
BRANCH   4  11
ATOM     11  O   UNL     1      -0.514  49.002   6.950  1.00  0.00    -0.387 OA
ATOM     12  H   UNL     1      -0.844  49.933   7.044  1.00  0.00     0.211 HD
ENDBRANCH   4  11
BRANCH   6  13
ATOM     13  O   UNL     1       1.264  48.972  10.098  1.00  0.00    -0.387 OA
ATOM     14  H   UNL     1       1.061  48.517  10.958  1.00  0.00     0.211 HD
ENDBRANCH   6  13
BRANCH   7  15
ATOM     15  O   UNL     1      -0.843  47.187  10.814  1.00  0.00    -0.385 OA
ATOM     16  H   UNL     1      -1.355  46.340  10.878  1.00  0.00     0.211 HD
ENDBRANCH   7  15
ENDBRANCH   1   2
BRANCH   1  17
ATOM     17  C   UNL     1       1.918  44.904  10.368  1.00  0.00     0.224 C 
ATOM     18  C   UNL     1       2.712  44.104   9.311  1.00  0.00     0.208 C 
ATOM     19  O   UNL     1       2.736  45.027  11.525  1.00  0.00    -0.337 OA
ATOM     20  C   UNL     1       3.735  43.369  10.134  1.00  0.00     0.180 C 
ATOM     21  C   UNL     1       3.933  44.312  11.317  1.00  0.00     0.179 C 
BRANCH  17  22
ATOM     22  C   UNL     1       0.592  44.198  10.765  1.00  0.00     0.225 C 
BRANCH  22  23
ATOM     23  O   UNL     1       0.202  44.566  12.060  1.00  0.00    -0.391 OA
ATOM     24  H   UNL     1      -0.778  44.711  12.024  1.00  0.00     0.210 HD
ENDBRANCH  22  23
ENDBRANCH  17  22
BRANCH  18  25
ATOM     25  O   UNL     1       1.925  43.207   8.569  1.00  0.00    -0.385 OA
ATOM     26  H   UNL     1       1.166  43.735   8.207  1.00  0.00     0.211 HD
ENDBRANCH  18  25
BRANCH  20  27
ATOM     27  O   UNL     1       4.925  43.121   9.424  1.00  0.00    -0.387 OA
ATOM     28  H   UNL     1       5.012  42.142   9.285  1.00  0.00     0.211 HD
ENDBRANCH  20  27
BRANCH  21  29
ATOM     29  C   UNL     1       4.313  43.566  12.603  1.00  0.00     0.191 C 
BRANCH  29  30
ATOM     30  O   UNL     1       4.433  42.189  12.361  1.00  0.00    -0.394 OA
ATOM     31  H   UNL     1       3.612  41.762  12.723  1.00  0.00     0.210 HD
ENDBRANCH  29  30
ENDBRANCH  21  29
ENDBRANCH   1  17
TORSDOF 13
ENDMDL
MODEL 8
REMARK VINA RESULT:    -4.708      1.303      2.614
REMARK INTER + INTRA:          -8.350
REMARK INTER:                  -7.274
REMARK INTRA:                  -1.077
REMARK UNBOUND:                -1.165
REMARK SMILES OC[C@@H]1O[C@@](CO)(O[C@@H]2O[C@H](CO)[C@@H](O)[C@H](O)[C@@H]2O)[C@H](O)[C@H]1O
REMARK SMILES IDX 8 1 9 2 11 3 14 4 10 5 16 6 18 7 12 8 13 9 15 11 17 13 19 15
REMARK SMILES IDX 5 17 20 18 4 19 22 20 3 21 6 22 7 23 21 25 23 27 2 29 1 30
REMARK H PARENT 13 10 15 12 17 14 19 16 7 24 21 26 23 28 1 31
REMARK Flexibility Score: inf
ROOT
ATOM      1  O   UNL     1       1.492  45.476   9.391  1.00  0.00    -0.313 OA
ENDROOT
BRANCH   1   2
ATOM      2  C   UNL     1       1.840  45.907  10.701  1.00  0.00     0.285 C 
ATOM      3  C   UNL     1       4.082  45.069  10.638  1.00  0.00     0.178 C 
ATOM      4  C   UNL     1       3.743  43.908  11.611  1.00  0.00     0.177 C 
ATOM      5  O   UNL     1       3.229  46.203  10.779  1.00  0.00    -0.341 OA
ATOM      6  C   UNL     1       2.243  43.563  11.609  1.00  0.00     0.179 C 
ATOM      7  C   UNL     1       1.422  44.856  11.750  1.00  0.00     0.202 C 
BRANCH   3   8
ATOM      8  C   UNL     1       4.250  44.631   9.166  1.00  0.00     0.191 C 
BRANCH   8   9
ATOM      9  O   UNL     1       4.444  43.244   9.081  1.00  0.00    -0.394 OA
ATOM     10  H   UNL     1       3.552  42.823   9.187  1.00  0.00     0.210 HD
ENDBRANCH   8   9
ENDBRANCH   3   8
BRANCH   4  11
ATOM     11  O   UNL     1       4.137  44.281  12.909  1.00  0.00    -0.387 OA
ATOM     12  H   UNL     1       4.019  45.265  12.977  1.00  0.00     0.211 HD
ENDBRANCH   4  11
BRANCH   6  13
ATOM     13  O   UNL     1       1.913  42.875  10.429  1.00  0.00    -0.387 OA
ATOM     14  H   UNL     1       2.691  42.951   9.817  1.00  0.00     0.211 HD
ENDBRANCH   6  13
BRANCH   7  15
ATOM     15  O   UNL     1       0.039  44.600  11.712  1.00  0.00    -0.385 OA
ATOM     16  H   UNL     1      -0.388  45.084  12.466  1.00  0.00     0.211 HD
ENDBRANCH   7  15
ENDBRANCH   1   2
BRANCH   1  17
ATOM     17  C   UNL     1       1.210  46.530   8.478  1.00  0.00     0.224 C 
ATOM     18  C   UNL     1       0.623  47.694   9.309  1.00  0.00     0.208 C 
ATOM     19  O   UNL     1       2.406  46.992   7.866  1.00  0.00    -0.337 OA
ATOM     20  C   UNL     1       1.252  48.911   8.686  1.00  0.00     0.180 C 
ATOM     21  C   UNL     1       2.579  48.358   8.172  1.00  0.00     0.179 C 
BRANCH  17  22
ATOM     22  C   UNL     1       0.233  46.048   7.370  1.00  0.00     0.225 C 
BRANCH  22  23
ATOM     23  O   UNL     1       0.457  44.698   7.064  1.00  0.00    -0.391 OA
ATOM     24  H   UNL     1      -0.016  44.175   7.762  1.00  0.00     0.210 HD
ENDBRANCH  22  23
ENDBRANCH  17  22
BRANCH  18  25
ATOM     25  O   UNL     1      -0.779  47.774   9.261  1.00  0.00    -0.385 OA
ATOM     26  H   UNL     1      -1.096  46.910   8.887  1.00  0.00     0.211 HD
ENDBRANCH  18  25
BRANCH  20  27
ATOM     27  O   UNL     1       1.416  49.965   9.604  1.00  0.00    -0.387 OA
ATOM     28  H   UNL     1       1.540  49.579  10.510  1.00  0.00     0.211 HD
ENDBRANCH  20  27
BRANCH  21  29
ATOM     29  C   UNL     1       3.079  49.101   6.927  1.00  0.00     0.191 C 
BRANCH  29  30
ATOM     30  O   UNL     1       2.897  50.485   7.068  1.00  0.00    -0.394 OA
ATOM     31  H   UNL     1       2.771  50.661   8.038  1.00  0.00     0.210 HD
ENDBRANCH  29  30
ENDBRANCH  21  29
ENDBRANCH   1  17
TORSDOF 13
ENDMDL
