MODEL 1
REMARK VINA RESULT:    -4.095      0.000      0.000
REMARK INTER + INTRA:          -4.784
REMARK INTER:                  -4.693
REMARK INTRA:                  -0.091
REMARK UNBOUND:                -0.091
REMARK SMILES COc1cc(C(=O)[O-])ccc1O
REMARK SMILES IDX 5 1 9 2 4 3 10 4 3 5 11 6 6 7 7 8 8 9 2 10 1 11 12 12
REMARK H PARENT 12 13
REMARK Flexibility Score: inf
ROOT
ATOM      1  C   UNL     1      25.584   3.682  18.972  1.00  0.00     0.001 A 
ATOM      2  C   UNL     1      25.217   3.490  17.630  1.00  0.00     0.014 A 
ATOM      3  C   UNL     1      24.824   4.556  19.771  1.00  0.00     0.060 A 
ATOM      4  C   UNL     1      24.112   4.156  17.098  1.00  0.00     0.051 A 
ATOM      5  C   UNL     1      23.708   5.232  19.237  1.00  0.00     0.161 A 
ATOM      6  C   UNL     1      23.358   5.024  17.891  1.00  0.00     0.157 A 
ENDROOT
BRANCH   1   7
ATOM      7  C   UNL     1      26.757   2.973  19.532  1.00  0.00     0.072 C 
ATOM      8  O   UNL     1      26.610   1.894  20.166  1.00  0.00    -0.545 OA
ATOM      9  O   UNL     1      28.037   3.488  19.366  1.00  0.00    -0.545 OA
ENDBRANCH   1   7
BRANCH   5  10
ATOM     10  O   UNL     1      22.930   6.109  20.011  1.00  0.00    -0.493 OA
ATOM     11  C   UNL     1      23.207   7.494  20.187  1.00  0.00     0.278 C 
ENDBRANCH   5  10
BRANCH   6  12
ATOM     12  O   UNL     1      22.260   5.673  17.323  1.00  0.00    -0.504 OA
ATOM     13  H   UNL     1      22.339   6.236  16.485  1.00  0.00     0.293 HD
ENDBRANCH   6  12
TORSDOF 3
ENDMDL
MODEL 2
REMARK VINA RESULT:    -3.995      2.716      6.451
REMARK INTER + INTRA:          -4.670
REMARK INTER:                  -4.580
REMARK INTRA:                  -0.090
REMARK UNBOUND:                -0.091
REMARK SMILES COc1cc(C(=O)[O-])ccc1O
REMARK SMILES IDX 5 1 9 2 4 3 10 4 3 5 11 6 6 7 7 8 8 9 2 10 1 11 12 12
REMARK H PARENT 12 13
REMARK Flexibility Score: inf
ROOT
ATOM      1  C   UNL     1      21.326   8.604  18.940  1.00  0.00     0.001 A 
ATOM      2  C   UNL     1      22.081   9.656  19.482  1.00  0.00     0.014 A 
ATOM      3  C   UNL     1      21.805   7.287  19.059  1.00  0.00     0.060 A 
ATOM      4  C   UNL     1      23.290   9.397  20.131  1.00  0.00     0.051 A 
ATOM      5  C   UNL     1      23.025   7.019  19.712  1.00  0.00     0.161 A 
ATOM      6  C   UNL     1      23.765   8.088  20.248  1.00  0.00     0.157 A 
ENDROOT
BRANCH   1   7
ATOM      7  C   UNL     1      20.045   8.885  18.254  1.00  0.00     0.072 C 
ATOM      8  O   UNL     1      19.686   8.197  17.262  1.00  0.00    -0.545 OA
ATOM      9  O   UNL     1      19.220   9.914  18.694  1.00  0.00    -0.545 OA
ENDBRANCH   1   7
BRANCH   5  10
ATOM     10  O   UNL     1      23.526   5.715  19.846  1.00  0.00    -0.493 OA
ATOM     11  C   UNL     1      23.756   4.821  18.762  1.00  0.00     0.278 C 
ENDBRANCH   5  10
BRANCH   6  12
ATOM     12  O   UNL     1      24.977   7.868  20.903  1.00  0.00    -0.504 OA
ATOM     13  H   UNL     1      25.715   7.304  20.499  1.00  0.00     0.293 HD
ENDBRANCH   6  12
TORSDOF 3
ENDMDL
MODEL 3
REMARK VINA RESULT:    -3.975      2.738      3.911
REMARK INTER + INTRA:          -4.646
REMARK INTER:                  -4.605
REMARK INTRA:                  -0.041
REMARK UNBOUND:                -0.091
REMARK SMILES COc1cc(C(=O)[O-])ccc1O
REMARK SMILES IDX 5 1 9 2 4 3 10 4 3 5 11 6 6 7 7 8 8 9 2 10 1 11 12 12
REMARK H PARENT 12 13
REMARK Flexibility Score: inf
ROOT
ATOM      1  C   UNL     1      22.784   5.995  18.712  1.00  0.00     0.001 A 
ATOM      2  C   UNL     1      21.860   6.585  17.835  1.00  0.00     0.014 A 
ATOM      3  C   UNL     1      23.402   6.792  19.693  1.00  0.00     0.060 A 
ATOM      4  C   UNL     1      21.559   7.944  17.936  1.00  0.00     0.051 A 
ATOM      5  C   UNL     1      23.101   8.165  19.800  1.00  0.00     0.161 A 
ATOM      6  C   UNL     1      22.172   8.735  18.911  1.00  0.00     0.157 A 
ENDROOT
BRANCH   1   7
ATOM      7  C   UNL     1      23.100   4.552  18.600  1.00  0.00     0.072 C 
ATOM      8  O   UNL     1      22.533   3.713  19.349  1.00  0.00    -0.545 OA
ATOM      9  O   UNL     1      24.029   4.104  17.668  1.00  0.00    -0.545 OA
ENDBRANCH   1   7
BRANCH   5  10
ATOM     10  O   UNL     1      23.701   8.985  20.769  1.00  0.00    -0.493 OA
ATOM     11  C   UNL     1      23.100   9.346  22.008  1.00  0.00     0.278 C 
ENDBRANCH   5  10
BRANCH   6  12
ATOM     12  O   UNL     1      21.846  10.090  18.981  1.00  0.00    -0.504 OA
ATOM     13  H   UNL     1      22.489  10.782  19.346  1.00  0.00     0.293 HD
ENDBRANCH   6  12
TORSDOF 3
ENDMDL
MODEL 4
REMARK VINA RESULT:    -3.956     11.553     12.925
REMARK INTER + INTRA:          -4.625
REMARK INTER:                  -4.527
REMARK INTRA:                  -0.097
REMARK UNBOUND:                -0.091
REMARK SMILES COc1cc(C(=O)[O-])ccc1O
REMARK SMILES IDX 5 1 9 2 4 3 10 4 3 5 11 6 6 7 7 8 8 9 2 10 1 11 12 12
REMARK H PARENT 12 13
REMARK Flexibility Score: inf
ROOT
ATOM      1  C   UNL     1      20.030  -7.557  18.328  1.00  0.00     0.001 A 
ATOM      2  C   UNL     1      20.734  -8.710  17.945  1.00  0.00     0.014 A 
ATOM      3  C   UNL     1      20.683  -6.582  19.103  1.00  0.00     0.060 A 
ATOM      4  C   UNL     1      22.066  -8.883  18.327  1.00  0.00     0.051 A 
ATOM      5  C   UNL     1      22.027  -6.753  19.493  1.00  0.00     0.161 A 
ATOM      6  C   UNL     1      22.714  -7.914  19.098  1.00  0.00     0.157 A 
ENDROOT
BRANCH   1   7
ATOM      7  C   UNL     1      18.618  -7.378  17.919  1.00  0.00     0.072 C 
ATOM      8  O   UNL     1      17.833  -8.363  17.881  1.00  0.00    -0.545 OA
ATOM      9  O   UNL     1      18.139  -6.121  17.569  1.00  0.00    -0.545 OA
ENDBRANCH   1   7
BRANCH   5  10
ATOM     10  O   UNL     1      22.704  -5.795  20.266  1.00  0.00    -0.493 OA
ATOM     11  C   UNL     1      23.373  -4.655  19.737  1.00  0.00     0.278 C 
ENDBRANCH   5  10
BRANCH   6  12
ATOM     12  O   UNL     1      24.045  -8.123  19.461  1.00  0.00    -0.504 OA
ATOM     13  H   UNL     1      24.458  -7.685  20.276  1.00  0.00     0.293 HD
ENDBRANCH   6  12
TORSDOF 3
ENDMDL
MODEL 5
REMARK VINA RESULT:    -3.939     12.228     13.281
REMARK INTER + INTRA:          -4.605
REMARK INTER:                  -4.513
REMARK INTRA:                  -0.093
REMARK UNBOUND:                -0.091
REMARK SMILES COc1cc(C(=O)[O-])ccc1O
REMARK SMILES IDX 5 1 9 2 4 3 10 4 3 5 11 6 6 7 7 8 8 9 2 10 1 11 12 12
REMARK H PARENT 12 13
REMARK Flexibility Score: inf
ROOT
ATOM      1  C   UNL     1      13.961  -1.021  19.098  1.00  0.00     0.001 A 
ATOM      2  C   UNL     1      13.609  -2.087  18.255  1.00  0.00     0.014 A 
ATOM      3  C   UNL     1      13.756  -1.147  20.485  1.00  0.00     0.060 A 
ATOM      4  C   UNL     1      13.064  -3.257  18.787  1.00  0.00     0.051 A 
ATOM      5  C   UNL     1      13.205  -2.326  21.026  1.00  0.00     0.161 A 
ATOM      6  C   UNL     1      12.859  -3.382  20.163  1.00  0.00     0.157 A 
ENDROOT
BRANCH   1   7
ATOM      7  C   UNL     1      14.540   0.218  18.530  1.00  0.00     0.072 C 
ATOM      8  O   UNL     1      15.563   0.742  19.046  1.00  0.00    -0.545 OA
ATOM      9  O   UNL     1      13.962   0.820  17.418  1.00  0.00    -0.545 OA
ENDBRANCH   1   7
BRANCH   5  10
ATOM     10  O   UNL     1      12.989  -2.481  22.405  1.00  0.00    -0.493 OA
ATOM     11  C   UNL     1      12.107  -1.678  23.181  1.00  0.00     0.278 C 
ENDBRANCH   5  10
BRANCH   6  12
ATOM     12  O   UNL     1      12.312  -4.567  20.657  1.00  0.00    -0.504 OA
ATOM     13  H   UNL     1      12.283  -4.777  21.648  1.00  0.00     0.293 HD
ENDBRANCH   6  12
TORSDOF 3
ENDMDL
MODEL 6
REMARK VINA RESULT:    -3.936      2.634      4.015
REMARK INTER + INTRA:          -4.601
REMARK INTER:                  -4.519
REMARK INTRA:                  -0.082
REMARK UNBOUND:                -0.091
REMARK SMILES COc1cc(C(=O)[O-])ccc1O
REMARK SMILES IDX 5 1 9 2 4 3 10 4 3 5 11 6 6 7 7 8 8 9 2 10 1 11 12 12
REMARK H PARENT 12 13
REMARK Flexibility Score: inf
ROOT
ATOM      1  C   UNL     1      22.991   5.615  18.776  1.00  0.00     0.001 A 
ATOM      2  C   UNL     1      23.646   6.360  19.768  1.00  0.00     0.014 A 
ATOM      3  C   UNL     1      21.999   6.237  17.995  1.00  0.00     0.060 A 
ATOM      4  C   UNL     1      23.318   7.701  19.977  1.00  0.00     0.051 A 
ATOM      5  C   UNL     1      21.664   7.590  18.202  1.00  0.00     0.161 A 
ATOM      6  C   UNL     1      22.333   8.319  19.201  1.00  0.00     0.157 A 
ENDROOT
BRANCH   1   7
ATOM      7  C   UNL     1      23.343   4.193  18.559  1.00  0.00     0.072 C 
ATOM      8  O   UNL     1      22.999   3.314  19.393  1.00  0.00    -0.545 OA
ATOM      9  O   UNL     1      24.060   3.808  17.431  1.00  0.00    -0.545 OA
ENDBRANCH   1   7
BRANCH   5  10
ATOM     10  O   UNL     1      20.679   8.237  17.437  1.00  0.00    -0.493 OA
ATOM     11  C   UNL     1      19.299   8.298  17.781  1.00  0.00     0.278 C 
ENDBRANCH   5  10
BRANCH   6  12
ATOM     12  O   UNL     1      22.032   9.661  19.439  1.00  0.00    -0.504 OA
ATOM     13  H   UNL     1      21.098   9.971  19.674  1.00  0.00     0.293 HD
ENDBRANCH   6  12
TORSDOF 3
ENDMDL
MODEL 7
REMARK VINA RESULT:    -3.881     11.750     12.407
REMARK INTER + INTRA:          -4.539
REMARK INTER:                  -4.443
REMARK INTRA:                  -0.096
REMARK UNBOUND:                -0.091
REMARK SMILES COc1cc(C(=O)[O-])ccc1O
REMARK SMILES IDX 5 1 9 2 4 3 10 4 3 5 11 6 6 7 7 8 8 9 2 10 1 11 12 12
REMARK H PARENT 12 13
REMARK Flexibility Score: inf
ROOT
ATOM      1  C   UNL     1      21.023  -7.790  18.539  1.00  0.00     0.001 A 
ATOM      2  C   UNL     1      20.057  -8.149  17.586  1.00  0.00     0.014 A 
ATOM      3  C   UNL     1      20.762  -6.713  19.405  1.00  0.00     0.060 A 
ATOM      4  C   UNL     1      18.853  -7.447  17.501  1.00  0.00     0.051 A 
ATOM      5  C   UNL     1      19.549  -6.000  19.323  1.00  0.00     0.161 A 
ATOM      6  C   UNL     1      18.595  -6.377  18.361  1.00  0.00     0.157 A 
ENDROOT
BRANCH   1   7
ATOM      7  C   UNL     1      22.297  -8.539  18.625  1.00  0.00     0.072 C 
ATOM      8  O   UNL     1      22.337  -9.769  18.355  1.00  0.00    -0.545 OA
ATOM      9  O   UNL     1      23.469  -7.896  19.007  1.00  0.00    -0.545 OA
ENDBRANCH   1   7
BRANCH   5  10
ATOM     10  O   UNL     1      19.261  -4.921  20.175  1.00  0.00    -0.493 OA
ATOM     11  C   UNL     1      18.664  -5.044  21.462  1.00  0.00     0.278 C 
ENDBRANCH   5  10
BRANCH   6  12
ATOM     12  O   UNL     1      17.381  -5.698  18.246  1.00  0.00    -0.504 OA
ATOM     13  H   UNL     1      17.271  -4.884  17.655  1.00  0.00     0.293 HD
ENDBRANCH   6  12
TORSDOF 3
ENDMDL
MODEL 8
REMARK VINA RESULT:    -3.859      2.419      5.233
REMARK INTER + INTRA:          -4.513
REMARK INTER:                  -4.435
REMARK INTRA:                  -0.078
REMARK UNBOUND:                -0.091
REMARK SMILES COc1cc(C(=O)[O-])ccc1O
REMARK SMILES IDX 5 1 9 2 4 3 10 4 3 5 11 6 6 7 7 8 8 9 2 10 1 11 12 12
REMARK H PARENT 12 13
REMARK Flexibility Score: inf
ROOT
ATOM      1  C   UNL     1      22.152   7.982  20.144  1.00  0.00     0.001 A 
ATOM      2  C   UNL     1      21.558   8.424  18.952  1.00  0.00     0.014 A 
ATOM      3  C   UNL     1      22.798   6.732  20.165  1.00  0.00     0.060 A 
ATOM      4  C   UNL     1      21.609   7.635  17.802  1.00  0.00     0.051 A 
ATOM      5  C   UNL     1      22.852   5.930  19.006  1.00  0.00     0.161 A 
ATOM      6  C   UNL     1      22.251   6.393  17.822  1.00  0.00     0.157 A 
ENDROOT
BRANCH   1   7
ATOM      7  C   UNL     1      22.095   8.824  21.361  1.00  0.00     0.072 C 
ATOM      8  O   UNL     1      20.987   9.130  21.876  1.00  0.00    -0.545 OA
ATOM      9  O   UNL     1      23.264   9.289  21.952  1.00  0.00    -0.545 OA
ENDBRANCH   1   7
BRANCH   5  10
ATOM     10  O   UNL     1      23.490   4.679  18.997  1.00  0.00    -0.493 OA
ATOM     11  C   UNL     1      24.677   4.371  19.720  1.00  0.00     0.278 C 
ENDBRANCH   5  10
BRANCH   6  12
ATOM     12  O   UNL     1      22.281   5.632  16.653  1.00  0.00    -0.504 OA
ATOM     13  H   UNL     1      22.659   4.693  16.630  1.00  0.00     0.293 HD
ENDBRANCH   6  12
TORSDOF 3
ENDMDL
MODEL 9
REMARK VINA RESULT:    -3.846      8.849     10.631
REMARK INTER + INTRA:          -4.499
REMARK INTER:                  -4.402
REMARK INTRA:                  -0.097
REMARK UNBOUND:                -0.091
REMARK SMILES COc1cc(C(=O)[O-])ccc1O
REMARK SMILES IDX 5 1 9 2 4 3 10 4 3 5 11 6 6 7 7 8 8 9 2 10 1 11 12 12
REMARK H PARENT 12 13
REMARK Flexibility Score: inf
ROOT
ATOM      1  C   UNL     1      15.399   4.949  19.025  1.00  0.00     0.001 A 
ATOM      2  C   UNL     1      14.213   5.560  19.464  1.00  0.00     0.014 A 
ATOM      3  C   UNL     1      15.319   3.804  18.212  1.00  0.00     0.060 A 
ATOM      4  C   UNL     1      12.972   5.037  19.098  1.00  0.00     0.051 A 
ATOM      5  C   UNL     1      14.067   3.271  17.840  1.00  0.00     0.161 A 
ATOM      6  C   UNL     1      12.892   3.899  18.290  1.00  0.00     0.157 A 
ENDROOT
BRANCH   1   7
ATOM      7  C   UNL     1      16.713   5.509  19.416  1.00  0.00     0.072 C 
ATOM      8  O   UNL     1      17.558   4.795  20.019  1.00  0.00    -0.545 OA
ATOM      9  O   UNL     1      17.032   6.830  19.125  1.00  0.00    -0.545 OA
ENDBRANCH   1   7
BRANCH   5  10
ATOM     10  O   UNL     1      13.957   2.130  17.029  1.00  0.00    -0.493 OA
ATOM     11  C   UNL     1      14.023   0.790  17.505  1.00  0.00     0.278 C 
ENDBRANCH   5  10
BRANCH   6  12
ATOM     12  O   UNL     1      11.634   3.405  17.945  1.00  0.00    -0.504 OA
ATOM     13  H   UNL     1      11.437   2.413  17.897  1.00  0.00     0.293 HD
ENDBRANCH   6  12
TORSDOF 3
ENDMDL
