MODEL 1
REMARK VINA RESULT:    -4.199      0.000      0.000
REMARK INTER + INTRA:          -4.731
REMARK INTER:                  -5.671
REMARK INTRA:                   0.941
REMARK UNBOUND:                 0.941
REMARK SMILES O=c1c(-c2ccc(O)cc2)coc2c([C@@H]3O[C@@H](CO)[C@@H](O)[C@H](O)[C@H]3O)c(O)ccc12
REMARK SMILES IDX 3 1 11 2 12 3 13 4 30 5 2 6 1 7 29 8 28 9 26 10 14 11 4 12
REMARK SMILES IDX 5 13 6 14 7 15 10 16 9 17 8 18 15 20 24 21 16 22 22 23 17 24
REMARK SMILES IDX 20 25 25 26 23 28 18 30 19 31 21 33 27 35
REMARK H PARENT 8 19 25 27 23 29 19 32 21 34 27 36
REMARK Flexibility Score: inf
ROOT
ATOM      1  C   UNL     1     -37.706  76.143 -25.046  1.00  0.00     0.065 A 
ATOM      2  C   UNL     1     -38.082  76.940 -23.925  1.00  0.00     0.208 A 
ATOM      3  O   UNL     1     -39.371  77.123 -23.609  1.00  0.00    -0.463 OA
ATOM      4  C   UNL     1     -40.371  76.575 -24.320  1.00  0.00     0.147 A 
ATOM      5  C   UNL     1     -40.053  76.023 -25.559  1.00  0.00     0.066 A 
ATOM      6  C   UNL     1     -38.772  75.511 -25.732  1.00  0.00     0.200 A 
ATOM      7  O   UNL     1     -38.609  74.445 -26.399  1.00  0.00    -0.288 OA
ATOM      8  C   UNL     1     -41.027  75.971 -26.538  1.00  0.00     0.020 A 
ATOM      9  C   UNL     1     -42.350  75.768 -26.131  1.00  0.00     0.047 A 
ATOM     10  C   UNL     1     -42.650  75.798 -24.753  1.00  0.00     0.125 A 
ATOM     11  C   UNL     1     -41.717  76.446 -23.844  1.00  0.00     0.069 A 
ENDROOT
BRANCH   1  12
ATOM     12  C   UNL     1     -36.356  76.276 -25.716  1.00  0.00    -0.011 A 
ATOM     13  C   UNL     1     -35.178  76.612 -24.998  1.00  0.00     0.013 A 
ATOM     14  C   UNL     1     -33.898  76.413 -25.528  1.00  0.00     0.047 A 
ATOM     15  C   UNL     1     -33.761  75.785 -26.781  1.00  0.00     0.115 A 
ATOM     16  C   UNL     1     -36.181  75.772 -27.039  1.00  0.00     0.013 A 
ATOM     17  C   UNL     1     -34.889  75.548 -27.561  1.00  0.00     0.047 A 
BRANCH  15  18
ATOM     18  O   UNL     1     -32.490  75.369 -27.208  1.00  0.00    -0.508 OA
ATOM     19  H   UNL     1     -32.235  74.423 -26.970  1.00  0.00     0.293 HD
ENDBRANCH  15  18
ENDBRANCH   1  12
BRANCH  11  20
ATOM     20  C   UNL     1     -41.973  76.872 -22.318  1.00  0.00     0.188 C 
ATOM     21  C   UNL     1     -43.079  76.185 -21.437  1.00  0.00     0.179 C 
ATOM     22  O   UNL     1     -40.772  76.840 -21.557  1.00  0.00    -0.362 OA
ATOM     23  C   UNL     1     -42.590  74.947 -20.638  1.00  0.00     0.177 C 
ATOM     24  C   UNL     1     -40.203  75.523 -21.465  1.00  0.00     0.176 C 
ATOM     25  C   UNL     1     -41.279  74.397 -21.283  1.00  0.00     0.177 C 
BRANCH  21  26
ATOM     26  O   UNL     1     -43.561  77.125 -20.483  1.00  0.00    -0.387 OA
ATOM     27  H   UNL     1     -44.496  76.860 -20.244  1.00  0.00     0.211 HD
ENDBRANCH  21  26
BRANCH  23  28
ATOM     28  O   UNL     1     -43.564  73.939 -20.534  1.00  0.00    -0.387 OA
ATOM     29  H   UNL     1     -43.346  73.307 -21.270  1.00  0.00     0.211 HD
ENDBRANCH  23  28
BRANCH  24  30
ATOM     30  C   UNL     1     -39.089  75.474 -20.412  1.00  0.00     0.191 C 
BRANCH  30  31
ATOM     31  O   UNL     1     -38.128  74.508 -20.721  1.00  0.00    -0.394 OA
ATOM     32  H   UNL     1     -37.814  74.110 -19.860  1.00  0.00     0.210 HD
ENDBRANCH  30  31
ENDBRANCH  24  30
BRANCH  25  33
ATOM     33  O   UNL     1     -40.806  73.312 -20.511  1.00  0.00    -0.388 OA
ATOM     34  H   UNL     1     -40.461  72.633 -21.142  1.00  0.00     0.211 HD
ENDBRANCH  25  33
ENDBRANCH  11  20
BRANCH  10  35
ATOM     35  O   UNL     1     -43.668  74.928 -24.313  1.00  0.00    -0.507 OA
ATOM     36  H   UNL     1     -43.551  73.913 -24.437  1.00  0.00     0.293 HD
ENDBRANCH  10  35
TORSDOF 9
ENDMDL
