MODEL 1
REMARK VINA RESULT:    -6.524      0.000      0.000
REMARK INTER + INTRA:         -10.656
REMARK INTER:                  -9.575
REMARK INTRA:                  -1.080
REMARK UNBOUND:                -1.080
REMARK SMILES Cc1cc2c(C(C)C)c(O)c(O)c(C=O)c2c(O)c1-c1c(C)cc2c(C(C)C)c(O)c(O)c(C=O)c2c1O
REMARK SMILES IDX 1 1 2 2 3 3 4 4 16 5 13 6 11 7 9 8 5 9 17 10 19 11 20 12
REMARK SMILES IDX 37 13 21 14 36 15 23 16 22 17 24 18 33 19 25 20 31 21 29 22
REMARK SMILES IDX 38 23 34 25 35 26 26 27 27 28 28 29 32 30 30 32 18 34 6 36
REMARK SMILES IDX 7 37 8 38 14 39 15 40 10 41 12 43
REMARK H PARENT 38 24 32 31 30 33 18 35 10 42 12 44
REMARK Flexibility Score: inf
ROOT
ATOM      1  C   UNL     1      49.242  42.448  38.308  1.00  0.00     0.045 C 
ATOM      2  C   UNL     1      48.431  43.370  37.430  1.00  0.00    -0.039 A 
ATOM      3  C   UNL     1      48.432  44.740  37.691  1.00  0.00     0.013 A 
ATOM      4  C   UNL     1      47.708  45.654  36.894  1.00  0.00    -0.006 A 
ATOM      5  C   UNL     1      46.857  45.144  35.863  1.00  0.00     0.039 A 
ATOM      6  C   UNL     1      46.025  46.055  35.145  1.00  0.00     0.072 A 
ATOM      7  C   UNL     1      46.001  47.418  35.505  1.00  0.00     0.169 A 
ATOM      8  C   UNL     1      46.841  47.903  36.511  1.00  0.00     0.162 A 
ATOM      9  C   UNL     1      47.784  47.060  37.133  1.00  0.00     0.008 A 
ATOM     10  C   UNL     1      46.839  43.735  35.619  1.00  0.00     0.132 A 
ATOM     11  C   UNL     1      47.646  42.865  36.383  1.00  0.00     0.031 A 
ENDROOT
BRANCH  11  12
ATOM     12  C   UNL     1      47.641  41.403  36.106  1.00  0.00     0.031 A 
ATOM     13  C   UNL     1      46.814  40.541  36.855  1.00  0.00     0.132 A 
ATOM     14  C   UNL     1      48.448  40.886  35.083  1.00  0.00    -0.039 A 
ATOM     15  C   UNL     1      46.851  39.132  36.635  1.00  0.00     0.039 A 
ATOM     16  C   UNL     1      48.395  39.523  34.788  1.00  0.00     0.013 A 
ATOM     17  C   UNL     1      49.317  41.792  34.243  1.00  0.00     0.045 C 
ATOM     18  C   UNL     1      47.616  38.620  35.541  1.00  0.00    -0.006 A 
ATOM     19  C   UNL     1      46.121  38.224  37.454  1.00  0.00     0.072 A 
ATOM     20  C   UNL     1      47.562  37.226  35.217  1.00  0.00     0.008 A 
ATOM     21  C   UNL     1      46.027  36.870  37.093  1.00  0.00     0.169 A 
ATOM     22  C   UNL     1      46.678  36.392  35.943  1.00  0.00     0.162 A 
BRANCH  13  23
ATOM     23  O   UNL     1      45.920  41.088  37.783  1.00  0.00    -0.507 OA
ATOM     24  H   UNL     1      45.367  40.537  38.427  1.00  0.00     0.293 HD
ENDBRANCH  13  23
BRANCH  19  25
ATOM     25  C   UNL     1      45.540  38.633  38.757  1.00  0.00     0.264 C 
ATOM     26  O   UNL     1      44.317  38.917  38.865  1.00  0.00    -0.298 OA
ENDBRANCH  19  25
BRANCH  20  27
ATOM     27  C   UNL     1      48.380  36.575  34.082  1.00  0.00     0.017 C 
ATOM     28  C   UNL     1      49.371  35.529  34.612  1.00  0.00     0.012 C 
ATOM     29  C   UNL     1      47.527  36.062  32.902  1.00  0.00     0.012 C 
ENDBRANCH  20  27
BRANCH  21  30
ATOM     30  O   UNL     1      45.314  36.001  37.929  1.00  0.00    -0.504 OA
ATOM     31  H   UNL     1      45.595  35.760  38.869  1.00  0.00     0.293 HD
ENDBRANCH  21  30
BRANCH  22  32
ATOM     32  O   UNL     1      46.457  35.083  35.499  1.00  0.00    -0.504 OA
ATOM     33  H   UNL     1      45.703  34.494  35.822  1.00  0.00     0.293 HD
ENDBRANCH  22  32
ENDBRANCH  11  12
BRANCH  10  34
ATOM     34  O   UNL     1      46.006  43.197  34.631  1.00  0.00    -0.507 OA
ATOM     35  H   UNL     1      46.258  43.128  33.653  1.00  0.00     0.293 HD
ENDBRANCH  10  34
BRANCH   9  36
ATOM     36  C   UNL     1      48.855  47.668  38.059  1.00  0.00     0.017 C 
ATOM     37  C   UNL     1      48.225  48.189  39.355  1.00  0.00     0.012 C 
ATOM     38  C   UNL     1      49.720  48.749  37.383  1.00  0.00     0.012 C 
ENDBRANCH   9  36
BRANCH   6  39
ATOM     39  C   UNL     1      45.165  45.615  34.028  1.00  0.00     0.264 C 
ATOM     40  O   UNL     1      45.670  45.280  32.924  1.00  0.00    -0.298 OA
ENDBRANCH   6  39
BRANCH   8  41
ATOM     41  O   UNL     1      46.742  49.242  36.897  1.00  0.00    -0.504 OA
ATOM     42  H   UNL     1      45.856  49.713  37.035  1.00  0.00     0.293 HD
ENDBRANCH   8  41
BRANCH   7  43
ATOM     43  O   UNL     1      45.168  48.336  34.851  1.00  0.00    -0.504 OA
ATOM     44  H   UNL     1      44.949  48.301  33.864  1.00  0.00     0.293 HD
ENDBRANCH   7  43
TORSDOF 11
ENDMDL
MODEL 2
REMARK VINA RESULT:    -6.484      2.492      9.209
REMARK INTER + INTRA:         -10.596
REMARK INTER:                  -9.757
REMARK INTRA:                  -0.839
REMARK UNBOUND:                -1.080
REMARK SMILES Cc1cc2c(C(C)C)c(O)c(O)c(C=O)c2c(O)c1-c1c(C)cc2c(C(C)C)c(O)c(O)c(C=O)c2c1O
REMARK SMILES IDX 1 1 2 2 3 3 4 4 16 5 13 6 11 7 9 8 5 9 17 10 19 11 20 12
REMARK SMILES IDX 37 13 21 14 36 15 23 16 22 17 24 18 33 19 25 20 31 21 29 22
REMARK SMILES IDX 38 23 34 25 35 26 26 27 27 28 28 29 32 30 30 32 18 34 6 36
REMARK SMILES IDX 7 37 8 38 14 39 15 40 10 41 12 43
REMARK H PARENT 38 24 32 31 30 33 18 35 10 42 12 44
REMARK Flexibility Score: inf
ROOT
ATOM      1  C   UNL     1      48.333  40.644  36.868  1.00  0.00     0.045 C 
ATOM      2  C   UNL     1      47.053  39.909  36.554  1.00  0.00    -0.039 A 
ATOM      3  C   UNL     1      47.113  38.591  36.104  1.00  0.00     0.013 A 
ATOM      4  C   UNL     1      45.950  37.845  35.813  1.00  0.00    -0.006 A 
ATOM      5  C   UNL     1      44.680  38.501  35.871  1.00  0.00     0.039 A 
ATOM      6  C   UNL     1      43.517  37.787  35.450  1.00  0.00     0.072 A 
ATOM      7  C   UNL     1      43.643  36.486  34.922  1.00  0.00     0.169 A 
ATOM      8  C   UNL     1      44.890  35.855  34.876  1.00  0.00     0.162 A 
ATOM      9  C   UNL     1      46.033  36.473  35.426  1.00  0.00     0.008 A 
ATOM     10  C   UNL     1      44.627  39.862  36.307  1.00  0.00     0.132 A 
ATOM     11  C   UNL     1      45.807  40.544  36.672  1.00  0.00     0.031 A 
ENDROOT
BRANCH  11  12
ATOM     12  C   UNL     1      45.741  41.951  37.149  1.00  0.00     0.031 A 
ATOM     13  C   UNL     1      45.983  43.016  36.257  1.00  0.00     0.132 A 
ATOM     14  C   UNL     1      45.418  42.218  38.487  1.00  0.00    -0.039 A 
ATOM     15  C   UNL     1      45.982  44.364  36.723  1.00  0.00     0.039 A 
ATOM     16  C   UNL     1      45.300  43.542  38.915  1.00  0.00     0.013 A 
ATOM     17  C   UNL     1      45.122  41.098  39.456  1.00  0.00     0.045 C 
ATOM     18  C   UNL     1      45.576  44.634  38.067  1.00  0.00    -0.006 A 
ATOM     19  C   UNL     1      46.340  45.452  35.876  1.00  0.00     0.072 A 
ATOM     20  C   UNL     1      45.436  45.987  38.518  1.00  0.00     0.008 A 
ATOM     21  C   UNL     1      46.143  46.774  36.308  1.00  0.00     0.169 A 
ATOM     22  C   UNL     1      45.624  47.036  37.587  1.00  0.00     0.162 A 
BRANCH  13  23
ATOM     23  O   UNL     1      46.176  42.738  34.898  1.00  0.00    -0.507 OA
ATOM     24  H   UNL     1      45.948  43.383  34.152  1.00  0.00     0.293 HD
ENDBRANCH  13  23
BRANCH  19  25
ATOM     25  C   UNL     1      47.031  45.245  34.580  1.00  0.00     0.264 C 
ATOM     26  O   UNL     1      46.388  45.207  33.498  1.00  0.00    -0.298 OA
ENDBRANCH  19  25
BRANCH  20  27
ATOM     27  C   UNL     1      45.044  46.376  39.958  1.00  0.00     0.017 C 
ATOM     28  C   UNL     1      43.855  45.554  40.475  1.00  0.00     0.012 C 
ATOM     29  C   UNL     1      46.230  46.417  40.945  1.00  0.00     0.012 C 
ENDBRANCH  20  27
BRANCH  21  30
ATOM     30  O   UNL     1      46.520  47.821  35.457  1.00  0.00    -0.504 OA
ATOM     31  H   UNL     1      47.401  48.313  35.519  1.00  0.00     0.293 HD
ENDBRANCH  21  30
BRANCH  22  32
ATOM     32  O   UNL     1      45.282  48.343  37.957  1.00  0.00    -0.504 OA
ATOM     33  H   UNL     1      44.491  48.850  37.584  1.00  0.00     0.293 HD
ENDBRANCH  22  32
ENDBRANCH  11  12
BRANCH  10  34
ATOM     34  O   UNL     1      43.405  40.543  36.359  1.00  0.00    -0.507 OA
ATOM     35  H   UNL     1      42.505  40.105  36.206  1.00  0.00     0.293 HD
ENDBRANCH  10  34
BRANCH   9  36
ATOM     36  C   UNL     1      47.335  35.664  35.580  1.00  0.00     0.017 C 
ATOM     37  C   UNL     1      48.083  36.071  36.854  1.00  0.00     0.012 C 
ATOM     38  C   UNL     1      48.256  35.726  34.347  1.00  0.00     0.012 C 
ENDBRANCH   9  36
BRANCH   6  39
ATOM     39  C   UNL     1      42.165  38.375  35.536  1.00  0.00     0.264 C 
ATOM     40  O   UNL     1      41.343  38.233  34.593  1.00  0.00    -0.298 OA
ENDBRANCH   6  39
BRANCH   8  41
ATOM     41  O   UNL     1      44.997  34.596  34.281  1.00  0.00    -0.504 OA
ATOM     42  H   UNL     1      44.870  33.731  34.791  1.00  0.00     0.293 HD
ENDBRANCH   8  41
BRANCH   7  43
ATOM     43  O   UNL     1      42.532  35.769  34.462  1.00  0.00    -0.504 OA
ATOM     44  H   UNL     1      42.560  35.102  33.701  1.00  0.00     0.293 HD
ENDBRANCH   7  43
TORSDOF 11
ENDMDL
MODEL 3
REMARK VINA RESULT:    -6.335      0.858      9.236
REMARK INTER + INTRA:         -10.378
REMARK INTER:                  -9.604
REMARK INTRA:                  -0.774
REMARK UNBOUND:                -1.080
REMARK SMILES Cc1cc2c(C(C)C)c(O)c(O)c(C=O)c2c(O)c1-c1c(C)cc2c(C(C)C)c(O)c(O)c(C=O)c2c1O
REMARK SMILES IDX 1 1 2 2 3 3 4 4 16 5 13 6 11 7 9 8 5 9 17 10 19 11 20 12
REMARK SMILES IDX 37 13 21 14 36 15 23 16 22 17 24 18 33 19 25 20 31 21 29 22
REMARK SMILES IDX 38 23 34 25 35 26 26 27 27 28 28 29 32 30 30 32 18 34 6 36
REMARK SMILES IDX 7 37 8 38 14 39 15 40 10 41 12 43
REMARK H PARENT 38 24 32 31 30 33 18 35 10 42 12 44
REMARK Flexibility Score: inf
ROOT
ATOM      1  C   UNL     1      49.223  41.923  34.732  1.00  0.00     0.045 C 
ATOM      2  C   UNL     1      48.262  40.946  35.364  1.00  0.00    -0.039 A 
ATOM      3  C   UNL     1      48.273  39.613  34.955  1.00  0.00     0.013 A 
ATOM      4  C   UNL     1      47.411  38.649  35.522  1.00  0.00    -0.006 A 
ATOM      5  C   UNL     1      46.419  39.080  36.458  1.00  0.00     0.039 A 
ATOM      6  C   UNL     1      45.462  38.130  36.932  1.00  0.00     0.072 A 
ATOM      7  C   UNL     1      45.465  36.816  36.423  1.00  0.00     0.169 A 
ATOM      8  C   UNL     1      46.443  36.408  35.513  1.00  0.00     0.162 A 
ATOM      9  C   UNL     1      47.493  37.275  35.143  1.00  0.00     0.008 A 
ATOM     10  C   UNL     1      46.394  40.453  36.853  1.00  0.00     0.132 A 
ATOM     11  C   UNL     1      47.332  41.367  36.326  1.00  0.00     0.031 A 
ENDROOT
BRANCH  11  12
ATOM     12  C   UNL     1      47.316  42.790  36.760  1.00  0.00     0.031 A 
ATOM     13  C   UNL     1      46.685  43.768  35.965  1.00  0.00     0.132 A 
ATOM     14  C   UNL     1      47.915  43.154  37.974  1.00  0.00    -0.039 A 
ATOM     15  C   UNL     1      46.720  45.142  36.346  1.00  0.00     0.039 A 
ATOM     16  C   UNL     1      47.845  44.480  38.405  1.00  0.00     0.013 A 
ATOM     17  C   UNL     1      48.568  42.121  38.861  1.00  0.00     0.045 C 
ATOM     18  C   UNL     1      47.263  45.496  37.620  1.00  0.00    -0.006 A 
ATOM     19  C   UNL     1      46.198  46.169  35.507  1.00  0.00     0.072 A 
ATOM     20  C   UNL     1      47.187  46.850  38.084  1.00  0.00     0.008 A 
ATOM     21  C   UNL     1      46.075  47.481  35.994  1.00  0.00     0.169 A 
ATOM     22  C   UNL     1      46.494  47.800  37.296  1.00  0.00     0.162 A 
BRANCH  13  23
ATOM     23  O   UNL     1      45.980  43.370  34.823  1.00  0.00    -0.507 OA
ATOM     24  H   UNL     1      45.771  43.983  34.045  1.00  0.00     0.293 HD
ENDBRANCH  13  23
BRANCH  19  25
ATOM     25  C   UNL     1      45.880  45.930  34.078  1.00  0.00     0.264 C 
ATOM     26  O   UNL     1      44.688  45.823  33.685  1.00  0.00    -0.298 OA
ENDBRANCH  19  25
BRANCH  20  27
ATOM     27  C   UNL     1      47.779  47.334  39.424  1.00  0.00     0.017 C 
ATOM     28  C   UNL     1      48.318  48.768  39.332  1.00  0.00     0.012 C 
ATOM     29  C   UNL     1      46.855  47.108  40.640  1.00  0.00     0.012 C 
ENDBRANCH  20  27
BRANCH  21  30
ATOM     30  O   UNL     1      45.572  48.469  35.138  1.00  0.00    -0.504 OA
ATOM     31  H   UNL     1      44.994  48.279  34.331  1.00  0.00     0.293 HD
ENDBRANCH  21  30
BRANCH  22  32
ATOM     32  O   UNL     1      46.228  49.065  37.833  1.00  0.00    -0.504 OA
ATOM     33  H   UNL     1      45.502  49.684  37.498  1.00  0.00     0.293 HD
ENDBRANCH  22  32
ENDBRANCH  11  12
BRANCH  10  34
ATOM     34  O   UNL     1      45.426  40.916  37.753  1.00  0.00    -0.507 OA
ATOM     35  H   UNL     1      44.548  40.447  37.930  1.00  0.00     0.293 HD
ENDBRANCH  10  34
BRANCH   9  36
ATOM     36  C   UNL     1      48.684  36.726  34.333  1.00  0.00     0.017 C 
ATOM     37  C   UNL     1      48.280  36.461  32.879  1.00  0.00     0.012 C 
ATOM     38  C   UNL     1      49.346  35.487  34.964  1.00  0.00     0.012 C 
ENDBRANCH   9  36
BRANCH   6  39
ATOM     39  C   UNL     1      44.446  38.483  37.943  1.00  0.00     0.264 C 
ATOM     40  O   UNL     1      44.746  38.527  39.165  1.00  0.00    -0.298 OA
ENDBRANCH   6  39
BRANCH   8  41
ATOM     41  O   UNL     1      46.377  35.123  34.969  1.00  0.00    -0.504 OA
ATOM     42  H   UNL     1      46.653  34.910  34.018  1.00  0.00     0.293 HD
ENDBRANCH   8  41
BRANCH   7  43
ATOM     43  O   UNL     1      44.518  35.868  36.833  1.00  0.00    -0.504 OA
ATOM     44  H   UNL     1      44.636  35.254  37.628  1.00  0.00     0.293 HD
ENDBRANCH   7  43
TORSDOF 11
ENDMDL
MODEL 4
REMARK VINA RESULT:    -6.251      2.154      2.687
REMARK INTER + INTRA:         -10.255
REMARK INTER:                  -8.981
REMARK INTRA:                  -1.274
REMARK UNBOUND:                -1.080
REMARK SMILES Cc1cc2c(C(C)C)c(O)c(O)c(C=O)c2c(O)c1-c1c(C)cc2c(C(C)C)c(O)c(O)c(C=O)c2c1O
REMARK SMILES IDX 1 1 2 2 3 3 4 4 16 5 13 6 11 7 9 8 5 9 17 10 19 11 20 12
REMARK SMILES IDX 37 13 21 14 36 15 23 16 22 17 24 18 33 19 25 20 31 21 29 22
REMARK SMILES IDX 38 23 34 25 35 26 26 27 27 28 28 29 32 30 30 32 18 34 6 36
REMARK SMILES IDX 7 37 8 38 14 39 15 40 10 41 12 43
REMARK H PARENT 38 24 32 31 30 33 18 35 10 42 12 44
REMARK Flexibility Score: inf
ROOT
ATOM      1  C   UNL     1      45.633  40.558  39.303  1.00  0.00     0.045 C 
ATOM      2  C   UNL     1      45.833  41.727  38.370  1.00  0.00    -0.039 A 
ATOM      3  C   UNL     1      45.529  43.014  38.811  1.00  0.00     0.013 A 
ATOM      4  C   UNL     1      45.713  44.149  37.991  1.00  0.00    -0.006 A 
ATOM      5  C   UNL     1      46.112  43.957  36.631  1.00  0.00     0.039 A 
ATOM      6  C   UNL     1      46.171  45.091  35.765  1.00  0.00     0.072 A 
ATOM      7  C   UNL     1      45.771  46.358  36.237  1.00  0.00     0.169 A 
ATOM      8  C   UNL     1      45.388  46.532  37.570  1.00  0.00     0.162 A 
ATOM      9  C   UNL     1      45.467  45.465  38.489  1.00  0.00     0.008 A 
ATOM     10  C   UNL     1      46.396  42.632  36.177  1.00  0.00     0.132 A 
ATOM     11  C   UNL     1      46.283  41.533  37.056  1.00  0.00     0.031 A 
ENDROOT
BRANCH  11  12
ATOM     12  C   UNL     1      46.604  40.160  36.583  1.00  0.00     0.031 A 
ATOM     13  C   UNL     1      45.579  39.309  36.122  1.00  0.00     0.132 A 
ATOM     14  C   UNL     1      47.935  39.719  36.579  1.00  0.00    -0.039 A 
ATOM     15  C   UNL     1      45.874  37.971  35.725  1.00  0.00     0.039 A 
ATOM     16  C   UNL     1      48.238  38.451  36.078  1.00  0.00     0.013 A 
ATOM     17  C   UNL     1      49.056  40.621  37.036  1.00  0.00     0.045 C 
ATOM     18  C   UNL     1      47.239  37.554  35.649  1.00  0.00    -0.006 A 
ATOM     19  C   UNL     1      44.847  37.049  35.369  1.00  0.00     0.072 A 
ATOM     20  C   UNL     1      47.567  36.261  35.125  1.00  0.00     0.008 A 
ATOM     21  C   UNL     1      45.182  35.808  34.802  1.00  0.00     0.169 A 
ATOM     22  C   UNL     1      46.527  35.451  34.612  1.00  0.00     0.162 A 
BRANCH  13  23
ATOM     23  O   UNL     1      44.276  39.809  36.010  1.00  0.00    -0.507 OA
ATOM     24  H   UNL     1      43.927  40.301  35.197  1.00  0.00     0.293 HD
ENDBRANCH  13  23
BRANCH  19  25
ATOM     25  C   UNL     1      43.419  37.303  35.683  1.00  0.00     0.264 C 
ATOM     26  O   UNL     1      42.585  37.544  34.772  1.00  0.00    -0.298 OA
ENDBRANCH  19  25
BRANCH  20  27
ATOM     27  C   UNL     1      49.005  35.708  35.042  1.00  0.00     0.017 C 
ATOM     28  C   UNL     1      49.104  34.274  35.579  1.00  0.00     0.012 C 
ATOM     29  C   UNL     1      49.671  35.888  33.661  1.00  0.00     0.012 C 
ENDBRANCH  20  27
BRANCH  21  30
ATOM     30  O   UNL     1      44.149  34.920  34.478  1.00  0.00    -0.504 OA
ATOM     31  H   UNL     1      43.238  34.924  34.917  1.00  0.00     0.293 HD
ENDBRANCH  21  30
BRANCH  22  32
ATOM     32  O   UNL     1      46.856  34.287  33.906  1.00  0.00    -0.504 OA
ATOM     33  H   UNL     1      46.825  33.357  34.300  1.00  0.00     0.293 HD
ENDBRANCH  22  32
ENDBRANCH  11  12
BRANCH  10  34
ATOM     34  O   UNL     1      46.771  42.402  34.847  1.00  0.00    -0.507 OA
ATOM     35  H   UNL     1      47.658  42.686  34.452  1.00  0.00     0.293 HD
ENDBRANCH  10  34
BRANCH   9  36
ATOM     36  C   UNL     1      45.273  45.739  39.993  1.00  0.00     0.017 C 
ATOM     37  C   UNL     1      43.839  46.193  40.284  1.00  0.00     0.012 C 
ATOM     38  C   UNL     1      46.301  46.723  40.583  1.00  0.00     0.012 C 
ENDBRANCH   9  36
BRANCH   6  39
ATOM     39  C   UNL     1      46.631  44.984  34.366  1.00  0.00     0.264 C 
ATOM     40  O   UNL     1      45.806  45.025  33.415  1.00  0.00    -0.298 OA
ENDBRANCH   6  39
BRANCH   8  41
ATOM     41  O   UNL     1      44.927  47.781  37.991  1.00  0.00    -0.504 OA
ATOM     42  H   UNL     1      45.036  48.624  37.441  1.00  0.00     0.293 HD
ENDBRANCH   8  41
BRANCH   7  43
ATOM     43  O   UNL     1      45.776  47.487  35.407  1.00  0.00    -0.504 OA
ATOM     44  H   UNL     1      46.459  48.231  35.464  1.00  0.00     0.293 HD
ENDBRANCH   7  43
TORSDOF 11
ENDMDL
MODEL 5
REMARK VINA RESULT:    -5.759      3.156      9.688
REMARK INTER + INTRA:          -9.532
REMARK INTER:                  -8.952
REMARK INTRA:                  -0.580
REMARK UNBOUND:                -1.080
REMARK SMILES Cc1cc2c(C(C)C)c(O)c(O)c(C=O)c2c(O)c1-c1c(C)cc2c(C(C)C)c(O)c(O)c(C=O)c2c1O
REMARK SMILES IDX 1 1 2 2 3 3 4 4 16 5 13 6 11 7 9 8 5 9 17 10 19 11 20 12
REMARK SMILES IDX 37 13 21 14 36 15 23 16 22 17 24 18 33 19 25 20 31 21 29 22
REMARK SMILES IDX 38 23 34 25 35 26 26 27 27 28 28 29 32 30 30 32 18 34 6 36
REMARK SMILES IDX 7 37 8 38 14 39 15 40 10 41 12 43
REMARK H PARENT 38 24 32 31 30 33 18 35 10 42 12 44
REMARK Flexibility Score: inf
ROOT
ATOM      1  C   UNL     1      44.364  45.432  39.205  1.00  0.00     0.045 C 
ATOM      2  C   UNL     1      45.296  44.310  38.815  1.00  0.00    -0.039 A 
ATOM      3  C   UNL     1      44.849  42.992  38.887  1.00  0.00     0.013 A 
ATOM      4  C   UNL     1      45.668  41.902  38.518  1.00  0.00    -0.006 A 
ATOM      5  C   UNL     1      47.032  42.154  38.172  1.00  0.00     0.039 A 
ATOM      6  C   UNL     1      47.896  41.043  37.927  1.00  0.00     0.072 A 
ATOM      7  C   UNL     1      47.416  39.729  38.097  1.00  0.00     0.169 A 
ATOM      8  C   UNL     1      46.079  39.498  38.430  1.00  0.00     0.162 A 
ATOM      9  C   UNL     1      45.163  40.566  38.528  1.00  0.00     0.008 A 
ATOM     10  C   UNL     1      47.493  43.507  38.126  1.00  0.00     0.132 A 
ATOM     11  C   UNL     1      46.616  44.573  38.419  1.00  0.00     0.031 A 
ENDROOT
BRANCH  11  12
ATOM     12  C   UNL     1      47.096  45.979  38.344  1.00  0.00     0.031 A 
ATOM     13  C   UNL     1      47.424  46.681  39.522  1.00  0.00     0.132 A 
ATOM     14  C   UNL     1      47.240  46.600  37.095  1.00  0.00    -0.039 A 
ATOM     15  C   UNL     1      47.826  48.048  39.460  1.00  0.00     0.039 A 
ATOM     16  C   UNL     1      47.747  47.899  37.028  1.00  0.00     0.013 A 
ATOM     17  C   UNL     1      46.928  45.860  35.816  1.00  0.00     0.045 C 
ATOM     18  C   UNL     1      48.045  48.651  38.183  1.00  0.00    -0.006 A 
ATOM     19  C   UNL     1      48.047  48.820  40.637  1.00  0.00     0.072 A 
ATOM     20  C   UNL     1      48.578  49.978  38.096  1.00  0.00     0.008 A 
ATOM     21  C   UNL     1      48.624  50.098  40.542  1.00  0.00     0.169 A 
ATOM     22  C   UNL     1      48.957  50.638  39.289  1.00  0.00     0.162 A 
BRANCH  13  23
ATOM     23  O   UNL     1      47.399  46.007  40.749  1.00  0.00    -0.507 OA
ATOM     24  H   UNL     1      48.203  45.546  41.156  1.00  0.00     0.293 HD
ENDBRANCH  13  23
BRANCH  19  25
ATOM     25  C   UNL     1      47.581  48.371  41.972  1.00  0.00     0.264 C 
ATOM     26  O   UNL     1      48.298  48.518  42.996  1.00  0.00    -0.298 OA
ENDBRANCH  19  25
BRANCH  20  27
ATOM     27  C   UNL     1      48.811  50.725  36.766  1.00  0.00     0.017 C 
ATOM     28  C   UNL     1      50.125  50.308  36.092  1.00  0.00     0.012 C 
ATOM     29  C   UNL     1      47.600  50.700  35.808  1.00  0.00     0.012 C 
ENDBRANCH  20  27
BRANCH  21  30
ATOM     30  O   UNL     1      48.815  50.836  41.717  1.00  0.00    -0.504 OA
ATOM     31  H   UNL     1      49.285  50.482  42.539  1.00  0.00     0.293 HD
ENDBRANCH  21  30
BRANCH  22  32
ATOM     32  O   UNL     1      49.673  51.838  39.205  1.00  0.00    -0.504 OA
ATOM     33  H   UNL     1      49.278  52.749  39.395  1.00  0.00     0.293 HD
ENDBRANCH  22  32
ENDBRANCH  11  12
BRANCH  10  34
ATOM     34  O   UNL     1      48.827  43.792  37.809  1.00  0.00    -0.507 OA
ATOM     35  H   UNL     1      49.115  44.337  37.007  1.00  0.00     0.293 HD
ENDBRANCH  10  34
BRANCH   9  36
ATOM     36  C   UNL     1      43.657  40.269  38.657  1.00  0.00     0.017 C 
ATOM     37  C   UNL     1      42.976  40.297  37.284  1.00  0.00     0.012 C 
ATOM     38  C   UNL     1      42.927  41.179  39.662  1.00  0.00     0.012 C 
ENDBRANCH   9  36
BRANCH   6  39
ATOM     39  C   UNL     1      49.300  41.222  37.506  1.00  0.00     0.264 C 
ATOM     40  O   UNL     1      49.586  41.433  36.299  1.00  0.00    -0.298 OA
ENDBRANCH   6  39
BRANCH   8  41
ATOM     41  O   UNL     1      45.650  38.189  38.665  1.00  0.00    -0.504 OA
ATOM     42  H   UNL     1      44.682  37.948  38.838  1.00  0.00     0.293 HD
ENDBRANCH   8  41
BRANCH   7  43
ATOM     43  O   UNL     1      48.243  38.614  37.905  1.00  0.00    -0.504 OA
ATOM     44  H   UNL     1      49.182  38.534  38.271  1.00  0.00     0.293 HD
ENDBRANCH   7  43
TORSDOF 11
ENDMDL
MODEL 6
REMARK VINA RESULT:    -5.551      1.489      9.054
REMARK INTER + INTRA:          -9.227
REMARK INTER:                  -9.054
REMARK INTRA:                  -0.173
REMARK UNBOUND:                -1.080
REMARK SMILES Cc1cc2c(C(C)C)c(O)c(O)c(C=O)c2c(O)c1-c1c(C)cc2c(C(C)C)c(O)c(O)c(C=O)c2c1O
REMARK SMILES IDX 1 1 2 2 3 3 4 4 16 5 13 6 11 7 9 8 5 9 17 10 19 11 20 12
REMARK SMILES IDX 37 13 21 14 36 15 23 16 22 17 24 18 33 19 25 20 31 21 29 22
REMARK SMILES IDX 38 23 34 25 35 26 26 27 27 28 28 29 32 30 30 32 18 34 6 36
REMARK SMILES IDX 7 37 8 38 14 39 15 40 10 41 12 43
REMARK H PARENT 38 24 32 31 30 33 18 35 10 42 12 44
REMARK Flexibility Score: inf
ROOT
ATOM      1  C   UNL     1      46.032  41.151  38.664  1.00  0.00     0.045 C 
ATOM      2  C   UNL     1      46.585  40.514  37.412  1.00  0.00    -0.039 A 
ATOM      3  C   UNL     1      46.460  39.137  37.232  1.00  0.00     0.013 A 
ATOM      4  C   UNL     1      46.940  38.487  36.074  1.00  0.00    -0.006 A 
ATOM      5  C   UNL     1      47.679  39.248  35.115  1.00  0.00     0.039 A 
ATOM      6  C   UNL     1      48.278  38.568  34.011  1.00  0.00     0.072 A 
ATOM      7  C   UNL     1      48.193  37.163  33.921  1.00  0.00     0.169 A 
ATOM      8  C   UNL     1      47.463  36.433  34.862  1.00  0.00     0.162 A 
ATOM      9  C   UNL     1      46.732  37.088  35.876  1.00  0.00     0.008 A 
ATOM     10  C   UNL     1      47.828  40.655  35.319  1.00  0.00     0.132 A 
ATOM     11  C   UNL     1      47.257  41.280  36.449  1.00  0.00     0.031 A 
ENDROOT
BRANCH  11  12
ATOM     12  C   UNL     1      47.396  42.748  36.641  1.00  0.00     0.031 A 
ATOM     13  C   UNL     1      46.564  43.639  35.933  1.00  0.00     0.132 A 
ATOM     14  C   UNL     1      48.345  43.245  37.546  1.00  0.00    -0.039 A 
ATOM     15  C   UNL     1      46.734  45.049  36.069  1.00  0.00     0.039 A 
ATOM     16  C   UNL     1      48.430  44.621  37.767  1.00  0.00     0.013 A 
ATOM     17  C   UNL     1      49.226  42.311  38.342  1.00  0.00     0.045 C 
ATOM     18  C   UNL     1      47.648  45.548  37.048  1.00  0.00    -0.006 A 
ATOM     19  C   UNL     1      45.993  45.975  35.279  1.00  0.00     0.072 A 
ATOM     20  C   UNL     1      47.738  46.956  37.297  1.00  0.00     0.008 A 
ATOM     21  C   UNL     1      46.045  47.348  35.571  1.00  0.00     0.169 A 
ATOM     22  C   UNL     1      46.850  47.824  36.619  1.00  0.00     0.162 A 
BRANCH  13  23
ATOM     23  O   UNL     1      45.536  43.125  35.135  1.00  0.00    -0.507 OA
ATOM     24  H   UNL     1      44.980  42.316  35.380  1.00  0.00     0.293 HD
ENDBRANCH  13  23
BRANCH  19  25
ATOM     25  C   UNL     1      45.246  45.554  34.068  1.00  0.00     0.264 C 
ATOM     26  O   UNL     1      45.848  45.145  33.040  1.00  0.00    -0.298 OA
ENDBRANCH  19  25
BRANCH  20  27
ATOM     27  C   UNL     1      48.721  47.590  38.303  1.00  0.00     0.017 C 
ATOM     28  C   UNL     1      49.708  48.548  37.621  1.00  0.00     0.012 C 
ATOM     29  C   UNL     1      48.044  48.200  39.549  1.00  0.00     0.012 C 
ENDBRANCH  20  27
BRANCH  21  30
ATOM     30  O   UNL     1      45.316  48.232  34.765  1.00  0.00    -0.504 OA
ATOM     31  H   UNL     1      45.576  49.195  34.600  1.00  0.00     0.293 HD
ENDBRANCH  21  30
BRANCH  22  32
ATOM     32  O   UNL     1      46.780  49.167  37.009  1.00  0.00    -0.504 OA
ATOM     33  H   UNL     1      46.245  49.502  37.798  1.00  0.00     0.293 HD
ENDBRANCH  22  32
ENDBRANCH  11  12
BRANCH  10  34
ATOM     34  O   UNL     1      48.561  41.430  34.412  1.00  0.00    -0.507 OA
ATOM     35  H   UNL     1      49.121  41.046  33.662  1.00  0.00     0.293 HD
ENDBRANCH  10  34
BRANCH   9  36
ATOM     36  C   UNL     1      45.749  36.282  36.746  1.00  0.00     0.017 C 
ATOM     37  C   UNL     1      44.307  36.479  36.266  1.00  0.00     0.012 C 
ATOM     38  C   UNL     1      45.878  36.565  38.255  1.00  0.00     0.012 C 
ENDBRANCH   9  36
BRANCH   6  39
ATOM     39  C   UNL     1      49.005  39.291  32.948  1.00  0.00     0.264 C 
ATOM     40  O   UNL     1      50.125  39.816  33.182  1.00  0.00    -0.298 OA
ENDBRANCH   6  39
BRANCH   8  41
ATOM     41  O   UNL     1      47.458  35.038  34.790  1.00  0.00    -0.504 OA
ATOM     42  H   UNL     1      48.241  34.500  34.441  1.00  0.00     0.293 HD
ENDBRANCH   8  41
BRANCH   7  43
ATOM     43  O   UNL     1      48.801  36.457  32.875  1.00  0.00    -0.504 OA
ATOM     44  H   UNL     1      48.740  36.720  31.900  1.00  0.00     0.293 HD
ENDBRANCH   7  43
TORSDOF 11
ENDMDL
MODEL 7
REMARK VINA RESULT:    -5.510      3.382      5.522
REMARK INTER + INTRA:          -9.168
REMARK INTER:                  -8.336
REMARK INTRA:                  -0.832
REMARK UNBOUND:                -1.080
REMARK SMILES Cc1cc2c(C(C)C)c(O)c(O)c(C=O)c2c(O)c1-c1c(C)cc2c(C(C)C)c(O)c(O)c(C=O)c2c1O
REMARK SMILES IDX 1 1 2 2 3 3 4 4 16 5 13 6 11 7 9 8 5 9 17 10 19 11 20 12
REMARK SMILES IDX 37 13 21 14 36 15 23 16 22 17 24 18 33 19 25 20 31 21 29 22
REMARK SMILES IDX 38 23 34 25 35 26 26 27 27 28 28 29 32 30 30 32 18 34 6 36
REMARK SMILES IDX 7 37 8 38 14 39 15 40 10 41 12 43
REMARK H PARENT 38 24 32 31 30 33 18 35 10 42 12 44
REMARK Flexibility Score: inf
ROOT
ATOM      1  C   UNL     1      47.734  45.624  35.833  1.00  0.00     0.045 C 
ATOM      2  C   UNL     1      47.768  46.439  37.103  1.00  0.00    -0.039 A 
ATOM      3  C   UNL     1      48.235  47.752  37.061  1.00  0.00     0.013 A 
ATOM      4  C   UNL     1      48.272  48.570  38.211  1.00  0.00    -0.006 A 
ATOM      5  C   UNL     1      47.930  47.995  39.476  1.00  0.00     0.039 A 
ATOM      6  C   UNL     1      48.094  48.782  40.656  1.00  0.00     0.072 A 
ATOM      7  C   UNL     1      48.651  50.074  40.568  1.00  0.00     0.169 A 
ATOM      8  C   UNL     1      48.976  50.625  39.326  1.00  0.00     0.162 A 
ATOM      9  C   UNL     1      48.683  49.936  38.130  1.00  0.00     0.008 A 
ATOM     10  C   UNL     1      47.478  46.639  39.516  1.00  0.00     0.132 A 
ATOM     11  C   UNL     1      47.373  45.883  38.329  1.00  0.00     0.031 A 
ENDROOT
BRANCH  11  12
ATOM     12  C   UNL     1      46.878  44.481  38.375  1.00  0.00     0.031 A 
ATOM     13  C   UNL     1      47.789  43.407  38.410  1.00  0.00     0.132 A 
ATOM     14  C   UNL     1      45.498  44.231  38.404  1.00  0.00    -0.039 A 
ATOM     15  C   UNL     1      47.320  42.060  38.393  1.00  0.00     0.039 A 
ATOM     16  C   UNL     1      45.040  42.917  38.508  1.00  0.00     0.013 A 
ATOM     17  C   UNL     1      44.500  45.365  38.402  1.00  0.00     0.045 C 
ATOM     18  C   UNL     1      45.916  41.812  38.501  1.00  0.00    -0.006 A 
ATOM     19  C   UNL     1      48.213  40.953  38.306  1.00  0.00     0.072 A 
ATOM     20  C   UNL     1      45.430  40.469  38.622  1.00  0.00     0.008 A 
ATOM     21  C   UNL     1      47.733  39.645  38.484  1.00  0.00     0.169 A 
ATOM     22  C   UNL     1      46.367  39.413  38.717  1.00  0.00     0.162 A 
BRANCH  13  23
ATOM     23  O   UNL     1      49.159  43.676  38.512  1.00  0.00    -0.507 OA
ATOM     24  H   UNL     1      49.850  42.991  38.790  1.00  0.00     0.293 HD
ENDBRANCH  13  23
BRANCH  19  25
ATOM     25  C   UNL     1      49.635  41.120  37.913  1.00  0.00     0.264 C 
ATOM     26  O   UNL     1      49.951  41.493  36.753  1.00  0.00    -0.298 OA
ENDBRANCH  19  25
BRANCH  20  27
ATOM     27  C   UNL     1      43.934  40.101  38.703  1.00  0.00     0.017 C 
ATOM     28  C   UNL     1      43.175  40.985  39.703  1.00  0.00     0.012 C 
ATOM     29  C   UNL     1      43.235  39.997  37.331  1.00  0.00     0.012 C 
ENDBRANCH  20  27
BRANCH  21  30
ATOM     30  O   UNL     1      48.636  38.580  38.377  1.00  0.00    -0.504 OA
ATOM     31  H   UNL     1      49.476  38.602  37.816  1.00  0.00     0.293 HD
ENDBRANCH  21  30
BRANCH  22  32
ATOM     32  O   UNL     1      45.915  38.130  39.050  1.00  0.00    -0.504 OA
ATOM     33  H   UNL     1      45.479  37.495  38.397  1.00  0.00     0.293 HD
ENDBRANCH  22  32
ENDBRANCH  11  12
BRANCH  10  34
ATOM     34  O   UNL     1      47.152  46.036  40.736  1.00  0.00    -0.507 OA
ATOM     35  H   UNL     1      46.340  46.278  41.289  1.00  0.00     0.293 HD
ENDBRANCH  10  34
BRANCH   9  36
ATOM     36  C   UNL     1      48.827  50.661  36.778  1.00  0.00     0.017 C 
ATOM     37  C   UNL     1      47.594  50.426  35.899  1.00  0.00     0.012 C 
ATOM     38  C   UNL     1      50.125  50.318  36.024  1.00  0.00     0.012 C 
ENDBRANCH   9  36
BRANCH   6  39
ATOM     39  C   UNL     1      47.707  48.280  41.990  1.00  0.00     0.264 C 
ATOM     40  O   UNL     1      48.404  48.550  43.003  1.00  0.00    -0.298 OA
ENDBRANCH   6  39
BRANCH   8  41
ATOM     41  O   UNL     1      49.594  51.877  39.274  1.00  0.00    -0.504 OA
ATOM     42  H   UNL     1      49.224  52.654  38.741  1.00  0.00     0.293 HD
ENDBRANCH   8  41
BRANCH   7  43
ATOM     43  O   UNL     1      48.864  50.861  41.707  1.00  0.00    -0.504 OA
ATOM     44  H   UNL     1      49.020  50.488  42.635  1.00  0.00     0.293 HD
ENDBRANCH   7  43
TORSDOF 11
ENDMDL
MODEL 8
REMARK VINA RESULT:    -5.250      2.665      8.744
REMARK INTER + INTRA:          -8.786
REMARK INTER:                  -8.945
REMARK INTRA:                   0.159
REMARK UNBOUND:                -1.080
REMARK SMILES Cc1cc2c(C(C)C)c(O)c(O)c(C=O)c2c(O)c1-c1c(C)cc2c(C(C)C)c(O)c(O)c(C=O)c2c1O
REMARK SMILES IDX 1 1 2 2 3 3 4 4 16 5 13 6 11 7 9 8 5 9 17 10 19 11 20 12
REMARK SMILES IDX 37 13 21 14 36 15 23 16 22 17 24 18 33 19 25 20 31 21 29 22
REMARK SMILES IDX 38 23 34 25 35 26 26 27 27 28 28 29 32 30 30 32 18 34 6 36
REMARK SMILES IDX 7 37 8 38 14 39 15 40 10 41 12 43
REMARK H PARENT 38 24 32 31 30 33 18 35 10 42 12 44
REMARK Flexibility Score: inf
ROOT
ATOM      1  C   UNL     1      48.665  41.122  36.834  1.00  0.00     0.045 C 
ATOM      2  C   UNL     1      47.368  40.385  36.602  1.00  0.00    -0.039 A 
ATOM      3  C   UNL     1      47.397  39.020  36.320  1.00  0.00     0.013 A 
ATOM      4  C   UNL     1      46.217  38.273  36.113  1.00  0.00    -0.006 A 
ATOM      5  C   UNL     1      44.964  38.962  36.077  1.00  0.00     0.039 A 
ATOM      6  C   UNL     1      43.786  38.230  35.737  1.00  0.00     0.072 A 
ATOM      7  C   UNL     1      43.882  36.870  35.377  1.00  0.00     0.169 A 
ATOM      8  C   UNL     1      45.112  36.209  35.422  1.00  0.00     0.162 A 
ATOM      9  C   UNL     1      46.267  36.861  35.901  1.00  0.00     0.008 A 
ATOM     10  C   UNL     1      44.943  40.367  36.340  1.00  0.00     0.132 A 
ATOM     11  C   UNL     1      46.138  41.060  36.629  1.00  0.00     0.031 A 
ENDROOT
BRANCH  11  12
ATOM     12  C   UNL     1      46.106  42.517  36.926  1.00  0.00     0.031 A 
ATOM     13  C   UNL     1      45.547  42.984  38.133  1.00  0.00     0.132 A 
ATOM     14  C   UNL     1      46.650  43.427  36.008  1.00  0.00    -0.039 A 
ATOM     15  C   UNL     1      45.458  44.383  38.395  1.00  0.00     0.039 A 
ATOM     16  C   UNL     1      46.670  44.788  36.319  1.00  0.00     0.013 A 
ATOM     17  C   UNL     1      47.284  42.952  34.723  1.00  0.00     0.045 C 
ATOM     18  C   UNL     1      46.083  45.300  37.494  1.00  0.00    -0.006 A 
ATOM     19  C   UNL     1      44.792  44.891  39.548  1.00  0.00     0.072 A 
ATOM     20  C   UNL     1      46.125  46.698  37.805  1.00  0.00     0.008 A 
ATOM     21  C   UNL     1      44.889  46.254  39.873  1.00  0.00     0.169 A 
ATOM     22  C   UNL     1      45.613  47.133  39.051  1.00  0.00     0.162 A 
BRANCH  13  23
ATOM     23  O   UNL     1      45.127  42.057  39.095  1.00  0.00    -0.507 OA
ATOM     24  H   UNL     1      45.295  42.157  40.087  1.00  0.00     0.293 HD
ENDBRANCH  13  23
BRANCH  19  25
ATOM     25  C   UNL     1      43.891  44.047  40.371  1.00  0.00     0.264 C 
ATOM     26  O   UNL     1      42.774  44.476  40.763  1.00  0.00    -0.298 OA
ENDBRANCH  19  25
BRANCH  20  27
ATOM     27  C   UNL     1      46.740  47.766  36.877  1.00  0.00     0.017 C 
ATOM     28  C   UNL     1      48.250  47.565  36.687  1.00  0.00     0.012 C 
ATOM     29  C   UNL     1      45.979  47.961  35.548  1.00  0.00     0.012 C 
ENDBRANCH  20  27
BRANCH  21  30
ATOM     30  O   UNL     1      44.210  46.723  41.005  1.00  0.00    -0.504 OA
ATOM     31  H   UNL     1      43.483  46.209  41.484  1.00  0.00     0.293 HD
ENDBRANCH  21  30
BRANCH  22  32
ATOM     32  O   UNL     1      45.840  48.454  39.456  1.00  0.00    -0.504 OA
ATOM     33  H   UNL     1      45.109  49.106  39.702  1.00  0.00     0.293 HD
ENDBRANCH  22  32
ENDBRANCH  11  12
BRANCH  10  34
ATOM     34  O   UNL     1      43.739  41.080  36.296  1.00  0.00    -0.507 OA
ATOM     35  H   UNL     1      43.639  41.999  35.884  1.00  0.00     0.293 HD
ENDBRANCH  10  34
BRANCH   9  36
ATOM     36  C   UNL     1      47.547  36.046  36.166  1.00  0.00     0.017 C 
ATOM     37  C   UNL     1      48.286  36.576  37.400  1.00  0.00     0.012 C 
ATOM     38  C   UNL     1      48.488  35.950  34.950  1.00  0.00     0.012 C 
ENDBRANCH   9  36
BRANCH   6  39
ATOM     39  C   UNL     1      42.449  38.857  35.737  1.00  0.00     0.264 C 
ATOM     40  O   UNL     1      41.573  38.500  34.906  1.00  0.00    -0.298 OA
ENDBRANCH   6  39
BRANCH   8  41
ATOM     41  O   UNL     1      45.190  34.883  34.988  1.00  0.00    -0.504 OA
ATOM     42  H   UNL     1      46.053  34.353  34.985  1.00  0.00     0.293 HD
ENDBRANCH   8  41
BRANCH   7  43
ATOM     43  O   UNL     1      42.755  36.129  34.999  1.00  0.00    -0.504 OA
ATOM     44  H   UNL     1      42.794  35.250  34.501  1.00  0.00     0.293 HD
ENDBRANCH   7  43
TORSDOF 11
ENDMDL
MODEL 9
REMARK VINA RESULT:    -5.020      2.281      3.570
REMARK INTER + INTRA:          -8.448
REMARK INTER:                  -7.696
REMARK INTRA:                  -0.752
REMARK UNBOUND:                -1.080
REMARK SMILES Cc1cc2c(C(C)C)c(O)c(O)c(C=O)c2c(O)c1-c1c(C)cc2c(C(C)C)c(O)c(O)c(C=O)c2c1O
REMARK SMILES IDX 1 1 2 2 3 3 4 4 16 5 13 6 11 7 9 8 5 9 17 10 19 11 20 12
REMARK SMILES IDX 37 13 21 14 36 15 23 16 22 17 24 18 33 19 25 20 31 21 29 22
REMARK SMILES IDX 38 23 34 25 35 26 26 27 27 28 28 29 32 30 30 32 18 34 6 36
REMARK SMILES IDX 7 37 8 38 14 39 15 40 10 41 12 43
REMARK H PARENT 38 24 32 31 30 33 18 35 10 42 12 44
REMARK Flexibility Score: inf
ROOT
ATOM      1  C   UNL     1      50.121  44.845  36.024  1.00  0.00     0.045 C 
ATOM      2  C   UNL     1      48.929  45.674  36.435  1.00  0.00    -0.039 A 
ATOM      3  C   UNL     1      49.040  47.064  36.465  1.00  0.00     0.013 A 
ATOM      4  C   UNL     1      47.954  47.894  36.823  1.00  0.00    -0.006 A 
ATOM      5  C   UNL     1      46.744  47.283  37.279  1.00  0.00     0.039 A 
ATOM      6  C   UNL     1      45.693  48.120  37.766  1.00  0.00     0.072 A 
ATOM      7  C   UNL     1      45.888  49.513  37.855  1.00  0.00     0.169 A 
ATOM      8  C   UNL     1      47.074  50.096  37.402  1.00  0.00     0.162 A 
ATOM      9  C   UNL     1      48.068  49.316  36.774  1.00  0.00     0.008 A 
ATOM     10  C   UNL     1      46.645  45.857  37.271  1.00  0.00     0.132 A 
ATOM     11  C   UNL     1      47.726  45.067  36.823  1.00  0.00     0.031 A 
ENDROOT
BRANCH  11  12
ATOM     12  C   UNL     1      47.607  43.584  36.794  1.00  0.00     0.031 A 
ATOM     13  C   UNL     1      48.197  42.805  37.810  1.00  0.00     0.132 A 
ATOM     14  C   UNL     1      46.889  42.964  35.762  1.00  0.00    -0.039 A 
ATOM     15  C   UNL     1      48.138  41.381  37.754  1.00  0.00     0.039 A 
ATOM     16  C   UNL     1      46.731  41.576  35.772  1.00  0.00     0.013 A 
ATOM     17  C   UNL     1      46.220  43.777  34.680  1.00  0.00     0.045 C 
ATOM     18  C   UNL     1      47.341  40.757  36.744  1.00  0.00    -0.006 A 
ATOM     19  C   UNL     1      48.825  40.562  38.696  1.00  0.00     0.072 A 
ATOM     20  C   UNL     1      47.157  39.336  36.749  1.00  0.00     0.008 A 
ATOM     21  C   UNL     1      48.592  39.178  38.728  1.00  0.00     0.169 A 
ATOM     22  C   UNL     1      47.707  38.583  37.813  1.00  0.00     0.162 A 
BRANCH  13  23
ATOM     23  O   UNL     1      48.797  43.445  38.901  1.00  0.00    -0.507 OA
ATOM     24  H   UNL     1      48.284  43.951  39.611  1.00  0.00     0.293 HD
ENDBRANCH  13  23
BRANCH  19  25
ATOM     25  C   UNL     1      49.881  41.105  39.587  1.00  0.00     0.264 C 
ATOM     26  O   UNL     1      49.855  40.901  40.829  1.00  0.00    -0.298 OA
ENDBRANCH  19  25
BRANCH  20  27
ATOM     27  C   UNL     1      46.350  38.571  35.680  1.00  0.00     0.017 C 
ATOM     28  C   UNL     1      47.156  37.420  35.062  1.00  0.00     0.012 C 
ATOM     29  C   UNL     1      44.938  38.148  36.139  1.00  0.00     0.012 C 
ENDBRANCH  20  27
BRANCH  21  30
ATOM     30  O   UNL     1      49.295  38.401  39.658  1.00  0.00    -0.504 OA
ATOM     31  H   UNL     1      49.894  37.625  39.411  1.00  0.00     0.293 HD
ENDBRANCH  21  30
BRANCH  22  32
ATOM     32  O   UNL     1      47.356  37.234  37.945  1.00  0.00    -0.504 OA
ATOM     33  H   UNL     1      46.406  36.890  37.926  1.00  0.00     0.293 HD
ENDBRANCH  22  32
ENDBRANCH  11  12
BRANCH  10  34
ATOM     34  O   UNL     1      45.484  45.223  37.727  1.00  0.00    -0.507 OA
ATOM     35  H   UNL     1      44.756  44.868  37.120  1.00  0.00     0.293 HD
ENDBRANCH  10  34
BRANCH   9  36
ATOM     36  C   UNL     1      49.249  50.012  36.071  1.00  0.00     0.017 C 
ATOM     37  C   UNL     1      50.125  50.759  37.083  1.00  0.00     0.012 C 
ATOM     38  C   UNL     1      48.827  50.932  34.910  1.00  0.00     0.012 C 
ENDBRANCH   9  36
BRANCH   6  39
ATOM     39  C   UNL     1      44.392  47.569  38.197  1.00  0.00     0.264 C 
ATOM     40  O   UNL     1      43.790  48.052  39.191  1.00  0.00    -0.298 OA
ENDBRANCH   6  39
BRANCH   8  41
ATOM     41  O   UNL     1      47.269  51.469  37.571  1.00  0.00    -0.504 OA
ATOM     42  H   UNL     1      46.889  51.988  38.353  1.00  0.00     0.293 HD
ENDBRANCH   8  41
BRANCH   7  43
ATOM     43  O   UNL     1      44.896  50.362  38.364  1.00  0.00    -0.504 OA
ATOM     44  H   UNL     1      44.312  50.959  37.794  1.00  0.00     0.293 HD
ENDBRANCH   7  43
TORSDOF 11
ENDMDL
