MODEL 1
REMARK VINA RESULT:    -5.571      0.000      0.000
REMARK INTER + INTRA:          -6.621
REMARK INTER:                  -6.711
REMARK INTRA:                   0.090
REMARK UNBOUND:                 0.090
REMARK SMILES O=c1c(O)c(-c2ccc(O)c(O)c2)oc2cc(O)cc(O)c12
REMARK SMILES IDX 5 1 3 2 2 3 1 4 22 5 20 6 19 7 17 8 16 9 15 10 14 11 6 12
REMARK SMILES IDX 7 13 8 14 9 15 13 16 11 17 10 18 12 20 4 22 21 24 18 26
REMARK H PARENT 10 19 12 21 4 23 21 25 18 27
REMARK Flexibility Score: inf
ROOT
ATOM      1  C   UNL     1      78.921  -6.052  27.827  1.00  0.00     0.180 A 
ATOM      2  C   UNL     1      78.204  -6.935  28.658  1.00  0.00     0.208 A 
ATOM      3  C   UNL     1      77.490  -7.991  28.071  1.00  0.00     0.238 A 
ATOM      4  O   UNL     1      76.835  -8.781  28.803  1.00  0.00    -0.285 OA
ATOM      5  C   UNL     1      77.521  -8.159  26.671  1.00  0.00     0.111 A 
ATOM      6  C   UNL     1      76.833  -9.199  26.000  1.00  0.00     0.134 A 
ATOM      7  C   UNL     1      76.921  -9.305  24.605  1.00  0.00     0.093 A 
ATOM      8  C   UNL     1      77.682  -8.394  23.867  1.00  0.00     0.123 A 
ATOM      9  C   UNL     1      78.364  -7.364  24.524  1.00  0.00     0.094 A 
ATOM     10  C   UNL     1      78.287  -7.241  25.914  1.00  0.00     0.146 A 
ATOM     11  O   UNL     1      78.939  -6.251  26.512  1.00  0.00    -0.452 OA
ENDROOT
BRANCH   1  12
ATOM     12  C   UNL     1      79.683  -4.904  28.370  1.00  0.00     0.025 A 
ATOM     13  C   UNL     1      81.003  -4.644  27.965  1.00  0.00     0.016 A 
ATOM     14  C   UNL     1      81.710  -3.569  28.510  1.00  0.00     0.051 A 
ATOM     15  C   UNL     1      81.117  -2.748  29.474  1.00  0.00     0.157 A 
ATOM     16  C   UNL     1      79.097  -4.091  29.354  1.00  0.00     0.062 A 
ATOM     17  C   UNL     1      79.806  -3.011  29.902  1.00  0.00     0.158 A 
BRANCH  15  18
ATOM     18  O   UNL     1      81.848  -1.682  29.998  1.00  0.00    -0.504 OA
ATOM     19  H   UNL     1      82.346  -1.028  29.405  1.00  0.00     0.293 HD
ENDBRANCH  15  18
BRANCH  17  20
ATOM     20  O   UNL     1      79.211  -2.202  30.868  1.00  0.00    -0.504 OA
ATOM     21  H   UNL     1      78.403  -1.628  30.657  1.00  0.00     0.293 HD
ENDBRANCH  17  20
ENDBRANCH   1  12
BRANCH   2  22
ATOM     22  O   UNL     1      78.229  -6.776  30.046  1.00  0.00    -0.502 OA
ATOM     23  H   UNL     1      79.092  -6.665  30.564  1.00  0.00     0.293 HD
ENDBRANCH   2  22
BRANCH   6  24
ATOM     24  O   UNL     1      76.065 -10.125  26.708  1.00  0.00    -0.507 OA
ATOM     25  H   UNL     1      75.297  -9.836  27.303  1.00  0.00     0.293 HD
ENDBRANCH   6  24
BRANCH   8  26
ATOM     26  O   UNL     1      77.754  -8.522  22.482  1.00  0.00    -0.508 OA
ATOM     27  H   UNL     1      78.157  -9.343  22.046  1.00  0.00     0.293 HD
ENDBRANCH   8  26
TORSDOF 6
ENDMDL
MODEL 2
REMARK VINA RESULT:    -5.503      1.385      3.002
REMARK INTER + INTRA:          -6.539
REMARK INTER:                  -6.594
REMARK INTRA:                   0.055
REMARK UNBOUND:                 0.090
REMARK SMILES O=c1c(O)c(-c2ccc(O)c(O)c2)oc2cc(O)cc(O)c12
REMARK SMILES IDX 5 1 3 2 2 3 1 4 22 5 20 6 19 7 17 8 16 9 15 10 14 11 6 12
REMARK SMILES IDX 7 13 8 14 9 15 13 16 11 17 10 18 12 20 4 22 21 24 18 26
REMARK H PARENT 10 19 12 21 4 23 21 25 18 27
REMARK Flexibility Score: inf
ROOT
ATOM      1  C   UNL     1      79.159  -5.541  28.083  1.00  0.00     0.180 A 
ATOM      2  C   UNL     1      79.201  -5.751  26.691  1.00  0.00     0.208 A 
ATOM      3  C   UNL     1      78.514  -6.848  26.149  1.00  0.00     0.238 A 
ATOM      4  O   UNL     1      78.553  -7.053  24.906  1.00  0.00    -0.285 OA
ATOM      5  C   UNL     1      77.783  -7.702  27.001  1.00  0.00     0.111 A 
ATOM      6  C   UNL     1      77.061  -8.828  26.536  1.00  0.00     0.134 A 
ATOM      7  C   UNL     1      76.351  -9.623  27.447  1.00  0.00     0.093 A 
ATOM      8  C   UNL     1      76.348  -9.318  28.810  1.00  0.00     0.123 A 
ATOM      9  C   UNL     1      77.060  -8.208  29.276  1.00  0.00     0.094 A 
ATOM     10  C   UNL     1      77.775  -7.403  28.384  1.00  0.00     0.146 A 
ATOM     11  O   UNL     1      78.448  -6.358  28.853  1.00  0.00    -0.452 OA
ENDROOT
BRANCH   1  12
ATOM     12  C   UNL     1      79.873  -4.416  28.731  1.00  0.00     0.025 A 
ATOM     13  C   UNL     1      81.192  -4.085  28.375  1.00  0.00     0.016 A 
ATOM     14  C   UNL     1      81.854  -3.035  29.017  1.00  0.00     0.051 A 
ATOM     15  C   UNL     1      81.217  -2.311  30.030  1.00  0.00     0.157 A 
ATOM     16  C   UNL     1      79.244  -3.702  29.762  1.00  0.00     0.062 A 
ATOM     17  C   UNL     1      79.907  -2.647  30.408  1.00  0.00     0.158 A 
BRANCH  15  18
ATOM     18  O   UNL     1      81.903  -1.267  30.651  1.00  0.00    -0.504 OA
ATOM     19  H   UNL     1      82.827  -1.391  31.046  1.00  0.00     0.293 HD
ENDBRANCH  15  18
BRANCH  17  20
ATOM     20  O   UNL     1      79.269  -1.935  31.422  1.00  0.00    -0.504 OA
ATOM     21  H   UNL     1      79.339  -0.926  31.489  1.00  0.00     0.293 HD
ENDBRANCH  17  20
ENDBRANCH   1  12
BRANCH   2  22
ATOM     22  O   UNL     1      79.891  -4.862  25.863  1.00  0.00    -0.502 OA
ATOM     23  H   UNL     1      80.902  -4.837  25.816  1.00  0.00     0.293 HD
ENDBRANCH   2  22
BRANCH   6  24
ATOM     24  O   UNL     1      77.043  -9.159  25.181  1.00  0.00    -0.507 OA
ATOM     25  H   UNL     1      76.949 -10.119  24.868  1.00  0.00     0.293 HD
ENDBRANCH   6  24
BRANCH   8  26
ATOM     26  O   UNL     1      75.633 -10.124  29.693  1.00  0.00    -0.508 OA
ATOM     27  H   UNL     1      75.430 -11.093  29.478  1.00  0.00     0.293 HD
ENDBRANCH   8  26
TORSDOF 6
ENDMDL
MODEL 3
REMARK VINA RESULT:    -4.940      1.591      6.915
REMARK INTER + INTRA:          -5.861
REMARK INTER:                  -5.813
REMARK INTRA:                  -0.048
REMARK UNBOUND:                 0.090
REMARK SMILES O=c1c(O)c(-c2ccc(O)c(O)c2)oc2cc(O)cc(O)c12
REMARK SMILES IDX 5 1 3 2 2 3 1 4 22 5 20 6 19 7 17 8 16 9 15 10 14 11 6 12
REMARK SMILES IDX 7 13 8 14 9 15 13 16 11 17 10 18 12 20 4 22 21 24 18 26
REMARK H PARENT 10 19 12 21 4 23 21 25 18 27
REMARK Flexibility Score: inf
ROOT
ATOM      1  C   UNL     1      77.983  -8.010  25.580  1.00  0.00     0.180 A 
ATOM      2  C   UNL     1      77.075  -8.499  26.540  1.00  0.00     0.208 A 
ATOM      3  C   UNL     1      77.105  -7.962  27.837  1.00  0.00     0.238 A 
ATOM      4  O   UNL     1      76.305  -8.400  28.708  1.00  0.00    -0.285 OA
ATOM      5  C   UNL     1      78.022  -6.937  28.146  1.00  0.00     0.111 A 
ATOM      6  C   UNL     1      78.115  -6.340  29.427  1.00  0.00     0.134 A 
ATOM      7  C   UNL     1      79.048  -5.318  29.652  1.00  0.00     0.093 A 
ATOM      8  C   UNL     1      79.889  -4.882  28.626  1.00  0.00     0.123 A 
ATOM      9  C   UNL     1      79.804  -5.468  27.359  1.00  0.00     0.094 A 
ATOM     10  C   UNL     1      78.881  -6.489  27.115  1.00  0.00     0.146 A 
ATOM     11  O   UNL     1      78.824  -7.032  25.904  1.00  0.00    -0.452 OA
ENDROOT
BRANCH   1  12
ATOM     12  C   UNL     1      78.026  -8.538  24.197  1.00  0.00     0.025 A 
ATOM     13  C   UNL     1      76.877  -8.566  23.389  1.00  0.00     0.016 A 
ATOM     14  C   UNL     1      76.935  -9.092  22.096  1.00  0.00     0.051 A 
ATOM     15  C   UNL     1      78.135  -9.609  21.596  1.00  0.00     0.157 A 
ATOM     16  C   UNL     1      79.224  -9.077  23.701  1.00  0.00     0.062 A 
ATOM     17  C   UNL     1      79.285  -9.605  22.402  1.00  0.00     0.158 A 
BRANCH  15  18
ATOM     18  O   UNL     1      78.163 -10.125  20.301  1.00  0.00    -0.504 OA
ATOM     19  H   UNL     1      78.964 -10.631  19.941  1.00  0.00     0.293 HD
ENDBRANCH  15  18
BRANCH  17  20
ATOM     20  O   UNL     1      80.482 -10.125  21.914  1.00  0.00    -0.504 OA
ATOM     21  H   UNL     1      81.195  -9.529  21.509  1.00  0.00     0.293 HD
ENDBRANCH  17  20
ENDBRANCH   1  12
BRANCH   2  22
ATOM     22  O   UNL     1      76.143  -9.480  26.195  1.00  0.00    -0.502 OA
ATOM     23  H   UNL     1      75.280  -9.264  25.712  1.00  0.00     0.293 HD
ENDBRANCH   2  22
BRANCH   6  24
ATOM     24  O   UNL     1      77.287  -6.753  30.472  1.00  0.00    -0.507 OA
ATOM     25  H   UNL     1      76.747  -6.091  31.017  1.00  0.00     0.293 HD
ENDBRANCH   6  24
BRANCH   8  26
ATOM     26  O   UNL     1      80.807  -3.864  28.877  1.00  0.00    -0.508 OA
ATOM     27  H   UNL     1      81.119  -3.652  29.818  1.00  0.00     0.293 HD
ENDBRANCH   8  26
TORSDOF 6
ENDMDL
MODEL 4
REMARK VINA RESULT:    -4.882      1.539      6.810
REMARK INTER + INTRA:          -5.791
REMARK INTER:                  -5.609
REMARK INTRA:                  -0.182
REMARK UNBOUND:                 0.090
REMARK SMILES O=c1c(O)c(-c2ccc(O)c(O)c2)oc2cc(O)cc(O)c12
REMARK SMILES IDX 5 1 3 2 2 3 1 4 22 5 20 6 19 7 17 8 16 9 15 10 14 11 6 12
REMARK SMILES IDX 7 13 8 14 9 15 13 16 11 17 10 18 12 20 4 22 21 24 18 26
REMARK H PARENT 10 19 12 21 4 23 21 25 18 27
REMARK Flexibility Score: inf
ROOT
ATOM      1  C   UNL     1      78.267  -8.102  25.688  1.00  0.00     0.180 A 
ATOM      2  C   UNL     1      77.264  -8.539  26.576  1.00  0.00     0.208 A 
ATOM      3  C   UNL     1      77.212  -7.986  27.865  1.00  0.00     0.238 A 
ATOM      4  O   UNL     1      76.326  -8.377  28.673  1.00  0.00    -0.285 OA
ATOM      5  C   UNL     1      78.144  -6.996  28.237  1.00  0.00     0.111 A 
ATOM      6  C   UNL     1      78.159  -6.386  29.516  1.00  0.00     0.134 A 
ATOM      7  C   UNL     1      79.114  -5.402  29.806  1.00  0.00     0.093 A 
ATOM      8  C   UNL     1      80.054  -5.015  28.847  1.00  0.00     0.123 A 
ATOM      9  C   UNL     1      80.046  -5.615  27.583  1.00  0.00     0.094 A 
ATOM     10  C   UNL     1      79.103  -6.599  27.275  1.00  0.00     0.146 A 
ATOM     11  O   UNL     1      79.120  -7.156  26.070  1.00  0.00    -0.452 OA
ENDROOT
BRANCH   1  12
ATOM     12  C   UNL     1      78.398  -8.650  24.319  1.00  0.00     0.025 A 
ATOM     13  C   UNL     1      79.526  -9.395  23.934  1.00  0.00     0.016 A 
ATOM     14  C   UNL     1      79.639  -9.882  22.629  1.00  0.00     0.051 A 
ATOM     15  C   UNL     1      78.638  -9.622  21.688  1.00  0.00     0.157 A 
ATOM     16  C   UNL     1      77.405  -8.372  23.366  1.00  0.00     0.062 A 
ATOM     17  C   UNL     1      77.517  -8.861  22.055  1.00  0.00     0.158 A 
BRANCH  15  18
ATOM     18  O   UNL     1      78.779 -10.123  20.394  1.00  0.00    -0.504 OA
ATOM     19  H   UNL     1      78.642 -11.103  20.178  1.00  0.00     0.293 HD
ENDBRANCH  15  18
BRANCH  17  20
ATOM     20  O   UNL     1      76.519  -8.591  21.120  1.00  0.00    -0.504 OA
ATOM     21  H   UNL     1      75.569  -8.379  21.403  1.00  0.00     0.293 HD
ENDBRANCH  17  20
ENDBRANCH   1  12
BRANCH   2  22
ATOM     22  O   UNL     1      76.321  -9.485  26.167  1.00  0.00    -0.502 OA
ATOM     23  H   UNL     1      76.427 -10.023  25.316  1.00  0.00     0.293 HD
ENDBRANCH   2  22
BRANCH   6  24
ATOM     24  O   UNL     1      77.233  -6.750  30.494  1.00  0.00    -0.507 OA
ATOM     25  H   UNL     1      76.234  -6.695  30.329  1.00  0.00     0.293 HD
ENDBRANCH   6  24
BRANCH   8  26
ATOM     26  O   UNL     1      80.992  -4.034  29.161  1.00  0.00    -0.508 OA
ATOM     27  H   UNL     1      81.930  -4.058  28.782  1.00  0.00     0.293 HD
ENDBRANCH   8  26
TORSDOF 6
ENDMDL
MODEL 5
REMARK VINA RESULT:    -4.770      4.766      6.287
REMARK INTER + INTRA:          -5.656
REMARK INTER:                  -5.415
REMARK INTRA:                  -0.241
REMARK UNBOUND:                 0.090
REMARK SMILES O=c1c(O)c(-c2ccc(O)c(O)c2)oc2cc(O)cc(O)c12
REMARK SMILES IDX 5 1 3 2 2 3 1 4 22 5 20 6 19 7 17 8 16 9 15 10 14 11 6 12
REMARK SMILES IDX 7 13 8 14 9 15 13 16 11 17 10 18 12 20 4 22 21 24 18 26
REMARK H PARENT 10 19 12 21 4 23 21 25 18 27
REMARK Flexibility Score: inf
ROOT
ATOM      1  C   UNL     1      81.260  -8.795  29.054  1.00  0.00     0.180 A 
ATOM      2  C   UNL     1      82.205  -9.274  29.984  1.00  0.00     0.208 A 
ATOM      3  C   UNL     1      83.504  -9.566  29.541  1.00  0.00     0.238 A 
ATOM      4  O   UNL     1      84.355 -10.005  30.361  1.00  0.00    -0.285 OA
ATOM      5  C   UNL     1      83.843  -9.358  28.188  1.00  0.00     0.111 A 
ATOM      6  C   UNL     1      85.130  -9.624  27.662  1.00  0.00     0.134 A 
ATOM      7  C   UNL     1      85.391  -9.381  26.306  1.00  0.00     0.093 A 
ATOM      8  C   UNL     1      84.394  -8.879  25.466  1.00  0.00     0.123 A 
ATOM      9  C   UNL     1      83.120  -8.615  25.980  1.00  0.00     0.094 A 
ATOM     10  C   UNL     1      82.839  -8.852  27.328  1.00  0.00     0.146 A 
ATOM     11  O   UNL     1      81.620  -8.597  27.790  1.00  0.00    -0.452 OA
ENDROOT
BRANCH   1  12
ATOM     12  C   UNL     1      79.865  -8.482  29.441  1.00  0.00     0.025 A 
ATOM     13  C   UNL     1      78.956  -9.497  29.784  1.00  0.00     0.016 A 
ATOM     14  C   UNL     1      77.638  -9.179  30.122  1.00  0.00     0.051 A 
ATOM     15  C   UNL     1      77.205  -7.849  30.109  1.00  0.00     0.157 A 
ATOM     16  C   UNL     1      79.422  -7.150  29.408  1.00  0.00     0.062 A 
ATOM     17  C   UNL     1      78.099  -6.829  29.747  1.00  0.00     0.158 A 
BRANCH  15  18
ATOM     18  O   UNL     1      75.884  -7.563  30.452  1.00  0.00    -0.504 OA
ATOM     19  H   UNL     1      75.149  -8.259  30.392  1.00  0.00     0.293 HD
ENDBRANCH  15  18
BRANCH  17  20
ATOM     20  O   UNL     1      77.673  -5.502  29.724  1.00  0.00    -0.504 OA
ATOM     21  H   UNL     1      76.764  -5.229  30.082  1.00  0.00     0.293 HD
ENDBRANCH  17  20
ENDBRANCH   1  12
BRANCH   2  22
ATOM     22  O   UNL     1      81.858  -9.424  31.328  1.00  0.00    -0.502 OA
ATOM     23  H   UNL     1      82.165  -8.778  32.044  1.00  0.00     0.293 HD
ENDBRANCH   2  22
BRANCH   6  24
ATOM     24  O   UNL     1      86.148 -10.125  28.475  1.00  0.00    -0.507 OA
ATOM     25  H   UNL     1      86.869 -10.737  28.109  1.00  0.00     0.293 HD
ENDBRANCH   6  24
BRANCH   8  26
ATOM     26  O   UNL     1      84.680  -8.646  24.123  1.00  0.00    -0.508 OA
ATOM     27  H   UNL     1      85.126  -7.789  23.817  1.00  0.00     0.293 HD
ENDBRANCH   8  26
TORSDOF 6
ENDMDL
MODEL 6
REMARK VINA RESULT:    -4.709      4.368      6.586
REMARK INTER + INTRA:          -5.582
REMARK INTER:                  -5.251
REMARK INTRA:                  -0.331
REMARK UNBOUND:                 0.090
REMARK SMILES O=c1c(O)c(-c2ccc(O)c(O)c2)oc2cc(O)cc(O)c12
REMARK SMILES IDX 5 1 3 2 2 3 1 4 22 5 20 6 19 7 17 8 16 9 15 10 14 11 6 12
REMARK SMILES IDX 7 13 8 14 9 15 13 16 11 17 10 18 12 20 4 22 21 24 18 26
REMARK H PARENT 10 19 12 21 4 23 21 25 18 27
REMARK Flexibility Score: inf
ROOT
ATOM      1  C   UNL     1      80.197  -9.056  27.727  1.00  0.00     0.180 A 
ATOM      2  C   UNL     1      80.238  -9.153  29.132  1.00  0.00     0.208 A 
ATOM      3  C   UNL     1      81.458  -9.458  29.756  1.00  0.00     0.238 A 
ATOM      4  O   UNL     1      81.505  -9.558  31.011  1.00  0.00    -0.285 OA
ATOM      5  C   UNL     1      82.615  -9.641  28.971  1.00  0.00     0.111 A 
ATOM      6  C   UNL     1      83.884  -9.948  29.521  1.00  0.00     0.134 A 
ATOM      7  C   UNL     1      84.990 -10.106  28.673  1.00  0.00     0.093 A 
ATOM      8  C   UNL     1      84.854  -9.964  27.290  1.00  0.00     0.123 A 
ATOM      9  C   UNL     1      83.604  -9.662  26.741  1.00  0.00     0.094 A 
ATOM     10  C   UNL     1      82.489  -9.502  27.569  1.00  0.00     0.146 A 
ATOM     11  O   UNL     1      81.312  -9.221  27.021  1.00  0.00    -0.452 OA
ENDROOT
BRANCH   1  12
ATOM     12  C   UNL     1      78.945  -8.756  26.995  1.00  0.00     0.025 A 
ATOM     13  C   UNL     1      78.066  -9.778  26.600  1.00  0.00     0.016 A 
ATOM     14  C   UNL     1      76.902  -9.473  25.889  1.00  0.00     0.051 A 
ATOM     15  C   UNL     1      76.606  -8.149  25.551  1.00  0.00     0.157 A 
ATOM     16  C   UNL     1      78.657  -7.430  26.636  1.00  0.00     0.062 A 
ATOM     17  C   UNL     1      77.488  -7.121  25.923  1.00  0.00     0.158 A 
BRANCH  15  18
ATOM     18  O   UNL     1      75.437  -7.875  24.843  1.00  0.00    -0.504 OA
ATOM     19  H   UNL     1      74.531  -7.837  25.295  1.00  0.00     0.293 HD
ENDBRANCH  15  18
BRANCH  17  20
ATOM     20  O   UNL     1      77.204  -5.800  25.583  1.00  0.00    -0.504 OA
ATOM     21  H   UNL     1      77.781  -5.283  24.929  1.00  0.00     0.293 HD
ENDBRANCH  17  20
ENDBRANCH   1  12
BRANCH   2  22
ATOM     22  O   UNL     1      79.088  -8.918  29.890  1.00  0.00    -0.502 OA
ATOM     23  H   UNL     1      78.170  -9.223  29.591  1.00  0.00     0.293 HD
ENDBRANCH   2  22
BRANCH   6  24
ATOM     24  O   UNL     1      84.052 -10.095  30.899  1.00  0.00    -0.507 OA
ATOM     25  H   UNL     1      84.922 -10.430  31.296  1.00  0.00     0.293 HD
ENDBRANCH   6  24
BRANCH   8  26
ATOM     26  O   UNL     1      85.970 -10.125  26.471  1.00  0.00    -0.508 OA
ATOM     27  H   UNL     1      86.453 -11.012  26.404  1.00  0.00     0.293 HD
ENDBRANCH   8  26
TORSDOF 6
ENDMDL
MODEL 7
REMARK VINA RESULT:    -4.676      4.936      7.365
REMARK INTER + INTRA:          -5.543
REMARK INTER:                  -5.232
REMARK INTRA:                  -0.311
REMARK UNBOUND:                 0.090
REMARK SMILES O=c1c(O)c(-c2ccc(O)c(O)c2)oc2cc(O)cc(O)c12
REMARK SMILES IDX 5 1 3 2 2 3 1 4 22 5 20 6 19 7 17 8 16 9 15 10 14 11 6 12
REMARK SMILES IDX 7 13 8 14 9 15 13 16 11 17 10 18 12 20 4 22 21 24 18 26
REMARK H PARENT 10 19 12 21 4 23 21 25 18 27
REMARK Flexibility Score: inf
ROOT
ATOM      1  C   UNL     1      81.444  -8.798  27.632  1.00  0.00     0.180 A 
ATOM      2  C   UNL     1      82.614  -8.985  26.869  1.00  0.00     0.208 A 
ATOM      3  C   UNL     1      83.798  -9.357  27.524  1.00  0.00     0.238 A 
ATOM      4  O   UNL     1      84.854  -9.517  26.854  1.00  0.00    -0.285 OA
ATOM      5  C   UNL     1      83.790  -9.554  28.920  1.00  0.00     0.111 A 
ATOM      6  C   UNL     1      84.940  -9.932  29.656  1.00  0.00     0.134 A 
ATOM      7  C   UNL     1      84.848 -10.118  31.043  1.00  0.00     0.093 A 
ATOM      8  C   UNL     1      83.633  -9.933  31.708  1.00  0.00     0.123 A 
ATOM      9  C   UNL     1      82.495  -9.559  30.988  1.00  0.00     0.094 A 
ATOM     10  C   UNL     1      82.566  -9.367  29.605  1.00  0.00     0.146 A 
ATOM     11  O   UNL     1      81.471  -9.007  28.945  1.00  0.00    -0.452 OA
ENDROOT
BRANCH   1  12
ATOM     12  C   UNL     1      80.161  -8.388  27.016  1.00  0.00     0.025 A 
ATOM     13  C   UNL     1      79.302  -9.327  26.421  1.00  0.00     0.016 A 
ATOM     14  C   UNL     1      78.108  -8.914  25.824  1.00  0.00     0.051 A 
ATOM     15  C   UNL     1      77.760  -7.560  25.802  1.00  0.00     0.157 A 
ATOM     16  C   UNL     1      79.820  -7.027  26.973  1.00  0.00     0.062 A 
ATOM     17  C   UNL     1      78.621  -6.609  26.375  1.00  0.00     0.158 A 
BRANCH  15  18
ATOM     18  O   UNL     1      76.561  -7.178  25.201  1.00  0.00    -0.504 OA
ATOM     19  H   UNL     1      76.536  -6.670  24.324  1.00  0.00     0.293 HD
ENDBRANCH  15  18
BRANCH  17  20
ATOM     20  O   UNL     1      78.285  -5.257  26.349  1.00  0.00    -0.504 OA
ATOM     21  H   UNL     1      77.457  -4.924  25.868  1.00  0.00     0.293 HD
ENDBRANCH  17  20
ENDBRANCH   1  12
BRANCH   2  22
ATOM     22  O   UNL     1      82.583  -8.832  25.481  1.00  0.00    -0.502 OA
ATOM     23  H   UNL     1      81.853  -8.316  25.008  1.00  0.00     0.293 HD
ENDBRANCH   2  22
BRANCH   6  24
ATOM     24  O   UNL     1      86.167 -10.125  29.020  1.00  0.00    -0.507 OA
ATOM     25  H   UNL     1      86.674  -9.356  28.596  1.00  0.00     0.293 HD
ENDBRANCH   6  24
BRANCH   8  26
ATOM     26  O   UNL     1      83.570 -10.125  33.087  1.00  0.00    -0.508 OA
ATOM     27  H   UNL     1      83.434  -9.349  33.724  1.00  0.00     0.293 HD
ENDBRANCH   8  26
TORSDOF 6
ENDMDL
MODEL 8
REMARK VINA RESULT:    -4.618      3.903      4.862
REMARK INTER + INTRA:          -5.472
REMARK INTER:                  -5.216
REMARK INTRA:                  -0.256
REMARK UNBOUND:                 0.090
REMARK SMILES O=c1c(O)c(-c2ccc(O)c(O)c2)oc2cc(O)cc(O)c12
REMARK SMILES IDX 5 1 3 2 2 3 1 4 22 5 20 6 19 7 17 8 16 9 15 10 14 11 6 12
REMARK SMILES IDX 7 13 8 14 9 15 13 16 11 17 10 18 12 20 4 22 21 24 18 26
REMARK H PARENT 10 19 12 21 4 23 21 25 18 27
REMARK Flexibility Score: inf
ROOT
ATOM      1  C   UNL     1      80.669  -8.743  26.394  1.00  0.00     0.180 A 
ATOM      2  C   UNL     1      79.733  -7.965  27.104  1.00  0.00     0.208 A 
ATOM      3  C   UNL     1      78.468  -7.743  26.539  1.00  0.00     0.238 A 
ATOM      4  O   UNL     1      77.626  -7.039  27.160  1.00  0.00    -0.285 OA
ATOM      5  C   UNL     1      78.152  -8.315  25.290  1.00  0.00     0.111 A 
ATOM      6  C   UNL     1      76.899  -8.142  24.653  1.00  0.00     0.134 A 
ATOM      7  C   UNL     1      76.659  -8.752  23.413  1.00  0.00     0.093 A 
ATOM      8  C   UNL     1      77.643  -9.529  22.798  1.00  0.00     0.123 A 
ATOM      9  C   UNL     1      78.884  -9.703  23.421  1.00  0.00     0.094 A 
ATOM     10  C   UNL     1      79.143  -9.102  24.656  1.00  0.00     0.146 A 
ATOM     11  O   UNL     1      80.330  -9.278  25.225  1.00  0.00    -0.452 OA
ENDROOT
BRANCH   1  12
ATOM     12  C   UNL     1      82.030  -9.007  26.915  1.00  0.00     0.025 A 
ATOM     13  C   UNL     1      82.247  -9.907  27.972  1.00  0.00     0.016 A 
ATOM     14  C   UNL     1      83.537 -10.122  28.463  1.00  0.00     0.051 A 
ATOM     15  C   UNL     1      84.626  -9.433  27.918  1.00  0.00     0.157 A 
ATOM     16  C   UNL     1      83.121  -8.301  26.383  1.00  0.00     0.062 A 
ATOM     17  C   UNL     1      84.418  -8.515  26.875  1.00  0.00     0.158 A 
BRANCH  15  18
ATOM     18  O   UNL     1      85.902  -9.670  28.428  1.00  0.00    -0.504 OA
ATOM     19  H   UNL     1      86.456 -10.468  28.142  1.00  0.00     0.293 HD
ENDBRANCH  15  18
BRANCH  17  20
ATOM     20  O   UNL     1      85.496  -7.820  26.332  1.00  0.00    -0.504 OA
ATOM     21  H   UNL     1      86.395  -8.265  26.180  1.00  0.00     0.293 HD
ENDBRANCH  17  20
ENDBRANCH   1  12
BRANCH   2  22
ATOM     22  O   UNL     1      80.054  -7.451  28.363  1.00  0.00    -0.502 OA
ATOM     23  H   UNL     1      79.382  -6.950  28.931  1.00  0.00     0.293 HD
ENDBRANCH   2  22
BRANCH   6  24
ATOM     24  O   UNL     1      75.895  -7.372  25.242  1.00  0.00    -0.507 OA
ATOM     25  H   UNL     1      75.852  -6.367  25.118  1.00  0.00     0.293 HD
ENDBRANCH   6  24
BRANCH   8  26
ATOM     26  O   UNL     1      77.378 -10.125  21.567  1.00  0.00    -0.508 OA
ATOM     27  H   UNL     1      77.854 -10.970  21.274  1.00  0.00     0.293 HD
ENDBRANCH   8  26
TORSDOF 6
ENDMDL
